#------------------------------------------------------------------------------
#$Date: 2021-02-05 01:04:31 +0200 (Fri, 05 Feb 2021) $
#$Revision: 261628 $
#$URL: file:///home/coder/svn-repositories/cod/cif/7/24/18/7241849.cif $
#------------------------------------------------------------------------------
#
# This file is available in the Crystallography Open Database (COD),
# http://www.crystallography.net/
#
# All data on this site have been placed in the public domain by the
# contributors.
#
data_7241849
loop_
_publ_author_name
'Gu\'nka, Piotr A.'
'Hanfland, Michael'
'Chen, Yu-Sheng'
'Zachara, Janusz'
_publ_section_title
;
 High-pressure and low-temperature structural study of claudetite I, a
 monoclinic layered As2O3 polymorph
;
_journal_issue                   3
_journal_name_full               CrystEngComm
_journal_page_first              638
_journal_page_last               644
_journal_paper_doi               10.1039/D0CE01401J
_journal_volume                  23
_journal_year                    2021
_chemical_formula_moiety         'As2 O3'
_chemical_formula_sum            'As2 O3'
_chemical_formula_weight         197.84
_chemical_name_common            'claudetite I'
_chemical_name_systematic
;
arsenic(III) oxide
;
_space_group_IT_number           14
_space_group_name_Hall           '-P 2yn'
_space_group_name_H-M_alt        'P 1 21/n 1'
_symmetry_cell_setting           monoclinic
_symmetry_space_group_name_H-M   'P 1 21/n 1'
_audit_creation_date             2020-10-21T14:10
_audit_creation_method           'created in GSAS-II'
_audit_update_record
;
2020-10-22 deposited with the CCDC.	2020-12-10 downloaded from the CCDC.
;
_cell_angle_alpha                90
_cell_angle_beta                 94.821(4)
_cell_angle_gamma                90
_cell_formula_units_Z            4
_cell_length_a                   4.5726(6)
_cell_length_b                   11.4835(9)
_cell_length_c                   4.0105(4)
_cell_measurement_pressure       2.98e7(5)
_cell_measurement_temperature    293
_cell_volume                     209.84(4)
_computing_data_reduction        Fit2D
_computing_structure_refinement
'GSAS-II (Toby & Von Dreele, J. Appl. Cryst. 46, 544-549, 2013)'
_diffrn_ambient_pressure         2.98e7(5)
_diffrn_ambient_temperature      293
_diffrn_detector                 'Mar555 flat panel'
_diffrn_detector_type            'Mar555 flat panel'
_diffrn_measurement_device_type  'ESRF ID09A beamline'
_diffrn_radiation_monochromator  Si
_diffrn_radiation_polarisn_ratio 0.9900
_diffrn_radiation_probe          x-ray
_diffrn_radiation_wavelength     0.41421
_diffrn_source                   'ESRF ID09A'
_diffrn_source_type              synchrotron
_exptl_crystal_colour            colourless
_exptl_crystal_density_diffrn    6.2622
_exptl_crystal_description       'white powder'
_pd_block_id                     2020-10-21T14:10|clau1_022rietveld||id09a
_pd_calc_method                  'Rietveld Refinement'
_pd_meas_number_of_points        4000
_pd_phase_name                   claudetiteI
_pd_prep_pressure                100.0(1)
_pd_prep_temperature             293
_pd_proc_info_datetime           2020-10-21T14:10
_pd_proc_ls_background_function
;
Background function: "chebyschev" function with 36 terms:
    766.4(10), 446.5(28), 100(11), 4096(18), -1.78(4)e3, -610580(22), 
    250029(23), 1.9643935(17)e7, -7.85815(4)e6, -3.17743806(8)e8, 
    1.39145235(19)e8, 3.107503937(17)e9, -1.506039008(18)e9, 
    -2.0116752030(20)e10, 1.049747135(4)e10, 9.1079941967(16)e10, 
    -4.958747496(4)e10, -2.98733616615(10)e11, 1.64960067436(29)e11, 
    7.25532807575(8)e11, -3.96148973046(11)e11, -1.320387406690(13)e12, 
    6.95542054556(20)e11, 1.806430135782(18)e12, -8.9415651509(4)e11, 
    -1.847735508477(20)e12, 8.3271917038(5)e11, 1.390792040927(19)e12, 
    -5.4701088897(4)e11, -7.47049458161(14)e11, 2.40400371117(24)e11, 
    2.70715010363(6)e11, -6.3444311316(19)e10, -5.9241595750(14)e10, 
    7.60353201(8)e9, 5.90560337(3)e9, 
;
_pd_proc_ls_pref_orient_corr
;
Simple spherical harmonic correction Order = 6
    Coefficients:  0:0:C(6,6) = -0.116(29); 0:0:C(4,4) = 0.151(24); 
    0:0:C(6,-2) = -0.14(3); 0:0:C(2,-2) = -0.043(21); 0:0:C(4,-4) = -0.373(23); 
    0:0:C(2,2) = 0.396(16); 0:0:C(4,0) = -0.081(22); 0:0:C(6,-6) = -0.190(31); 
    0:0:C(6,4) = -0.135(31); 0:0:C(4,2) = -0.104(22); 0:0:C(6,2) = 0.094(30); 
    0:0:C(6,-4) = 0.051(23); 0:0:C(6,0) = -0.183(31); 0:0:C(2,0) = -0.454(15); 
    0:0:C(4,-2) = 0.159(26); 
;
_pd_proc_ls_profile_function
;
Finger-Cox-Jephcoat function parameters U, V, W, X, Y, SH/L:
  peak variance(Gauss) = Utan(Th)^2^+Vtan(Th)+W:
  peak HW(Lorentz) = X/cos(Th)+Ytan(Th); SH/L = S/L+H/L
  U, V, W in (centideg)^2^, X & Y in centideg
    4.9(6)e3, -4.9(9)e2, 21(4), 3.8(5), -17(14), 0.002, 
  Crystallite size in microns with "isotropic" model:
  parameters: Size, G/L mix
    1.000, 1.000, 
  Microstrain, "isotropic" model (10^6^ * delta Q/Q)
    parameters: Mustrain, G/L mix
    1000.000, 1.000, 

;
_pd_proc_ls_prof_R_factor        0.00679
_pd_proc_ls_prof_wR_expected     0.03533
_pd_proc_ls_prof_wR_factor       0.01073
_refine_ls_goodness_of_fit_all   0.310
_refine_ls_matrix_type           full
_refine_ls_number_parameters     78
_refine_ls_R_Fsqd_factor         0.04561
_refine_ls_shift/su_max          0.0044
_refine_ls_wR_factor_obs         0.01074
_reflns_d_resolution_high        1.113
_reflns_d_resolution_low         5.742
_reflns_limit_h_max              4
_reflns_limit_h_min              0
_reflns_limit_k_max              10
_reflns_limit_k_min              0
_reflns_limit_l_max              3
_reflns_limit_l_min              -3
_reflns_number_total             161
_cod_data_source_file            d0ce01401j3.cif
_cod_data_source_block           clau1_022rietveld
_cod_depositor_comments
'Adding full bibliography for 7241824--7241862.cif.'
_cod_original_cell_volume        209.846(18)
_cod_database_code               7241849
_refine_ls_r_f_factor            0.02366
_gsas_proc_ls_prof_r_b_factor    0.01227
_gsas_proc_ls_prof_wr_b_factor   0.02328
loop_
_space_group_symop_id
_space_group_symop_operation_xyz
1 x,y,z
2 1/2-x,1/2+y,1/2-z
3 -x,-y,-z
4 1/2+x,1/2-y,1/2+z
loop_
_atom_site_label
_atom_site_type_symbol
_atom_site_fract_x
_atom_site_fract_y
_atom_site_fract_z
_atom_site_occupancy
_atom_site_adp_type
_atom_site_U_iso_or_equiv
_atom_site_symmetry_multiplicity
As1 As 0.2883(9) 0.0844(3) 0.0877(9) 1.000 Uiso 0.0161(19) 4
As2 As 0.3142(7) 0.3576(4) 0.0405(8) 1.000 Uiso 0.0161 4
O3 O 0.4788(19) 0.2188(4) 0.098(5) 1.000 Uiso 0.0161 4
O4 O 0.6570(24) 0.4236(16) 0.1598(17) 1.000 Uiso 0.0161 4
O5 O -0.0870(16) 0.1147(24) 0.1294(15) 1.000 Uiso 0.0161 4
loop_
_atom_type_symbol
_atom_type_number_in_cell
_atom_type_scat_Cromer_Mann_a1
_atom_type_scat_Cromer_Mann_a2
_atom_type_scat_Cromer_Mann_a3
_atom_type_scat_Cromer_Mann_a4
_atom_type_scat_Cromer_Mann_b1
_atom_type_scat_Cromer_Mann_b2
_atom_type_scat_Cromer_Mann_b3
_atom_type_scat_Cromer_Mann_b4
_atom_type_scat_Cromer_Mann_c
_atom_type_scat_length_neutron
_atom_type_scat_source
_atom_type_scat_dispersion_real
_atom_type_scat_dispersion_imag
_atom_type_scat_dispersion_source
As 8 16.6723 6.0701 3.4313 4.2779 2.6345 0.2647 12.9479 47.7972 2.531 0.658
https://subversion.xray.aps.anl.gov/pyGSAS/trunk/atmdata.py 0.283 0.775
https://subversion.xray.aps.anl.gov/pyGSAS/trunk/atmdata.py
O 12 3.0485 2.2868 1.5463 0.867 13.2771 5.7011 0.3239 32.9089 0.2508 0.5805
https://subversion.xray.aps.anl.gov/pyGSAS/trunk/atmdata.py 0.002 0.002
https://subversion.xray.aps.anl.gov/pyGSAS/trunk/atmdata.py
loop_
_geom_angle_atom_site_label_1
_geom_angle_atom_site_label_2
_geom_angle_atom_site_label_3
_geom_angle
_geom_angle_site_symmetry_1
_geom_angle_site_symmetry_2
_geom_angle_site_symmetry_3
_geom_angle_publ_flag
O3 As1 O4 101.2(10) 1_555 1_555 4_454 yes
O3 As1 O5 107.7(10) 1_555 1_555 1_555 yes
O4 As1 O5 81.4(4) 4_454 1_555 1_555 yes
O3 As2 O4 89.6(6) 1_555 1_555 1_555 yes
O3 As2 O5 98.3(13) 1_555 1_555 4_554 yes
O4 As2 O5 83.4(4) 1_555 1_555 4_554 yes
As1 O3 As2 125.4(5) 1_555 1_555 1_555 yes
As1 O4 As2 117.4(4) 4_555 1_555 1_555 yes
As1 O5 As2 116.5(4) 1_555 1_555 4_455 yes
loop_
_geom_bond_atom_site_label_1
_geom_bond_atom_site_label_2
_geom_bond_distance
_geom_bond_site_symmetry_1
_geom_bond_site_symmetry_2
_geom_bond_publ_flag
As1 O3 1.7711(30) 1_555 1_555 yes
As1 O4 1.7723(30) 1_555 4_454 yes
As1 O5 1.7727(30) 1_555 1_555 yes
As2 O3 1.7695(30) 1_555 1_555 yes
As2 O4 1.7707(31) 1_555 1_555 yes
As2 O5 1.7745(30) 1_555 4_554 yes
loop_
_pd_meas_2theta_scan
_pd_meas_intensity_total
_pd_calc_intensity_total
_pd_proc_intensity_bkg_calc
_pd_proc_ls_weight
0.00440 123.55812 0 0 0
0.01320 120.93942 0 0 0
0.02201 122.92802 0 0 0
0.03081 117.33517 0 0 0
0.03961 109.45241 0 0 0
0.04841 106.89235 0 0 0
0.05721 108.24887 0 0 0
0.06602 108.98679 0 0 0
0.07482 108.46229 0 0 0
0.08362 108.07855 0 0 0
0.09242 107.1226 0 0 0
0.10122 108.49148 0 0 0
0.11003 108.09016 0 0 0
0.11883 106.49725 0 0 0
0.12763 106.80907 0 0 0
0.13643 107.56809 0 0 0
0.14523 106.87467 0 0 0
0.15404 105.88436 0 0 0
0.16284 105.38555 0 0 0
0.17164 106.17921 0 0 0
0.18044 106.37264 0 0 0
0.18925 105.92779 0 0 0
0.19805 105.23566 0 0 0
0.20685 105.26104 0 0 0
0.21565 106.18977 0 0 0
0.22445 106.53265 0 0 0
0.23326 106.14673 0 0 0
0.24206 104.53188 0 0 0
0.25086 104.96959 0 0 0
0.25966 105.98267 0 0 0
0.26846 107.43164 0 0 0
0.27727 108.67992 0 0 0
0.28607 109.68424 0 0 0
0.29487 108.63837 0 0 0
0.30367 108.79155 0 0 0
0.31248 107.57991 0 0 0
0.32128 107.75385 0 0 0
0.33008 108.41134 0 0 0
0.33888 109.61581 0 0 0
0.34768 109.10374 0 0 0
0.35649 108.48344 0 0 0
0.36529 108.80511 0 0 0
0.37409 108.65018 0 0 0
0.38289 109.06806 0 0 0
0.39169 109.27916 0 0 0
0.40050 109.05614 0 0 0
0.40930 109.25861 0 0 0
0.41810 110.09598 0 0 0
0.42690 110.70638 0 0 0
0.43570 110.94786 0 0 0
0.44451 111.45959 0 0 0
0.45331 111.21628 0 0 0
0.46211 110.81545 0 0 0
0.47091 109.91901 0 0 0
0.47972 109.47006 0 0 0
0.48852 108.20916 0 0 0
0.49732 107.56028 0 0 0
0.50612 107.6401 0 0 0
0.51492 108.40923 0 0 0
0.52373 109.2906 0 0 0
0.53253 110.18373 0 0 0
0.54133 109.61496 0 0 0
0.55013 109.16758 0 0 0
0.55893 110.12597 0 0 0
0.56774 110.17021 0 0 0
0.57654 109.19323 0 0 0
0.58534 110.03387 0 0 0
0.59414 111.18174 0 0 0
0.60295 111.35846 0 0 0
0.61175 110.74066 0 0 0
0.62055 109.77939 0 0 0
0.62935 108.35408 0 0 0
0.63815 106.99469 0 0 0
0.64696 107.49648 0 0 0
0.65576 109.23294 0 0 0
0.66456 110.30535 0 0 0
0.67336 109.5407 0 0 0
0.68216 109.95036 0 0 0
0.69097 110.70779 0 0 0
0.69977 111.29282 0 0 0
0.70857 110.06356 0 0 0
0.71737 109.56662 0 0 0
0.72617 109.37945 0 0 0
0.73498 109.13495 0 0 0
0.74378 109.75466 0 0 0
0.75258 110.4618 0 0 0
0.76138 110.97642 0 0 0
0.77019 111.03584 0 0 0
0.77899 110.9129 0 0 0
0.78779 109.57475 0 0 0
0.79659 109.20807 0 0 0
0.80539 110.55334 0 0 0
0.81420 111.65931 0 0 0
0.82300 113.20338 0 0 0
0.83180 112.75336 0 0 0
0.84060 113.32253 0 0 0
0.84940 113.57771 0 0 0
0.85821 115.075 0 0 0
0.86701 116.4992 0 0 0
0.87581 119.12157 0 0 0
0.88461 119.24162 0 0 0
0.89342 118.98831 0 0 0
0.90222 119.59948 0 0 0
0.91102 120.10953 0 0 0
0.91982 119.88456 0 0 0
0.92862 120.62733 0 0 0
0.93743 120.58004 0 0 0
0.94623 124.31991 0 0 0
0.95503 127.48731 0 0 0
0.96383 132.57372 0 0 0
0.97263 134.1682 0 0 0
0.98144 133.2993 0 0 0
0.99024 134.01561 0 0 0
0.99904 137.70692 0 0 0
1.00784 141.84351 0 0 0
1.01664 145.82269 0 0 0
1.02545 149.64551 0 0 0
1.03425 157.8775 0 0 0
1.04305 164.4088 0 0 0
1.05185 170.86931 0 0 0
1.06066 175.90364 0 0 0
1.06946 188.45908 0 0 0
1.07826 195.15785 0 0 0
1.08706 199.60533 0 0 0
1.09586 204.03349 0 0 0
1.10467 211.1107 0 0 0
1.11347 218.04807 0 0 0
1.12227 221.79057 0 0 0
1.13107 225.61436 0 0 0
1.13987 230.18839 0 0 0
1.14868 234.26454 0 0 0
1.15748 238.69354 0 0 0
1.16628 241.51338 0 0 0
1.17508 243.52486 0 0 0
1.18389 245.8232 0 0 0
1.19269 248.57402 0 0 0
1.20149 250.47205 0 0 0
1.21029 252.60234 0 0 0
1.21909 254.61615 0 0 0
1.22790 255.754 0 0 0
1.23670 257.60425 0 0 0
1.24550 259.04099 0 0 0
1.25430 261.98984 0 0 0
1.26310 263.74042 0 0 0
1.27191 264.98615 0 0 0
1.28071 266.26486 0 0 0
1.28951 267.73206 0 0 0
1.29831 270.47867 0 0 0
1.30711 272.48117 0 0 0
1.31592 274.24692 0 0 0
1.32472 276.08127 0 0 0
1.33352 276.73511 0 0 0
1.34232 277.302 0 0 0
1.35113 279.64859 0 0 0
1.35993 281.12366 0 0 0
1.36873 281.66254 0 0 0
1.37753 282.19986 0 0 0
1.38633 283.96628 0 0 0
1.39514 284.85068 0 0 0
1.40394 285.53485 0 0 0
1.41274 287.52371 0 0 0
1.42154 290.12344 0 0 0
1.43034 290.83765 0 0 0
1.43915 290.80414 0 0 0
1.44795 290.88559 0 0 0
1.45675 292.03528 0 0 0
1.46555 293.90738 0 0 0
1.47436 294.73639 0 0 0
1.48316 295.63336 0 0 0
1.49196 297.05801 0 0 0
1.50076 298.3826 0 0 0
1.50956 299.80777 0 0 0
1.51837 301.75262 0 0 0
1.52717 301.90265 0 0 0
1.53597 302.11469 0 0 0
1.54477 302.79987 0 0 0
1.55357 304.64236 0 0 0
1.56238 305.95898 0 0 0
1.57118 306.44211 0 0 0
1.57998 306.58862 0 0 0
1.58878 308.19049 0 0 0
1.59758 308.41946 0 0 0
1.60639 308.45874 0 0 0
1.61519 309.07712 0 0 0
1.62399 311.04617 0 0 0
1.63279 312.96381 0 0 0
1.64160 314.31299 0 0 0
1.65040 314.15552 0 0 0
1.65920 312.94443 0 0 0
1.66800 313.72992 0 0 0
1.67680 316.04889 0 0 0
1.68561 317.58777 0 0 0
1.69441 317.94403 0 0 0
1.70321 318.06723 0 0 0
1.71201 318.95465 0 0 0
1.72081 319.56927 0 0 0
1.72962 320.23141 0 0 0
1.73842 319.89532 0 0 0
1.74722 320.03851 0 0 0
1.75602 321.15887 0 0 0
1.76483 322.81677 0 0 0
1.77363 322.99023 0 0 0
1.78243 322.93289 0 0 0
1.79123 323.75601 0 0 0
1.80003 325.21945 0 0 0
1.80884 326.52737 0 0 0
1.81764 326.88852 0 0 0
1.82644 325.88251 0 0 0
1.83524 325.8317 0 0 0
1.84404 327.25723 0 0 0
1.85285 329.95654 0 0 0
1.86165 331.23181 0 0 0
1.87045 331.13773 0 0 0
1.87925 331.35184 0 0 0
1.88805 331.17145 0 0 0
1.89686 331.54996 0 0 0
1.90566 331.77402 0 0 0
1.91446 332.58539 0 0 0
1.92326 333.51324 0 0 0
1.93207 333.89224 0 0 0
1.94087 334.75507 0 0 0
1.94967 335.5459 0 0 0
1.95847 335.53079 0 0 0
1.96727 336.26172 0 0 0
1.97608 338.08578 0 0 0
1.98488 339.987 0 0 0
1.99368 339.16565 0 0 0
2.00248 338.33774 0 0 0
2.01128 339.15186 0 0 0
2.02009 341.77048 0 0 0
2.02889 342.9368 0 0 0
2.03769 342.78476 0 0 0
2.04649 342.85684 0 0 0
2.05530 343.2905 0 0 0
2.06410 343.98456 0 0 0
2.07290 345.21323 0 0 0
2.08170 345.72415 0 0 0
2.09050 345.1503 0 0 0
2.09931 344.65332 0 0 0
2.10811 346.63181 0 0 0
2.11691 347.58997 0 0 0
2.12571 349.01376 0 0 0
2.13451 349.30554 0 0 0
2.14332 349.44675 0 0 0
2.15212 349.80606 0 0 0
2.16092 350.50558 0 0 0
2.16972 350.5365 0 0 0
2.17852 351.02676 0 0 0
2.18733 351.04956 0 0 0
2.19613 350.96774 0 0 0
2.20493 351.22208 0 0 0
2.21373 351.65326 0 0 0
2.22254 352.83603 0 0 0
2.23134 353.50357 0 0 0
2.24014 354.05829 0 0 0
2.24894 354.78058 0 0 0
2.25774 356.20605 0 0 0
2.26655 356.8172 0 0 0
2.27535 356.88358 0 0 0
2.28415 357.16159 0 0 0
2.29295 357.74939 0 0 0
2.30175 358.02927 0 0 0
2.31056 357.94992 0 0 0
2.31936 358.23019 0 0 0
2.32816 358.30545 0 0 0
2.33696 357.85931 0 0 0
2.34576 357.61591 0 0 0
2.35457 359.10736 0 0 0
2.36337 360.55173 0 0 0
2.37217 360.54086 0 0 0
2.38097 360.32031 0 0 0
2.38978 361.41177 0 0 0
2.39858 361.8494 0 0 0
2.40738 361.75861 0 0 0
2.41618 361.26474 0 0 0
2.42498 361.6409 0 0 0
2.43379 362.4939 0 0 0
2.44259 363.53647 0 0 0
2.45139 363.68698 0 0 0
2.46019 365.07208 0 0 0
2.46899 366.22043 0 0 0
2.47780 365.51779 0 0 0
2.48660 364.1777 0 0 0
2.49540 364.30347 0 0 0
2.50420 366.36545 0 0 0
2.51301 367.21112 0 0 0
2.52181 368.00946 0 0 0
2.53061 368.20297 0 0 0
2.53941 367.98801 0 0 0
2.54821 367.72696 0 0 0
2.55702 368.06479 0 0 0
2.56582 368.39249 0 0 0
2.57462 368.8519 0 0 0
2.58342 369.91156 0 0 0
2.59222 370.45007 0 0 0
2.60103 370.45523 0 0 0
2.60983 370.2814 0 0 0
2.61863 370.8537 0 0 0
2.62743 371.92194 0 0 0
2.63624 372.01144 0 0 0
2.64504 372.08722 0 0 0
2.65384 372.50247 0 0 0
2.66264 373.09836 0 0 0
2.67144 373.06079 0 0 0
2.68025 373.99829 0 0 0
2.68905 375.24313 0 0 0
2.69785 375.57312 0 0 0
2.70665 374.76337 0 0 0
2.71545 375.38739 0 0 0
2.72426 376.1723 0 0 0
2.73306 376.43173 0 0 0
2.74186 376.37943 0 0 0
2.75066 377.78748 0 0 0
2.75946 378.42441 0 0 0
2.76827 378.50864 0 0 0
2.77707 377.07449 0 0 0
2.78587 377.79294 0 0 0
2.79467 378.1481 0 0 0
2.80348 379.30728 0 0 0
2.81228 379.83392 0 0 0
2.82108 380.55316 0 0 0
2.82988 380.22522 0 0 0
2.83868 381.42203 0 0 0
2.84749 381.45258 0 0 0
2.85629 381.18805 0 0 0
2.86509 381.45239 0 0 0
2.87389 382.17755 385.487246 385.288692 0.002616585
2.88269 382.76813 383.865079 383.665675 0.002612548
2.89150 382.9874 382.816395 382.616134 0.002611052
2.90030 383.90112 382.228765 382.027637 0.002604837
2.90910 384.50302 382.00601 381.804007 0.00260076
2.91790 384.62671 382.06675 381.863863 0.002599923
2.92670 384.03043 382.342047 382.138268 0.00260396
2.93551 383.76251 382.774208 382.569527 0.002605778
2.94431 384.14862 383.314393 383.108801 0.002603159
2.95311 384.49548 383.923897 383.717384 0.002600811
2.96191 384.99768 384.569853 384.36241 0.002597418
2.97072 385.23749 385.227018 385.018634 0.002595801
2.97952 385.77429 385.875623 385.666288 0.002592189
2.98832 385.98196 386.499524 386.289229 0.002590795
2.99712 387.43375 387.088532 386.877266 0.002581086
3.00592 388.01917 387.634494 387.422246 0.002577192
3.01473 387.34183 388.132716 387.919474 0.002581699
3.02353 386.10687 388.580113 388.365866 0.002589957
3.03233 386.39105 388.977342 388.762078 0.002588052
3.04113 387.10245 389.324348 389.108055 0.002583295
3.04993 387.95758 389.624266 389.406932 0.002577601
3.05874 387.95551 389.880352 389.661965 0.002577615
3.06754 388.0098 390.096026 389.876573 0.002577254
3.07634 388.84918 390.276481 390.055949 0.002571691
3.08514 390.0675 390.425855 390.20423 0.002563659
3.09395 389.73386 390.549446 390.326714 0.002565854
3.10275 390.07617 390.652033 390.42818 0.002563602
3.11155 390.03629 390.738713 390.513724 0.002563864
3.12035 389.94839 390.813741 390.587602 0.002564442
3.12915 389.89911 390.88181 390.654505 0.002564766
3.13796 391.15668 390.946968 390.718481 0.00255652
3.14676 391.70831 391.014303 390.783762 0.00255292
3.15556 391.07611 391.084931 390.853173 0.002557047
3.16436 390.90408 391.162833 390.929841 0.002558172
3.17316 392.16776 391.250344 391.0161 0.002549929
3.18197 392.90045 391.350759 391.115245 0.002545174
3.19077 392.62875 391.465107 391.228303 0.002546935
3.19957 393.0228 391.594941 391.356829 0.002544382
3.20837 393.5477 391.741751 391.50231 0.002540988
3.21717 393.84457 391.906079 391.665288 0.002539073
3.22598 393.6824 392.088356 391.846195 0.002540119
3.23478 393.89404 392.289154 392.045601 0.002538754
3.24358 393.46426 392.507506 392.262537 0.002541527
3.25238 393.45313 392.743731 392.497323 0.002541599
3.26119 394.68457 392.997224 392.749352 0.002533669
3.26999 394.50427 393.266924 393.017565 0.002534827
3.27879 394.58807 393.552 393.301126 0.002534288
3.28759 394.75299 393.85136 393.598944 0.00253323
3.29639 395.19565 394.164075 393.91009 0.002530392
3.30520 394.75125 394.48828 394.232697 0.002533241
3.31400 395.04468 394.823033 394.565822 0.002531359
3.32280 395.49527 395.166788 394.907743 0.002528475
3.33160 395.80515 395.517982 395.257244 0.002526496
3.34040 396.25055 395.874989 395.612526 0.002523656
3.34921 396.61545 396.23676 395.972537 0.002521334
3.35801 396.74976 396.601492 396.335472 0.00252048
3.36681 397.81882 396.969038 396.699882 0.002513707
3.37561 398.10327 397.335597 397.064565 0.002511911
3.38442 397.7225 397.701347 397.428398 0.002514316
3.39322 398.50211 398.064829 397.789921 0.002509397
3.40202 398.98163 398.425302 398.147798 0.002506381
3.41082 398.34634 398.780655 398.5011 0.002510378
3.41962 397.63727 399.130434 398.848779 0.002514855
3.42843 397.88519 399.473812 399.190007 0.002513288
3.43723 398.34567 399.80983 399.523822 0.002510383
3.44603 398.68747 400.137975 399.849709 0.00250823
3.45483 399.29346 400.457689 400.167107 0.002504424
3.46363 399.55069 400.768196 400.475237 0.002502811
3.47244 399.88959 401.072496 400.773918 0.00250069
3.48124 399.68607 401.363724 401.062632 0.002501964
3.49004 400.40137 401.645566 401.341406 0.002497494
3.49884 401.34744 401.916702 401.609885 0.002491607
3.50764 402.40686 402.177815 401.868261 0.002485047
3.51645 402.54227 402.428901 402.116531 0.002484211
3.52525 402.34503 402.669872 402.354598 0.002485429
3.53405 402.28253 402.901388 402.58312 0.002485815
3.54285 402.21793 403.123394 402.802037 0.002486214
3.55166 401.7139 403.341502 403.011793 0.002489334
3.56046 401.89532 403.545937 403.21292 0.00248821
3.56926 402.28494 403.742131 403.405693 0.0024858
3.57806 402.97668 403.930724 403.590746 0.002481533
3.58686 403.4726 404.113272 403.768605 0.002478483
3.59567 403.96796 404.288388 403.939916 0.002475444
3.60447 404.38013 404.457651 404.105231 0.002472921
3.61327 403.99017 404.621919 404.265397 0.002475308
3.62207 404.12466 404.781687 404.420902 0.002474484
3.63087 404.28329 404.937667 404.572445 0.002473513
3.63968 404.92401 405.090743 404.720899 0.002469599
3.64848 405.19009 405.241612 404.866845 0.002467977
3.65728 405.31522 405.390729 405.010929 0.002467216
3.66608 404.91458 405.539094 405.154035 0.002469657
3.67489 405.67282 405.687184 405.296622 0.002465041
3.68369 406.01367 405.835912 405.439585 0.002462971
3.69249 406.94046 405.985915 405.583542 0.002457362
3.70129 407.23419 406.13779 405.729065 0.002455589
3.71009 407.14145 406.292367 405.876751 0.002456149
3.71890 406.64493 406.449868 406.027218 0.002459148
3.72770 407.55591 406.611124 406.181054 0.002453651
3.73650 408.07898 406.776682 406.338776 0.002450506
3.74530 407.61911 406.947008 406.500811 0.002453271
3.75410 407.82724 407.122637 406.667657 0.002452019
3.76291 408.47601 407.304003 406.839699 0.002448124
3.77171 409.15967 407.491573 407.017357 0.002444034
3.78051 409.56775 407.685658 407.200884 0.002441598
3.78931 409.87979 407.886669 407.390611 0.00243974
3.79811 409.35336 408.095023 407.586813 0.002442877
3.80692 409.74826 408.310771 407.789651 0.002440523
3.81572 410.54047 408.534243 407.999263 0.002435813
3.82452 411.17334 408.765734 408.215837 0.002432064
3.83332 411.06689 409.00542 408.439434 0.002432694
3.84213 410.91626 409.253397 408.670013 0.002433586
3.85093 411.09793 409.509825 408.907581 0.00243251
3.85973 411.26566 409.775488 409.152172 0.002431518
3.86853 411.18762 410.049368 409.403704 0.00243198
3.87733 411.19434 410.332087 409.661993 0.00243194
3.88614 411.3287 410.623798 409.926909 0.002431146
3.89494 411.75201 410.92487 410.19825 0.002428646
3.90374 411.6275 411.234982 410.475795 0.002429381
3.91254 411.95618 411.554633 410.759326 0.002427443
3.92134 413.00989 411.884171 411.048609 0.00242125
3.93015 413.7897 412.223924 411.343235 0.002416687
3.93895 414.39609 412.574594 411.642936 0.00241315
3.94775 414.69659 412.937136 411.947348 0.002411402
3.95655 414.84125 413.313065 412.256131 0.002410561
3.96535 414.54788 413.704593 412.568825 0.002412267
3.97416 414.65656 414.115355 412.885174 0.002411634
3.98296 414.43018 414.550463 413.204652 0.002412952
3.99176 414.47156 415.017487 413.526805 0.002412711
4.00056 414.64227 415.52728 413.851337 0.002411717
4.00937 415.73969 416.094104 414.177685 0.002405351
4.01817 416.45215 416.736518 414.505465 0.002401236
4.02697 416.72391 417.477873 414.834243 0.00239967
4.03577 416.85034 418.341007 415.163528 0.002398943
4.04457 417.34567 419.352845 415.492923 0.002396095
4.05338 418.16055 420.536424 415.821951 0.002391426
4.06218 419.35541 421.908177 416.150204 0.002384612
4.07098 420.96494 423.47349 416.477287 0.002375495
4.07978 422.41159 425.218081 416.802705 0.002367359
4.08858 424.59109 427.103927 417.126107 0.002355207
4.09739 428.24557 429.060167 417.447079 0.002335109
4.10619 431.08939 430.972053 417.76527 0.002319705
4.11499 433.134 432.677461 418.08029 0.002308754
4.12379 434.9841 433.975082 418.391774 0.002298935
4.13260 437.69742 434.687739 418.69943 0.002284683
4.14140 438.96939 434.731188 419.002955 0.002278063
4.15020 437.90198 434.16356 419.301986 0.002283616
4.15900 433.63159 433.142728 419.596319 0.002306105
4.16780 428.74579 431.870871 419.885655 0.002332384
4.17661 425.65918 430.521681 420.169792 0.002349297
4.18541 424.04306 429.218457 420.448538 0.002358251
4.19421 423.34436 428.041368 420.721666 0.002362143
4.20301 422.29431 427.034722 420.989064 0.002368017
4.21181 421.96222 426.214261 421.250528 0.00236988
4.22062 422.01447 425.578993 421.505971 0.002369587
4.22942 422.20081 425.114135 421.755337 0.002368541
4.23822 422.25577 424.79714 421.998506 0.002368233
4.24702 422.47925 424.601963 422.235415 0.00236698
4.25582 422.2092 424.502762 422.466108 0.002368494
4.26463 422.32935 424.476088 422.690557 0.00236782
4.27343 422.24289 424.502173 422.908782 0.002368305
4.28223 421.90146 424.565318 423.120794 0.002370222
4.29103 421.51096 424.653735 423.326704 0.002372418
4.29984 422.25082 424.758874 423.526585 0.002368261
4.30864 423.68024 424.874705 423.720529 0.002360271
4.31744 424.14386 424.997158 423.908675 0.002357691
4.32624 422.99371 425.123478 424.091158 0.002364101
4.33504 422.02536 425.25184 424.268158 0.002369526
4.34385 422.07809 425.380979 424.43983 0.00236923
4.35265 422.83197 425.510548 424.606391 0.002365006
4.36145 422.664 425.639027 424.76803 0.002365946
4.37025 423.19492 425.766527 424.925007 0.002362977
4.37905 423.75006 425.892761 425.077522 0.002359882
4.38786 424.17014 426.017609 425.225865 0.002357545
4.39666 423.88397 426.14096 425.370258 0.002359136
4.40546 424.71255 426.263038 425.510985 0.002354534
4.41426 425.50867 426.383486 425.648358 0.002350128
4.42307 425.71515 426.502505 425.782638 0.002348989
4.43187 426.09509 426.620253 425.914126 0.002346894
4.44067 427.04117 426.736883 426.04313 0.002341695
4.44947 426.63153 426.852562 426.169957 0.002343943
4.45827 426.54123 426.967478 426.294917 0.002344439
4.46708 427.09201 427.081841 426.418322 0.002341416
4.47588 426.62857 427.195881 426.540496 0.002343959
4.48468 426.77902 427.309834 426.661756 0.002343133
4.49348 427.48508 427.423999 426.782403 0.002339263
4.50228 428.26331 427.538503 426.902769 0.002335012
4.51109 428.42154 427.653662 427.023156 0.00233415
4.51989 428.73761 427.769749 427.143887 0.002332429
4.52869 429.35294 427.887016 427.265259 0.002329086
4.53749 429.87448 428.005711 427.387561 0.00232626
4.54630 429.87003 428.126121 427.511115 0.002326285
4.55510 429.7757 428.24847 427.636176 0.002326795
4.56390 430.78262 428.373027 427.763043 0.002321356
4.57270 431.37738 428.500038 427.891988 0.002318156
4.58150 430.60214 428.629738 428.023268 0.002322329
4.59031 430.42532 428.762353 428.157131 0.002323283
4.59911 431.20566 428.899299 428.293833 0.002319079
4.60791 432.00308 429.038425 428.433595 0.002314798
4.61671 432.63681 429.181114 428.576638 0.002311408
4.62551 432.63361 429.327593 428.723171 0.002311425
4.63432 432.25378 429.477984 428.873392 0.002313456
4.64312 432.14078 429.632492 429.027486 0.002314061
4.65192 432.86523 429.791259 429.185605 0.002310188
4.66072 433.01456 429.954452 429.347923 0.002309391
4.66952 433.38492 430.122214 429.514593 0.002307418
4.67833 433.49933 430.294945 429.685701 0.002306809
4.68713 433.20914 430.472159 429.861406 0.002308354
4.69593 433.39368 430.654242 430.041781 0.002307371
4.70473 433.74286 430.842222 430.226915 0.002305513
4.71354 434.11639 431.034294 430.416892 0.00230353
4.72234 433.58142 431.231432 430.611746 0.002306372
4.73114 433.12305 431.433706 430.811552 0.002308813
4.73994 432.86267 431.641105 431.0163 0.002310202
4.74874 433.57367 431.853656 431.226021 0.002306413
4.75755 434.41174 432.07137 431.440724 0.002301964
4.76635 435.39679 432.294279 431.660374 0.002296756
4.77515 435.26312 432.522222 431.88495 0.002297461
4.78395 434.7702 432.756483 432.114422 0.002300066
4.79275 434.25833 432.994514 432.348726 0.002302777
4.80156 434.60587 433.237495 432.587798 0.002300935
4.81036 435.7923 433.48533 432.831543 0.002294671
4.81916 436.26083 433.737944 433.079883 0.002292207
4.82796 436.05719 433.995746 433.332721 0.002293277
4.83676 436.34158 434.257598 433.589921 0.002291783
4.84557 436.63678 434.52391 433.851389 0.002290233
4.85437 436.43204 434.794518 434.116955 0.002291307
4.86317 436.28656 435.070452 434.386492 0.002292072
4.87197 437.1965 435.349267 434.659857 0.002287301
4.88078 437.84946 435.631939 434.936866 0.00228389
4.88958 438.009 435.918306 435.217355 0.002283058
4.89838 437.89844 436.20822 435.501166 0.002283635
4.90718 437.86371 436.501467 435.78808 0.002283816
4.91598 438.66489 436.797922 436.077944 0.002279644
4.92479 439.3909 437.097321 436.370524 0.002275878
4.93359 439.73523 437.399507 436.665636 0.002274096
4.94239 439.95337 437.704304 436.963091 0.002272968
4.95119 439.66019 438.011487 437.262657 0.002274484
4.95999 439.78998 438.32112 437.564138 0.002273813
4.96880 439.87805 438.632485 437.867297 0.002273357
4.97760 439.90613 438.945643 438.171935 0.002273212
4.98640 439.80658 439.260401 438.477846 0.002273727
4.99520 440.2049 439.576524 438.784779 0.002271669
5.00401 440.86877 439.893834 439.092538 0.002268249
5.01281 441.16837 440.212711 439.400918 0.002266708
5.02161 441.64798 440.53179 439.709671 0.002264247
5.03041 441.48978 440.851481 440.018615 0.002265058
5.03921 441.47006 441.171563 440.327511 0.002265159
5.04802 441.18881 441.491865 440.63616 0.002266603
5.05682 441.47571 441.812227 440.944377 0.00226513
5.06562 441.82877 442.133966 441.251928 0.00226332
5.07442 441.51221 442.453912 441.558653 0.002264943
5.08322 441.32898 442.773398 441.864322 0.002265883
5.09203 441.61761 443.092694 442.168767 0.002264402
5.10083 442.86331 443.410854 442.47183 0.002258033
5.10963 443.64594 443.728155 442.773303 0.00225405
5.11843 443.81931 444.044437 443.073034 0.002253169
5.12723 444.04935 444.359644 443.370883 0.002252002
5.13604 444.47916 444.673647 443.666668 0.002249824
5.14484 444.84491 444.986396 443.960275 0.002247974
5.15364 445.0271 445.297792 444.251539 0.002247054
5.16244 445.48499 445.607802 444.540352 0.002244745
5.17125 445.64813 445.916405 444.82661 0.002243923
5.18005 445.85672 446.22355 445.110175 0.002242873
5.18885 446.20551 446.529256 445.390965 0.00224112
5.19765 446.45743 446.833565 445.668911 0.002239855
5.20645 446.4245 447.13648 445.943896 0.00224002
5.21526 446.37054 447.438102 446.215884 0.002240291
5.22406 446.65656 447.738494 446.484793 0.002238857
5.23286 446.54037 448.037784 446.75058 0.002239439
5.24166 447.37897 448.336143 447.013227 0.002235241
5.25046 447.92947 448.633718 447.272676 0.002232494
5.25927 448.21954 448.930786 447.528941 0.00223105
5.26807 448.15155 449.227628 447.781982 0.002231388
5.27687 448.51352 449.52446 448.031818 0.002229587
5.28567 448.9437 449.821582 448.278478 0.002227451
5.29448 449.42618 450.119672 448.52196 0.00222506
5.30328 449.77179 450.419087 448.762306 0.00222335
5.31208 449.88907 450.720005 448.999578 0.00222277
5.32088 450.25583 451.023318 449.233803 0.00222096
5.32968 450.89243 451.329853 449.465067 0.002217824
5.33849 450.95853 451.640441 449.693419 0.002217499
5.34729 451.03537 451.956317 449.918959 0.002217121
5.35609 451.8396 452.277743 450.141783 0.002213175
5.36489 452.19077 452.606515 450.36197 0.002211456
5.37369 452.53082 452.944217 450.579653 0.002209794
5.38250 453.39413 453.292608 450.794926 0.002205587
5.39130 453.53485 453.653898 451.007924 0.002204902
5.40010 453.14639 454.030786 451.218792 0.002206792
5.40890 453.0368 454.426597 451.427646 0.002207326
5.41770 454.07663 454.847264 451.634647 0.002202271
5.42651 455.08698 455.295726 451.839957 0.002197382
5.43531 455.75827 455.781835 452.043713 0.002194146
5.44411 456.71365 456.317863 452.246105 0.002189556
5.45291 457.56976 456.921385 452.447282 0.002185459
5.46172 458.6713 457.618539 452.647428 0.002180211
5.47052 459.70074 458.446817 452.846736 0.002175328
5.47932 461.04324 459.458337 453.045373 0.002168994
5.48812 462.03589 460.723152 453.243543 0.002164334
5.49692 463.56909 462.32996 453.44142 0.002157176
5.50573 464.61969 464.385209 453.63921 0.002152298
5.51453 466.93396 467.00531 453.83712 0.00214163
5.52333 469.8497 470.306345 454.035328 0.00212834
5.53213 473.47723 474.386452 454.234045 0.002112034
5.54093 477.46011 479.304054 454.433489 0.002094416
5.54974 482.13275 485.049295 454.633833 0.002074118
5.55854 487.30289 491.517328 454.835307 0.002052112
5.56734 493.297 498.464319 455.038093 0.002027176
5.57614 500.86911 505.461202 455.242399 0.00199653
5.58495 509.94559 511.848153 455.44844 0.001960994
5.59375 517.44147 516.759682 455.656393 0.001932586
5.60255 523.24078 519.323185 455.86648 0.001911166
5.61135 523.60846 519.019601 456.078869 0.001909824
5.62015 517.91339 515.970152 456.293764 0.001930825
5.62896 507.2438 510.86436 456.511369 0.001971439
5.63776 496.27551 504.609107 456.731845 0.00201501
5.64656 486.34464 498.008813 456.955381 0.002056155
5.65536 479.24774 491.636924 457.182169 0.002086603
5.66416 474.55658 485.853369 457.412358 0.00210723
5.67297 471.3085 480.84464 457.646135 0.002121753
5.68177 469.65942 476.680012 457.883638 0.002129202
5.69057 468.25726 473.341179 458.125037 0.002135578
5.69937 466.62607 470.753985 458.370491 0.002143044
5.70817 466.2547 468.811192 458.620116 0.00214475
5.71698 466.73709 467.396434 458.874062 0.002142534
5.72578 466.1499 466.394021 459.132475 0.002145233
5.73458 465.23297 465.705003 459.395442 0.002149461
5.74338 464.70642 465.247473 459.663108 0.002151896
5.75219 465.34842 464.958464 459.935549 0.002148927
5.76099 465.68637 464.79167 460.212881 0.002147368
5.76979 466.3696 464.714388 460.495202 0.002144222
5.77859 466.92963 464.704279 460.782565 0.00214165
5.78739 467.92178 464.74768 461.075075 0.002137109
5.79620 467.73312 464.830682 461.372764 0.002137971
5.80500 467.98105 464.947957 461.675698 0.002136839
5.81380 468.45889 465.094834 461.983942 0.002134659
5.82260 468.67322 465.266786 462.297501 0.002133683
5.83140 468.57275 465.46139 462.616413 0.00213414
5.84021 468.30609 465.676014 462.940716 0.002135356
5.84901 468.5249 465.908977 463.270387 0.002134358
5.85781 468.7244 466.158757 463.605453 0.00213345
5.86661 469.20349 466.424005 463.945871 0.002131271
5.87541 469.23853 466.703631 464.291639 0.002131112
5.88422 469.71039 466.996742 464.642751 0.002128971
5.89302 469.57312 467.302409 464.999122 0.002129594
5.90182 469.00381 467.620001 465.360748 0.002132179
5.91062 469.10156 467.948876 465.727534 0.002131735
5.91943 469.63477 468.288625 466.099427 0.002129314
5.92823 470.23312 468.638603 466.476378 0.002126605
5.93703 470.61053 468.998471 466.85826 0.002124899
5.94583 471.01581 469.367908 467.245005 0.002123071
5.95463 471.10712 469.746642 467.636526 0.002122659
5.96344 471.28503 470.134373 468.032673 0.002121858
5.97224 471.23672 470.53095 468.433374 0.002122076
5.98104 471.6579 470.93616 468.838462 0.002120181
5.98984 471.83707 471.350105 469.247817 0.002119376
5.99864 472.4422 471.772328 469.661327 0.002116661
6.00745 472.27167 472.202956 470.0788 0.002117425
6.01625 473.0939 472.642055 470.50012 0.002113745
6.02505 473.84058 473.089847 470.925081 0.002110414
6.03385 473.67029 473.546359 471.353544 0.002111173
6.04266 473.92044 474.011576 471.78535 0.002110059
6.05146 474.48068 474.485993 472.220274 0.002107567
6.06026 474.92932 474.970082 472.658155 0.002105576
6.06906 475.57407 475.464312 473.098832 0.002102722
6.07786 476.59293 475.969439 473.542048 0.002098227
6.08667 476.71832 476.48653 473.987661 0.002097675
6.09547 476.87247 477.016824 474.435413 0.002096997
6.10427 476.77994 477.562225 474.885129 0.002097404
6.11307 476.9433 478.125407 475.336611 0.002096685
6.12187 477.67722 478.710208 475.7896 0.002093464
6.13068 478.14948 479.323172 476.243929 0.002091396
6.13948 477.71448 479.971636 476.699334 0.002093301
6.14828 477.36392 480.669189 477.155608 0.002094838
6.15708 478.33075 481.434578 477.61256 0.002090604
6.16589 480.15485 482.293703 478.069921 0.002082661
6.17469 482.02719 483.281395 478.52748 0.002074572
6.18349 482.91318 484.441646 478.985046 0.002070766
6.19229 483.24591 485.826202 479.442347 0.00206934
6.20109 484.36078 487.491799 479.899202 0.002064577
6.20990 485.77362 489.492842 480.355341 0.002058572
6.21870 487.07126 491.873999 480.810568 0.002053088
6.22750 489.20776 494.658593 481.264696 0.002044121
6.23630 492.47482 497.835028 481.717446 0.002030561
6.24510 495.91321 501.342661 482.168634 0.002016482
6.25391 498.96277 505.052052 482.618078 0.002004158
6.26271 502.89468 508.739392 483.065511 0.001988488
6.27151 507.32828 512.071253 483.510783 0.00197111
6.28031 511.6799 514.62438 483.953644 0.001954347
6.28911 514.59241 515.99603 484.393928 0.001943286
6.29792 515.86694 515.977669 484.83146 0.001938484
6.30672 515.57312 514.676011 485.26601 0.001939589
6.31552 512.18359 512.447935 485.697447 0.001952425
6.32432 508.00598 509.727487 486.125554 0.001968481
6.33313 503.13199 506.882987 486.550178 0.00198755
6.34193 499.73798 504.174009 486.971187 0.002001049
6.35073 496.80106 501.759144 487.388385 0.002012878
6.35953 494.93747 499.719771 487.801639 0.002020457
6.36833 493.14728 498.081079 488.210839 0.002027792
6.37714 492.94189 496.830146 488.615812 0.002028637
6.38594 492.6543 495.92783 489.016472 0.002029821
6.39474 491.91599 495.321462 489.412664 0.002032867
6.40354 491.05994 494.953897 489.804306 0.002036411
6.41234 490.74548 494.770857 490.191327 0.002037716
6.42115 491.18481 494.725194 490.573587 0.002035894
6.42995 491.83786 494.778697 490.951056 0.00203319
6.43875 492.03259 494.902173 491.323623 0.002032386
6.44755 492.57797 495.074409 491.691256 0.002030135
6.45636 492.9361 495.280285 492.053917 0.002028661
6.46516 493.58008 495.509606 492.411532 0.002026014
6.47396 493.73886 495.75543 492.764097 0.002025362
6.48276 493.42841 496.013067 493.111607 0.002026636
6.49156 493.21994 496.279165 493.454019 0.002027493
6.50037 493.39545 496.551451 493.791375 0.002026772
6.50917 493.64246 496.82817 494.123657 0.002025758
6.51797 493.45667 497.108015 494.4509 0.00202652
6.52677 494.20856 497.390239 494.773164 0.002023437
6.53557 495.27713 497.673462 495.090462 0.002019072
6.54438 495.40271 497.958062 495.402882 0.00201856
6.55318 495.78394 498.241965 495.710461 0.002017008
6.56198 496.93994 498.525507 496.013298 0.002012316
6.57078 497.34543 498.808365 496.311504 0.002010675
6.57958 497.40698 499.090228 496.605141 0.002010426
6.58839 498.66611 499.370993 496.894343 0.00200535
6.59719 499.58102 499.650359 497.17925 0.002001677
6.60599 499.89914 499.92828 497.459968 0.002000404
6.61479 500.68674 500.204717 497.736669 0.001997257
6.62360 501.58231 500.479702 498.009481 0.001993691
6.63240 502.5441 500.753091 498.27859 0.001989875
6.64120 502.80435 501.025031 498.544182 0.001988845
6.65000 503.4744 501.295523 498.806418 0.001986198
6.65880 503.62045 501.564711 499.065525 0.001985622
6.66761 503.54688 501.832698 499.321686 0.001985912
6.67641 504.19983 502.099656 499.575125 0.001983341
6.68521 504.88632 502.36579 499.826088 0.001980644
6.69401 504.87018 502.631274 500.074785 0.001980707
6.70281 504.15161 502.896342 500.321471 0.00198353
6.71162 503.8298 503.161293 500.566416 0.001984797
6.72042 504.01483 503.426253 500.809859 0.001984069
6.72922 504.65485 503.69156 501.052093 0.001981552
6.73802 505.1377 503.957462 501.293372 0.001979658
6.74682 505.2868 504.224395 501.533999 0.001979074
6.75563 505.56973 504.492428 501.774284 0.001977967
6.76443 505.81674 504.761979 502.014497 0.001977001
6.77323 506.60526 505.033413 502.254963 0.001973923
6.78203 507.43668 505.307052 502.496012 0.001970689
6.79084 508.00439 505.583254 502.73794 0.001968487
6.79964 508.83319 505.862439 502.981098 0.001965281
6.80844 509.11014 506.144935 503.225793 0.001964212
6.81724 509.10468 506.431185 503.472383 0.001964233
6.82604 508.98349 506.721644 503.721218 0.0019647
6.83485 509.62274 507.016663 503.97262 0.001962236
6.84365 509.87616 507.316933 504.226972 0.001961261
6.85245 510.181 507.62254 504.484602 0.001960089
6.86125 511.29697 507.934134 504.745878 0.001955811
6.87005 512.75598 508.252249 505.011181 0.001950245
6.87886 513.89655 508.57764 505.280848 0.001945917
6.88766 513.82458 508.910761 505.555255 0.001946189
6.89646 513.60144 509.251595 505.834789 0.001947035
6.90526 513.88098 509.601129 506.119789 0.001945976
6.91407 514.2453 509.960277 506.410661 0.001944597
6.92287 514.52808 510.329143 506.707738 0.001943529
6.93167 515.4162 510.708771 507.011409 0.00194018
6.94047 516.38098 511.099768 507.322065 0.001936555
6.94927 517.03668 511.502988 507.640044 0.001934099
6.95808 517.37024 511.919195 507.965744 0.001932852
6.96688 518.0863 512.34946 508.299501 0.00193018
6.97568 518.51654 512.794503 508.6417 0.001928579
6.98448 519.1026 513.255568 508.99272 0.001926401
6.99328 519.74896 513.733796 509.352884 0.001924006
7.00209 520.13733 514.230553 509.722573 0.001922569
7.01089 520.72339 514.747348 510.102156 0.001920405
7.01969 521.52698 515.28587 510.491942 0.001917446
7.02849 522.62012 515.848204 510.892321 0.001913436
7.03729 523.4729 516.436741 511.303594 0.001910319
7.04610 523.68671 517.054584 511.726109 0.001909539
7.05490 524.01758 517.705834 512.160226 0.001908333
7.06370 524.21161 518.395918 512.606223 0.001907627
7.07250 526.06494 519.132717 513.064459 0.001900906
7.08131 527.13165 519.927575 513.535198 0.001897059
7.09011 528.40533 520.797135 514.01877 0.001892487
7.09891 528.42682 521.76513 514.515504 0.00189241
7.10771 529.16278 522.864424 515.025622 0.001889778
7.11651 529.995 524.140519 515.549437 0.00188681
7.12532 531.56366 525.651939 516.087253 0.001881242
7.13412 533.12799 527.470119 516.639279 0.001875722
7.14292 533.44708 529.676291 517.205817 0.0018746
7.15172 534.60925 532.355105 517.787055 0.001870525
7.16052 537.26007 535.584278 518.383267 0.001861296
7.16933 540.23047 539.419936 518.9947 0.001851062
7.17813 542.76807 543.879873 519.621504 0.001842408
7.18693 545.34668 548.925262 520.263957 0.001833696
7.19573 549.77423 554.437675 520.922186 0.001818928
7.20453 555.65918 560.190272 521.596395 0.001799664
7.21334 562.31018 565.81801 522.286802 0.001778378
7.22214 568.06787 570.801114 522.993497 0.001760353
7.23094 572.23413 574.518329 523.71665 0.001747536
7.23974 574.66754 576.424478 524.456449 0.001740137
7.24855 575.30536 576.294021 525.212934 0.001738207
7.25735 574.5144 574.34584 525.986311 0.0017406
7.26615 571.4054 571.123126 526.776575 0.001750071
7.27495 567.11639 567.247831 527.583865 0.001763306
7.28375 562.89697 563.242892 528.408302 0.001776524
7.29256 559.45526 559.477798 529.249865 0.001787453
7.30136 556.10938 556.18137 530.108629 0.001798207
7.31016 553.83368 553.474589 530.984689 0.001805596
7.31896 552.59882 551.399064 531.877979 0.001809631
7.32777 551.11066 549.938045 532.788589 0.001814518
7.33657 549.59021 549.037084 533.716422 0.001819538
7.34537 549.1347 548.619843 534.661523 0.001821047
7.35417 550.42957 548.602808 535.623896 0.001816763
7.36297 550.99597 548.905792 536.603396 0.001814895
7.37178 551.56702 549.45853 537.600079 0.001813016
7.38058 552.04071 550.203883 538.613773 0.001811461
7.38938 552.80823 551.098203 539.644426 0.001808946
7.39818 553.72821 552.110245 540.692013 0.00180594
7.40698 554.76886 553.2188 541.756316 0.001802553
7.41579 555.84595 554.410901 542.837247 0.00179906
7.42459 557.11615 555.679971 543.934744 0.001794958
7.43339 557.58643 557.024215 545.048532 0.001793444
7.44219 557.76825 558.446316 546.178588 0.001792859
7.45099 559.34631 559.952162 547.324582 0.001787801
7.45980 561.36652 561.55098 548.486402 0.001781367
7.46860 562.56268 563.254351 549.663915 0.00177758
7.47740 562.4303 565.074834 550.856786 0.001777998
7.48620 563.28076 567.025083 552.064899 0.001775314
7.49501 564.1441 569.11502 553.287892 0.001772597
7.50381 564.59406 571.35019 554.525596 0.001771184
7.51261 566.02545 573.728706 555.777795 0.001766705
7.52141 567.79834 576.237801 557.044086 0.001761189
7.53021 569.78815 578.851008 558.324269 0.001755038
7.53902 570.86896 581.523106 559.618094 0.001751715
7.54782 572.26331 584.187149 560.925122 0.001747447
7.55662 573.50385 586.759694 562.245184 0.001743667
7.56542 575.61798 589.160443 563.577815 0.001737263
7.57422 577.6333 591.347851 564.922724 0.001731202
7.58303 580.42383 593.344406 566.279654 0.001722879
7.59183 583.22217 595.228835 567.648094 0.001714612
7.60063 586.5824 597.104562 569.027847 0.00170479
7.60943 589.57855 599.068762 570.418349 0.001696127
7.61823 592.63489 601.200692 571.81931 0.00168738
7.62704 596.17938 603.562222 573.230415 0.001677348
7.63584 601.1767 606.202501 574.651119 0.001663404
7.64464 607.60016 609.165966 576.08106 0.001645819
7.65344 614.4599 612.499026 577.51992 0.001627446
7.66225 622.30542 616.258552 578.967127 0.001606928
7.67105 629.67871 620.52596 580.422382 0.001588111
7.67985 638.84467 625.421834 581.885098 0.001565326
7.68865 649.18005 631.130253 583.354931 0.001540405
7.69745 662.62769 637.925897 584.831482 0.001509143
7.70626 678.37506 646.20502 586.314144 0.001474111
7.71506 695.74426 656.521868 587.802627 0.00143731
7.72386 715.95111 669.610574 589.296314 0.001396743
7.73266 738.4884 686.398806 590.794785 0.001354117
7.74146 765.52588 707.985569 592.297671 0.001306292
7.75027 794.74377 735.570797 593.80434 0.001258267
7.75907 828.10883 770.347273 595.314365 0.001207571
7.76787 864.7489 813.329195 596.827365 0.001156405
7.77667 907.99542 865.127912 598.342683 0.001101327
7.78548 953.23303 925.729621 599.860022 0.001049061
7.79428 1004.706 994.196162 601.378685 0.000995316
7.80308 1052.8257 1068.379185 602.898286 0.000949825
7.81188 1103.9298 1144.528842 604.418419 0.000905855
7.82068 1159.2434 1216.889703 605.938438 0.000862632
7.82949 1216.2871 1277.689209 607.457901 0.000822174
7.83829 1264.6733 1318.158203 608.976421 0.000790718
7.84709 1320.5625 1331.171072 610.493351 0.000757253
7.85589 1341.2842 1314.460997 612.008338 0.000745554
7.86469 1315.9512 1271.816783 613.520738 0.000759907
7.87350 1238.491 1211.121914 615.030167 0.000807434
7.88230 1163.9143 1141.078479 616.536192 0.00085917
7.89110 1069.5499 1068.988104 618.038174 0.000934973
7.89990 997.67828 1000.041838 619.535805 0.001002327
7.90870 933.84149 937.551126 621.028454 0.001070846
7.91751 879.93146 883.316377 622.515699 0.001136452
7.92631 832.25775 838.00762 623.997172 0.001201551
7.93511 798.17828 801.471212 625.472237 0.001252853
7.94391 768.96246 772.975408 626.940536 0.001300454
7.95272 747.79382 751.460465 628.401662 0.001337267
7.96152 730.2276 735.7452 629.855014 0.001369436
7.97032 715.92761 724.674669 631.300312 0.001396789
7.97912 705.51056 717.233379 632.736968 0.001417413
7.98792 697.94318 712.591762 634.164599 0.001432781
7.99673 691.77148 710.12119 635.582873 0.001445564
8.00553 690.01758 709.376744 636.991306 0.001449238
8.01433 690.02887 710.063936 638.389294 0.001449215
8.02313 690.85065 712.001914 639.776763 0.001447491
8.03193 693.32074 715.087214 641.153157 0.001442334
8.04074 698.56683 719.263803 642.517945 0.001431502
8.04954 705.31201 724.504254 643.871024 0.001417812
8.05834 713.36285 730.794041 645.21188 0.001401811
8.06714 723.44623 738.12744 646.540011 0.001382273
8.07594 735.43811 746.512627 647.855334 0.001359734
8.08475 750.00342 755.986113 649.157362 0.001333327
8.09355 764.9776 766.670688 650.445628 0.001307228
8.10235 782.27673 778.89702 651.720064 0.00127832
8.11115 798.51288 793.345533 652.98022 0.001252328
8.11996 816.72412 811.13071 654.225786 0.001224404
8.12876 832.7135 833.705691 655.456338 0.001200893
8.13756 856.13391 862.651646 656.671837 0.001168042
8.14636 885.67529 899.42662 657.871879 0.001129082
8.15516 925.46021 945.127713 659.056074 0.001080543
8.16397 977.12714 1000.295182 660.224408 0.001023408
8.17277 1038.9139 1064.660362 661.376511 0.000962544
8.18157 1106.5354 1136.909224 662.512032 0.000903722
8.19037 1181.9282 1214.353523 663.630979 0.000846075
8.19917 1257.6925 1292.549628 664.73302 0.000795107
8.20798 1341.927 1365.098671 665.817832 0.000745197
8.21678 1418.9003 1424.064044 666.88548 0.000704771
8.22558 1484.1586 1461.654613 667.935637 0.000673782
8.23438 1526.5774 1472.990417 668.968147 0.00065506
8.24319 1530.2412 1458.086451 669.982738 0.000653492
8.25199 1485.6074 1421.288487 670.979507 0.000673125
8.26079 1408.4767 1368.749183 671.95818 0.000709987
8.26959 1319.6741 1306.210368 672.91854 0.000757763
8.27839 1233.6512 1238.37435 673.860693 0.000810602
8.28720 1155.7977 1169.261458 674.78444 0.000865203
8.29600 1089.0055 1102.460322 675.689572 0.000918269
8.30480 1028.9874 1040.905417 676.576229 0.000971829
8.31360 972.21722 986.641562 677.444242 0.001028577
8.32240 925.01904 940.733805 678.293474 0.001081059
8.33121 888.63934 903.464165 679.124055 0.001125316
8.34001 860.78534 874.611307 679.93587 0.00116173
8.34881 842.51611 853.710887 680.728898 0.001186921
8.35761 831.50031 840.254126 681.503055 0.001202645
8.36641 829.16772 833.83233 682.258503 0.001206029
8.37522 833.62219 834.21285 682.995176 0.001199584
8.38402 847.32166 841.345787 683.713029 0.001180189
8.39282 866.97888 855.326148 684.412245 0.001153431
8.40162 893.11023 876.29045 685.092798 0.001119683
8.41043 929.11249 904.292266 685.75468 0.001076296
8.41923 964.62219 939.139331 686.398094 0.001036675
8.42803 1006.7689 980.215831 687.023051 0.000993277
8.43683 1051.4197 1026.312215 687.629581 0.000951095
8.44563 1094.7809 1075.411458 688.217907 0.000913425
8.45444 1138.1091 1124.456263 688.788076 0.00087865
8.46324 1172.3815 1169.216259 689.340206 0.000852965
8.47204 1194.4919 1204.550882 689.874374 0.000837176
8.48084 1218.6548 1225.463223 690.390828 0.000820577
8.48964 1227.683 1228.914468 690.889658 0.000814543
8.49845 1221.7 1215.324018 691.370975 0.000818532
8.50725 1199.3872 1188.446561 691.835041 0.000833759
8.51605 1148.3269 1153.730018 692.281981 0.000870832
8.52485 1092.8221 1116.487475 692.711935 0.000915062
8.53366 1040.6588 1080.831749 693.125181 0.00096093
8.54246 996.98242 1049.452767 693.521872 0.001003027
8.55126 971.33673 1023.68844 693.902174 0.001029509
8.56006 963.07928 1003.651763 694.266391 0.001038336
8.56886 966.16693 988.396407 694.614691 0.001035018
8.57767 975.97565 976.095029 694.947307 0.001024616
8.58647 985.83063 964.460226 695.264439 0.001014373
8.59527 989.8277 951.400461 695.566405 0.001010277
8.60407 984.29529 935.71133 695.853408 0.001015955
8.61287 964.54382 917.308123 696.125676 0.00103676
8.62168 935.04291 896.914349 696.38353 0.00106947
8.63048 899.95544 875.569148 696.627207 0.001111166
8.63928 865.23615 854.285335 696.856946 0.001155754
8.64808 835.40698 833.905705 697.073078 0.001197021
8.65689 809.36707 815.078519 697.275857 0.001235533
8.66569 787.63019 798.227235 697.465549 0.001269631
8.67449 770.97412 783.562267 697.642481 0.00129706
8.68329 757.32935 771.113967 697.806925 0.001320429
8.69209 746.77277 760.771697 697.95918 0.001339095
8.70090 738.59296 752.329087 698.09953 0.001353926
8.70970 732.37604 745.526789 698.228309 0.001365419
8.71850 726.90112 740.090818 698.345806 0.001375703
8.72730 722.15601 735.757261 698.452319 0.001384742
8.73610 718.76611 732.288615 698.548182 0.001391273
8.74491 716.64685 729.485745 698.633696 0.001395387
8.75371 714.76196 727.18818 698.709169 0.001399067
8.76251 713.2337 725.270832 698.77493 0.001402065
8.77131 712.17554 723.640563 698.831291 0.001404148
8.78011 711.30249 722.229138 698.878564 0.001405872
8.78892 710.37823 720.986826 698.917079 0.001407701
8.79772 709.64392 719.878445 698.947149 0.001409157
8.80652 709.69128 718.878501 698.969094 0.001409063
8.81532 709.53674 717.968503 698.983233 0.00140937
8.82413 709.20734 717.134312 698.989888 0.001410025
8.83293 708.73016 716.365363 698.989375 0.001410974
8.84173 709.11853 715.653308 698.982013 0.001410201
8.85053 708.99384 714.991108 698.968119 0.001410449
8.85933 708.79541 714.373178 698.948006 0.001410844
8.86814 708.74304 713.794797 698.921993 0.001410949
8.87694 708.94458 713.251746 698.890385 0.001410547
8.88574 708.61932 712.740574 698.853496 0.001411195
8.89454 708.35791 712.25831 698.811639 0.001411716
8.90334 707.92743 711.802188 698.765107 0.001412574
8.91215 707.73468 711.369978 698.714211 0.001412959
8.92095 707.63422 710.959677 698.659248 0.001413159
8.92975 707.37018 710.569582 698.600523 0.001413687
8.93855 707.88483 710.198061 698.538315 0.001412659
8.94736 708.5484 709.843832 698.472922 0.001411336
8.95616 708.96588 709.505766 698.404636 0.001410505
8.96496 709.30615 709.182758 698.333726 0.001409828
8.97376 709.79102 708.873959 698.260475 0.001408865
8.98256 709.66937 708.578634 698.185168 0.001409107
8.99137 709.62006 708.296046 698.108058 0.001409205
9.00017 709.61682 708.025654 698.029416 0.001409211
9.00897 709.71698 707.767007 697.949513 0.001409012
9.01777 710.49725 707.519646 697.868586 0.001407465
9.02657 710.67822 707.283288 697.786895 0.001407107
9.03538 710.21692 707.057708 697.704685 0.001408021
9.04418 710.22925 706.842802 697.622204 0.001407996
9.05298 711.21594 706.638506 697.539669 0.001406043
9.06178 712.29547 706.444951 697.457319 0.001403912
9.07058 712.15143 706.262404 697.375385 0.001404196
9.07939 712.60901 706.091228 697.294067 0.001403294
9.08819 713.17767 705.932007 697.213585 0.001402175
9.09699 714.61829 705.785449 697.134154 0.001399348
9.10579 714.99048 705.652325 697.055957 0.00139862
9.11460 715.78857 705.533483 696.979196 0.001397061
9.12340 715.92456 705.429691 696.904064 0.001396795
9.13220 716.02539 705.341504 696.830728 0.001396599
9.14100 715.52344 705.269147 696.759371 0.001397578
9.14980 715.49353 705.21236 696.690167 0.001397637
9.15861 715.69537 705.17021 696.623264 0.001397243
9.16741 714.63214 705.14096 696.558824 0.001399321
9.17621 713.64594 705.121844 696.496997 0.001401255
9.18501 713.14032 705.108945 696.43793 0.001402249
9.19381 712.49243 705.097217 696.381746 0.001403524
9.20262 712.508 705.081173 696.328581 0.001403493
9.21142 712.388 705.056324 696.278563 0.001403729
9.22022 712.26489 705.020928 696.231795 0.001403972
9.22902 711.96936 704.976908 696.188394 0.001404555
9.23782 710.85315 704.92907 696.148466 0.00140676
9.24663 710.35724 704.883364 696.112096 0.001407742
9.25543 710.11731 704.845389 696.07938 0.001408218
9.26423 709.60901 704.819667 696.050404 0.001409227
9.27303 709.2146 704.809554 696.025236 0.00141001
9.28184 708.44348 704.817399 696.00395 0.001411545
9.29064 708.11591 704.844728 695.98661 0.001412198
9.29944 707.69147 704.8924 695.973273 0.001413045
9.30824 706.69537 704.960835 695.963987 0.001415037
9.31704 706.20709 705.050085 695.958798 0.001416015
9.32585 707.15942 705.160035 695.957743 0.001414108
9.33465 707.49652 705.290553 695.960855 0.001413435
9.34345 706.8053 705.441554 695.968159 0.001414817
9.35225 705.81287 705.613081 695.979674 0.001416806
9.36105 705.79425 705.805396 695.995416 0.001416844
9.36986 706.138 706.018994 696.015393 0.001416154
9.37866 706.20734 706.254536 696.039603 0.001416015
9.38746 705.67328 706.512983 696.068048 0.001417086
9.39626 707.05383 706.795443 696.100718 0.001414319
9.40507 708.08893 707.103315 696.137597 0.001412252
9.41387 708.22845 707.438142 696.178663 0.001411974
9.42267 708.21637 707.801765 696.223898 0.001411998
9.43147 708.98853 708.196276 696.273269 0.00141046
9.44027 709.48138 708.623956 696.326736 0.00140948
9.44908 709.7998 709.087523 696.384269 0.001408848
9.45788 710.03125 709.589912 696.445819 0.001408389
9.46668 710.82062 710.134548 696.511331 0.001406825
9.47548 711.31458 710.725345 696.580764 0.001405848
9.48428 712.26306 711.366631 696.654054 0.001403976
9.49309 713.0603 712.063475 696.731132 0.001402406
9.50189 713.0061 712.821725 696.811947 0.001402513
9.51069 713.11603 713.648025 696.896421 0.001402296
9.51949 713.69464 714.550101 696.984483 0.001401159
9.52829 715.30286 715.537171 697.076044 0.001398009
9.53710 716.1925 716.620308 697.171044 0.001396273
9.54590 717.00842 717.812809 697.26939 0.001394684
9.55470 717.36322 719.131647 697.370983 0.001393994
9.56350 718.75812 720.598944 697.475756 0.001391289
9.57231 720.5484 722.244221 697.583605 0.001387832
9.58111 723.66333 724.10828 697.694422 0.001381858
9.58991 726.74884 726.249896 697.808137 0.001375991
9.59871 730.57483 728.752481 697.924634 0.001368785
9.60751 735.68689 731.735747 698.043798 0.001359274
9.61632 742.00763 735.371383 698.165553 0.001347695
9.62512 749.27692 739.897595 698.28978 0.00133462
9.63392 757.23962 745.638828 698.416368 0.001320586
9.64272 767.15045 753.020953 698.545196 0.001303525
9.65152 780.08948 762.586467 698.676181 0.001281904
9.66033 796.28955 774.988201 698.809198 0.001255825
9.66913 815.81647 790.972702 698.944117 0.001225766
9.67793 837.24768 811.347679 699.080855 0.00119439
9.68673 861.33276 836.901374 699.219282 0.001160991
9.69553 888.41199 868.311913 699.35927 0.001125604
9.70434 921.14911 906.048115 699.50073 0.001085601
9.71314 957.92053 950.213855 699.643532 0.001043928
9.72194 998.7439 1000.422522 699.787547 0.001001258
9.73074 1045.1857 1055.68456 699.932686 0.000956768
9.73955 1094.0372 1114.223745 700.07882 0.000914046
9.74835 1144.7987 1173.356902 700.225833 0.000873516
9.75715 1197.2748 1229.36832 700.373595 0.00083523
9.76595 1246.6448 1277.599757 700.52202 0.000802153
9.77475 1291.3149 1312.879153 700.670981 0.000774404
9.78356 1327.4297 1330.623241 700.820349 0.000753336
9.79236 1349.0425 1328.252589 700.970043 0.000741266
9.80116 1343.662 1306.1585 701.119936 0.000744235
9.80996 1314.2544 1267.564264 701.269905 0.000760888
9.81876 1258.8495 1217.319665 701.41987 0.000794376
9.82757 1188.4071 1160.547262 701.569711 0.000841462
9.83637 1111.8325 1101.708904 701.719308 0.000899416
9.84517 1039.203 1044.231613 701.868587 0.000962276
9.85397 975.56396 990.561652 702.017432 0.001025048
9.86278 923.16528 942.260878 702.165743 0.00108323
9.87158 880.74976 900.167253 702.31341 0.001135396
9.88038 846.31891 864.512632 702.460366 0.001181588
9.88918 819.07892 835.094271 702.606503 0.001220884
9.89798 797.2182 811.387601 702.751718 0.001254362
9.90679 779.92834 792.666754 702.895951 0.001282169
9.91559 765.79797 778.135074 703.039103 0.001305827
9.92439 754.90485 767.000063 703.181075 0.00132467
9.93319 745.89264 758.532087 703.321822 0.001340676
9.94199 739.44043 752.108214 703.461246 0.001352374
9.95080 733.69598 747.219171 703.59926 0.001362962
9.95960 729.16266 743.465555 703.735825 0.001371436
9.96840 724.85669 740.549069 703.870858 0.001379583
9.97720 721.61945 738.252359 704.004291 0.001385772
9.98600 719.41479 736.422163 704.13605 0.001390019
9.99481 717.28497 734.952264 704.266106 0.001394146
10.00361 715.03448 733.771912 704.394395 0.001398534
10.01241 713.88159 732.83495 704.520832 0.001400793
10.02121 713.67468 732.112687 704.645426 0.001401199
10.03002 712.75586 731.590353 704.768087 0.001403005
10.03882 712.27289 731.263141 704.888776 0.001403956
10.04762 711.95795 731.135426 705.007494 0.001404577
10.05642 712.29095 731.219125 705.124167 0.001403921
10.06522 712.36884 731.533336 705.238777 0.001403767
10.07403 713.60303 732.102874 705.351298 0.001401339
10.08283 715.50708 732.95705 705.461717 0.00139761
10.09163 717.19763 734.127582 705.56999 0.001394316
10.10043 718.87769 735.646413 705.6761 0.001391057
10.10923 721.59155 737.544946 705.780071 0.001385826
10.11804 726.20923 739.849913 705.881857 0.001377014
10.12684 731.09943 742.585071 705.981465 0.001367803
10.13564 737.0271 745.771009 706.078892 0.001356802
10.14444 743.52411 749.42644 706.174151 0.001344946
10.15325 748.53235 753.568205 706.267214 0.001335948
10.16205 753.95856 758.217282 706.358121 0.001326333
10.17085 760.33527 763.400775 706.446885 0.001315209
10.17965 767.61707 769.167579 706.533491 0.001302733
10.18845 776.33093 775.623394 706.617997 0.00128811
10.19726 786.87012 782.959904 706.700397 0.001270858
10.20606 799.47131 791.471701 706.780734 0.001250827
10.21486 814.79541 801.516117 706.859011 0.001227302
10.22366 830.89557 813.448768 706.935288 0.001203521
10.23246 847.78632 827.527757 707.009599 0.001179543
10.24127 864.03558 843.838171 707.081958 0.00115736
10.25007 882.54584 862.259731 707.152441 0.001133086
10.25887 899.72461 882.409406 707.221068 0.001111451
10.26767 917.21674 903.615834 707.287895 0.001090255
10.27647 934.3833 924.897828 707.352974 0.001070225
10.28528 947.38953 944.942293 707.416358 0.001055532
10.29408 957.57855 962.200893 707.478105 0.001044301
10.30288 969.32758 975.140323 707.538274 0.001031643
10.31168 975.36407 982.658317 707.596935 0.001025258
10.32048 979.31689 984.515504 707.654132 0.00102112
10.32929 978.25525 981.49277 707.709958 0.001022228
10.33809 969.93182 975.13429 707.764466 0.001031
10.34689 959.91772 967.262451 707.817733 0.001041756
10.35569 948.07043 959.549611 707.869834 0.001054774
10.36450 937.76654 953.243395 707.920847 0.001066363
10.37330 929.1825 949.11053 707.970855 0.001076215
10.38210 925.16754 947.38661 708.019924 0.001080885
10.39090 924.57019 947.808402 708.068158 0.001081584
10.39971 928.71417 949.620094 708.115626 0.001076758
10.40851 934.93829 951.624503 708.162415 0.001069589
10.41731 942.65173 952.3395 708.208628 0.001060837
10.42611 948.18445 950.270333 708.254341 0.001054647
10.43491 950.10718 944.338615 708.299649 0.001052513
10.44371 944.36737 934.201744 708.344645 0.00105891
10.45252 930.70288 920.328777 708.389429 0.001074457
10.46132 914.56488 903.757494 708.434086 0.001093416
10.47012 896.27197 885.748064 708.478712 0.001115733
10.47892 879.40466 867.488289 708.52342 0.001137133
10.48773 864.01587 850.006969 708.568292 0.001157386
10.49653 851.46973 834.105493 708.613433 0.00117444
10.50533 841.26166 820.398338 708.658942 0.001188691
10.51413 832.33234 809.32753 708.704919 0.001201443
10.52293 825.93457 801.172484 708.751466 0.00121075
10.53174 822.03607 796.077412 708.798684 0.001216492
10.54054 819.45752 794.053508 708.846678 0.00122032
10.54934 818.79437 794.993293 708.895535 0.001221308
10.55814 820.50446 798.681163 708.945379 0.001218762
10.56695 822.21863 804.784522 708.996293 0.001216222
10.57575 826.19452 812.871527 709.048386 0.001210369
10.58455 831.4104 822.387438 709.101758 0.001202775
10.59335 836.89673 832.649768 709.156511 0.001194891
10.60215 842.92389 842.838896 709.212751 0.001186347
10.61096 849.34967 851.984298 709.270559 0.001177371
10.61976 855.9696 859.048355 709.330061 0.001168266
10.62856 860.60571 863.045327 709.391336 0.001161972
10.63736 861.43622 863.293272 709.454488 0.001160852
10.64616 856.854 859.610091 709.519615 0.00116706
10.65497 847.62683 852.371464 709.586812 0.001179764
10.66377 833.93347 842.358237 709.656175 0.001199136
10.67257 819.74335 830.521319 709.727798 0.001219894
10.68137 805.73633 817.765838 709.801781 0.001241101
10.69017 792.83246 804.862986 709.8782 0.001261301
10.69898 780.81873 792.396934 709.957153 0.001280707
10.70778 770.95062 780.79191 710.038729 0.0012971
10.71658 762.56854 770.32452 710.123014 0.001311358
10.72538 754.97028 761.140855 710.210093 0.001324555
10.73419 748.60303 753.2874 710.300052 0.001335821
10.74299 743.59308 746.722408 710.392982 0.001344822
10.75179 739.95251 741.350593 710.488931 0.001351438
10.76059 736.10895 737.032721 710.588022 0.001358495
10.76939 732.96558 733.614891 710.690297 0.001364321
10.77820 729.81165 730.941227 710.795829 0.001370217
10.78700 728.32489 728.863634 710.904728 0.001373014
10.79580 726.74109 727.254583 711.017027 0.001376006
10.80460 725.03241 726.004983 711.132819 0.001379249
10.81340 723.44183 725.028468 711.25213 0.001382281
10.82221 721.70825 724.25719 711.375064 0.001385601
10.83101 720.85028 723.640263 711.501682 0.001387251
10.83981 720.12238 723.140911 711.632 0.001388653
10.84861 720.15442 722.731993 711.766134 0.001388591
10.85741 719.74622 722.394855 711.904091 0.001389379
10.86622 719.48389 722.115942 712.045939 0.001389885
10.87502 719.71747 721.8858 712.191725 0.001389434
10.88382 719.5954 721.697634 712.341498 0.00138967
10.89262 718.97278 721.546344 712.495299 0.001390873
10.90142 719.53955 721.428206 712.65317 0.001389778
10.91023 720.08295 721.34023 712.815169 0.001388729
10.91903 720.005 721.280153 712.981294 0.001388879
10.92783 719.88458 721.246059 713.151597 0.001389112
10.93663 720.8313 721.236452 713.326108 0.001387287
10.94544 721.73438 721.250136 713.504855 0.001385551
10.95424 722.73822 721.286135 713.687863 0.001383627
10.96304 723.13177 721.343809 713.875155 0.001382874
10.97184 723.40771 721.422737 714.066772 0.001382346
10.98064 723.39905 721.522834 714.262665 0.001382363
10.98945 724.17767 721.644463 714.462937 0.001380877
10.99825 724.3075 721.788435 714.667533 0.001380629
11.00705 724.78711 721.956338 714.876485 0.001379715
11.01585 725.0191 722.150719 715.089797 0.001379274
11.02465 725.85803 722.375469 715.307475 0.00137768
11.03346 726.41034 722.636323 715.529544 0.001376632
11.04226 726.80786 722.941187 715.755927 0.001375879
11.05106 727.33893 723.301132 715.986722 0.001374875
11.05986 728.48871 723.730504 716.221844 0.001372705
11.06867 729.68927 724.24767 716.461309 0.001370446
11.07747 730.91461 724.875249 716.705107 0.001368149
11.08627 732.43475 725.639624 716.953223 0.001365309
11.09507 733.50409 726.57056 717.205639 0.001363319
11.10387 734.61389 727.69921 717.462336 0.001361259
11.11268 734.77313 729.056086 717.723323 0.001360964
11.12148 735.16101 730.667422 717.988486 0.001360246
11.13028 736.3736 732.552297 718.257888 0.001358006
11.13908 737.815 734.718268 718.531502 0.001355353
11.14789 739.51947 737.155123 718.809235 0.001352229
11.15669 741.40088 739.834511 719.091085 0.001348798
11.16549 743.55603 742.703005 719.377016 0.001344889
11.17429 745.80164 745.680152 719.667025 0.001340839
11.18309 748.42603 748.65431 719.960973 0.001336137
11.19190 750.18988 751.482488 720.258919 0.001332996
11.20070 752.23468 753.992405 720.560819 0.001329372
11.20950 753.77191 755.994345 720.866526 0.001326661
11.21830 755.27197 757.315131 721.176133 0.001324026
11.22710 756.68182 757.836485 721.489485 0.001321559
11.23591 757.13538 757.533316 721.806567 0.001320768
11.24471 756.4422 756.481389 722.127328 0.001321978
11.25351 754.69641 754.83325 722.451714 0.001325036
11.26231 751.80548 752.774242 722.779709 0.001330131
11.27111 748.46802 750.48876 723.111142 0.001336062
11.27992 745.75354 748.134669 723.446107 0.001340926
11.28872 743.54565 745.83925 723.784432 0.001344907
11.29752 742.17169 743.698008 724.126095 0.001347397
11.30632 741.10876 741.776458 724.471034 0.00134933
11.31513 740.21332 740.115804 724.819186 0.001350962
11.32393 739.72876 738.734064 725.170489 0.001351847
11.33273 739.44202 737.632113 725.524878 0.001352371
11.34153 739.51697 736.79665 725.882328 0.001352234
11.35033 739.08777 736.204739 726.242652 0.001353019
11.35914 738.69312 735.827781 726.605947 0.001353742
11.36794 738.34052 735.635209 726.972021 0.001354389
11.37674 737.9718 735.597363 727.340847 0.001355065
11.38554 737.9082 735.687087 727.712358 0.001355182
11.39434 737.86481 735.881506 728.086484 0.001355262
11.40315 738.70538 736.162384 728.4632 0.00135372
11.41195 739.50989 736.516042 728.842305 0.001352247
11.42075 739.95197 736.933795 729.223904 0.001351439
11.42955 740.0611 737.410826 729.607796 0.00135124
11.43835 740.86932 737.946388 729.99391 0.001349766
11.44716 742.02045 738.543416 730.382309 0.001347672
11.45596 742.73169 739.207542 730.77279 0.001346381
11.46476 743.38489 739.947704 731.165327 0.001345198
11.47356 744.70648 740.775348 731.55985 0.001342811
11.48237 746.40082 741.704737 731.956335 0.001339763
11.49117 747.94928 742.75218 732.354577 0.001336989
11.49997 749.64557 743.937097 732.754643 0.001333964
11.50877 750.69611 745.281374 733.156465 0.001332097
11.51757 752.05164 746.80844 733.559883 0.001329696
11.52638 754.51831 748.544793 733.964876 0.001325349
11.53518 756.50775 750.517428 734.371377 0.001321864
11.54398 758.79773 752.753898 734.779366 0.001317874
11.55278 761.59436 755.277894 735.188638 0.001313035
11.56158 764.99884 758.109441 735.599269 0.001307192
11.57039 768.47107 761.261051 736.011195 0.001301285
11.57919 772.98975 764.734146 736.424212 0.001293678
11.58799 777.79041 768.527324 736.838446 0.001285693
11.59679 781.34662 772.629474 737.253695 0.001279842
11.60559 784.73993 777.027518 737.669947 0.001274308
11.61440 788.07367 781.694833 738.087143 0.001268917
11.62320 791.06171 786.58238 738.505224 0.001264124
11.63200 794.68744 791.607385 738.924182 0.001258356
11.64080 797.97437 796.63692 739.343819 0.001253173
11.64961 801.02997 801.494846 739.764272 0.001248393
11.65841 803.72198 805.957019 740.185345 0.001244211
11.66721 805.49878 809.789215 740.607033 0.001241467
11.67601 807.28644 812.787275 741.029287 0.001238718
11.68481 810.13422 814.835882 741.452059 0.001234363
11.69362 811.17859 815.939886 741.875301 0.001232774
11.70242 811.16931 816.220961 742.298968 0.001232788
11.71122 811.25604 815.871075 742.723062 0.001232656
11.72002 810.79663 815.103447 743.147398 0.001233355
11.72883 810.53003 814.11273 743.572126 0.001233761
11.73763 810.60272 813.062857 743.997063 0.00123365
11.74643 810.95593 812.103635 744.422218 0.001233113
11.75523 811.75208 811.388499 744.847554 0.001231903
11.76403 813.20575 811.101289 745.273038 0.001229701
11.77284 815.46173 811.457468 745.698683 0.001226299
11.78164 818.82257 812.686504 746.124313 0.001221266
11.79044 822.29572 815.007483 746.550092 0.001216108
11.79924 825.29175 818.591167 746.975845 0.001211693
11.80804 829.39465 823.547519 747.401546 0.001205699
11.81685 835.24603 829.907325 747.827315 0.001197252
11.82565 841.28217 837.607784 748.252983 0.001188662
11.83445 847.83453 846.497451 748.678576 0.001179475
11.84325 855.78101 856.317312 749.104074 0.001168523
11.85206 865.02594 866.708007 749.529506 0.001156035
11.86086 875.22699 877.192285 749.954759 0.001142561
11.86966 885.2431 887.196538 750.379817 0.001129633
11.87846 895.69061 896.088532 750.804812 0.001116457
11.88726 905.90027 903.233486 751.229585 0.001103874
11.89607 914.67072 908.133866 751.654174 0.00109329
11.90487 921.05389 910.540486 752.07857 0.001085713
11.91367 925.41602 910.533606 752.502814 0.001080595
11.92247 926.98529 908.503309 752.926753 0.001078766
11.93127 925.20258 905.05849 753.350528 0.001080844
11.94008 919.26123 900.913193 753.774136 0.00108783
11.94888 912.26215 896.807794 754.19743 0.001096176
11.95768 906.01617 893.442266 754.620601 0.001103733
11.96648 902.30328 891.447068 755.043506 0.001108275
11.97528 899.8819 891.345016 755.466244 0.001111257
11.98409 899.96393 893.511234 755.888672 0.001111156
11.99289 902.47406 898.16118 756.310941 0.001108065
12.00169 906.34082 905.330379 756.733055 0.001103338
12.01049 911.6535 914.858657 757.154877 0.001096908
12.01929 918.89166 926.405054 757.576608 0.001088268
12.02810 927.89709 939.419464 757.998112 0.001077706
12.03690 939.08795 953.173791 758.419448 0.001064863
12.04570 951.95691 966.750413 758.840627 0.001050468
12.05450 964.47095 979.095854 759.26166 0.001036838
12.06330 976.06348 989.11314 759.682561 0.001024524
12.07211 985.59174 995.812284 760.103344 0.001014619
12.08091 992.46887 998.511872 760.52407 0.001007588
12.08971 995.98218 996.977149 760.944661 0.001004034
12.09851 993.38043 991.445264 761.365179 0.001006664
12.10732 984.98468 982.501 761.785642 0.001015244
12.11612 972.52063 970.894505 762.206067 0.001028256
12.12492 958.23279 957.367381 762.626472 0.001043588
12.13372 943.07922 942.582936 763.046875 0.001060356
12.14252 927.01862 927.09308 763.467344 0.001078727
12.15133 910.71808 911.389206 763.887753 0.001098035
12.16013 896.58636 895.898374 764.308315 0.001115342
12.16893 882.6228 881.01336 764.728905 0.001132987
12.17773 869.61407 867.067468 765.149544 0.001149935
12.18653 857.53369 854.301605 765.570396 0.001166135
12.19534 846.63263 842.882114 765.991337 0.00118115
12.20414 836.93372 832.870924 766.412485 0.001194838
12.21294 827.9574 824.267283 766.833716 0.001207792
12.22174 821.59839 817.002057 767.255242 0.00121714
12.23055 815.99567 810.974391 767.676939 0.001225497
12.23935 811.13434 806.058187 768.09883 0.001232841
12.24815 806.9765 802.110851 768.521076 0.001239193
12.25695 803.51538 798.99372 768.943555 0.001244531
12.26575 800.19354 796.567086 769.366335 0.001249698
12.27456 797.72485 794.703279 769.789433 0.001253565
12.28336 796.07434 793.288051 770.212918 0.001256164
12.29216 794.71198 792.226967 770.636663 0.001258318
12.30096 793.14404 791.446392 771.06083 0.001260805
12.30977 791.06903 790.893721 771.485438 0.001264112
12.31857 789.54047 790.534665 771.910406 0.00126656
12.32737 788.526 790.345967 772.335798 0.001268189
12.33617 788.66931 790.311636 772.76163 0.001267959
12.34497 789.02728 790.417399 773.187964 0.001267383
12.35378 789.75775 790.648287 773.61467 0.001266211
12.36258 789.31763 790.98636 774.041906 0.001266917
12.37138 788.87982 791.40921 774.469683 0.00126762
12.38018 789.29041 791.889181 774.897867 0.001266961
12.38898 789.9624 792.392958 775.326662 0.001265883
12.39779 790.53174 792.882111 775.755933 0.001264971
12.40659 790.8042 793.31584 776.185734 0.001264536
12.41539 791.14484 793.656079 776.616074 0.001263991
12.42419 790.48096 793.874677 777.046958 0.001265053
12.43299 790.17023 793.959591 777.47839 0.00126555
12.44180 789.84283 793.91787 777.910375 0.001266075
12.45060 788.98041 793.773232 778.342963 0.001267459
12.45940 789.35065 793.55973 778.776058 0.001266864
12.46820 789.63831 793.315294 779.209707 0.001266403
12.47701 789.15509 793.076448 779.64391 0.001267178
12.48581 788.5722 792.875346 780.078662 0.001268115
12.49461 788.73096 792.738949 780.513961 0.001267859
12.50341 788.79926 792.688076 780.9498 0.00126775
12.51221 789.14001 792.738062 781.386221 0.001267202
12.52102 788.88257 792.898031 781.823068 0.001267616
12.52982 788.93433 793.171879 782.260528 0.001267533
12.53862 790.31439 793.55842 782.698442 0.001265319
12.54742 791.30682 794.0517 783.136795 0.001263732
12.55622 792.68793 794.642708 783.575724 0.00126153
12.56503 794.38245 795.318913 784.015062 0.001258839
12.57383 795.65137 796.066568 784.454892 0.001256832
12.58263 796.66406 796.870655 784.895045 0.001255234
12.59143 798.66412 797.718028 785.335701 0.001252091
12.60023 800.22784 798.598509 785.776688 0.001249644
12.60904 801.67017 799.509115 786.217982 0.001247396
12.61784 802.58057 800.456823 786.659709 0.001245981
12.62664 803.52844 801.458875 787.101691 0.001244511
12.63544 804.3537 802.541785 787.543952 0.001243234
12.64424 805.42163 803.736512 787.986461 0.001241586
12.65305 806.33899 805.073941 788.429238 0.001240173
12.66185 808.11664 806.577769 788.8721 0.001237445
12.67065 809.81281 808.26408 789.315164 0.001234853
12.67945 812.13953 810.135344 789.758395 0.001231316
12.68826 814.20673 812.180207 790.201655 0.001228189
12.69706 815.72656 814.371695 790.644957 0.001225901
12.70586 817.28217 816.665674 791.088262 0.001223568
12.71466 819.06921 819.001392 791.531579 0.001220898
12.72346 820.17096 821.298642 791.974716 0.001219258
12.73227 821.26801 823.465768 792.417779 0.001217629
12.74107 823.18988 825.403129 792.860725 0.001214787
12.74987 825.33643 827.017944 793.303357 0.001211627
12.75867 825.94336 828.241924 793.745829 0.001210737
12.76747 826.2262 829.042621 794.187943 0.001210322
12.77628 826.78003 829.42781 794.629698 0.001209512
12.78508 826.84216 829.437228 795.071046 0.001209421
12.79388 826.77045 829.125511 795.511935 0.001209526
12.80268 825.98169 828.549142 795.952362 0.001210681
12.81148 825.21985 827.755776 796.392125 0.001211798
12.82029 824.38434 826.783571 796.831369 0.001213026
12.82909 823.58026 825.66666 797.269889 0.001214211
12.83789 822.84174 824.439244 797.70768 0.001215301
12.84669 822.16351 823.142686 798.144685 0.001216303
12.85550 821.04004 821.823647 798.580846 0.001217967
12.86430 819.35132 820.531361 799.016107 0.001220478
12.87310 818.52704 819.311867 799.450409 0.001221707
12.88190 817.32208 818.203264 799.883741 0.001223508
12.89070 816.21637 817.235553 800.315896 0.001225165
12.89951 815.41809 816.429001 800.747012 0.001226365
12.90831 815.55261 815.797945 801.176881 0.001226162
12.91711 815.69116 815.35129 801.605491 0.001225954
12.92591 815.68555 815.094957 802.032782 0.001225963
12.93472 816.84033 815.034099 802.458691 0.001224229
12.94352 817.78418 815.174162 802.883207 0.001222817
12.95232 818.54065 815.522466 803.306124 0.001221686
12.96112 819.27441 816.089549 803.727572 0.001220592
12.96992 820.4668 816.889528 804.147347 0.001218818
12.97873 821.84918 817.9406 804.565388 0.001216768
12.98753 824.01312 819.265319 804.981776 0.001213573
12.99633 825.72046 820.8888 805.396309 0.001211064
13.00513 827.73785 822.837877 805.808973 0.001208112
13.01393 829.68329 825.139584 806.21971 0.001205279
13.02274 832.56091 827.817745 806.628504 0.001201113
13.03154 835.04675 830.890509 807.035206 0.001197538
13.04034 837.72546 834.367436 807.439757 0.001193708
13.04914 840.677 838.248472 807.842236 0.001189517
13.05795 844.38837 842.518387 808.24245 0.001184289
13.06675 848.10242 847.14676 808.640389 0.001179103
13.07555 852.13855 852.086907 809.035996 0.001173518
13.08435 856.42505 857.272206 809.429261 0.001167645
13.09315 860.67578 862.61479 809.819999 0.001161878
13.10196 865.23303 868.010172 810.208289 0.001155758
13.11076 870.58368 873.336226 810.59408 0.001148655
13.11956 876.3078 878.466238 810.977191 0.001141152
13.12836 880.53833 883.291926 811.357746 0.001135669
13.13716 885.45355 887.742007 811.735569 0.001129365
13.14597 889.67847 891.80931 812.110698 0.001124002
13.15477 893.92175 895.550847 812.482961 0.001118666
13.16357 896.82343 899.080381 812.852443 0.001115047
13.17237 900.23456 902.534901 813.2191 0.001110822
13.18117 903.01282 906.044068 813.582769 0.001107404
13.18998 906.22296 909.710124 813.943575 0.001103481
13.19878 910.17963 913.5866 814.301358 0.001098684
13.20758 914.37695 917.679003 814.656125 0.001093641
13.21638 919.31873 921.948125 815.007841 0.001087762
13.22518 923.82739 926.320613 815.356477 0.001082453
13.23399 930.26129 930.716545 815.702001 0.001074967
13.24279 937.1369 935.072378 816.044388 0.00106708
13.25159 943.57709 939.362984 816.383649 0.001059797
13.26039 949.21918 943.608514 816.719684 0.001053497
13.26920 955.73071 947.866543 817.05251 0.00104632
13.27800 961.93799 952.21235 817.382108 0.001039568
13.28680 968.01154 956.705706 817.708462 0.001033046
13.29560 975.08936 961.374746 818.031556 0.001025547
13.30440 980.32434 966.202847 818.351378 0.001020071
13.31321 987.37592 971.136851 818.667953 0.001012785
13.32201 991.45978 976.107826 818.981167 0.001008614
13.33081 998.9787 981.068481 819.291156 0.001001022
13.33961 1002.6289 986.013808 819.597811 0.000997378
13.34841 1007.3895 990.9792 819.901132 0.000992665
13.35722 1008.0562 996.026661 820.201223 0.000992008
13.36602 1010.3895 1001.183042 820.497987 0.000989717
13.37482 1010.02 1006.420843 820.791498 0.000990079
13.38362 1012.2692 1011.609212 821.081665 0.00098788
13.39243 1012.6038 1016.519347 821.368632 0.000987553
13.40123 1013.3522 1020.82479 821.652314 0.000986824
13.41003 1013.8497 1024.136557 821.93273 0.000986339
13.41883 1014.525 1026.067227 822.209995 0.000985683
13.42763 1014.512 1026.294805 822.484035 0.000985696
13.43644 1012.1335 1024.640687 822.754907 0.000988012
13.44524 1010.1835 1021.097545 823.022637 0.000989919
13.45404 1005.6857 1015.816974 823.287286 0.000994346
13.46284 1000.7121 1009.059146 823.548795 0.000999288
13.47164 994.47424 1001.132159 823.807291 0.001005556
13.48045 989.46613 992.348726 824.062808 0.001010646
13.48925 981.75836 983.014798 824.315301 0.001018581
13.49805 973.53412 973.400781 824.564927 0.001027185
13.50685 964.78113 963.745702 824.811646 0.001036505
13.51566 956.33167 954.238715 825.055561 0.001045662
13.52446 947.68097 945.011667 825.296639 0.001055207
13.53326 938.4588 936.133638 825.535017 0.001065577
13.54206 929.22528 927.623477 825.770748 0.001076165
13.55086 920.0528 919.476141 826.003809 0.001086894
13.55967 911.24133 911.672792 826.234367 0.001097404
13.56847 901.95117 904.211314 826.462406 0.001108707
13.57727 894.61737 897.108868 826.688015 0.001117796
13.58607 888.10297 890.394979 826.911262 0.001125996
13.59487 881.35553 884.107542 827.132216 0.001134616
13.60368 873.39142 878.278789 827.350948 0.001144962
13.61248 867.36707 872.930429 827.567533 0.001152914
13.62128 862.70227 868.074117 827.782069 0.001159148
13.63008 858.93738 863.710452 827.994587 0.001164229
13.63889 854.4549 859.831948 828.20519 0.001170337
13.64769 850.43439 856.422463 828.413961 0.00117587
13.65649 847.59625 853.461944 828.620983 0.001179807
13.66529 845.51587 850.925332 828.826341 0.00118271
13.67409 843.29669 848.783331 829.030124 0.001185822
13.68290 841.67322 847.005215 829.232444 0.00118811
13.69170 840.74756 845.558844 829.433322 0.001189418
13.70050 839.71692 844.411743 829.632943 0.001190878
13.70930 839.14429 843.533436 829.831333 0.00119169
13.71810 838.61462 842.895897 830.028587 0.001192443
13.72691 838.604 842.474474 830.224871 0.001192458
13.73571 838.36548 842.248688 830.420215 0.001192797
13.74451 838.35443 842.202702 830.614764 0.001192813
13.75331 839.41797 842.324671 830.808552 0.001191302
13.76211 840.42249 842.607035 831.00177 0.001189878
13.77092 840.91125 843.045492 831.194456 0.001189186
13.77972 841.29877 843.638197 831.386713 0.001188638
13.78852 842.43298 844.385524 831.578713 0.001187038
13.79732 843.84534 845.287076 831.770495 0.001185051
13.80612 845.26099 846.342194 831.962189 0.001183067
13.81493 846.67065 847.546771 832.153902 0.001181097
13.82373 847.29425 848.892584 832.345764 0.001180228
13.83253 847.90863 850.36536 832.537818 0.001179372
13.84133 848.57782 851.944647 832.730239 0.001178442
13.85014 849.55286 853.602733 832.923135 0.00117709
13.85894 849.99396 855.302653 833.116573 0.001176479
13.86774 851.66919 857.000899 833.310685 0.001174165
13.87654 853.7038 858.645488 833.505579 0.001171366
13.88534 855.28625 860.179339 833.701389 0.001169199
13.89415 855.75525 861.543457 833.898157 0.001168558
13.90295 856.7666 862.685157 834.09606 0.001167179
13.91175 857.27509 863.565153 834.295207 0.001166487
13.92055 857.50116 864.165231 834.495638 0.001166179
13.92935 858.63062 864.49244 834.697554 0.001164645
13.93816 859.39185 864.574736 834.900993 0.001163614
13.94696 859.10059 864.455037 835.106087 0.001164008
13.95576 858.65076 864.17997 835.31294 0.001164618
13.96456 857.78107 863.793597 835.521659 0.001165799
13.97337 856.33057 863.329896 835.732373 0.001167773
13.98217 855.04486 862.812392 835.945112 0.001169529
13.99097 854.09778 862.251737 836.160077 0.001170826
13.99977 852.97455 861.647879 836.377297 0.001172368
14.00857 851.74866 860.993862 836.596894 0.001174055
14.01738 851.38782 860.27903 836.818969 0.001174553
14.02618 851.66248 859.496048 837.043618 0.001174174
14.03498 852.57074 858.643999 837.270938 0.001172923
14.04378 852.50488 857.731813 837.501023 0.001173014
14.05259 852.1377 856.776854 837.733991 0.001173519
14.06139 851.72595 855.802999 837.969854 0.001174087
14.07019 851.9931 854.835845 838.208808 0.001173718
14.07899 852.98663 853.901575 838.450859 0.001172351
14.08779 855.18109 853.023295 838.696119 0.001169343
14.09660 859.23248 852.220844 838.94467 0.001163829
14.10540 862.76294 851.510323 839.196594 0.001159067
14.11420 865.76367 850.903449 839.451998 0.00115505
14.12300 866.24524 850.40863 839.71087 0.001154407
14.13180 864.85156 850.029608 839.973402 0.001156268
14.14061 861.02075 849.767174 840.239576 0.001161412
14.14941 855.64069 849.618093 840.509461 0.001168715
14.15821 850.98016 849.57608 840.783213 0.001175116
14.16701 849.23334 849.632112 841.060806 0.001177533
14.17581 849.35071 849.774268 841.342329 0.00117737
14.18462 849.05145 849.989693 841.627841 0.001177785
14.19342 848.2226 850.263224 841.917431 0.001178936
14.20222 848.00305 850.579214 842.211085 0.001179241
14.21102 847.67157 850.921857 842.50885 0.001179702
14.21983 848.55872 851.276438 842.810876 0.001178469
14.22863 849.32263 851.630185 843.117104 0.001177409
14.23743 851.58142 851.9741 843.427607 0.001174286
14.24623 852.12952 852.304125 843.742423 0.001173531
14.25503 852.16833 852.621994 844.061585 0.001173477
14.26384 851.70508 852.935143 844.385126 0.001174115
14.27264 852.2215 853.256097 844.713071 0.001173404
14.28144 851.08893 853.601613 845.045483 0.001174965
14.29024 851.26495 853.991322 845.382269 0.001174722
14.29904 852.44617 854.44807 845.7236 0.001173095
14.30785 853.14441 854.996441 846.069374 0.001172135
14.31665 853.99646 855.663744 846.41964 0.001170965
14.32545 854.81213 856.478938 846.774406 0.001169848
14.33425 855.87317 857.472591 847.133676 0.001168397
14.34305 856.40027 858.676718 847.497492 0.001167678
14.35186 857.94897 860.121976 847.865725 0.00116557
14.36066 859.24646 861.83959 848.238538 0.00116381
14.36946 860.95178 863.855385 848.615794 0.001161505
14.37826 863.54352 866.191805 848.997522 0.001158019
14.38706 865.77588 868.862852 849.383704 0.001155033
14.39587 867.55243 871.872633 849.774321 0.001152668
14.40467 869.47717 875.214244 850.169349 0.001150116
14.41347 871.84265 878.865025 850.568761 0.001146996
14.42227 874.2467 882.788622 850.972572 0.001143842
14.43108 878.02185 886.927863 851.380656 0.001138924
14.43988 882.60565 891.210929 851.793023 0.001133009
14.44868 887.06342 895.545256 852.20963 0.001127315
14.45748 891.14117 899.819876 852.630434 0.001122157
14.46628 896.4176 903.908353 853.055387 0.001115552
14.47509 901.66772 907.668767 853.484439 0.001109056
14.48389 906.27551 910.955297 853.917584 0.001103417
14.49269 910.17688 913.62526 854.354618 0.001098688
14.50149 913.80066 915.562356 854.795678 0.001094331
14.51029 916.71906 916.690677 855.240552 0.001090847
14.51910 919.19916 916.992506 855.68917 0.001087904
14.52790 920.20386 916.511873 856.141617 0.001086716
14.53670 919.5152 915.348869 856.597666 0.00108753
14.54550 918.06927 913.642192 857.057293 0.001089242
14.55430 917.05817 911.552418 857.520419 0.001090443
14.56311 915.87598 909.24613 857.986962 0.001091851
14.57191 913.36926 906.882141 858.456892 0.001094847
14.58071 910.25726 904.610911 858.92996 0.001098591
14.58951 907.53851 902.562143 859.406293 0.001101882
14.59832 905.24792 900.851662 859.885634 0.00110467
14.60712 903.19543 899.571843 860.367945 0.00110718
14.61592 900.86731 898.794883 860.853126 0.001110041
14.62472 899.75073 898.571271 861.341079 0.001111419
14.63352 898.26984 898.926305 861.831702 0.001113251
14.64233 897.68353 899.864662 862.324889 0.001113978
14.65113 898.32751 901.36676 862.820591 0.00111318
14.65993 900.11713 903.391726 863.318529 0.001110967
14.66873 901.70001 905.879386 863.81882 0.001109016
14.67754 904.54358 908.74757 864.321181 0.00110553
14.68634 907.78198 911.901666 864.825555 0.001101586
14.69514 911.2652 915.232343 865.331824 0.001097375
14.70394 914.49658 918.625978 865.839871 0.001093498
14.71274 918.3822 921.966762 866.349636 0.001088871
14.72155 923.00671 925.143774 866.860822 0.001083416
14.73035 927.10718 928.05607 867.373542 0.001078624
14.73915 931.98602 930.610507 867.887495 0.001072977
14.74795 936.25482 932.729176 868.402617 0.001068085
14.75675 939.56842 934.349968 868.918781 0.001064318
14.76556 942.12537 935.437706 869.435861 0.00106143
14.77436 943.88385 935.991163 869.953728 0.001059452
14.78316 944.23865 936.053461 870.472256 0.001059054
14.79196 943.39941 935.709828 870.991373 0.001059996
14.80077 942.79651 935.083218 871.510833 0.001060674
14.80957 941.59778 934.316706 872.030505 0.001062025
14.81837 940.28253 933.560347 872.550435 0.00106351
14.82717 938.75098 932.95691 873.070317 0.001065245
14.83597 937.61755 932.630178 873.590077 0.001066533
14.84478 937.35486 932.681554 874.109586 0.001066832
14.85358 937.42676 933.180811 874.628771 0.00106675
14.86238 937.25439 934.170565 875.147324 0.001066946
14.87118 938.30188 935.659447 875.665293 0.001065755
14.87998 939.52228 937.625895 876.182546 0.001064371
14.88879 941.4743 940.017237 876.698778 0.001062164
14.89759 944.30255 942.753069 877.214094 0.001058983
14.90639 947.77252 945.727254 877.728189 0.001055106
14.91519 950.49597 948.811181 878.241054 0.001052082
14.92399 952.30463 951.862277 878.752387 0.001050084
14.93280 955.80438 954.731881 879.262236 0.001046239
14.94160 959.52466 957.277577 879.770476 0.001042183
14.95040 962.1131 959.378913 880.27681 0.001039379
14.95920 965.5993 960.955577 880.781346 0.001035626
14.96800 969.03918 961.978109 881.283792 0.00103195
14.97681 969.78784 962.474602 881.784084 0.001031153
14.98561 970.52429 962.523998 882.282105 0.001030371
14.99441 971.34937 962.239712 882.777738 0.001029496
15.00321 971.573 961.754562 883.27087 0.001029259
15.01201 970.72131 961.199585 883.761386 0.001030162
15.02082 967.93793 960.694977 884.249232 0.001033124
15.02962 964.2771 960.3375 884.734189 0.001037046
15.03842 962.65277 960.198508 885.216203 0.001038796
15.04722 962.10754 960.320912 885.695172 0.001039385
15.05603 960.87726 960.716641 886.170993 0.001040716
15.06483 961.51093 961.374182 886.643566 0.00104003
15.07363 962.85297 962.260279 887.112794 0.00103858
15.08243 964.26282 963.328148 887.578633 0.001037062
15.09123 965.36902 964.521826 888.040835 0.001035873
15.10004 967.27863 965.78025 888.499517 0.001033828
15.10884 968.10156 967.036925 888.954438 0.001032949
15.11764 968.76447 968.215246 889.405513 0.001032243
15.12644 968.86609 969.228375 889.852815 0.001032134
15.13524 968.526 969.978524 890.296111 0.001032497
15.14405 967.79504 970.359716 890.735427 0.001033277
15.15285 967.86371 970.269731 891.170541 0.001033203
15.16165 967.2774 969.621633 891.601581 0.00103383
15.17045 966.54407 968.359932 892.028334 0.001034614
15.17925 965.91382 966.472262 892.450737 0.001035289
15.18806 964.40033 963.99196 892.868874 0.001036914
15.19686 961.97113 960.996739 893.282545 0.001039532
15.20566 959.5387 957.593522 893.691744 0.001042167
15.21446 956.70776 953.904994 894.096421 0.001045251
15.22327 953.60767 950.057725 894.496574 0.001048649
15.23207 949.78131 946.172181 894.892026 0.001052874
15.24087 946.104 942.355469 895.28287 0.001056966
15.24967 942.50476 938.701636 895.66907 0.001061003
15.25848 939.17676 935.288687 896.050505 0.001064762
15.26728 936.39478 932.178164 896.42719 0.001067926
15.27608 933.50909 929.417809 896.799098 0.001071227
15.28488 931.59686 927.039176 897.166248 0.001073426
15.29368 929.58069 925.060455 897.528499 0.001075754
15.30249 927.59314 923.486939 897.885958 0.001078059
15.31129 924.58002 922.314287 898.238612 0.001081572
15.32009 922.80408 921.528589 898.586334 0.001083654
15.32889 921.59296 921.109378 898.929278 0.001085078
15.33769 921.08057 921.030481 899.267324 0.001085681
15.34650 920.68976 921.262644 899.600515 0.001086142
15.35530 921.72815 921.773736 899.928856 0.001084919
15.36410 922.60376 922.529991 900.252357 0.001083889
15.37290 922.94666 923.497596 900.571066 0.001083486
15.38170 923.11591 924.641792 900.884894 0.001083288
15.39051 923.80927 925.929996 901.194001 0.001082475
15.39931 924.70288 927.330454 901.498307 0.001081428
15.40811 926.11401 928.815965 901.797872 0.001079781
15.41691 926.39417 930.364659 902.092726 0.001079454
15.42572 928.32574 931.963053 902.382905 0.001077208
15.43452 929.93927 933.605667 902.668443 0.001075339
15.44332 931.29596 935.296157 902.949381 0.001073773
15.45212 931.45984 937.043494 903.225794 0.001073584
15.46092 931.90912 938.85998 903.497635 0.001073066
15.46973 932.41876 940.758903 903.765076 0.001072479
15.47853 933.1731 942.748838 904.028078 0.001071613
15.48733 933.89331 944.836473 904.286727 0.001070786
15.49613 934.37793 947.021177 904.541082 0.001070231
15.50493 935.38342 949.299032 904.791205 0.00106908
15.51374 936.09137 951.6602 905.037186 0.001068272
15.52254 937.90875 954.093687 905.27901 0.001066202
15.53134 939.74506 956.591378 905.516857 0.001064118
15.54014 942.1272 959.149019 905.750716 0.001061428
15.54894 944.32428 961.775198 905.980665 0.001058958
15.55775 947.02039 964.489591 906.206857 0.001055943
15.56655 950.27942 967.321519 906.429295 0.001052322
15.57535 954.95313 970.304388 906.648087 0.001047172
15.58415 958.66846 973.468056 906.863317 0.001043113
15.59296 962.21436 976.832381 907.075095 0.001039269
15.60176 965.39465 980.395714 907.283438 0.001035846
15.61056 968.63574 984.138191 907.488508 0.00103238
15.61936 971.52124 988.011221 907.690396 0.001029314
15.62816 975.32086 991.940557 907.88915 0.001025304
15.63697 979.52216 995.825369 908.08489 0.001020906
15.64577 984.33276 999.540868 908.277713 0.001015917
15.65457 988.66235 1002.944145 908.467739 0.001011468
15.66337 994.35077 1005.879838 908.655004 0.001005681
15.67217 999.39441 1008.198971 908.839675 0.001000606
15.68098 1004.7399 1009.770041 909.021854 0.000995282
15.68978 1008.7291 1010.498257 909.201584 0.000991346
15.69858 1011.1807 1010.336433 909.379051 0.000988943
15.70738 1011.6951 1009.288634 909.5543 0.00098844
15.71618 1011.2023 1007.401245 909.72746 0.000988922
15.72499 1009.2236 1004.753922 909.898639 0.000990861
15.73379 1005.822 1001.442242 910.067944 0.000994212
15.74259 1001.7101 997.569423 910.235504 0.000998293
15.75139 995.88757 993.239414 910.401372 0.001004129
15.76020 989.66138 988.551653 910.565733 0.001010447
15.76900 983.4046 983.609088 910.728642 0.001016875
15.77780 976.75348 978.508922 910.890227 0.0010238
15.78660 969.66675 973.350156 911.050599 0.001031282
15.79540 963.44269 968.224319 911.20987 0.001037944
15.80421 957.20538 963.217256 911.368148 0.001044708
15.81301 951.55524 958.402804 911.525545 0.001050911
15.82181 946.94501 953.839628 911.682188 0.001056028
15.83061 942.67249 949.575842 911.838133 0.001060814
15.83942 938.85834 945.639966 911.993561 0.001065123
15.84822 936.19489 942.053211 912.148526 0.001068154
15.85702 933.88361 938.821123 912.303154 0.001070797
15.86582 931.68652 935.941841 912.457552 0.001073322
15.87462 929.34412 933.404787 912.611827 0.001076028
15.88343 927.5705 931.193195 912.7661 0.001078085
15.89223 926.62036 929.287157 912.920423 0.001079191
15.90103 926.68237 927.661858 913.074969 0.001079118
15.90983 926.12573 926.293148 913.229787 0.001079767
15.91863 925.41455 925.154887 913.384978 0.001080597
15.92744 925.35077 924.221715 913.540693 0.001080671
15.93624 926.06262 923.469393 913.696976 0.001079841
15.94504 928.58405 922.876381 913.853942 0.001076908
15.95384 931.61969 922.422028 914.011685 0.001073399
15.96265 935.65485 922.088206 914.170315 0.00106877
15.97145 941.30383 921.859715 914.329886 0.001062356
15.98025 949.68579 921.723555 914.490488 0.00105298
15.98905 957.38702 921.669453 914.652262 0.00104451
15.99785 963.4718 921.689669 914.815239 0.001037913
16.00665 964.94556 921.778806 914.979519 0.001036328
16.01546 961.76617 921.933839 915.145183 0.001039754
16.02426 954.12653 922.153802 915.312329 0.001048079
16.03306 946.48627 922.439724 915.480995 0.001056539
16.04186 940.40167 922.794402 915.651274 0.001063375
16.05066 936.83514 923.222156 915.823219 0.001067424
16.05947 934.18597 923.728849 915.996937 0.001070451
16.06827 932.95087 924.321303 916.172495 0.001071868
16.07707 932.15643 925.007101 916.349919 0.001072781
16.08588 932.00885 925.794592 916.52931 0.001072951
16.09468 932.45929 926.692099 916.710686 0.001072433
16.10348 933.33075 927.707804 916.894083 0.001071432
16.11228 934.20404 928.850184 917.079659 0.00107043
16.12108 935.64178 930.125826 917.267382 0.001068785
16.12989 937.40228 931.540752 917.457342 0.001066778
16.13869 938.98969 933.098706 917.649542 0.001064974
16.14749 940.82532 934.801922 917.844069 0.001062897
16.15629 942.01898 936.649257 918.040918 0.00106155
16.16509 943.76886 938.636719 918.240104 0.001059581
16.17390 945.28937 940.758364 918.441775 0.001057877
16.18270 947.17682 943.002795 918.645871 0.001055769
16.19150 949.48975 945.356821 918.852467 0.001053197
16.20030 951.81635 947.803489 919.061544 0.001050623
16.20911 952.91016 950.325121 919.27317 0.001049417
16.21790 954.77972 952.90126 919.487271 0.001047362
16.22671 957.20996 955.514148 919.703983 0.001044703
16.23551 961.0097 958.144416 919.923299 0.001040572
16.24431 963.0722 960.772776 920.14518 0.001038344
16.25312 965.5141 963.380709 920.369687 0.001035718
16.26192 967.63354 965.947542 920.596773 0.001033449
16.27072 970.21893 968.452472 920.826494 0.001030695
16.27952 972.51514 970.871088 921.058745 0.001028262
16.28832 973.82941 973.181231 921.293655 0.001026874
16.29713 975.50525 975.358938 921.531195 0.00102511
16.30593 977.1189 977.383812 921.771302 0.001023417
16.31473 978.80499 979.240514 922.014021 0.001021654
16.32353 980.0307 980.919249 922.259283 0.001020376
16.33233 981.0274 982.417051 922.507073 0.00101934
16.34114 981.00763 983.735362 922.757428 0.00101936
16.34994 982.32745 984.878081 923.0103 0.00101799
16.35874 982.82391 985.847738 923.265695 0.001017476
16.36754 983.69427 986.645122 923.523529 0.001016576
16.37635 982.97723 987.267375 923.783833 0.001017318
16.38515 984.48462 987.708863 924.046517 0.00101576
16.39395 984.5 987.964601 924.311548 0.001015744
16.40275 985.74335 988.032253 924.578952 0.001014463
16.41155 986.0777 987.916706 924.848661 0.001014119
16.42036 987.7226 987.634329 925.120667 0.00101243
16.42916 987.94525 987.215624 925.394867 0.001012202
16.43796 989.08923 986.708211 925.671281 0.001011031
16.44676 988.75623 986.174711 925.949736 0.001011372
16.45556 989.0033 985.689504 926.230375 0.001011119
16.46437 988.29938 985.33556 926.513024 0.001011839
16.47317 988.71039 985.194937 926.797662 0.001011419
16.48197 988.81927 985.345874 927.08427 0.001011307
16.49077 989.45422 985.854826 927.37273 0.001010658
16.49958 990.15656 986.775325 927.66305 0.001009941
16.50838 991.58936 988.141693 927.955042 0.001008482
16.51718 993.24707 989.969699 928.248847 0.001006799
16.52598 995.11078 992.25453 928.54427 0.001004913
16.53478 996.97595 994.967657 928.841286 0.001003033
16.54359 999.28864 998.060684 929.139866 0.001000712
16.55239 1002.3638 1001.459584 929.439877 0.000997642
16.56119 1005.1207 1005.071852 929.741257 0.000994905
16.56999 1008.8482 1008.784636 930.044008 0.000991229
16.57879 1012.0955 1012.466388 930.348064 0.000988049
16.58760 1016.5295 1015.972474 930.653289 0.000983739
16.59640 1019.498 1019.149582 930.95965 0.000980875
16.60520 1022.7475 1021.846299 931.267113 0.000977758
16.61400 1025.3041 1023.919668 931.575541 0.00097532
16.62280 1027.8386 1025.25306 931.884862 0.000972915
16.63161 1029.0577 1025.765677 932.195078 0.000971763
16.64041 1029.5936 1025.422371 932.506119 0.000971257
16.64921 1028.2876 1024.237248 932.817843 0.000972491
16.65801 1027.491 1022.270483 933.130215 0.000973245
16.66681 1023.1625 1019.617036 933.4432 0.000977362
16.67562 1017.0791 1016.399542 933.756585 0.000983208
16.68442 1010.9971 1012.749476 934.070512 0.000989123
16.69322 1004.9669 1008.80462 934.384769 0.000995058
16.70202 998.56085 1004.6994 934.699357 0.001001441
16.71082 993.21326 1000.559953 935.014133 0.001006833
16.71963 988.01373 996.503042 935.329063 0.001012132
16.72843 983.24335 992.629327 935.644114 0.001017042
16.73723 979.27887 989.02982 935.959074 0.00102116
16.74603 976.27814 985.773778 936.274088 0.001024298
16.75483 973.98682 982.916516 936.588945 0.001026708
16.76364 972.07782 980.496207 936.90365 0.001028724
16.77244 971.1684 978.532459 937.218065 0.001029688
16.78124 970.25372 977.030504 937.532159 0.001030658
16.79004 969.15637 975.978506 937.845832 0.001031825
16.79885 968.59137 975.352086 938.15909 0.001032427
16.80765 968.86652 975.116035 938.471871 0.001032134
16.81645 970.08832 975.223224 938.784042 0.001030834
16.82525 971.68469 975.620619 939.095611 0.00102914
16.83405 972.06573 976.247257 939.406448 0.001028737
16.84286 973.75867 977.040855 939.71653 0.001026948
16.85166 976.02209 977.93705 940.025764 0.001024567
16.86046 977.47644 978.875144 940.334164 0.001023043
16.86926 978.52789 979.800554 940.641673 0.001021943
16.87806 980.37933 980.665776 940.948169 0.001020013
16.88687 981.62762 981.434534 941.253668 0.001018716
16.89567 982.64044 982.078954 941.55805 0.001017666
16.90447 982.82611 982.580377 941.861231 0.001017474
16.91327 983.25732 982.926514 942.163335 0.001017028
16.92207 983.06537 983.109284 942.464178 0.001017226
16.93088 983.84668 983.124702 942.763781 0.001016419
16.93968 984.46326 982.972437 943.062035 0.001015782
16.94848 984.62756 982.656661 943.358963 0.001015612
16.95728 984.65497 982.187803 943.654459 0.001015584
16.96608 984.95587 981.582905 943.94845 0.001015274
16.97489 985.31097 980.865825 944.241065 0.001014908
16.98369 984.89313 980.067949 944.532136 0.001015339
16.99249 984.55017 979.225042 944.821694 0.001015692
17.00129 984.81335 978.378083 945.10964 0.001015421
17.01010 984.94354 977.569796 945.39601 0.001015287
17.01890 984.77002 976.846078 945.680644 0.001015466
17.02770 985.25269 976.252936 945.963677 0.001014968
17.03650 985.17828 975.8364 946.24505 0.001015045
17.04530 985.40057 975.644954 946.524674 0.001014816
17.05411 985.50537 975.722984 946.802591 0.001014708
17.06291 986.36041 976.114164 947.078715 0.001013828
17.07171 987.0105 976.858943 947.35306 0.00101316
17.08051 987.77747 977.993973 947.625576 0.001012374
17.08931 988.70294 979.551809 947.896309 0.001011426
17.09812 990.37177 981.559256 948.165244 0.001009722
17.10692 992.84515 984.03587 948.432306 0.001007206
17.11572 995.88104 986.995007 948.697544 0.001004136
17.12452 998.02405 990.439874 948.960887 0.00100198
17.13333 1000.41 994.365375 949.222329 0.00099959
17.14213 1004.5107 998.7566 949.48192 0.00099551
17.15093 1009.9434 1003.58665 949.739625 0.000990154
17.15973 1014.8438 1008.818452 949.995469 0.000985373
17.16853 1020.3558 1014.400501 950.249391 0.00098005
17.17734 1026.2563 1020.272534 950.501446 0.000974415
17.18614 1032.218 1026.359239 950.751576 0.000968788
17.19494 1038.3049 1032.576575 950.999783 0.000963108
17.20374 1044.249 1038.832037 951.246126 0.000957626
17.21254 1049.4814 1045.02624 951.490579 0.000952852
17.22135 1056.5425 1051.059209 951.733174 0.000946483
17.23015 1062.5673 1056.833447 951.973862 0.000941117
17.23895 1066.2515 1062.263828 952.212702 0.000937865
17.24775 1069.9399 1067.277195 952.449596 0.000934632
17.25656 1073.438 1071.823926 952.684713 0.000931586
17.26536 1076.0485 1075.866221 952.917955 0.000929326
17.27416 1077.4238 1079.387753 953.149358 0.00092814
17.28296 1078.5883 1082.384886 953.37896 0.000927138
17.29177 1078.4473 1084.868076 953.606721 0.000927259
17.30057 1078.3143 1086.859924 953.832654 0.000927373
17.30937 1078.7391 1088.396342 954.056822 0.000927008
17.31817 1080.1163 1089.524492 954.279241 0.000925826
17.32697 1080.9967 1090.2979 954.499872 0.000925072
17.33578 1082.3678 1090.7747 954.718758 0.0009239
17.34458 1081.509 1091.008412 954.935937 0.000924634
17.35338 1081.9958 1091.044809 955.151377 0.000924218
17.36218 1081.5634 1090.916129 955.365094 0.000924587
17.37098 1082.8 1090.641038 955.577154 0.000923532
17.37979 1083.1603 1090.225128 955.787572 0.000923224
17.38859 1085.0115 1089.663892 955.996318 0.000921649
17.39739 1084.5614 1088.947818 956.203434 0.000922032
17.40619 1087.1145 1088.065959 956.40896 0.000919866
17.41499 1087.2738 1087.012858 956.612821 0.000919732
17.42380 1089.0487 1085.78888 956.815174 0.000918233
17.43260 1087.5667 1084.40648 957.015943 0.000919484
17.44140 1087.8359 1082.890269 957.215192 0.000919256
17.45020 1086.4482 1081.281453 957.412893 0.00092043
17.45901 1086.2147 1079.637177 957.609086 0.000920628
17.46781 1082.6497 1078.03103 957.80381 0.00092366
17.47661 1079.8514 1076.551793 957.996995 0.000926053
17.48541 1076.3728 1075.293964 958.188789 0.000929046
17.49421 1075.1315 1074.356374 958.37912 0.000930119
17.50302 1072.4977 1073.829106 958.568048 0.000932403
17.51182 1072.1543 1073.789992 958.755545 0.000932702
17.52062 1071.6117 1074.299003 958.941649 0.000933174
17.52942 1072.5814 1075.391379 959.126354 0.00093233
17.53822 1073.5317 1077.0805 959.309715 0.000931505
17.54703 1075.885 1079.348322 959.491746 0.000929467
17.55583 1078.7759 1082.152493 959.67242 0.000926977
17.56463 1082.9946 1085.42044 959.85179 0.000923366
17.57343 1087.5664 1089.052264 960.029827 0.000919484
17.58224 1093.5959 1092.924761 960.206564 0.000914415
17.59104 1099.666 1096.889847 960.381992 0.000909367
17.59984 1106.0376 1100.785694 960.556161 0.000904128
17.60864 1111.6838 1104.43515 960.72908 0.000899536
17.61744 1116.2516 1107.66196 960.900718 0.000895855
17.62625 1120.5449 1110.298086 961.071105 0.000892423
17.63505 1123.2245 1112.198637 961.240266 0.000890294
17.64385 1124.9351 1113.250128 961.408133 0.00088894
17.65265 1125.4932 1113.381405 961.574825 0.000888499
17.66145 1124.1254 1112.563067 961.740271 0.00088958
17.67026 1121.2732 1110.805486 961.904515 0.000891843
17.67906 1116.8506 1108.153382 962.067522 0.000895375
17.68786 1111.6206 1104.671739 962.229315 0.000899588
17.69666 1105.2319 1100.442549 962.389914 0.000904787
17.70546 1097.0923 1095.555799 962.549248 0.0009115
17.71427 1088.7883 1090.102296 962.707427 0.000918452
17.72307 1081.4169 1084.179274 962.864378 0.000924713
17.73187 1074.2327 1077.884235 963.020137 0.000930897
17.74067 1067.4287 1071.320128 963.174666 0.000936831
17.74948 1061.3909 1064.586388 963.327983 0.00094216
17.75828 1054.3354 1057.786347 963.480066 0.000948465
17.76708 1046.5363 1051.014617 963.630947 0.000955533
17.77588 1039.2585 1044.36331 963.780622 0.000962225
17.78468 1032.5228 1037.916681 963.929052 0.000968502
17.79349 1025.3724 1031.742585 964.076265 0.000975255
17.80229 1018.2963 1025.901012 964.222223 0.000982032
17.81109 1011.4263 1020.434713 964.366935 0.000988703
17.81989 1006.7452 1015.375419 964.510378 0.0009933
17.82869 1002.5861 1010.730519 964.652577 0.000997421
17.83750 998.24402 1006.52881 964.793524 0.001001759
17.84630 994.13342 1002.759255 964.933178 0.001005901
17.85510 990.7265 999.410577 965.071562 0.00100936
17.86390 987.14386 996.467057 965.208636 0.001013024
17.87270 983.83374 993.90641 965.34439 0.001016432
17.88151 981.60504 991.70213 965.478844 0.00101874
17.89031 979.86566 989.826092 965.611973 0.001020548
17.89911 978.28009 988.24798 965.743782 0.001022202
17.90791 977.72345 986.937712 965.874229 0.001022784
17.91672 976.7644 985.864769 966.003332 0.001023788
17.92552 975.46216 985.000209 966.131052 0.001025155
17.93432 973.79535 984.316098 966.257378 0.00102691
17.94312 972.87109 983.786006 966.382326 0.001027885
17.95192 972.38861 983.385719 966.505871 0.001028395
17.96073 972.60394 983.092692 966.628015 0.001028168
17.96953 972.82825 982.886869 966.748719 0.001027931
17.97833 972.74554 982.750441 966.867998 0.001028018
17.98713 972.73737 982.668498 966.985788 0.001028027
17.99593 972.92493 982.629181 967.102158 0.001027829
18.00474 973.23743 982.624398 967.217044 0.001027499
18.01354 973.37701 982.649663 967.330448 0.001027351
18.02234 973.30127 982.704583 967.442372 0.001027431
18.03114 973.08429 982.792092 967.55278 0.00102766
18.03995 973.94171 982.918479 967.661688 0.001026755
18.04875 974.72241 983.092044 967.769037 0.001025933
18.05755 975.60474 983.322797 967.874892 0.001025005
18.06635 975.89618 983.621443 967.979195 0.001024699
18.07515 976.74762 983.998402 968.08195 0.001023806
18.08396 977.74738 984.463982 968.18316 0.001022759
18.09276 978.44305 985.026715 968.282796 0.001022032
18.10156 979.1864 985.69423 968.380851 0.001021256
18.11036 980.95874 986.472237 968.477343 0.001019411
18.11916 981.90509 987.364073 968.572264 0.001018428
18.12797 982.64258 988.370863 968.665589 0.001017664
18.13677 983.60693 989.490874 968.757324 0.001016666
18.14557 985.12769 990.720113 968.847476 0.001015097
18.15437 986.21234 992.050541 968.936023 0.00101398
18.16317 987.35144 993.471882 969.022962 0.001012811
18.17198 989.54468 994.970875 969.108313 0.001010566
18.18078 991.58484 996.531305 969.192075 0.001008487
18.18958 993.31226 998.134247 969.274228 0.001006733
18.19838 995.26807 999.761036 969.354785 0.001004754
18.20719 997.34546 1001.39148 969.433755 0.001002662
18.21599 999.22223 1003.004923 969.511107 0.001000778
18.22479 1001.2814 1004.583579 969.586897 0.00099872
18.23359 1003.4228 1006.108879 969.661094 0.000996589
18.24239 1005.0917 1007.563809 969.733713 0.000994934
18.25120 1006.2687 1008.931643 969.804767 0.00099377
18.26000 1007.5851 1010.194793 969.874249 0.000992472
18.26880 1009.4426 1011.335701 969.94218 0.000990646
18.27760 1010.5974 1012.335591 970.008541 0.000989514
18.28640 1011.3391 1013.177033 970.073385 0.000988788
18.29521 1011.8985 1013.842881 970.136694 0.000988241
18.30401 1012.6025 1014.31943 970.198485 0.000987554
18.31281 1012.8021 1014.5973 970.258777 0.00098736
18.32161 1013.2964 1014.673222 970.31757 0.000986878
18.33041 1012.7233 1014.550804 970.374877 0.000987437
18.33922 1012.6887 1014.241307 970.430726 0.00098747
18.34802 1012.5533 1013.763168 970.485131 0.000987602
18.35682 1011.6246 1013.141393 970.538095 0.000988509
18.36562 1010.5905 1012.396175 970.589641 0.00098952
18.37443 1009.7228 1011.581745 970.639791 0.000990371
18.38323 1009.003 1010.725075 970.688551 0.000991077
18.39203 1008.7159 1009.863651 970.73594 0.000991359
18.40083 1008.2935 1009.035125 970.781987 0.000991775
18.40963 1008.1616 1008.276418 970.82671 0.000991904
18.41844 1007.4995 1007.621647 970.870119 0.000992556
18.42724 1006.9224 1007.099962 970.912239 0.000993125
18.43604 1007.1664 1006.741839 970.953095 0.000992885
18.44484 1006.7293 1006.566562 970.992688 0.000993316
18.45364 1006.9715 1006.588757 971.031067 0.000993077
18.46245 1007.9512 1006.815661 971.068236 0.000992112
18.47125 1009.2831 1007.248449 971.104223 0.000990802
18.48005 1010.4715 1007.879117 971.139042 0.000989637
18.48885 1011.1721 1008.693954 971.172719 0.000988951
18.49766 1011.5661 1009.670736 971.205278 0.000988566
18.50646 1012.6066 1010.781004 971.236727 0.00098755
18.51526 1014.4019 1011.990885 971.267109 0.000985803
18.52406 1017.4561 1013.259028 971.296431 0.000982843
18.53286 1020.6958 1014.541611 971.32472 0.000979724
18.54167 1023.8593 1015.789084 971.351992 0.000976697
18.55047 1026.7081 1016.951774 971.37827 0.000973987
18.55927 1029.858 1017.978718 971.403571 0.000971008
18.56807 1032.1323 1018.822088 971.427922 0.000968868
18.57687 1033.6305 1019.439801 971.451342 0.000967464
18.58568 1033.7222 1019.797641 971.473845 0.000967378
18.59448 1034.7637 1019.873717 971.495453 0.000966404
18.60328 1035.6523 1019.658963 971.51618 0.000965575
18.61208 1036.8793 1019.158319 971.536047 0.000964432
18.62088 1036.4521 1018.389509 971.555067 0.00096483
18.62969 1036.0338 1017.380708 971.573261 0.000965219
18.63849 1034.0739 1016.16737 971.590644 0.000967049
18.64729 1031.3134 1014.790669 971.607226 0.000969637
18.65609 1026.6073 1013.292284 971.623024 0.000974082
18.66490 1022.6301 1011.715445 971.638047 0.000977871
18.67370 1019.1451 1010.100452 971.652308 0.000981215
18.68250 1015.5667 1008.485161 971.665819 0.000984672
18.69130 1011.6141 1006.904763 971.67859 0.000988519
18.70010 1008.5974 1005.389516 971.690629 0.000991476
18.70891 1006.2564 1003.967067 971.701942 0.000993782
18.71771 1004.7582 1002.659022 971.712536 0.000995264
18.72651 1002.778 1001.484085 971.722417 0.00099723
18.73531 1001.3478 1000.448131 971.731585 0.000998654
18.74411 1000.498 999.574819 971.740049 0.000999502
18.75292 999.93048 998.862704 971.747806 0.00100007
18.76172 999.88446 998.313687 971.754859 0.001000116
18.77052 1000.3824 997.928011 971.761206 0.000999618
18.77932 1000.1968 997.703664 971.766844 0.000999803
18.78812 1000.2795 997.638811 971.771768 0.000999721
18.79693 1000.9252 997.731914 971.775977 0.000999076
18.80573 1001.356 997.983239 971.779463 0.000998646
18.81453 1001.8512 998.395273 971.782218 0.000998152
18.82333 1002.9771 998.973061 971.784234 0.000997032
18.83214 1003.7493 999.72429 971.785501 0.000996265
18.84094 1004.6825 1000.658545 971.786007 0.000995339
18.84974 1005.6631 1001.786463 971.785741 0.000994369
18.85854 1007.2383 1003.120039 971.784688 0.000992814
18.86734 1008.7668 1004.669844 971.782833 0.000991309
18.87615 1010.993 1006.445332 971.780161 0.000989127
18.88495 1013.2394 1008.453688 971.776653 0.000986934
18.89375 1015.285 1010.696705 971.772292 0.000984945
18.90255 1018.0095 1013.178942 971.767058 0.000982309
18.91135 1021.7203 1015.895414 971.76093 0.000978741
18.92016 1024.9111 1018.837505 971.753887 0.000975694
18.92896 1028.7816 1021.99218 971.745905 0.000972024
18.93776 1032.2196 1025.341998 971.736963 0.000968786
18.94656 1035.4993 1028.864668 971.727033 0.000965718
18.95537 1039.2208 1032.534538 971.716093 0.000962259
18.96417 1043.7517 1036.319818 971.704118 0.000958082
18.97297 1046.9226 1040.187354 971.691078 0.00095518
18.98177 1050.2883 1044.097215 971.676946 0.00095212
18.99057 1053.3934 1048.004949 971.661694 0.000949313
18.99938 1056.1691 1051.861949 971.645296 0.000946818
19.00818 1058.826 1055.614875 971.62772 0.000944442
19.01698 1062.066 1059.206377 971.608944 0.000941561
19.02578 1064.246 1062.580064 971.588929 0.000939632
19.03458 1065.7407 1065.67573 971.56765 0.000938315
19.04339 1066.3712 1068.438158 971.545076 0.00093776
19.05219 1068.0432 1070.816561 971.521176 0.000936292
19.06099 1070.1722 1072.768954 971.495925 0.000934429
19.06979 1072.465 1074.263659 971.469287 0.000932431
19.07859 1072.29 1075.28075 971.441246 0.000932584
19.08740 1072.563 1075.812721 971.411752 0.000932346
19.09620 1071.4867 1075.860436 971.380791 0.000933283
19.10500 1069.7098 1075.434237 971.348331 0.000934833
19.11380 1067.0448 1074.549099 971.31434 0.000937168
19.12261 1064.9497 1073.224047 971.2788 0.000939011
19.13141 1061.8807 1071.481744 971.241683 0.000941725
19.14021 1059.9519 1069.346003 971.202955 0.000943439
19.14901 1057.3436 1066.846591 971.162595 0.000945766
19.15781 1055.3141 1064.016914 971.120582 0.000947585
19.16662 1052.5306 1060.89562 971.076895 0.000950091
19.17542 1050.3663 1057.525464 971.031504 0.000952049
19.18422 1047.439 1053.95241 970.984401 0.00095471
19.19302 1045.1255 1050.223969 970.935569 0.000956823
19.20182 1041.3086 1046.384214 970.884976 0.00096033
19.21063 1037.2247 1042.476314 970.832608 0.000964111
19.21943 1033.6422 1038.539654 970.778462 0.000967453
19.22823 1030.5493 1034.607851 970.722523 0.000970356
19.23703 1026.9622 1030.710698 970.664768 0.000973746
19.24583 1023.5541 1026.875337 970.605217 0.000976988
19.25464 1019.6861 1023.122275 970.543824 0.000980694
19.26344 1016.2628 1019.473997 970.480609 0.000983997
19.27224 1012.7252 1015.948251 970.415556 0.000987435
19.28104 1009.8399 1012.563188 970.348677 0.000990256
19.28985 1007.3829 1009.333351 970.279965 0.000992671
19.29865 1004.908 1006.271929 970.209417 0.000995116
19.30745 1002.237 1003.390634 970.137067 0.000997768
19.31625 1000.2171 1000.69565 970.062878 0.000999783
19.32505 998.07025 998.193907 969.986888 0.001001933
19.33386 995.37006 995.887289 969.909092 0.001004651
19.34266 993.03278 993.777 969.829525 0.001007016
19.35146 991.03619 991.860644 969.748186 0.001009045
19.36026 988.69794 990.13485 969.665114 0.001011431
19.36906 986.83716 988.593975 969.580301 0.001013338
19.37787 985.48346 987.231203 969.493775 0.00101473
19.38667 983.88354 986.039372 969.405577 0.00101638
19.39547 982.20599 985.009428 969.315716 0.001018116
19.40427 981.68304 984.132683 969.224241 0.001018659
19.41307 981.08673 983.399491 969.131194 0.001019278
19.42188 979.4754 982.799825 969.036558 0.001020955
19.43068 978.57581 982.324542 968.940409 0.001021893
19.43948 978.71332 981.964065 968.842763 0.00102175
19.44828 978.45526 981.709832 968.74368 0.001022019
19.45709 977.65332 981.553553 968.643183 0.001022857
19.46589 977.02997 981.488273 968.541334 0.00102351
19.47469 977.20392 981.507909 968.438193 0.001023328
19.48349 977.70746 981.607997 968.333748 0.001022801
19.49229 977.81036 981.785885 968.228088 0.001022693
19.50110 977.57239 982.040733 968.121248 0.001022942
19.50990 978.29956 982.374133 968.013295 0.001022182
19.51870 979.14093 982.789879 967.904262 0.001021303
19.52750 979.46722 983.294115 967.794254 0.001020963
19.53630 979.61255 983.895508 967.683256 0.001020812
19.54511 980.11597 984.60406 967.57134 0.001020287
19.55391 981.02466 985.431303 967.458589 0.001019342
19.56271 982.07635 986.389216 967.345034 0.001018251
19.57151 982.35016 987.489858 967.230751 0.001017967
19.58032 983.30853 988.744361 967.11578 0.001016975
19.58912 983.87469 990.16211 967.000231 0.00101639
19.59792 985.25409 991.751523 966.884093 0.001014967
19.60672 987.60114 993.517126 966.76744 0.001012555
19.61552 990.20691 995.460693 966.650352 0.00100989
19.62433 992.25134 997.5801 966.532863 0.001007809
19.63313 994.82782 999.869138 966.415061 0.001005199
19.64193 997.63104 1002.316438 966.296992 0.001002375
19.65073 1001.6659 1004.906326 966.178702 0.000998337
19.65953 1005.5329 1007.617873 966.060239 0.000994498
19.66834 1009.7957 1010.423858 965.94166 0.000990299
19.67714 1013.5202 1013.291952 965.823038 0.00098666
19.68594 1017.1455 1016.184471 965.704395 0.000983144
19.69474 1021.3558 1019.058933 965.585812 0.000979091
19.70354 1026.2136 1021.868372 965.467336 0.000974456
19.71235 1029.843 1024.563523 965.348983 0.000971022
19.72115 1033.6584 1027.093298 965.230821 0.000967438
19.72995 1036.8158 1029.405593 965.112869 0.000964491
19.73875 1040.2949 1031.450015 964.99519 0.000961266
19.74756 1042.6099 1033.179343 964.877816 0.000959132
19.75636 1045.2045 1034.550679 964.760814 0.000956751
19.76516 1046.1222 1035.529012 964.644151 0.000955911
19.77396 1047.5667 1036.086044 964.527896 0.000954593
19.78276 1048.3524 1036.204472 964.412087 0.000953878
19.79157 1048.3904 1035.878193 964.296716 0.000953843
19.80037 1046.4651 1035.113252 964.181842 0.000955598
19.80917 1044.3492 1033.928306 964.067451 0.000957534
19.81797 1041.7386 1032.353556 963.953614 0.000959934
19.82678 1039.0581 1030.427122 963.840272 0.00096241
19.83558 1035.4685 1028.196664 963.727487 0.000965746
19.84438 1032.5366 1025.711685 963.615241 0.000968489
19.85318 1028.8193 1023.024973 963.503541 0.000971988
19.86198 1025.1267 1020.188102 963.392405 0.000975489
19.87079 1021.1945 1017.251316 963.281835 0.000979245
19.87959 1017.886 1014.260495 963.171798 0.000982428
19.88839 1014.2231 1011.256851 963.062282 0.000985976
19.89719 1010.5703 1008.279885 962.953318 0.00098954
19.90599 1006.0648 1005.361079 962.844861 0.000993972
19.91480 1002.767 1002.529167 962.736902 0.000997241
19.92360 999.9563 999.807323 962.629427 0.001000044
19.93240 997.08081 997.214658 962.522419 0.001002928
19.94120 993.84454 994.764765 962.415832 0.001006194
19.95001 991.38055 992.466486 962.309651 0.001008694
19.95881 989.18573 990.326258 962.203856 0.001010932
19.96761 987.22351 988.344175 962.098401 0.001012942
19.97641 985.5387 986.517919 961.99326 0.001014673
19.98521 983.7674 984.842014 961.888427 0.0010165
19.99402 981.13037 983.306828 961.783812 0.001019233
20.00282 979.12311 981.902896 961.67939 0.001021322
20.01162 977.92297 980.617803 961.575141 0.001022575
20.02042 977.25818 979.439919 961.471038 0.001023271
20.02922 976.88074 978.35675 961.36701 0.001023666
20.03803 976.21002 977.357113 961.263034 0.00102437
20.04683 975.43555 976.431295 961.15909 0.001025183
20.05563 974.75549 975.570212 961.055062 0.001025898
20.06443 973.9754 974.767585 960.950987 0.00102672
20.07324 972.9776 974.018006 960.846784 0.001027773
20.08204 971.62256 973.318081 960.74243 0.001029206
20.09084 970.34552 972.665435 960.63788 0.001030561
20.09964 969.36157 972.058914 960.533122 0.001031607
20.10844 969.71021 971.498065 960.428084 0.001031236
20.11725 970.34271 970.983199 960.322729 0.001030564
20.12605 970.3139 970.515158 960.217088 0.001030594
20.13485 970.05084 970.094808 960.111056 0.001030874
20.14365 969.41449 969.723286 960.004649 0.00103155
20.15245 968.49951 969.401671 959.89786 0.001032525
20.16126 967.98871 969.13076 959.790645 0.00103307
20.17006 968.14215 968.911137 959.682995 0.001032906
20.17886 967.93115 968.74308 959.574875 0.001033131
20.18766 967.88013 968.626369 959.466348 0.001033186
20.19646 967.54688 968.560256 959.357312 0.001033542
20.20527 967.42181 968.543422 959.247857 0.001033675
20.21407 967.71112 968.574003 959.137994 0.001033366
20.22287 967.52966 968.649509 959.027656 0.00103356
20.23167 967.7627 968.766767 958.916926 0.001033311
20.24047 968.15674 968.922298 958.805777 0.001032891
20.24928 968.77252 969.111929 958.69429 0.001032234
20.25808 969.00946 969.331493 958.582472 0.001031982
20.26688 969.24451 969.576244 958.470387 0.001031731
20.27568 969.6084 969.841642 958.358083 0.001031344
20.28449 969.53284 970.123256 958.245563 0.001031425
20.29329 969.40137 970.416274 958.132924 0.001031564
20.30209 969.91217 970.716505 958.02024 0.001031021
20.31089 970.11407 971.019184 957.907574 0.001030807
20.31969 969.76563 971.320069 957.794957 0.001031177
20.32850 969.64758 971.614386 957.682602 0.001031303
20.33730 970.56049 971.897615 957.570492 0.001030332
20.34610 970.57855 972.165164 957.458718 0.001030313
20.35490 971.22601 972.412198 957.347409 0.001029626
20.36370 971.92413 972.634595 957.236623 0.001028887
20.37251 972.31281 972.828447 957.126577 0.001028476
20.38131 972.24072 972.990926 957.017269 0.001028552
20.39011 972.4118 973.120272 956.90897 0.001028371
20.39891 972.58386 973.216333 956.801649 0.001028189
20.40771 973.7547 973.280799 956.695479 0.001026953
20.41652 973.86456 973.317192 956.590648 0.001026837
20.42532 973.85315 973.330944 956.48721 0.001026849
20.43412 974.1145 973.329302 956.385369 0.001026573
20.44292 974.2843 973.320936 956.285291 0.001026394
20.45172 974.85205 973.315663 956.187006 0.001025797
20.46053 975.46069 973.324244 956.090676 0.001025157
20.46933 975.30109 973.357981 955.996555 0.001025324
20.47813 975.69189 973.428522 955.90468 0.001024914
20.48693 976.12842 973.547321 955.815214 0.001024455
20.49574 976.49268 973.726299 955.728311 0.001024073
20.50454 977.03601 973.976179 955.6441 0.001023504
20.51334 978.13025 974.307957 955.562775 0.001022359
20.52214 978.79114 974.731239 955.484322 0.001021668
20.53094 979.14069 975.255782 955.408975 0.001021304
20.53975 979.73633 975.889289 955.336835 0.001020683
20.54855 980.89844 976.639687 955.268035 0.001019474
20.55735 981.46027 977.512386 955.202699 0.00101889
20.56615 982.08301 978.513436 955.140809 0.001018244
20.57495 983.02313 979.645911 955.082569 0.00101727
20.58376 983.86224 980.912766 955.028054 0.001016402
20.59256 984.28564 982.314618 954.977276 0.001015965
20.60136 985.78687 983.850804 954.930402 0.001014418
20.61016 987.71539 985.519364 954.887434 0.001012437
20.61896 989.37482 987.31563 954.848446 0.001010739
20.62777 990.19159 989.235445 954.813373 0.001009906
20.63657 991.64575 991.271325 954.782396 0.001008425
20.64537 993.54004 993.415242 954.75538 0.001006502
20.65417 995.75861 995.65773 954.732375 0.001004259
20.66298 998.06067 997.988687 954.71343 0.001001943
20.67178 999.83484 1000.396012 954.698393 0.001000165
20.68058 1001.5268 1002.867612 954.687314 0.000998476
20.68938 1003.3629 1005.390105 954.680076 0.000996648
20.69818 1004.2513 1007.946452 954.676706 0.000995767
20.70699 1005.0079 1010.519522 954.677109 0.000995017
20.71579 1006.4394 1013.088779 954.681045 0.000993602
20.72459 1008.3707 1015.630599 954.688528 0.000991699
20.73339 1010.7168 1018.118504 954.699473 0.000989397
20.74219 1012.5897 1020.524167 954.713583 0.000987567
20.75100 1014.4386 1022.816362 954.730886 0.000985767
20.75980 1016.0266 1024.957118 954.751088 0.000984226
20.76860 1017.883 1026.922011 954.774126 0.000982431
20.77741 1020.0984 1028.668712 954.799859 0.000980298
20.78620 1022.864 1030.176049 954.827999 0.000977647
20.79501 1024.6829 1031.412945 954.858357 0.000975912
20.80381 1027.7379 1032.357481 954.890825 0.000973011
20.81261 1029.8944 1032.99471 954.925128 0.000970973
20.82141 1032.3479 1033.316174 954.961108 0.000968666
20.83022 1033.7418 1033.320921 954.998571 0.00096736
20.83902 1034.3522 1033.014075 955.037278 0.000966789
20.84782 1034.0408 1032.406934 955.077019 0.00096708
20.85662 1033.17 1031.515031 955.117559 0.000967895
20.86542 1032.0178 1030.358174 955.158874 0.000968976
20.87423 1030.3953 1028.95925 955.200616 0.000970501
20.88303 1028.2683 1027.343055 955.242514 0.000972509
20.89183 1025.3457 1025.536616 955.284696 0.000975281
20.90063 1023.7947 1023.5682 955.326843 0.000976758
20.90943 1021.7096 1021.465847 955.368739 0.000978752
20.91824 1019.2559 1019.256706 955.41025 0.000981108
20.92704 1016.5582 1016.970238 955.451562 0.000983712
20.93584 1014.3522 1014.63052 955.49236 0.000985851
20.94465 1011.9055 1012.263345 955.532494 0.000988235
20.95345 1010.3116 1009.889442 955.572028 0.000989794
20.96225 1007.8666 1007.528809 955.611061 0.000992195
20.97105 1005.241 1005.197034 955.649513 0.000994786
20.97985 1002.3299 1002.907625 955.687285 0.000997676
20.98866 999.44055 1000.672212 955.724608 0.00100056
20.99746 997.10107 998.498482 955.761697 0.001002907
21.00626 995.50964 996.392572 955.798254 0.001004511
21.01506 994.44598 994.358731 955.834828 0.001005585
21.02386 992.27637 992.397778 955.871274 0.001007784
21.03267 990.25293 990.512733 955.908176 0.001009843
21.04147 989.50159 988.702535 955.945442 0.00101061
21.05027 988.49774 986.968736 955.98336 0.001011636
21.05907 987.12885 985.311588 956.022502 0.001013039
21.06788 985.59906 983.732283 956.06287 0.001014611
21.07668 983.72766 982.233753 956.104768 0.001016542
21.08548 983.10681 980.818152 956.148573 0.001017183
21.09428 982.57971 979.49092 956.19478 0.001017729
21.10308 981.97253 978.255967 956.243195 0.001018358
21.11189 981.20941 977.120397 956.294807 0.00101915
21.12069 979.93677 976.089657 956.349509 0.001020474
21.12949 978.54181 975.170713 956.407747 0.001021929
21.13829 977.57892 974.370155 956.469769 0.001022935
21.14709 977.4425 973.695092 956.53596 0.001023078
21.15590 977.32104 973.151802 956.605974 0.001023205
21.16470 977.211 972.747146 956.680247 0.00102332
21.17350 976.9386 972.488004 956.759622 0.001023606
21.18230 976.53876 972.378804 956.842871 0.001024025
21.19110 975.92419 972.424959 956.930448 0.00102467
21.19991 976.32977 972.630671 957.022455 0.001024244
21.20871 977.10217 972.998167 957.118103 0.001023434
21.21751 977.62897 973.529426 957.217536 0.001022883
21.22631 977.14899 974.223885 957.319884 0.001023385
21.23512 977.51813 975.079753 957.424809 0.001022999
21.24392 977.90906 976.092173 957.530811 0.00102259
21.25272 979.22083 977.256026 957.63799 0.00102122
21.26152 981.14551 978.561994 957.744597 0.001019217
21.27032 982.66083 979.999085 957.84945 0.001017645
21.27913 982.45087 981.553389 957.951188 0.001017863
21.28793 983.69916 983.209465 958.048862 0.001016571
21.29673 984.59338 984.947073 958.139632 0.001015648
21.30553 986.15613 986.746004 958.222847 0.001014038
21.31433 987.15967 988.581922 958.295539 0.001013007
21.32314 988.75464 990.429397 958.356199 0.001011373
21.33194 989.52197 992.26153 958.403319 0.001010589
21.34074 990.35419 994.046775 958.432986 0.00100974
21.34954 991.33826 995.756262 958.444311 0.001008737
21.35834 991.73956 997.35814 958.435431 0.001008329
21.36715 991.71777 998.821444 958.403477 0.001008351
21.37595 992.61316 1000.114268 958.346571 0.001007442
21.38475 994.052 1001.208444 958.263833 0.001005984
21.39355 995.7641 1002.077499 958.154427 0.001004254
21.40236 996.61884 1002.697427 958.017307 0.001003393
21.41116 998.13879 1003.050047 957.852787 0.001001865
21.41996 999.20032 1003.122082 957.661808 0.0010008
21.42876 1000.9453 1002.907061 957.446359 0.000999056
21.43756 1001.6565 1002.4053 957.20954 0.000998346
21.44637 1002.1262 1001.626485 956.957084 0.000997878
21.45517 1001.1404 1000.585464 956.694855 0.000998861
21.46397 999.84686 999.307296 956.432673 0.001000153
21.47277 998.7926 997.822384 956.181349 0.001001209
21.48157 998.1947 996.168516 955.955332 0.001001809
21.49038 996.64117 994.38997 955.77292 0.00100337
21.49918 995.23187 992.53775 955.656605 0.001004791
21.50798 993.49805 990.664326 955.630565 0.001006545
21.51678 991.44635 988.833193 955.729686 0.001008627
21.52558 990.0722 987.107793 955.988971 0.001010027
21.53439 988.8222 985.560443 956.455441 0
21.54319 987.27551 0 0 0
21.55199 986.20013 0 0 0
21.56079 985.87024 0 0 0
21.56959 984.81561 0 0 0
21.57840 983.09503 0 0 0
21.58720 982.17706 0 0 0
21.59600 981.81964 0 0 0
21.60480 981.68103 0 0 0
21.61360 981.26917 0 0 0
21.62241 980.83295 0 0 0
21.63121 980.45587 0 0 0
21.64001 980.10901 0 0 0
21.64881 979.95715 0 0 0
21.65762 980.3949 0 0 0
21.66642 979.74908 0 0 0
21.67522 978.51843 0 0 0
21.68402 978.25256 0 0 0
21.69282 978.7276 0 0 0
21.70163 979.05286 0 0 0
21.71043 979.20007 0 0 0
21.71923 979.04468 0 0 0
21.72803 978.37195 0 0 0
21.73683 977.76782 0 0 0
21.74564 978.12402 0 0 0
21.75444 977.93433 0 0 0
21.76324 977.3587 0 0 0
21.77204 977.013 0 0 0
21.78085 977.13306 0 0 0
21.78965 977.37781 0 0 0
21.79845 977.02686 0 0 0
21.80725 976.90985 0 0 0
21.81605 977.09399 0 0 0
21.82486 977.8028 0 0 0
21.83366 977.54791 0 0 0
21.84246 976.54102 0 0 0
21.85126 976.51367 0 0 0
21.86006 975.56866 0 0 0
21.86887 975.04572 0 0 0
21.87767 975.53839 0 0 0
21.88647 975.42908 0 0 0
21.89527 974.12939 0 0 0
21.90408 973.11108 0 0 0
21.91288 972.31683 0 0 0
21.92168 971.31543 0 0 0
21.93048 970.56482 0 0 0
21.93928 970.10016 0 0 0
21.94809 969.14233 0 0 0
21.95689 967.95624 0 0 0
21.96569 966.64252 0 0 0
21.97449 966.24371 0 0 0
21.98329 965.91351 0 0 0
21.99210 964.828 0 0 0
22.00090 964.65735 0 0 0
22.00970 965.04932 0 0 0
22.01850 964.11548 0 0 0
22.02731 962.53265 0 0 0
22.03611 961.57178 0 0 0
22.04491 960.94135 0 0 0
22.05371 961.15088 0 0 0
22.06251 961.39038 0 0 0
22.07132 961.77069 0 0 0
22.08012 961.09521 0 0 0
22.08892 960.9043 0 0 0
22.09772 960.24805 0 0 0
22.10652 959.68707 0 0 0
22.11533 959.0733 0 0 0
22.12413 958.21313 0 0 0
22.13293 958.37311 0 0 0
22.14173 958.19897 0 0 0
22.15054 957.83722 0 0 0
22.15934 957.64154 0 0 0
22.16814 956.89575 0 0 0
22.17694 956.18274 0 0 0
22.18574 956.62708 0 0 0
22.19455 956.17053 0 0 0
22.20335 954.97943 0 0 0
22.21215 955.06586 0 0 0
22.22095 955.48346 0 0 0
22.22975 955.289 0 0 0
22.23856 954.64142 0 0 0
22.24736 953.45715 0 0 0
22.25616 953.07794 0 0 0
22.26496 952.80627 0 0 0
22.27376 952.47919 0 0 0
22.28257 951.97296 0 0 0
22.29137 951.00635 0 0 0
22.30017 951.05353 0 0 0
22.30897 951.50598 0 0 0
22.31778 950.84546 0 0 0
22.32658 949.50598 0 0 0
22.33538 949.82922 0 0 0
22.34418 950.54614 0 0 0
22.35298 950.34528 0 0 0
22.36179 949.15961 0 0 0
22.37059 949.2583 0 0 0
22.37939 950.09943 0 0 0
22.38819 949.65002 0 0 0
22.39699 949.39911 0 0 0
22.40580 949.64221 0 0 0
22.41460 949.66565 0 0 0
22.42340 950.4826 0 0 0
22.43220 951.08044 0 0 0
22.44100 949.77496 0 0 0
22.44981 949.56567 0 0 0
22.45861 950.09351 0 0 0
22.46741 950.17981 0 0 0
22.47621 949.9577 0 0 0
22.48502 949.22552 0 0 0
22.49382 949.15283 0 0 0
22.50262 950.42322 0 0 0
22.51142 951.50189 0 0 0
22.52022 951.12067 0 0 0
22.52903 950.6441 0 0 0
22.53783 951.14563 0 0 0
22.54663 952.22754 0 0 0
22.55543 952.48199 0 0 0
22.56423 951.99799 0 0 0
22.57304 951.75043 0 0 0
22.58184 951.60413 0 0 0
22.59064 952.4917 0 0 0
22.59944 952.6814 0 0 0
22.60825 952.74823 0 0 0
22.61705 953.91699 0 0 0
22.62585 954.45953 0 0 0
22.63465 954.11639 0 0 0
22.64345 953.8847 0 0 0
22.65226 953.83911 0 0 0
22.66106 953.86176 0 0 0
22.66986 954.28394 0 0 0
22.67866 955.45209 0 0 0
22.68746 956.13507 0 0 0
22.69627 956.16669 0 0 0
22.70507 955.61462 0 0 0
22.71387 955.75995 0 0 0
22.72267 956.97662 0 0 0
22.73147 957.58698 0 0 0
22.74028 957.52606 0 0 0
22.74908 957.94263 0 0 0
22.75788 959.34076 0 0 0
22.76668 959.70996 0 0 0
22.77549 959.84729 0 0 0
22.78429 960.31232 0 0 0
22.79309 961.38098 0 0 0
22.80189 962.68909 0 0 0
22.81069 964.31781 0 0 0
22.81950 964.78741 0 0 0
22.82830 965.15454 0 0 0
22.83710 965.67963 0 0 0
22.84590 965.78033 0 0 0
22.85470 966.38702 0 0 0
22.86351 967.08051 0 0 0
22.87231 967.19806 0 0 0
22.88111 968.35406 0 0 0
22.88991 970.31372 0 0 0
22.89871 971.28387 0 0 0
22.90752 971.67853 0 0 0
22.91632 972.1507 0 0 0
22.92512 973.30481 0 0 0
22.93392 975.11285 0 0 0
22.94273 976.38794 0 0 0
22.95153 976.01642 0 0 0
22.96033 975.46918 0 0 0
22.96913 976.73859 0 0 0
22.97793 978.71863 0 0 0
22.98674 980.18103 0 0 0
22.99554 981.43365 0 0 0
23.00434 981.24298 0 0 0
23.01314 981.48279 0 0 0
23.02194 982.69562 0 0 0
23.03075 984.02911 0 0 0
23.03955 984.71729 0 0 0
23.04835 985.00189 0 0 0
23.05715 984.84259 0 0 0
23.06596 984.66388 0 0 0
23.07476 984.2663 0 0 0
23.08356 982.84534 0 0 0
23.09236 981.79602 0 0 0
23.10116 981.29199 0 0 0
23.10997 980.52008 0 0 0
23.11877 978.62421 0 0 0
23.12757 976.22009 0 0 0
23.13637 974.73816 0 0 0
23.14517 973.12854 0 0 0
23.15398 971.42926 0 0 0
23.16278 970.92621 0 0 0
23.17158 969.31421 0 0 0
23.18038 966.78864 0 0 0
23.18918 964.51129 0 0 0
23.19799 963.18353 0 0 0
23.20679 962.1095 0 0 0
23.21559 961.25494 0 0 0
23.22439 960.63477 0 0 0
23.23320 959.43048 0 0 0
23.24200 957.70801 0 0 0
23.25080 956.9516 0 0 0
23.25960 956.12036 0 0 0
23.26840 955.2002 0 0 0
23.27721 954.44342 0 0 0
23.28601 953.70996 0 0 0
23.29481 953.58032 0 0 0
23.30361 953.06805 0 0 0
23.31241 952.76843 0 0 0
23.32122 951.88348 0 0 0
23.33002 950.99597 0 0 0
23.33882 950.58783 0 0 0
23.34762 949.30518 0 0 0
23.35642 949.08282 0 0 0
23.36523 950.15417 0 0 0
23.37403 949.93115 0 0 0
23.38283 949.41516 0 0 0
23.39163 948.59131 0 0 0
23.40044 948.12653 0 0 0
23.40924 947.83215 0 0 0
23.41804 947.80267 0 0 0
23.42684 947.6297 0 0 0
23.43564 947.47296 0 0 0
23.44445 947.23578 0 0 0
23.45325 947.37708 0 0 0
23.46205 947.68707 0 0 0
23.47085 948.16895 0 0 0
23.47965 948.52094 0 0 0
23.48846 947.88995 0 0 0
23.49726 947.51819 0 0 0
23.50606 947.8949 0 0 0
23.51486 948.55481 0 0 0
23.52367 948.65515 0 0 0
23.53247 948.52258 0 0 0
23.54127 948.53833 0 0 0
23.55007 948.7337 0 0 0
23.55887 948.3905 0 0 0
23.56768 949.04315 0 0 0
23.57648 950.10944 0 0 0
23.58528 950.96899 0 0 0
23.59408 951.44928 0 0 0
23.60288 951.81592 0 0 0
23.61169 952.57465 0 0 0
23.62049 953.15735 0 0 0
23.62929 953.47546 0 0 0
23.63809 953.94342 0 0 0
23.64689 955.06903 0 0 0
23.65570 955.70129 0 0 0
23.66450 956.38116 0 0 0
23.67330 957.55255 0 0 0
23.68210 958.03296 0 0 0
23.69091 958.4538 0 0 0
23.69971 958.99915 0 0 0
23.70851 958.91486 0 0 0
23.71731 959.29199 0 0 0
23.72611 959.99561 0 0 0
23.73492 960.66205 0 0 0
23.74372 961.19403 0 0 0
23.75252 961.48737 0 0 0
23.76132 961.13318 0 0 0
23.77012 960.52985 0 0 0
23.77893 961.31952 0 0 0
23.78773 961.72711 0 0 0
23.79653 961.39252 0 0 0
23.80533 961.08392 0 0 0
23.81414 960.87531 0 0 0
23.82294 961.1507 0 0 0
23.83174 960.76031 0 0 0
23.84054 960.64459 0 0 0
23.84934 961.20056 0 0 0
23.85815 960.21051 0 0 0
23.86695 958.74988 0 0 0
23.87575 958.58264 0 0 0
23.88455 958.52515 0 0 0
23.89335 957.36511 0 0 0
23.90216 957.29144 0 0 0
23.91096 957.29089 0 0 0
23.91976 956.34894 0 0 0
23.92856 956.08807 0 0 0
23.93736 955.82983 0 0 0
23.94617 955.33252 0 0 0
23.95497 955.34265 0 0 0
23.96377 956.06421 0 0 0
23.97257 956.57983 0 0 0
23.98137 956.29828 0 0 0
23.99018 955.66492 0 0 0
23.99898 956.33179 0 0 0
24.00778 956.51025 0 0 0
24.01658 955.68707 0 0 0
24.02539 955.21979 0 0 0
24.03419 955.65479 0 0 0
24.04299 956.0329 0 0 0
24.05179 955.15125 0 0 0
24.06059 954.34607 0 0 0
24.06940 954.75 0 0 0
24.07820 955.38904 0 0 0
24.08700 955.31104 0 0 0
24.09580 955.45599 0 0 0
24.10460 955.26233 0 0 0
24.11341 955.01947 0 0 0
24.12221 954.55963 0 0 0
24.13101 954.31848 0 0 0
24.13981 953.87292 0 0 0
24.14862 954.39178 0 0 0
24.15742 955.17169 0 0 0
24.16622 955.06006 0 0 0
24.17502 955.10339 0 0 0
24.18382 955.57574 0 0 0
24.19263 955.69849 0 0 0
24.20143 955.72906 0 0 0
24.21023 956.29645 0 0 0
24.21903 955.90607 0 0 0
24.22783 955.72089 0 0 0
24.23664 956.26172 0 0 0
24.24544 957.09247 0 0 0
24.25424 957.49811 0 0 0
24.26304 957.26709 0 0 0
24.27184 957.44427 0 0 0
24.28065 958.0946 0 0 0
24.28945 959.11102 0 0 0
24.29825 959.11566 0 0 0
24.30705 958.68842 0 0 0
24.31586 959.26312 0 0 0
24.32466 960.37762 0 0 0
24.33346 960.68018 0 0 0
24.34226 961.36322 0 0 0
24.35106 961.72571 0 0 0
24.35987 961.89117 0 0 0
24.36867 961.59741 0 0 0
24.37747 962.21619 0 0 0
24.38627 962.90002 0 0 0
24.39507 963.56512 0 0 0
24.40388 964.03424 0 0 0
24.41268 964.51782 0 0 0
24.42148 965.0155 0 0 0
24.43029 965.6059 0 0 0
24.43908 965.98114 0 0 0
24.44789 966.19141 0 0 0
24.45669 965.96692 0 0 0
24.46549 965.5899 0 0 0
24.47430 965.77905 0 0 0
24.48310 965.91107 0 0 0
24.49190 966.29962 0 0 0
24.50070 966.80713 0 0 0
24.50950 966.4021 0 0 0
24.51831 964.77014 0 0 0
24.52711 964.2912 0 0 0
24.53591 964.73035 0 0 0
24.54471 965.72491 0 0 0
24.55351 966.19257 0 0 0
24.56232 966.42224 0 0 0
24.57112 966.86877 0 0 0
24.57992 967.26685 0 0 0
24.58872 967.4599 0 0 0
24.59753 967.03046 0 0 0
24.60633 966.42084 0 0 0
24.61513 965.96149 0 0 0
24.62393 966.09387 0 0 0
24.63273 965.58734 0 0 0
24.64154 965.80188 0 0 0
24.65034 966.6283 0 0 0
24.65914 966.84332 0 0 0
24.66794 967.6322 0 0 0
24.67674 968.82721 0 0 0
24.68555 969.34534 0 0 0
24.69435 971.26483 0 0 0
24.70315 972.82196 0 0 0
24.71195 973.41467 0 0 0
24.72076 974.60059 0 0 0
24.72956 975.70325 0 0 0
24.73836 976.60541 0 0 0
24.74716 977.52106 0 0 0
24.75596 978.00452 0 0 0
24.76477 978.38013 0 0 0
24.77357 980.16046 0 0 0
24.78237 981.82446 0 0 0
24.79117 981.53052 0 0 0
24.79997 981.71246 0 0 0
24.80878 982.12451 0 0 0
24.81758 982.42706 0 0 0
24.82638 982.92004 0 0 0
24.83518 983.03235 0 0 0
24.84398 983.54303 0 0 0
24.85279 983.76703 0 0 0
24.86159 983.07623 0 0 0
24.87039 981.58142 0 0 0
24.87919 980.09717 0 0 0
24.88800 980.20197 0 0 0
24.89680 979.40625 0 0 0
24.90560 977.83447 0 0 0
24.91440 976.84283 0 0 0
24.92320 975.36664 0 0 0
24.93201 973.77051 0 0 0
24.94081 972.97443 0 0 0
24.94961 972.12732 0 0 0
24.95841 971.19019 0 0 0
24.96721 970.55579 0 0 0
24.97602 969.43817 0 0 0
24.98482 968.47467 0 0 0
24.99362 967.15228 0 0 0
25.00242 966.84583 0 0 0
25.01122 966.45667 0 0 0
25.02003 965.79547 0 0 0
25.02883 966.07257 0 0 0
25.03763 965.81024 0 0 0
25.04643 965.73682 0 0 0
25.05523 965.98444 0 0 0
25.06404 966.43011 0 0 0
25.07284 966.41669 0 0 0
25.08164 967.22662 0 0 0
25.09044 968.17999 0 0 0
25.09924 968.74127 0 0 0
25.10805 969.12189 0 0 0
25.11685 969.56732 0 0 0
25.12565 969.21912 0 0 0
25.13445 969.24005 0 0 0
25.14325 969.97211 0 0 0
25.15206 969.88293 0 0 0
25.16086 970.86682 0 0 0
25.16966 971.23352 0 0 0
25.17846 970.74811 0 0 0
25.18727 969.8689 0 0 0
25.19607 969.85425 0 0 0
25.20487 970.18372 0 0 0
25.21367 970.23828 0 0 0
25.22247 970.20569 0 0 0
25.23128 970.24884 0 0 0
25.24008 969.0705 0 0 0
25.24888 967.39758 0 0 0
25.25768 966.84137 0 0 0
25.26648 966.36377 0 0 0
25.27529 965.30341 0 0 0
25.28409 963.51825 0 0 0
25.29289 961.88092 0 0 0
25.30169 961.12799 0 0 0
25.31049 960.57953 0 0 0
25.31930 959.0061 0 0 0
25.32810 957.46283 0 0 0
25.33690 955.3645 0 0 0
25.34570 953.58423 0 0 0
25.35451 952.67346 0 0 0
25.36331 951.65106 0 0 0
25.37211 950.17511 0 0 0
25.38091 948.19012 0 0 0
25.38971 946.77307 0 0 0
25.39852 945.74603 0 0 0
25.40732 944.93024 0 0 0
25.41612 943.90094 0 0 0
25.42492 943.17279 0 0 0
25.43372 942.3017 0 0 0
25.44253 941.38831 0 0 0
25.45133 941.66388 0 0 0
25.46013 941.59167 0 0 0
25.46893 940.95172 0 0 0
25.47774 940.59821 0 0 0
25.48654 941.0636 0 0 0
25.49534 940.48297 0 0 0
25.50414 940.21234 0 0 0
25.51294 940.31519 0 0 0
25.52175 940.55542 0 0 0
25.53055 941.26563 0 0 0
25.53935 942.31 0 0 0
25.54815 941.99432 0 0 0
25.55695 941.32166 0 0 0
25.56576 942.04407 0 0 0
25.57456 943.14685 0 0 0
25.58336 943.36401 0 0 0
25.59216 944.20056 0 0 0
25.60096 944.63965 0 0 0
25.60977 944.51025 0 0 0
25.61857 946.06036 0 0 0
25.62737 947.0603 0 0 0
25.63618 947.13269 0 0 0
25.64498 947.08496 0 0 0
25.65378 947.54236 0 0 0
25.66258 948.38013 0 0 0
25.67138 948.90643 0 0 0
25.68019 948.13074 0 0 0
25.68899 947.8407 0 0 0
25.69779 948.15186 0 0 0
25.70659 948.24463 0 0 0
25.71539 948.57605 0 0 0
25.72420 948.23853 0 0 0
25.73300 947.89172 0 0 0
25.74180 947.07446 0 0 0
25.75060 947.0827 0 0 0
25.75940 947.51208 0 0 0
25.76821 946.76917 0 0 0
25.77701 945.72968 0 0 0
25.78581 945.4549 0 0 0
25.79461 945.68085 0 0 0
25.80342 945.84442 0 0 0
25.81222 946.26953 0 0 0
25.82102 945.55865 0 0 0
25.82982 944.18317 0 0 0
25.83862 942.89929 0 0 0
25.84743 942.17261 0 0 0
25.85623 941.33557 0 0 0
25.86503 939.90186 0 0 0
25.87383 939.09753 0 0 0
25.88263 939.19208 0 0 0
25.89144 938.57214 0 0 0
25.90024 937.50336 0 0 0
25.90904 937.44287 0 0 0
25.91784 937.06274 0 0 0
25.92664 937.29395 0 0 0
25.93545 937.617 0 0 0
25.94425 937.02472 0 0 0
25.95305 935.68298 0 0 0
25.96185 935.10559 0 0 0
25.97066 935.28839 0 0 0
25.97946 934.66125 0 0 0
25.98826 934.52313 0 0 0
25.99706 935.11932 0 0 0
26.00586 935.33386 0 0 0
26.01467 935.11957 0 0 0
26.02347 934.97266 0 0 0
26.03227 935.18915 0 0 0
26.04107 936.51251 0 0 0
26.04987 937.76434 0 0 0
26.05868 938.67169 0 0 0
26.06748 938.3678 0 0 0
26.07628 939.20789 0 0 0
26.08508 940.47211 0 0 0
26.09388 941.68555 0 0 0
26.10269 942.44885 0 0 0
26.11149 942.40668 0 0 0
26.12029 942.49768 0 0 0
26.12909 942.91919 0 0 0
26.13790 944.79694 0 0 0
26.14670 945.38879 0 0 0
26.15550 945.09155 0 0 0
26.16430 944.31085 0 0 0
26.17310 944.19293 0 0 0
26.18191 944.48303 0 0 0
26.19071 943.8681 0 0 0
26.19951 943.29742 0 0 0
26.20831 943.73431 0 0 0
26.21711 943.95154 0 0 0
26.22592 943.60602 0 0 0
26.23472 943.75061 0 0 0
26.24352 943.77112 0 0 0
26.25232 943.9682 0 0 0
26.26113 944.27667 0 0 0
26.26993 944.60077 0 0 0
26.27873 943.86279 0 0 0
26.28753 942.61774 0 0 0
26.29633 941.94635 0 0 0
26.30514 941.81995 0 0 0
26.31394 941.28296 0 0 0
26.32274 939.8017 0 0 0
26.33154 938.98462 0 0 0
26.34034 937.64453 0 0 0
26.34915 936.72388 0 0 0
26.35795 936.65814 0 0 0
26.36675 936.00763 0 0 0
26.37555 934.59564 0 0 0
26.38435 933.48083 0 0 0
26.39316 932.95337 0 0 0
26.40196 931.46661 0 0 0
26.41076 930.94495 0 0 0
26.41956 930.50952 0 0 0
26.42837 930.39526 0 0 0
26.43717 930.03162 0 0 0
26.44597 929.41248 0 0 0
26.45477 929.30469 0 0 0
26.46357 928.36664 0 0 0
26.47238 927.53156 0 0 0
26.48118 927.5144 0 0 0
26.48998 927.53119 0 0 0
26.49878 927.24976 0 0 0
26.50758 926.69086 0 0 0
26.51639 925.79694 0 0 0
26.52519 926.18756 0 0 0
26.53399 927.18256 0 0 0
26.54279 926.50854 0 0 0
26.55159 925.26764 0 0 0
26.56040 924.65997 0 0 0
26.56920 924.82361 0 0 0
26.57800 925.55237 0 0 0
26.58680 925.74542 0 0 0
26.59561 925.14984 0 0 0
26.60441 924.90894 0 0 0
26.61321 925.03339 0 0 0
26.62201 924.86017 0 0 0
26.63081 924.58856 0 0 0
26.63962 924.90631 0 0 0
26.64842 924.77423 0 0 0
26.65722 923.72241 0 0 0
26.66602 923.01733 0 0 0
26.67482 923.05115 0 0 0
26.68363 923.49976 0 0 0
26.69243 923.88336 0 0 0
26.70123 923.8335 0 0 0
26.71003 923.52734 0 0 0
26.71884 922.91431 0 0 0
26.72764 922.48566 0 0 0
26.73644 922.23389 0 0 0
26.74524 922.42969 0 0 0
26.75404 923.24908 0 0 0
26.76285 922.72766 0 0 0
26.77165 921.487 0 0 0
26.78045 921.40143 0 0 0
26.78925 921.67303 0 0 0
26.79805 922.27588 0 0 0
26.80686 922.01605 0 0 0
26.81566 920.80731 0 0 0
26.82446 921.0235 0 0 0
26.83326 921.17047 0 0 0
26.84206 921.12866 0 0 0
26.85087 921.67175 0 0 0
26.85967 922.1178 0 0 0
26.86847 921.98279 0 0 0
26.87727 921.8717 0 0 0
26.88608 922.45422 0 0 0
26.89488 922.95972 0 0 0
26.90368 924.08289 0 0 0
26.91248 924.659 0 0 0
26.92128 924.93066 0 0 0
26.93009 924.96057 0 0 0
26.93889 924.31104 0 0 0
26.94769 924.92786 0 0 0
26.95649 925.73151 0 0 0
26.96529 926.27344 0 0 0
26.97410 927.35229 0 0 0
26.98290 928.38177 0 0 0
26.99170 928.41724 0 0 0
27.00050 928.91071 0 0 0
27.00930 930.06989 0 0 0
27.01811 930.54333 0 0 0
27.02691 931.16602 0 0 0
27.03571 931.35059 0 0 0
27.04451 930.97748 0 0 0
27.05332 930.88806 0 0 0
27.06212 930.67798 0 0 0
27.07092 930.02856 0 0 0
27.07972 930.44824 0 0 0
27.08852 931.03375 0 0 0
27.09733 930.98999 0 0 0
27.10613 931.1449 0 0 0
27.11493 930.49097 0 0 0
27.12373 929.50208 0 0 0
27.13253 928.40961 0 0 0
27.14134 928.19958 0 0 0
27.15014 928.54462 0 0 0
27.15894 928.01526 0 0 0
27.16774 927.44666 0 0 0
27.17655 927.67371 0 0 0
27.18535 926.99408 0 0 0
27.19415 925.71442 0 0 0
27.20295 925.14398 0 0 0
27.21175 925.38593 0 0 0
27.22056 926.41278 0 0 0
27.22936 926.08539 0 0 0
27.23816 924.26709 0 0 0
27.24696 923.27484 0 0 0
27.25576 922.74945 0 0 0
27.26457 922.11176 0 0 0
27.27337 921.1593 0 0 0
27.28217 920.72174 0 0 0
27.29097 921.3172 0 0 0
27.29977 921.31866 0 0 0
27.30858 919.55652 0 0 0
27.31738 917.87488 0 0 0
27.32618 918.71399 0 0 0
27.33498 918.79193 0 0 0
27.34379 917.75946 0 0 0
27.35259 917.44171 0 0 0
27.36139 916.14984 0 0 0
27.37019 915.13971 0 0 0
27.37899 914.71295 0 0 0
27.38780 914.51831 0 0 0
27.39660 913.50604 0 0 0
27.40540 912.46814 0 0 0
27.41420 913.04681 0 0 0
27.42300 914.39044 0 0 0
27.43181 914.38928 0 0 0
27.44061 913.17993 0 0 0
27.44941 913.26154 0 0 0
27.45821 913.90594 0 0 0
27.46701 913.64404 0 0 0
27.47582 913.17346 0 0 0
27.48462 912.67981 0 0 0
27.49342 911.57538 0 0 0
27.50222 911.06885 0 0 0
27.51103 911.45642 0 0 0
27.51983 911.56439 0 0 0
27.52863 911.51306 0 0 0
27.53743 911.40289 0 0 0
27.54623 912.25903 0 0 0
27.55504 912.76166 0 0 0
27.56384 912.29999 0 0 0
27.57264 912.61029 0 0 0
27.58144 913.71729 0 0 0
27.59024 915.17096 0 0 0
27.59905 914.46454 0 0 0
27.60785 913.16626 0 0 0
27.61665 913.20618 0 0 0
27.62545 912.67822 0 0 0
27.63426 911.8241 0 0 0
27.64306 913.4342 0 0 0
27.65186 914.21631 0 0 0
27.66066 912.35681 0 0 0
27.66946 912.63837 0 0 0
27.67827 914.0553 0 0 0
27.68707 913.52802 0 0 0
27.69587 913.0274 0 0 0
27.70467 912.73029 0 0 0
27.71347 911.75867 0 0 0
27.72228 910.97375 0 0 0
27.73108 910.70245 0 0 0
27.73988 910.95917 0 0 0
27.74868 910.9295 0 0 0
27.75748 910.41669 0 0 0
27.76629 910.90826 0 0 0
27.77509 911.99304 0 0 0
27.78389 911.91003 0 0 0
27.79269 910.90057 0 0 0
27.80150 909.81866 0 0 0
27.81030 909.38831 0 0 0
27.81910 909.07166 0 0 0
27.82790 909.31049 0 0 0
27.83670 909.75635 0 0 0
27.84551 909.81854 0 0 0
27.85431 910.42267 0 0 0
27.86311 910.61017 0 0 0
27.87191 911.32043 0 0 0
27.88071 911.19916 0 0 0
27.88952 910.73383 0 0 0
27.89832 911.57672 0 0 0
27.90712 911.10303 0 0 0
27.91592 909.76434 0 0 0
27.92472 910.00665 0 0 0
27.93353 911.48224 0 0 0
27.94233 912.03668 0 0 0
27.95113 912.53107 0 0 0
27.95993 911.81885 0 0 0
27.96874 911.26813 0 0 0
27.97754 911.46106 0 0 0
27.98634 910.56464 0 0 0
27.99514 911.40375 0 0 0
28.00394 911.50507 0 0 0
28.01275 910.98975 0 0 0
28.02155 911.28326 0 0 0
28.03035 911.8175 0 0 0
28.03915 912.73352 0 0 0
28.04796 912.92896 0 0 0
28.05676 913.04895 0 0 0
28.06556 913.32782 0 0 0
28.07436 913.67487 0 0 0
28.08316 914.96515 0 0 0
28.09196 914.6734 0 0 0
28.10077 914.05157 0 0 0
28.10957 914.90521 0 0 0
28.11837 915.23456 0 0 0
28.12717 916.07886 0 0 0
28.13598 916.22461 0 0 0
28.14478 916.29865 0 0 0
28.15358 918.11621 0 0 0
28.16238 917.86401 0 0 0
28.17119 916.85571 0 0 0
28.17999 917.3313 0 0 0
28.18879 917.3078 0 0 0
28.19759 916.36194 0 0 0
28.20639 917.013 0 0 0
28.21520 918.22119 0 0 0
28.22400 917.81738 0 0 0
28.23280 917.72784 0 0 0
28.24160 918.27728 0 0 0
28.25040 919.31866 0 0 0
28.25921 919.77966 0 0 0
28.26801 918.15259 0 0 0
28.27681 916.62335 0 0 0
28.28561 917.42523 0 0 0
28.29442 916.86359 0 0 0
28.30322 915.15253 0 0 0
28.31202 913.7901 0 0 0
28.32082 914.23303 0 0 0
28.32962 909.61566 0 0 0
28.33843 892.54578 0 0 0
28.34723 888.04205 0 0 0
28.35603 896.66107 0 0 0
28.36483 898.94556 0 0 0
28.37363 898.96185 0 0 0
28.38244 899.31915 0 0 0
28.39124 899.74774 0 0 0
28.40004 901.10059 0 0 0
28.40884 901.91187 0 0 0
28.41765 900.2793 0 0 0
28.42645 898.88721 0 0 0
28.43525 899.10791 0 0 0
28.44405 900.66748 0 0 0
28.45285 900.56262 0 0 0
28.46166 899.13525 0 0 0
28.47046 899.90295 0 0 0
28.47926 899.3894 0 0 0
28.48806 898.50067 0 0 0
28.49686 898.96051 0 0 0
28.50567 899.1698 0 0 0
28.51447 898.62219 0 0 0
28.52327 897.7077 0 0 0
28.53207 897.18018 0 0 0
28.54087 896.61292 0 0 0
28.54968 896.34515 0 0 0
28.55848 896.64148 0 0 0
28.56728 897.3418 0 0 0
28.57608 898.25488 0 0 0
28.58488 897.90564 0 0 0
28.59369 896.35773 0 0 0
28.60249 896.03894 0 0 0
28.61129 896.50336 0 0 0
28.62009 896.4494 0 0 0
28.62889 896.26172 0 0 0
28.63770 896.16821 0 0 0
28.64650 896.26129 0 0 0
28.65530 897.53931 0 0 0
28.66410 898.03424 0 0 0
28.67291 897.44873 0 0 0
28.68171 897.64777 0 0 0
28.69051 897.94989 0 0 0
28.69931 898.39966 0 0 0
28.70811 897.9657 0 0 0
28.71692 896.54596 0 0 0
28.72572 896.35327 0 0 0
28.73452 897.07751 0 0 0
28.74332 896.74139 0 0 0
28.75212 895.57196 0 0 0
28.76093 895.32239 0 0 0
28.76973 897.04681 0 0 0
28.77853 898.26074 0 0 0
28.78733 897.73486 0 0 0
28.79613 896.64148 0 0 0
28.80494 896.03705 0 0 0
28.81374 896.49457 0 0 0
28.82254 896.21735 0 0 0
28.83134 897.28058 0 0 0
28.84014 898.75616 0 0 0
28.84895 899.2663 0 0 0
28.85775 899.22528 0 0 0
28.86655 898.62805 0 0 0
28.87535 899.80621 0 0 0
28.88416 900.18378 0 0 0
28.89296 901.02582 0 0 0
28.90176 901.49286 0 0 0
28.91056 900.64948 0 0 0
28.91936 901.26904 0 0 0
28.92817 902.38757 0 0 0
28.93697 903.01324 0 0 0
28.94577 903.30566 0 0 0
28.95457 902.50751 0 0 0
28.96337 900.88013 0 0 0
28.97218 899.41309 0 0 0
28.98098 898.42786 0 0 0
28.98978 899.34875 0 0 0
28.99858 899.71228 0 0 0
29.00738 899.31537 0 0 0
29.01619 899.37189 0 0 0
29.02499 899.36554 0 0 0
29.03379 899.44745 0 0 0
29.04259 898.59314 0 0 0
29.05140 899.07837 0 0 0
29.06020 898.68414 0 0 0
29.06900 896.93561 0 0 0
29.07780 897.08453 0 0 0
29.08660 896.10797 0 0 0
29.09541 894.86755 0 0 0
29.10421 893.98956 0 0 0
29.11301 894.04163 0 0 0
29.12181 894.20203 0 0 0
29.13061 893.07587 0 0 0
29.13942 892.28748 0 0 0
29.14822 892.31421 0 0 0
29.15702 891.79578 0 0 0
29.16583 892.32495 0 0 0
29.17463 892.97131 0 0 0
29.18343 891.79504 0 0 0
29.19223 890.8949 0 0 0
29.20103 892.02417 0 0 0
29.20984 892.45648 0 0 0
29.21864 891.08459 0 0 0
29.22744 891.29742 0 0 0
29.23624 892.87921 0 0 0
29.24504 892.45129 0 0 0
29.25384 892.05042 0 0 0
29.26265 892.75446 0 0 0
29.27145 891.90833 0 0 0
29.28025 891.0899 0 0 0
29.28906 890.53009 0 0 0
29.29785 890.03412 0 0 0
29.30666 890.66772 0 0 0
29.31546 892.05768 0 0 0
29.32426 892.10107 0 0 0
29.33307 891.72485 0 0 0
29.34187 890.24847 0 0 0
29.35067 888.49609 0 0 0
29.35947 889.39478 0 0 0
29.36827 890.21277 0 0 0
29.37708 891.06726 0 0 0
29.38588 891.69617 0 0 0
29.39468 891.72473 0 0 0
29.40348 891.67596 0 0 0
29.41228 891.63257 0 0 0
29.42109 891.35419 0 0 0
29.42989 890.97675 0 0 0
29.43869 891.37103 0 0 0
29.44749 891.35681 0 0 0
29.45630 891.33502 0 0 0
29.46510 891.62805 0 0 0
29.47390 891.51044 0 0 0
29.48270 889.71655 0 0 0
29.49150 888.5943 0 0 0
29.50031 888.96265 0 0 0
29.50911 889.11456 0 0 0
29.51791 889.44537 0 0 0
29.52671 888.38635 0 0 0
29.53551 887.84393 0 0 0
29.54432 888.68158 0 0 0
29.55312 888.66418 0 0 0
29.56192 888.42596 0 0 0
29.57072 889.00824 0 0 0
29.57952 888.5899 0 0 0
29.58833 888.2348 0 0 0
29.59713 888.823 0 0 0
29.60593 887.91058 0 0 0
29.61473 886.61298 0 0 0
29.62354 886.97681 0 0 0
29.63234 888.37097 0 0 0
29.64114 888.33124 0 0 0
29.64994 887.99805 0 0 0
29.65874 887.46283 0 0 0
29.66755 886.82721 0 0 0
29.67635 889.62439 0 0 0
29.68515 895.21246 0 0 0
29.69395 905.20233 0 0 0
29.70275 928.16779 0 0 0
29.71156 959.4939 0 0 0
29.72036 971.03473 0 0 0
29.72916 975.02728 0 0 0
29.73796 981.93359 0 0 0
29.74676 987.91058 0 0 0
29.75557 993.88373 0 0 0
29.76437 991.54449 0 0 0
29.77317 992.70752 0 0 0
29.78197 986.63544 0 0 0
29.79078 965.052 0 0 0
29.79958 946.70526 0 0 0
29.80838 930.85632 0 0 0
29.81718 915.24939 0 0 0
29.82598 905.03619 0 0 0
29.83479 896.41083 0 0 0
29.84359 890.63074 0 0 0
29.85239 889.26465 0 0 0
29.86119 888.91315 0 0 0
29.86999 888.7934 0 0 0
29.87880 890.00769 0 0 0
29.88760 890.12299 0 0 0
29.89640 890.44714 0 0 0
29.90520 891.75366 0 0 0
29.91400 890.53931 0 0 0
29.92281 890.2348 0 0 0
29.93161 892.29254 0 0 0
29.94041 892.14893 0 0 0
29.94921 892.81976 0 0 0
29.95801 894.91498 0 0 0
29.96682 894.66321 0 0 0
29.97562 893.82513 0 0 0
29.98442 893.41437 0 0 0
29.99322 893.57336 0 0 0
30.00203 895.28021 0 0 0
30.01083 896.70398 0 0 0
30.01963 896.34851 0 0 0
30.02843 895.01447 0 0 0
30.03723 896.71704 0 0 0
30.04604 897.66998 0 0 0
30.05484 896.24573 0 0 0
30.06364 897.53046 0 0 0
30.07244 898.1485 0 0 0
30.08124 897.19946 0 0 0
30.09005 896.54413 0 0 0
30.09885 897.76953 0 0 0
30.10765 899.81757 0 0 0
30.11645 899.99658 0 0 0
30.12526 898.99493 0 0 0
30.13406 898.53265 0 0 0
30.14286 899.2627 0 0 0
30.15166 900.26111 0 0 0
30.16046 899.79791 0 0 0
30.16927 898.98474 0 0 0
30.17807 898.40961 0 0 0
30.18687 899.50037 0 0 0
30.19567 900.10425 0 0 0
30.20447 899.01147 0 0 0
30.21328 899.32013 0 0 0
30.22208 900.25641 0 0 0
30.23088 899.72559 0 0 0
30.23968 898.75616 0 0 0
30.24849 900.75427 0 0 0
30.25729 902.26892 0 0 0
30.26609 898.22162 0 0 0
30.27489 897.42426 0 0 0
30.28369 897.8172 0 0 0
30.29250 897.30542 0 0 0
30.30130 898.62878 0 0 0
30.31010 895.99768 0 0 0
30.31890 896.63647 0 0 0
30.32770 896.65924 0 0 0
30.33651 895.03717 0 0 0
30.34531 895.76654 0 0 0
30.35411 896.50897 0 0 0
30.36291 895.93176 0 0 0
30.37172 896.1261 0 0 0
30.38052 896.28931 0 0 0
30.38932 896.6543 0 0 0
30.39812 897.29156 0 0 0
30.40692 897.12512 0 0 0
30.41573 897.08752 0 0 0
30.42453 897.33881 0 0 0
30.43333 896.23798 0 0 0
30.44213 895.56665 0 0 0
30.45093 896.13641 0 0 0
30.45974 896.70221 0 0 0
30.46854 896.88684 0 0 0
30.47734 896.24231 0 0 0
30.48614 895.82599 0 0 0
30.49494 896.2937 0 0 0
30.50375 896.82996 0 0 0
30.51255 897.43414 0 0 0
30.52135 897.56769 0 0 0
30.53015 898.79706 0 0 0
30.53896 897.97296 0 0 0
30.54776 897.07196 0 0 0
30.55656 897.2663 0 0 0
30.56536 899.3866 0 0 0
30.57416 899.94794 0 0 0
30.58297 899.04767 0 0 0
30.59177 898.30835 0 0 0
30.60057 896.90674 0 0 0
30.60937 897.61688 0 0 0
30.61817 898.17639 0 0 0
30.62698 898.10486 0 0 0
30.63578 897.91534 0 0 0
30.64458 897.95807 0 0 0
30.65338 896.38696 0 0 0
30.66218 895.30957 0 0 0
30.67099 897.74768 0 0 0
30.67979 897.52319 0 0 0
30.68859 896.06091 0 0 0
30.69739 896.49084 0 0 0
30.70620 895.95892 0 0 0
30.71500 896.01166 0 0 0
30.72380 896.13196 0 0 0
30.73260 895.20648 0 0 0
30.74140 893.91187 0 0 0
30.75021 892.85559 0 0 0
30.75901 892.20184 0 0 0
30.76781 891.78674 0 0 0
30.77661 892.90186 0 0 0
30.78541 893.04358 0 0 0
30.79422 893.75055 0 0 0
30.80302 893.67328 0 0 0
30.81182 893.367 0 0 0
30.82062 892.83777 0 0 0
30.82943 890.36066 0 0 0
30.83823 891.9939 0 0 0
30.84703 893.41101 0 0 0
30.85583 893.19659 0 0 0
30.86463 893.38971 0 0 0
30.87344 893.44348 0 0 0
30.88224 892.43011 0 0 0
30.89104 892.65369 0 0 0
30.89984 892.70062 0 0 0
30.90864 892.90466 0 0 0
30.91745 893.18787 0 0 0
30.92625 893.1123 0 0 0
30.93505 893.34882 0 0 0
30.94385 893.75305 0 0 0
30.95265 893.81012 0 0 0
30.96146 892.34772 0 0 0
30.97026 893.10315 0 0 0
30.97906 894.53198 0 0 0
30.98786 894.37805 0 0 0
30.99667 894.33197 0 0 0
31.00547 895.53821 0 0 0
31.01427 893.77814 0 0 0
31.02307 892.28558 0 0 0
31.03187 893.85065 0 0 0
31.04068 892.7981 0 0 0
31.04948 893.1673 0 0 0
31.05828 892.1936 0 0 0
31.06708 893.31561 0 0 0
31.07588 896.54352 0 0 0
31.08469 893.58563 0 0 0
31.09349 891.79443 0 0 0
31.10229 892.21216 0 0 0
31.11109 890.33374 0 0 0
31.11989 886.57953 0 0 0
31.12870 887.96997 0 0 0
31.13750 891.25775 0 0 0
31.14630 890.56458 0 0 0
31.15510 888.11108 0 0 0
31.16391 884.58655 0 0 0
31.17271 883.92303 0 0 0
31.18151 883.00677 0 0 0
31.19031 884.92511 0 0 0
31.19911 886.0675 0 0 0
31.20792 882.67328 0 0 0
31.21672 880.0235 0 0 0
31.22552 879.15393 0 0 0
31.23432 878.52679 0 0 0
31.24312 878.67822 0 0 0
31.25193 878.18457 0 0 0
31.26073 880.09387 0 0 0
31.26953 881.28931 0 0 0
31.27833 879.10657 0 0 0
31.28714 878.81763 0 0 0
31.29594 878.57465 0 0 0
31.30474 877.03839 0 0 0
31.31354 877.04272 0 0 0
31.32234 877.21582 0 0 0
31.33115 880.07532 0 0 0
31.33995 880.65643 0 0 0
31.34875 879.94995 0 0 0
31.35755 879.07263 0 0 0
31.36635 878.547 0 0 0
31.37516 879.27631 0 0 0
31.38396 876.11993 0 0 0
31.39276 873.4223 0 0 0
31.40156 872.867 0 0 0
31.41036 874.12714 0 0 0
31.41917 873.22681 0 0 0
31.42797 875.8855 0 0 0
31.43677 875.27826 0 0 0
31.44557 870.61816 0 0 0
31.45438 870.58972 0 0 0
31.46318 873.66144 0 0 0
31.47198 875.85284 0 0 0
31.48078 874.10181 0 0 0
31.48958 871.17609 0 0 0
31.49839 871.49402 0 0 0
31.50719 871.67285 0 0 0
31.51599 873.56982 0 0 0
31.52479 871.59656 0 0 0
31.53359 869.47083 0 0 0
31.54240 870.69312 0 0 0
31.55120 874.78308 0 0 0
31.56000 875.50061 0 0 0
31.56880 872.57135 0 0 0
31.57760 869.62427 0 0 0
31.58641 871.7085 0 0 0
31.59521 873.48633 0 0 0
31.60401 870.79102 0 0 0
31.61281 872.17242 0 0 0
31.62162 876.43866 0 0 0
31.63042 876.7937 0 0 0
31.63922 874.86572 0 0 0
31.64802 873.53125 0 0 0
31.65682 873.16333 0 0 0
31.66563 871.41278 0 0 0
31.67443 868.78625 0 0 0
31.68323 869.55524 0 0 0
31.69203 872.25336 0 0 0
31.70083 869.94238 0 0 0
31.70964 867.28894 0 0 0
31.71844 867.79572 0 0 0
31.72724 869.80579 0 0 0
31.73604 870.505 0 0 0
31.74485 869.00372 0 0 0
31.75365 869.9718 0 0 0
31.76245 871.39435 0 0 0
31.77125 871.10602 0 0 0
31.78005 866.26788 0 0 0
31.78886 864.12988 0 0 0
31.79766 866.20544 0 0 0
31.80646 866.49365 0 0 0
31.81526 864.00714 0 0 0
31.82406 859.88647 0 0 0
31.83287 862.27899 0 0 0
31.84167 865.64783 0 0 0
31.85047 866.07446 0 0 0
31.85927 866.8457 0 0 0
31.86807 866.8844 0 0 0
31.87688 866.99579 0 0 0
31.88568 864.97314 0 0 0
31.89448 859.7865 0 0 0
31.90328 856.98657 0 0 0
31.91209 856.88397 0 0 0
31.92089 855.70917 0 0 0
31.92969 857.39783 0 0 0
31.93849 860.5213 0 0 0
31.94729 862.06799 0 0 0
31.95610 863.44318 0 0 0
31.96490 861.41119 0 0 0
31.97370 857.78851 0 0 0
31.98250 856.78174 0 0 0
31.99130 855.44073 0 0 0
32.00011 855.63519 0 0 0
32.00891 856.01257 0 0 0
32.01771 854.44641 0 0 0
32.02651 854.87738 0 0 0
32.03532 855.7345 0 0 0
32.04412 850.96161 0 0 0
32.05292 852.37463 0 0 0
32.06172 854.77368 0 0 0
32.07052 854.17108 0 0 0
32.07933 855.81293 0 0 0
32.08813 854.52887 0 0 0
32.09693 854.10736 0 0 0
32.10573 851.66412 0 0 0
32.11454 849.83997 0 0 0
32.12334 849.6778 0 0 0
32.13214 846.62616 0 0 0
32.14094 847.14679 0 0 0
32.14974 845.79987 0 0 0
32.15855 843.84973 0 0 0
32.16735 844.6861 0 0 0
32.17615 846.62421 0 0 0
32.18495 847.12292 0 0 0
32.19375 846.26294 0 0 0
32.20256 842.47955 0 0 0
32.21136 845.34729 0 0 0
32.22016 844.53381 0 0 0
32.22896 840.14197 0 0 0
32.23776 842.18927 0 0 0
32.24657 841.41351 0 0 0
32.25537 843.60699 0 0 0
32.26417 839.38611 0 0 0
32.27297 840.51135 0 0 0
32.28178 843.17798 0 0 0
32.29058 834.90887 0 0 0
32.29938 833.73175 0 0 0
32.30818 839.0343 0 0 0
32.31698 842.68829 0 0 0
32.32579 839.04797 0 0 0
32.33459 842.10931 0 0 0
32.34339 846.5509 0 0 0
32.35219 844.18182 0 0 0
32.36099 839.96997 0 0 0
32.36980 837.78571 0 0 0
32.37860 830.53571 0 0 0
32.38740 832.64276 0 0 0
32.39620 835.09772 0 0 0
32.40500 839.97583 0 0 0
32.41381 836.19507 0 0 0
32.42261 827.14459 0 0 0
32.43141 831.84961 0 0 0
32.44021 830.1908 0 0 0
32.44902 830.32861 0 0 0
32.45782 837.12958 0 0 0
32.46662 834.75342 0 0 0
32.47542 826.99915 0 0 0
32.48422 822.40332 0 0 0
32.49303 817.61389 0 0 0
32.50183 822.38782 0 0 0
32.51063 821.73907 0 0 0
32.51943 814.25775 0 0 0
32.52823 813.07379 0 0 0
32.53704 807.94702 0 0 0
32.54584 807.79816 0 0 0
32.55464 816.55804 0 0 0
32.56344 825.22754 0 0 0
32.57225 813.1474 0 0 0
32.58105 802.11908 0 0 0
32.58985 802.43713 0 0 0
32.59865 799.83698 0 0 0
32.60745 786.86212 0 0 0
32.61626 783.14685 0 0 0
32.62506 796.67059 0 0 0
32.63386 803.58197 0 0 0
32.64266 786.22003 0 0 0
32.65146 778.06427 0 0 0
32.66027 775.87317 0 0 0
32.66907 781.62982 0 0 0
32.67787 793.24976 0 0 0
32.68667 789.59192 0 0 0
32.69547 784.22394 0 0 0
32.70428 781.74097 0 0 0
32.71308 763.81317 0 0 0
32.72188 746.63391 0 0 0
32.73068 729.93402 0 0 0
32.73949 705.75708 0 0 0
32.74829 703.19208 0 0 0
32.75709 716.86224 0 0 0
32.76589 704.72662 0 0 0
32.77469 672.88794 0 0 0
32.78350 667.05914 0 0 0
32.79230 649.61194 0 0 0
32.80110 592.53387 0 0 0
32.80990 533.44647 0 0 0
32.81870 495.69043 0 0 0
32.82751 424.54324 0 0 0
32.83631 287.84567 0 0 0
32.84511 192.02145 0 0 0
32.85391 187.89738 0 0 0
32.86271 174.71114 0 0 0
32.87152 160.14714 0 0 0
32.88032 165.72795 0 0 0
32.88912 176.86388 0 0 0
32.89792 184.22174 0 0 0
32.90673 191.68091 0 0 0
32.91553 197.42834 0 0 0
32.92433 196.19728 0 0 0
32.93313 185.41983 0 0 0
32.94193 182.46687 0 0 0
32.95074 190.11732 0 0 0
32.95954 190.21173 0 0 0
32.96834 188.88538 0 0 0
32.97714 195.35071 0 0 0
32.98594 204.38927 0 0 0
32.99475 203.69223 0 0 0
33.00355 196.37949 0 0 0
33.01235 191.22102 0 0 0
33.02115 180.65567 0 0 0
33.02996 178.5248 0 0 0
33.03876 182.58385 0 0 0
33.04756 175.27896 0 0 0
33.05636 177.79887 0 0 0
33.06516 183.70099 0 0 0
33.07397 184.26163 0 0 0
33.08277 185.77031 0 0 0
33.09157 193.94662 0 0 0
33.10037 201.7243 0 0 0
33.10917 208.16156 0 0 0
33.11798 200.9342 0 0 0
33.12678 193.33994 0 0 0
33.13558 187.67487 0 0 0
33.14438 181.7832 0 0 0
33.15318 179.29944 0 0 0
33.16199 183.33647 0 0 0
33.17079 187.05573 0 0 0
33.17959 185.08376 0 0 0
33.18839 179.83574 0 0 0
33.19720 181.07742 0 0 0
33.20600 194.51715 0 0 0
33.21480 206.65941 0 0 0
33.22360 198.11278 0 0 0
33.23240 181.02 0 0 0
33.24121 174.51285 0 0 0
33.25001 183.89232 0 0 0
33.25881 191.51939 0 0 0
33.26761 183.73531 0 0 0
33.27641 175.95364 0 0 0
33.28522 179.6624 0 0 0
33.29402 197.07315 0 0 0
33.30282 204.76367 0 0 0
33.31162 201.59315 0 0 0
33.32042 205.87177 0 0 0
33.32923 214.22609 0 0 0
33.33803 211.86745 0 0 0
33.34683 197.97655 0 0 0
33.35563 183.32042 0 0 0
33.36444 179.83504 0 0 0
33.37324 186.2726 0 0 0
33.38204 195.37209 0 0 0
33.39084 196.0043 0 0 0
33.39964 199.18916 0 0 0
33.40845 198.3215 0 0 0
33.41725 185.23636 0 0 0
33.42605 181.76996 0 0 0
33.43485 191.22456 0 0 0
33.44365 185.89926 0 0 0
33.45246 171.5255 0 0 0
33.46126 160.64139 0 0 0
33.47006 167.95842 0 0 0
33.47886 180.19968 0 0 0
33.48766 187.10138 0 0 0
33.49647 187.43282 0 0 0
33.50527 184.24126 0 0 0
33.51407 185.37622 0 0 0
33.52287 186.16354 0 0 0
33.53168 186.00208 0 0 0
33.54048 186.64464 0 0 0
33.54928 188.89488 0 0 0
33.55808 186.26395 0 0 0
33.56688 177.22668 0 0 0
33.57569 182.95384 0 0 0
33.58449 196.24648 0 0 0
33.59329 193.64748 0 0 0
33.60209 189.6884 0 0 0
33.61089 187.73866 0 0 0
33.61970 177.16873 0 0 0
33.62850 168.44055 0 0 0
33.63730 163.88725 0 0 0
33.64610 165.37181 0 0 0
33.65491 177.93849 0 0 0
33.66371 179.92377 0 0 0
33.67251 175.33241 0 0 0
33.68131 180.95383 0 0 0
33.69011 185.92932 0 0 0
33.69892 190.84566 0 0 0
33.70772 194.81897 0 0 0
33.71652 194.05486 0 0 0
33.72532 189.02969 0 0 0
33.73412 185.702 0 0 0
33.74293 193.91872 0 0 0
33.75173 191.94138 0 0 0
33.76053 178.07219 0 0 0
33.76933 181.96872 0 0 0
33.77813 193.98869 0 0 0
33.78694 201.48077 0 0 0
33.79574 199.4884 0 0 0
33.80454 199.44727 0 0 0
33.81334 210.6153 0 0 0
33.82215 211.32301 0 0 0
33.83095 199.31686 0 0 0
33.83975 190.19453 0 0 0
33.84855 190.03281 0 0 0
33.85735 198.10745 0 0 0
33.86616 205.67024 0 0 0
33.87496 199.67442 0 0 0
33.88376 194.50572 0 0 0
33.89256 197.95235 0 0 0
33.90136 201.42827 0 0 0
33.91017 210.74052 0 0 0
33.91897 212.53635 0 0 0
33.92777 205.08881 0 0 0
33.93657 199.29034 0 0 0
33.94537 194.7141 0 0 0
33.95418 197.96483 0 0 0
33.96298 205.96031 0 0 0
33.97178 208.12361 0 0 0
33.98058 199.72112 0 0 0
33.98939 188.70551 0 0 0
33.99819 188.91261 0 0 0
34.00699 192.76952 0 0 0
34.01579 205.47101 0 0 0
34.02459 210.05339 0 0 0
34.03340 207.83752 0 0 0
34.04220 210.22133 0 0 0
34.05100 218.4933 0 0 0
34.05980 217.42068 0 0 0
34.06860 200.36125 0 0 0
34.07741 186.36131 0 0 0
34.08621 194.20198 0 0 0
34.09501 205.73236 0 0 0
34.10381 206.50764 0 0 0
34.11262 202.56306 0 0 0
34.12142 201.35083 0 0 0
34.13022 202.23743 0 0 0
34.13902 199.43396 0 0 0
34.14782 198.07733 0 0 0
34.15663 204.66006 0 0 0
34.16543 203.37086 0 0 0
34.17423 193.93835 0 0 0
34.18303 202.5097 0 0 0
34.19183 195.98442 0 0 0
34.20064 184.99341 0 0 0
34.20944 182.4883 0 0 0
34.21824 190.49829 0 0 0
34.22704 197.96194 0 0 0
34.23584 193.46637 0 0 0
34.24465 193.62195 0 0 0
34.25345 204.33409 0 0 0
34.26225 218.40736 0 0 0
34.27105 216.23021 0 0 0
34.27986 205.04471 0 0 0
34.28866 191.56108 0 0 0
34.29746 194.51872 0 0 0
34.30626 206.85841 0 0 0
34.31506 214.12872 0 0 0
34.32387 205.67137 0 0 0
34.33267 199.23056 0 0 0
34.34147 206.33702 0 0 0
34.35027 214.31729 0 0 0
34.35907 213.70985 0 0 0
34.36788 205.54147 0 0 0
34.37668 200.66214 0 0 0
34.38548 207.46632 0 0 0
34.39428 218.44516 0 0 0
34.40308 221.47342 0 0 0
34.41189 210.66537 0 0 0
34.42069 201.70155 0 0 0
34.42949 210.47765 0 0 0
34.43829 212.8826 0 0 0
34.44710 208.84048 0 0 0
34.45590 206.40793 0 0 0
34.46470 203.27576 0 0 0
34.47350 208.60735 0 0 0
34.48230 210.65521 0 0 0
34.49111 208.43631 0 0 0
34.49991 201.03456 0 0 0
34.50871 197.74908 0 0 0
34.51751 200.50211 0 0 0
34.52631 201.13213 0 0 0
34.53512 199.35341 0 0 0
34.54392 195.65782 0 0 0
34.55272 190.10387 0 0 0
34.56152 194.74112 0 0 0
34.57033 197.37115 0 0 0
34.57913 201.54312 0 0 0
34.58793 215.02277 0 0 0
34.59673 214.12973 0 0 0
34.60553 205.19069 0 0 0
34.61434 210.00069 0 0 0
34.62314 215.90138 0 0 0
34.63194 207.30507 0 0 0
34.64074 195.69063 0 0 0
34.64954 195.91153 0 0 0
34.65835 209.77116 0 0 0
34.66715 210.21878 0 0 0
34.67595 188.38269 0 0 0
34.68475 190.89735 0 0 0
34.69355 204.92308 0 0 0
34.70236 207.0542 0 0 0
34.71116 214.17574 0 0 0
34.71996 203.55858 0 0 0
34.72876 203.06569 0 0 0
34.73757 208.05182 0 0 0
34.74637 216.24327 0 0 0
34.75517 223.93819 0 0 0
34.76397 220.11116 0 0 0
34.77277 219.65604 0 0 0
34.78158 211.99571 0 0 0
34.79038 196.54306 0 0 0
34.79918 179.97951 0 0 0
34.80798 168.56584 0 0 0
34.81678 182.50827 0 0 0
34.82559 200.12892 0 0 0
34.83439 211.4817 0 0 0
34.84319 220.47322 0 0 0
34.85199 230.73355 0 0 0
34.86079 234.78317 0 0 0
34.86960 222.97697 0 0 0
34.87840 209.53673 0 0 0
34.88720 201.68233 0 0 0
34.89600 205.96439 0 0 0
34.90481 208.05948 0 0 0
34.91361 203.67928 0 0 0
34.92241 218.79433 0 0 0
34.93121 226.70595 0 0 0
34.94001 203.14096 0 0 0
34.94882 201.90343 0 0 0
34.95762 211.11951 0 0 0
34.96642 208.40532 0 0 0
34.97522 209.04749 0 0 0
34.98402 210.66565 0 0 0
34.99283 206.87105 0 0 0
35.00163 198.50122 0 0 0
35.01043 194.78697 0 0 0
35.01923 198.51407 0 0 0
35.02804 205.24524 0 0 0
35.03684 212.14853 0 0 0
35.04564 207.08427 0 0 0
35.05444 203.80879 0 0 0
35.06324 207.41878 0 0 0
35.07205 223.89673 0 0 0
35.08085 226.45137 0 0 0
35.08965 221.94684 0 0 0
35.09845 222.71918 0 0 0
35.10725 234.50301 0 0 0
35.11606 233.50781 0 0 0
35.12486 222.64684 0 0 0
35.13366 215.61691 0 0 0
35.14246 216.37581 0 0 0
35.15126 226.50261 0 0 0
35.16007 230.56009 0 0 0
35.16887 227.40791 0 0 0
35.17767 215.53613 0 0 0
35.18647 217.58089 0 0 0
35.19528 223.66962 0 0 0
35.20408 219.01569 0 0 0
loop_
_gsas_i100_meas
2.02
8.14
3.26
0.00
6.72
0.70
100.00
4.09
95.05
21.00
69.06
22.90
2.46
0.15
45.55
48.62
3.34
36.32
31.05
22.09
0.27
5.17
1.32
8.66
3.91
21.90
3.36
34.71
7.06
0.73
1.25
0.11
0.75
4.13
1.79
0.04
8.61
6.01
5.05
14.15
25.66
5.82
6.41
0.10
3.29
1.90
0.36
0.61
10.55
0.31
3.08
9.42
0.72
12.84
5.17
12.00
0.18
2.32
4.94
15.63
0.12
4.71
0.04
0.38
0.37
1.61
1.22
2.72
3.74
0.86
2.12
6.41
0.11
0.05
18.53
0.88
0.00
4.29
3.93
1.11
0.06
0.11
12.41
12.39
0.46
8.26
12.71
1.68
1.82
23.47
5.46
0.99
2.71
0.34
0.84
2.54
0.02
2.41
0.28
3.33
0.33
0.63
1.29
0.27
0.00
11.84
0.57
2.33
0.45
3.08
2.14
14.21
8.30
1.65
0.17
2.53
1.08
0.04
0.04
0.03
0.75
0.33
0.47
0.01
0.07
4.72
14.02
1.49
1.43
0.01
0.23
0.03
0.01
0.00
0.83
2.46
0.12
0.49
0.32
0.54
3.53
0.08
0.14
0.02
5.11
8.38
4.90
1.62
0.03
0.33
1.34
0.15
3.01
0.39
0.03
1.03
1.19
2.80
2.43
0.26
2.41
