#------------------------------------------------------------------------------
#$Date: 2021-02-05 01:04:31 +0200 (Fri, 05 Feb 2021) $
#$Revision: 261628 $
#$URL: file:///home/coder/svn-repositories/cod/cif/7/24/18/7241841.cif $
#------------------------------------------------------------------------------
#
# This file is available in the Crystallography Open Database (COD),
# http://www.crystallography.net/
#
# All data on this site have been placed in the public domain by the
# contributors.
#
data_7241841
loop_
_publ_author_name
'Gu\'nka, Piotr A.'
'Hanfland, Michael'
'Chen, Yu-Sheng'
'Zachara, Janusz'
_publ_section_title
;
 High-pressure and low-temperature structural study of claudetite I, a
 monoclinic layered As2O3 polymorph
;
_journal_issue                   3
_journal_name_full               CrystEngComm
_journal_page_first              638
_journal_page_last               644
_journal_paper_doi               10.1039/D0CE01401J
_journal_volume                  23
_journal_year                    2021
_chemical_formula_moiety         'As2 O3'
_chemical_formula_sum            'As2 O3'
_chemical_formula_weight         197.84
_chemical_name_common            'claudetite I'
_chemical_name_systematic
;
arsenic(III) oxide
;
_space_group_IT_number           14
_space_group_name_Hall           '-P 2yn'
_space_group_name_H-M_alt        'P 1 21/n 1'
_symmetry_cell_setting           monoclinic
_symmetry_space_group_name_H-M   'P 1 21/n 1'
_audit_creation_date             2020-10-21T14:51
_audit_creation_method           'created in GSAS-II'
_audit_update_record
;
2020-10-22 deposited with the CCDC.	2020-12-10 downloaded from the CCDC.
;
_cell_angle_alpha                90
_cell_angle_beta                 94.803(3)
_cell_angle_gamma                90
_cell_formula_units_Z            4
_cell_length_a                   4.6069(4)
_cell_length_b                   11.5455(7)
_cell_length_c                   4.04391(32)
_cell_measurement_pressure       2.578e7(5)
_cell_measurement_temperature    293
_cell_volume                     214.34(3)
_computing_data_reduction        Fit2D
_computing_structure_refinement
'GSAS-II (Toby & Von Dreele, J. Appl. Cryst. 46, 544-549, 2013)'
_diffrn_ambient_pressure         2.578e7(5)
_diffrn_ambient_temperature      293
_diffrn_detector                 'Mar555 flat panel'
_diffrn_detector_type            'Mar555 flat panel'
_diffrn_measurement_device_type  'ESRF ID09A beamline'
_diffrn_radiation_monochromator  Si
_diffrn_radiation_polarisn_ratio 0.9900
_diffrn_radiation_probe          x-ray
_diffrn_radiation_wavelength     0.41421
_diffrn_source                   'ESRF ID09A'
_diffrn_source_type              synchrotron
_exptl_crystal_colour            colourless
_exptl_crystal_density_diffrn    6.1310
_exptl_crystal_description       'white powder'
_pd_block_id                     2020-10-21T14:51|clau1_024rietveld||id09a
_pd_calc_method                  'Rietveld Refinement'
_pd_meas_number_of_points        4000
_pd_phase_name                   claudetiteI
_pd_prep_pressure                100.0(1)
_pd_prep_temperature             293
_pd_proc_info_datetime           2020-10-21T14:51
_pd_proc_ls_background_function
;
Background function: "chebyschev" function with 30 terms:
    758.0(7), 525.7(24), -413(6), -14084(15), 23088(14), 421160(21), 
    -432764(5), -6.523837(14)e6, 5.979089(10)e6, 5.7577039(9)e7, 
    -5.6409180(12)e7, -3.13551061(20)e8, 3.41115072(8)e8, 1.114138973(20)e9, 
    -1.350889298(5)e9, -2.664226163(11)e9, 3.615162300(8)e9, 
    4.318579333(6)e9, -6.663689095(11)e9, -4.642584959(17)e9, 
    8.483079490(13)e9, 3.058800704(23)e9, -7.333402847(11)e9, 
    -9.07499512(23)e8, 4.112659194(6)e9, -2.01355096(13)e8, -1.350273403(7)e9, 
    2.41003885(8)e8, 1.97078677(21)e8, -5.476662(4)e7, 
;
_pd_proc_ls_pref_orient_corr
;
Simple spherical harmonic correction Order = 6
    Coefficients:  0:0:C(6,6) = -0.055(24); 0:0:C(4,4) = 0.201(22); 
    0:0:C(6,-2) = -0.113(28); 0:0:C(2,-2) = -0.077(17); 0:0:C(4,-4) = -0.177(20); 
    0:0:C(2,2) = 0.360(14); 0:0:C(4,0) = 0.090(19); 0:0:C(6,-6) = -0.114(27); 
    0:0:C(6,4) = -0.138(26); 0:0:C(4,2) = -0.019(19); 0:0:C(6,2) = 0.157(27); 
    0:0:C(6,-4) = 0.040(19); 0:0:C(6,0) = -0.310(26); 0:0:C(2,0) = -0.436(14); 
    0:0:C(4,-2) = -0.024(23); 
;
_pd_proc_ls_profile_function
;
Finger-Cox-Jephcoat function parameters U, V, W, X, Y, SH/L:
  peak variance(Gauss) = Utan(Th)^2^+Vtan(Th)+W:
  peak HW(Lorentz) = X/cos(Th)+Ytan(Th); SH/L = S/L+H/L
  U, V, W in (centideg)^2^, X & Y in centideg
    4.1(5)e3, -6.3(8)e2, 32(4), 1.8(4), 35(11), 0.002, 
  Crystallite size in microns with "isotropic" model:
  parameters: Size, G/L mix
    1.000, 1.000, 
  Microstrain, "isotropic" model (10^6^ * delta Q/Q)
    parameters: Mustrain, G/L mix
    1000.000, 1.000, 

;
_pd_proc_ls_prof_R_factor        0.00572
_pd_proc_ls_prof_wR_expected     0.03560
_pd_proc_ls_prof_wR_factor       0.00865
_refine_ls_goodness_of_fit_all   0.247
_refine_ls_matrix_type           full
_refine_ls_number_parameters     72
_refine_ls_R_Fsqd_factor         0.04210
_refine_ls_shift/su_max          0.0009
_refine_ls_wR_factor_obs         0.00865
_reflns_d_resolution_high        1.110
_reflns_d_resolution_low         5.773
_reflns_limit_h_max              4
_reflns_limit_h_min              0
_reflns_limit_k_max              10
_reflns_limit_k_min              0
_reflns_limit_l_max              3
_reflns_limit_l_min              -3
_reflns_number_total             165
_cod_data_source_file            d0ce01401j3.cif
_cod_data_source_block           clau1_024rietveld
_cod_depositor_comments
'Adding full bibliography for 7241824--7241862.cif.'
_cod_original_cell_volume        214.336(14)
_cod_database_code               7241841
_refine_ls_r_f_factor            0.01972
_gsas_proc_ls_prof_r_b_factor    0.00935
_gsas_proc_ls_prof_wr_b_factor   0.01732
loop_
_space_group_symop_id
_space_group_symop_operation_xyz
1 x,y,z
2 1/2-x,1/2+y,1/2-z
3 -x,-y,-z
4 1/2+x,1/2-y,1/2+z
loop_
_atom_site_label
_atom_site_type_symbol
_atom_site_fract_x
_atom_site_fract_y
_atom_site_fract_z
_atom_site_occupancy
_atom_site_adp_type
_atom_site_U_iso_or_equiv
_atom_site_symmetry_multiplicity
As1 As 0.2872(7) 0.08550(29) 0.0840(8) 1.000 Uiso 0.0168(16) 4
As2 As 0.3141(6) 0.3580(4) 0.0369(7) 1.000 Uiso 0.0168 4
O3 O 0.4727(18) 0.2198(3) 0.110(5) 1.000 Uiso 0.0168 4
O4 O 0.6544(20) 0.4225(13) 0.1605(14) 1.000 Uiso 0.0168 4
O5 O -0.0837(14) 0.1167(21) 0.1301(12) 1.000 Uiso 0.0168 4
loop_
_atom_type_symbol
_atom_type_number_in_cell
_atom_type_scat_Cromer_Mann_a1
_atom_type_scat_Cromer_Mann_a2
_atom_type_scat_Cromer_Mann_a3
_atom_type_scat_Cromer_Mann_a4
_atom_type_scat_Cromer_Mann_b1
_atom_type_scat_Cromer_Mann_b2
_atom_type_scat_Cromer_Mann_b3
_atom_type_scat_Cromer_Mann_b4
_atom_type_scat_Cromer_Mann_c
_atom_type_scat_length_neutron
_atom_type_scat_source
_atom_type_scat_dispersion_real
_atom_type_scat_dispersion_imag
_atom_type_scat_dispersion_source
As 8 16.6723 6.0701 3.4313 4.2779 2.6345 0.2647 12.9479 47.7972 2.531 0.658
https://subversion.xray.aps.anl.gov/pyGSAS/trunk/atmdata.py 0.283 0.775
https://subversion.xray.aps.anl.gov/pyGSAS/trunk/atmdata.py
O 12 3.0485 2.2868 1.5463 0.867 13.2771 5.7011 0.3239 32.9089 0.2508 0.5805
https://subversion.xray.aps.anl.gov/pyGSAS/trunk/atmdata.py 0.002 0.002
https://subversion.xray.aps.anl.gov/pyGSAS/trunk/atmdata.py
loop_
_geom_angle_atom_site_label_1
_geom_angle_atom_site_label_2
_geom_angle_atom_site_label_3
_geom_angle
_geom_angle_site_symmetry_1
_geom_angle_site_symmetry_2
_geom_angle_site_symmetry_3
_geom_angle_publ_flag
O3 As1 O4 103.2(9) 1_555 1_555 4_454 yes
O3 As1 O5 106.3(9) 1_555 1_555 1_555 yes
O4 As1 O5 81.63(32) 4_454 1_555 1_555 yes
O3 As2 O4 89.4(5) 1_555 1_555 1_555 yes
O3 As2 O5 99.5(13) 1_555 1_555 4_554 yes
O4 As2 O5 84.0(4) 1_555 1_555 4_554 yes
As1 O3 As2 126.1(4) 1_555 1_555 1_555 yes
As1 O4 As2 118.5(3) 4_555 1_555 1_555 yes
As1 O5 As2 117.7(4) 1_555 1_555 4_455 yes
loop_
_geom_bond_atom_site_label_1
_geom_bond_atom_site_label_2
_geom_bond_distance
_geom_bond_site_symmetry_1
_geom_bond_site_symmetry_2
_geom_bond_publ_flag
As1 O3 1.7692(24) 1_555 1_555 yes
As1 O4 1.7719(24) 1_555 4_454 yes
As1 O5 1.7710(24) 1_555 1_555 yes
As2 O3 1.7692(24) 1_555 1_555 yes
As2 O4 1.7698(24) 1_555 1_555 yes
As2 O5 1.7729(24) 1_555 4_554 yes
loop_
_pd_meas_2theta_scan
_pd_meas_intensity_total
_pd_calc_intensity_total
_pd_proc_intensity_bkg_calc
_pd_proc_ls_weight
0.00440 96.739807 0 0 0
0.01321 112.25529 0 0 0
0.02202 114.26134 0 0 0
0.03083 113.05487 0 0 0
0.03963 110.8505 0 0 0
0.04844 109.05149 0 0 0
0.05725 107.2165 0 0 0
0.06605 107.25352 0 0 0
0.07486 106.58575 0 0 0
0.08367 105.65012 0 0 0
0.09248 106.66456 0 0 0
0.10128 107.10622 0 0 0
0.11009 107.33085 0 0 0
0.11890 106.08844 0 0 0
0.12770 105.40874 0 0 0
0.13651 105.26678 0 0 0
0.14532 104.98492 0 0 0
0.15413 104.86152 0 0 0
0.16293 106.12873 0 0 0
0.17174 106.1715 0 0 0
0.18055 106.71881 0 0 0
0.18935 106.2737 0 0 0
0.19816 106.59644 0 0 0
0.20697 105.8675 0 0 0
0.21578 104.99417 0 0 0
0.22458 106.26077 0 0 0
0.23339 107.45352 0 0 0
0.24220 107.50703 0 0 0
0.25100 106.60008 0 0 0
0.25981 106.87082 0 0 0
0.26862 106.73214 0 0 0
0.27743 107.53115 0 0 0
0.28623 107.02901 0 0 0
0.29504 106.62694 0 0 0
0.30385 107.8699 0 0 0
0.31265 110.25418 0 0 0
0.32146 110.24946 0 0 0
0.33027 109.796 0 0 0
0.33908 109.87531 0 0 0
0.34788 111.20074 0 0 0
0.35669 111.07552 0 0 0
0.36550 109.63926 0 0 0
0.37430 108.44827 0 0 0
0.38311 109.30788 0 0 0
0.39192 108.92265 0 0 0
0.40073 108.70267 0 0 0
0.40953 108.68332 0 0 0
0.41834 109.64022 0 0 0
0.42715 109.71897 0 0 0
0.43595 109.99931 0 0 0
0.44476 110.75852 0 0 0
0.45357 110.2117 0 0 0
0.46238 108.89198 0 0 0
0.47118 107.39268 0 0 0
0.47999 107.28155 0 0 0
0.48880 106.965 0 0 0
0.49760 107.2952 0 0 0
0.50641 108.00969 0 0 0
0.51522 108.22432 0 0 0
0.52403 108.30386 0 0 0
0.53283 108.7723 0 0 0
0.54164 110.21205 0 0 0
0.55045 109.39321 0 0 0
0.55926 109.31946 0 0 0
0.56806 109.1412 0 0 0
0.57687 109.29021 0 0 0
0.58568 109.90139 0 0 0
0.59448 109.966 0 0 0
0.60329 109.57433 0 0 0
0.61210 110.15426 0 0 0
0.62091 110.80548 0 0 0
0.62971 111.02052 0 0 0
0.63852 109.9623 0 0 0
0.64733 109.40565 0 0 0
0.65613 111.03379 0 0 0
0.66494 111.28878 0 0 0
0.67375 110.5419 0 0 0
0.68256 109.92633 0 0 0
0.69136 110.28226 0 0 0
0.70017 109.97292 0 0 0
0.70898 109.54668 0 0 0
0.71778 108.94254 0 0 0
0.72659 110.1424 0 0 0
0.73540 110.51723 0 0 0
0.74421 110.9437 0 0 0
0.75301 111.62019 0 0 0
0.76182 111.55706 0 0 0
0.77063 110.73966 0 0 0
0.77943 111.111 0 0 0
0.78824 112.52538 0 0 0
0.79705 112.31589 0 0 0
0.80586 112.24283 0 0 0
0.81466 112.48872 0 0 0
0.82347 113.48581 0 0 0
0.83228 113.63159 0 0 0
0.84108 114.20537 0 0 0
0.84989 114.55666 0 0 0
0.85870 114.19318 0 0 0
0.86751 114.02644 0 0 0
0.87631 114.89771 0 0 0
0.88512 116.15537 0 0 0
0.89393 116.93578 0 0 0
0.90273 118.88908 0 0 0
0.91154 121.64653 0 0 0
0.92035 125.03921 0 0 0
0.92916 127.37435 0 0 0
0.93796 126.10452 0 0 0
0.94677 123.48441 0 0 0
0.95558 123.04789 0 0 0
0.96438 126.63132 0 0 0
0.97319 128.17552 0 0 0
0.98200 127.42065 0 0 0
0.99081 127.49585 0 0 0
0.99961 131.89859 0 0 0
1.00842 137.17023 0 0 0
1.01723 141.31296 0 0 0
1.02604 142.11555 0 0 0
1.03484 150.23773 0 0 0
1.04365 159.5518 0 0 0
1.05246 167.90385 0 0 0
1.06126 172.68312 0 0 0
1.07007 184.35747 0 0 0
1.07888 190.55777 0 0 0
1.08769 194.91699 0 0 0
1.09649 200.86444 0 0 0
1.10530 210.98232 0 0 0
1.11411 219.32271 0 0 0
1.12291 225.39804 0 0 0
1.13172 231.99782 0 0 0
1.14053 236.42398 0 0 0
1.14934 238.71082 0 0 0
1.15814 240.7039 0 0 0
1.16695 243.53514 0 0 0
1.17576 246.87746 0 0 0
1.18456 248.92326 0 0 0
1.19337 249.79184 0 0 0
1.20218 250.15233 0 0 0
1.21099 251.64711 0 0 0
1.21979 254.65517 0 0 0
1.22860 257.66885 0 0 0
1.23741 259.75226 0 0 0
1.24621 261.31625 0 0 0
1.25502 262.51599 0 0 0
1.26383 263.84576 0 0 0
1.27264 264.93341 0 0 0
1.28144 267.03638 0 0 0
1.29025 270.14401 0 0 0
1.29906 272.41605 0 0 0
1.30786 272.9501 0 0 0
1.31667 273.69727 0 0 0
1.32548 274.3967 0 0 0
1.33429 276.30978 0 0 0
1.34309 278.99957 0 0 0
1.35190 281.43161 0 0 0
1.36071 283.49301 0 0 0
1.36951 284.38562 0 0 0
1.37832 285.29654 0 0 0
1.38713 286.16083 0 0 0
1.39594 287.02539 0 0 0
1.40474 287.60025 0 0 0
1.41355 287.91245 0 0 0
1.42236 287.81738 0 0 0
1.43116 289.06891 0 0 0
1.43997 290.70898 0 0 0
1.44878 292.52206 0 0 0
1.45759 293.7395 0 0 0
1.46639 294.76077 0 0 0
1.47520 296.38208 0 0 0
1.48401 297.48257 0 0 0
1.49281 298.81461 0 0 0
1.50162 299.95657 0 0 0
1.51043 300.11142 0 0 0
1.51924 301.18607 0 0 0
1.52804 301.28018 0 0 0
1.53685 301.08746 0 0 0
1.54566 302.21091 0 0 0
1.55446 304.5188 0 0 0
1.56327 305.51526 0 0 0
1.57208 306.94226 0 0 0
1.58089 307.80768 0 0 0
1.58969 308.28763 0 0 0
1.59850 308.44083 0 0 0
1.60731 309.9827 0 0 0
1.61612 311.40787 0 0 0
1.62492 311.12247 0 0 0
1.63373 310.54309 0 0 0
1.64254 311.03653 0 0 0
1.65134 313.10999 0 0 0
1.66015 315.17801 0 0 0
1.66896 314.97235 0 0 0
1.67777 314.98529 0 0 0
1.68657 314.82568 0 0 0
1.69538 315.63489 0 0 0
1.70419 317.79868 0 0 0
1.71299 320.34509 0 0 0
1.72180 320.9375 0 0 0
1.73061 321.13654 0 0 0
1.73942 321.57101 0 0 0
1.74822 322.97443 0 0 0
1.75703 324.0889 0 0 0
1.76584 324.68958 0 0 0
1.77464 325.15308 0 0 0
1.78345 324.86127 0 0 0
1.79226 324.96884 0 0 0
1.80107 325.46979 0 0 0
1.80987 325.793 0 0 0
1.81868 326.41437 0 0 0
1.82749 327.17093 0 0 0
1.83629 328.82941 0 0 0
1.84510 329.55289 0 0 0
1.85391 330.17639 0 0 0
1.86272 330.01611 0 0 0
1.87152 330.61987 0 0 0
1.88033 331.64871 0 0 0
1.88914 333.45126 0 0 0
1.89794 334.59955 0 0 0
1.90675 334.27484 0 0 0
1.91556 332.93323 0 0 0
1.92437 332.31076 0 0 0
1.93317 333.73309 0 0 0
1.94198 335.35449 0 0 0
1.95079 336.99625 0 0 0
1.95959 337.71518 0 0 0
1.96840 338.55695 0 0 0
1.97721 338.56372 0 0 0
1.98602 338.21249 0 0 0
1.99482 339.20786 0 0 0
2.00363 340.13971 0 0 0
2.01244 340.97 0 0 0
2.02124 341.36084 0 0 0
2.03005 342.73523 0 0 0
2.03886 343.74997 0 0 0
2.04767 343.50778 0 0 0
2.05647 343.50531 0 0 0
2.06528 345.22922 0 0 0
2.07409 346.18375 0 0 0
2.08289 346.69446 0 0 0
2.09170 346.47815 0 0 0
2.10051 346.82846 0 0 0
2.10932 347.27551 0 0 0
2.11812 348.15518 0 0 0
2.12693 349.17349 0 0 0
2.13574 350.07663 0 0 0
2.14455 351.11896 0 0 0
2.15335 351.00772 0 0 0
2.16216 350.1886 0 0 0
2.17097 350.31299 0 0 0
2.17977 351.80042 0 0 0
2.18858 351.91299 0 0 0
2.19739 351.12677 0 0 0
2.20620 352.32852 0 0 0
2.21500 353.68591 0 0 0
2.22381 354.77426 0 0 0
2.23262 355.8176 0 0 0
2.24142 356.82663 0 0 0
2.25023 357.22351 0 0 0
2.25904 357.4664 0 0 0
2.26785 357.46814 0 0 0
2.27665 357.39951 0 0 0
2.28546 356.65298 0 0 0
2.29427 357.38239 0 0 0
2.30307 359.17435 0 0 0
2.31188 360.51266 0 0 0
2.32069 360.26947 0 0 0
2.32950 359.76367 0 0 0
2.33830 359.2244 0 0 0
2.34711 359.46732 0 0 0
2.35592 360.45773 0 0 0
2.36472 361.96167 0 0 0
2.37353 363.19568 0 0 0
2.38234 364.0394 0 0 0
2.39115 363.20151 0 0 0
2.39995 362.91592 0 0 0
2.40876 363.89404 0 0 0
2.41757 363.78766 0 0 0
2.42637 363.96603 0 0 0
2.43518 364.02866 0 0 0
2.44399 365.33795 0 0 0
2.45280 366.46179 0 0 0
2.46160 366.90051 0 0 0
2.47041 366.44138 0 0 0
2.47922 365.96628 0 0 0
2.48802 366.21744 0 0 0
2.49683 367.59796 0 0 0
2.50564 368.7764 0 0 0
2.51445 369.1759 0 0 0
2.52325 369.47137 0 0 0
2.53206 369.74707 0 0 0
2.54087 369.65222 0 0 0
2.54967 369.42609 0 0 0
2.55848 369.95389 0 0 0
2.56729 371.23621 0 0 0
2.57610 372.01105 0 0 0
2.58490 372.31183 0 0 0
2.59371 372.36957 0 0 0
2.60252 372.7038 0 0 0
2.61132 373.39127 0 0 0
2.62013 373.99442 0 0 0
2.62894 373.61493 0 0 0
2.63775 373.74933 0 0 0
2.64655 374.32623 0 0 0
2.65536 374.61526 0 0 0
2.66417 374.0386 0 0 0
2.67298 373.96805 0 0 0
2.68178 374.20212 0 0 0
2.69059 374.60272 0 0 0
2.69940 375.35428 0 0 0
2.70820 374.83011 0 0 0
2.71701 375.19678 0 0 0
2.72582 375.99225 0 0 0
2.73463 377.5824 0 0 0
2.74343 377.82452 0 0 0
2.75224 377.25769 0 0 0
2.76105 377.46182 0 0 0
2.76985 378.9715 386.024017 385.846856 0.00263872
2.77866 379.87149 383.517798 383.339892 0.00263247
2.78747 380.22607 381.600125 381.421466 0.00263001
2.79628 380.72809 380.192135 380.012077 0.00262655
2.80508 380.98944 379.220898 379.040073 0.00262474
2.81389 381.45834 378.622647 378.441047 0.00262152
2.82270 381.97238 378.339636 378.157255 0.00261799
2.83150 381.65366 378.320285 378.137115 0.00262018
2.84031 381.49997 378.518645 378.33468 0.00262123
2.84912 381.93771 378.893945 378.709176 0.00261823
2.85793 382.37076 379.410167 379.224587 0.00261526
2.86673 382.6405 380.044755 379.849209 0.00261342
2.87554 382.71039 380.751726 380.555332 0.00261294
2.88435 384.00241 381.516075 381.318825 0.00260415
2.89315 384.51163 382.316929 382.118813 0.0026007
2.90196 383.83527 383.136467 382.937478 0.00260528
2.91077 384.29697 383.959486 383.759615 0.00260215
2.91958 385.19199 384.773229 384.572467 0.00259611
2.92838 385.94971 385.567122 385.36546 0.00259101
2.93719 385.96646 386.340953 386.129984 0.0025909
2.94600 386.52338 387.071073 386.859166 0.00258717
2.95480 386.36572 387.760577 387.547721 0.00258822
2.96361 386.49765 388.405538 388.191724 0.00258734
2.97242 386.42505 389.003244 388.788462 0.00258782
2.98123 387.04059 389.552068 389.336308 0.00258371
2.99003 387.55899 390.051303 389.834554 0.00258025
2.99884 387.8609 390.501065 390.283316 0.00257824
3.00765 387.26651 390.902145 390.683386 0.0025822
3.01645 386.84686 391.255931 391.036149 0.002585
3.02526 387.66187 391.564289 391.343473 0.00257957
3.03407 388.6904 391.829522 391.607662 0.00257274
3.04288 389.17426 392.05424 391.831321 0.00256954
3.05168 389.09116 392.241309 392.017321 0.00257009
3.06049 389.21753 392.39989 392.168728 0.00256926
3.06930 389.91821 392.521024 392.288752 0.00256464
3.07810 390.93341 392.614082 392.380687 0.00255798
3.08691 391.79904 392.682406 392.447874 0.00255233
3.09572 391.65582 392.729342 392.493659 0.00255326
3.10453 391.2085 392.758204 392.521356 0.00255618
3.11333 390.94147 392.772251 392.534222 0.00255793
3.12214 391.51138 392.774655 392.535431 0.0025542
3.13095 392.32208 392.768479 392.528044 0.00254893
3.13976 392.50232 392.75666 392.514998 0.00254776
3.14856 392.76749 392.741996 392.499089 0.00254604
3.15737 392.13666 392.727129 392.482962 0.00255013
3.16618 392.09866 392.714538 392.469092 0.00255038
3.17498 392.15762 392.706528 392.459786 0.00255
3.18379 392.83002 392.705228 392.457171 0.00254563
3.19260 393.21838 392.71259 392.463198 0.00254312
3.20140 394.26068 392.730377 392.479632 0.00253639
3.21021 394.96732 392.760173 392.508054 0.00253186
3.21902 395.14688 392.803384 392.549869 0.0025307
3.22783 394.22614 392.861231 392.6063 0.00253662
3.23663 394.08411 392.934763 392.678393 0.00253753
3.24544 394.88538 393.024857 392.767025 0.00253238
3.25425 395.68146 393.132226 392.872908 0.00252729
3.26306 396.00775 393.257424 392.996596 0.0025252
3.27186 396.67188 393.400848 393.138483 0.00252098
3.28067 397.02811 393.562753 393.298825 0.00251871
3.28948 397.26407 393.743247 393.477729 0.00251722
3.29828 397.60138 393.942325 393.675189 0.00251508
3.30709 397.90521 394.159844 393.891061 0.00251316
3.31590 397.41672 394.395552 394.125091 0.00251625
3.32471 397.49362 394.649088 394.376917 0.00251576
3.33351 397.5307 394.919991 394.646078 0.00251553
3.34232 398.27304 395.20772 394.93203 0.00251084
3.35113 398.70074 395.511644 395.234142 0.00250815
3.35993 398.96808 395.831061 395.55171 0.00250647
3.36874 399.35815 396.165203 395.883965 0.00250402
3.37755 398.9231 396.513246 396.23008 0.00250675
3.38636 398.46887 396.875549 396.589175 0.00250961
3.39516 398.95078 397.248729 396.960339 0.00250657
3.40397 399.87808 397.633065 397.342615 0.00250076
3.41278 400.15741 398.027576 397.735018 0.00249902
3.42158 400.60562 398.431261 398.136545 0.00249622
3.43039 401.02341 398.843087 398.546162 0.00249362
3.43920 401.50851 399.262055 398.962867 0.00249061
3.44801 401.77582 399.687122 399.385614 0.00248895
3.45681 402.16763 400.117258 399.81337 0.00248653
3.46562 401.88266 400.551437 400.245107 0.00248829
3.47443 402.06961 400.988658 400.679821 0.00248713
3.48323 401.90457 401.427923 401.116509 0.00248815
3.49204 402.11581 401.868258 401.554195 0.00248685
3.50085 402.28778 402.308713 401.991925 0.00248578
3.50966 402.03009 402.748368 402.428775 0.00248738
3.51846 401.85596 403.186324 402.863841 0.00248845
3.52727 402.49863 403.621735 403.296273 0.00248448
3.53608 403.5434 404.053776 403.725241 0.00247805
3.54488 403.94077 404.481663 404.149955 0.00247561
3.55369 403.44119 404.904654 404.569667 0.00247868
3.56250 403.22791 405.322035 404.983659 0.00247999
3.57131 403.34091 405.73318 405.391295 0.00247929
3.58011 404.18655 406.137748 405.791943 0.00247411
3.58892 404.75037 406.534605 406.185031 0.00247066
3.59773 405.4151 406.923512 406.570027 0.00246661
3.60653 405.41974 407.304009 406.946461 0.00246658
3.61534 404.76276 407.67755 407.313895 0.00247058
3.62415 404.95053 408.04 407.671943 0.00246944
3.63296 405.75635 408.39291 408.020267 0.00246453
3.64176 407.24667 408.735998 408.358571 0.00245551
3.65057 408.05389 409.069959 408.686615 0.00245066
3.65938 408.59351 409.392765 409.004195 0.00244742
3.66818 408.48135 409.705195 409.311155 0.00244809
3.67699 408.12119 410.007156 409.607382 0.00245025
3.68580 408.60669 410.2986 409.892808 0.00244734
3.69461 408.53244 410.579512 410.167395 0.00244779
3.70341 408.41431 410.849948 410.431174 0.00244849
3.71222 407.5452 411.116306 410.684187 0.00245372
3.72103 407.90359 411.366064 410.926523 0.00245156
3.72984 407.78281 411.605691 411.158304 0.00245229
3.73864 409.04117 411.835392 411.379695 0.00244474
3.74745 410.20419 412.056186 411.590885 0.00243781
3.75626 410.61154 412.26677 411.792099 0.00243539
3.76506 410.56952 412.468234 411.983587 0.00243564
3.77387 410.85083 412.660918 412.16563 0.00243397
3.78268 411.87085 412.845199 412.338535 0.00242795
3.79149 411.88116 413.021482 412.502632 0.00242788
3.80029 412.35178 413.199165 412.658271 0.00242511
3.80910 412.6131 413.360816 412.805826 0.00242358
3.81791 412.05444 413.515879 412.945688 0.00242686
3.82671 412.23874 413.664885 413.078258 0.00242578
3.83552 412.71512 413.809924 413.203968 0.00242298
3.84433 413.73679 413.948582 413.323249 0.002417
3.85314 414.16406 414.083011 413.436546 0.0024145
3.86194 413.36932 414.213911 413.544316 0.00241914
3.87075 412.78165 414.342032 413.647023 0.00242259
3.87956 412.66949 414.46821 413.745135 0.00242325
3.88836 413.29935 414.593388 413.839126 0.00241955
3.89717 413.75705 414.718822 413.929474 0.00241688
3.90598 414.07858 414.845562 414.016655 0.002415
3.91479 414.45047 414.975483 414.101149 0.00241283
3.92359 414.3797 415.110859 414.183431 0.00241325
3.93240 414.65793 415.254789 414.263973 0.00241163
3.94121 414.78574 415.411519 414.343245 0.00241088
3.95001 415.97021 415.586886 414.421709 0.00240402
3.95882 416.11096 415.78876 414.499819 0.00240321
3.96763 416.11771 416.027909 414.578023 0.00240317
3.97644 416.28769 416.316795 414.656763 0.00240218
3.98524 416.14133 416.671934 414.736462 0.00240303
3.99405 416.25165 417.112026 414.817539 0.00240239
4.00286 416.6525 417.657406 414.900399 0.00240008
4.01166 416.5083 418.328334 414.985431 0.00240091
4.02047 416.96088 419.142763 415.073014 0.00239831
4.02928 417.33173 420.11337 415.16351 0.00239618
4.03809 418.57233 421.243811 415.257265 0.00238907
4.04689 420.00943 422.526123 415.354613 0.0023809
4.05570 421.39047 423.936602 415.455867 0.0023731
4.06451 422.12909 425.432873 415.561327 0.00236894
4.07331 424.17795 426.95008 415.671272 0.0023575
4.08212 425.92197 428.398393 415.785964 0.00234785
4.09093 428.61032 429.664864 415.905652 0.00233312
4.09974 431.94934 430.620225 416.030559 0.00231509
4.10854 434.9137 431.152567 416.160895 0.00229931
4.11735 435.21393 431.199996 416.296849 0.00229772
4.12616 433.73239 430.777467 416.438593 0.00230557
4.13496 431.353 429.969395 416.586275 0.00231829
4.14377 428.01303 428.898585 416.740033 0.00233638
4.15258 425.35876 427.690042 416.899981 0.00235096
4.16139 424.27591 426.449875 417.066214 0.00235696
4.17019 424.29437 425.25911 417.238801 0.00235685
4.17900 423.98984 424.174223 417.417821 0.00235855
4.18781 423.16678 423.230809 417.603306 0.00236313
4.19661 422.49359 422.446821 417.795277 0.0023669
4.20542 422.50781 421.825948 417.993746 0.00236682
4.21423 422.79456 421.361116 418.198701 0.00236521
4.22304 422.59833 421.03773 418.410114 0.00236631
4.23184 422.12823 420.837084 418.627942 0.00236895
4.24065 422.02573 420.74021 418.852127 0.00236952
4.24946 423.26807 420.725036 419.082593 0.00236257
4.25826 424.17514 420.775321 419.319254 0.00235752
4.26707 424.42352 420.876296 419.562005 0.00235614
4.27588 424.94357 421.016133 419.81073 0.00235325
4.28469 424.3421 421.188075 420.065299 0.00235659
4.29349 423.99194 421.380658 420.325566 0.00235854
4.30230 423.92712 421.591346 420.591382 0.0023589
4.31111 424.41058 421.816654 420.862578 0.00235621
4.31992 424.25531 422.057119 421.138979 0.00235707
4.32872 423.83188 422.304986 421.420396 0.00235943
4.33753 424.38303 422.561962 421.706634 0.00235636
4.34634 425.46268 422.831462 421.997485 0.00235038
4.35514 425.79971 423.103941 422.292742 0.00234852
4.36395 425.80231 423.383132 422.59218 0.00234851
4.37276 425.90714 423.668475 422.895574 0.00234793
4.38157 426.31342 423.960638 423.202688 0.00234569
4.39037 426.65265 424.258009 423.513284 0.00234383
4.39918 426.41235 424.558943 423.827114 0.00234515
4.40799 425.93066 424.864224 424.143938 0.0023478
4.41679 426.01898 425.173458 424.463499 0.00234731
4.42560 427.27374 425.48627 424.785544 0.00234042
4.43441 428.16983 425.80228 425.109797 0.00233552
4.44322 428.14731 426.121172 425.436037 0.00233564
4.45202 428.17474 426.442589 425.763985 0.0023355
4.46083 428.6441 426.766194 426.093379 0.00233294
4.46964 428.9213 427.091673 426.423966 0.00233143
4.47844 428.62097 427.418708 426.755484 0.00233306
4.48725 429.37634 427.747006 427.087675 0.00232896
4.49606 430.22165 428.076238 427.420284 0.00232438
4.50487 430.56497 428.406122 427.753054 0.00232253
4.51367 430.88416 428.736382 428.085742 0.00232081
4.52248 430.83908 429.067541 428.418099 0.00232105
4.53129 430.72552 429.39772 428.749882 0.00232166
4.54009 430.8519 429.727458 429.080852 0.00232098
4.54890 431.84937 430.056501 429.410777 0.00231562
4.55771 432.56683 430.384888 429.739425 0.00231178
4.56652 433.35577 430.711823 430.066582 0.00230757
4.57532 433.36984 431.037325 430.392028 0.0023075
4.58413 432.93143 431.361189 430.715554 0.00230983
4.59294 432.38306 431.683199 431.036958 0.00231276
4.60174 432.76746 432.003149 431.356044 0.00231071
4.61055 433.39948 432.320837 431.672622 0.00230734
4.61936 433.43839 432.636082 431.986518 0.00230713
4.62817 432.96561 432.9487 432.297558 0.00230965
4.63697 433.06192 433.258607 432.605579 0.00230914
4.64578 433.86505 433.565472 432.910425 0.00230486
4.65459 433.84818 433.869224 433.211949 0.00230495
4.66339 434.14554 434.169731 433.510019 0.00230338
4.67220 434.41968 434.466855 433.804505 0.00230192
4.68101 435.08817 434.760477 434.095288 0.00229838
4.68982 435.27142 435.050484 434.38226 0.00229742
4.69862 435.00565 435.336776 434.665321 0.00229882
4.70743 434.32397 435.619246 434.944367 0.00230243
4.71624 433.95496 435.899786 435.219345 0.00230439
4.72504 434.30695 436.174429 435.490175 0.00230252
4.73385 435.16092 436.445055 435.756794 0.002298
4.74266 435.87115 436.711652 436.019151 0.00229426
4.75147 435.74716 436.974101 436.277206 0.00229491
4.76027 435.8111 437.232413 436.530926 0.00229457
4.76908 435.36224 437.486565 436.780288 0.00229694
4.77789 435.61435 437.736553 437.025284 0.00229561
4.78669 435.87076 437.982964 437.265911 0.00229426
4.79550 435.81516 438.225806 437.502174 0.00229455
4.80431 436.76999 438.463343 437.73409 0.00228953
4.81312 437.24124 438.696776 437.961685 0.00228707
4.82192 437.00949 438.926143 438.184989 0.00228828
4.83073 437.94501 439.151497 438.404052 0.00228339
4.83954 438.70929 439.372894 438.618924 0.00227941
4.84835 438.58743 439.59055 438.829664 0.00228005
4.85715 438.06558 439.806294 439.036341 0.00228276
4.86596 437.6955 440.016263 439.23903 0.00228469
4.87477 438.026 440.222602 439.43782 0.00228297
4.88357 438.72784 440.425408 439.632801 0.00227932
4.89238 438.9032 440.625477 439.824074 0.00227841
4.90119 439.14966 440.821561 440.011744 0.00227713
4.91000 439.1749 441.014468 440.195926 0.002277
4.91880 439.39261 441.206392 440.376737 0.00227587
4.92761 439.6185 441.393358 440.554309 0.0022747
4.93642 440.07889 441.57757 440.728772 0.00227232
4.94522 440.19156 441.759183 440.900265 0.00227174
4.95403 440.26868 441.938359 441.06893 0.00227134
4.96284 440.83734 442.115314 441.234916 0.00226841
4.97165 441.56888 442.290119 441.398372 0.00226465
4.98045 442.31949 442.463016 441.559467 0.00226081
4.98926 442.85989 442.634187 441.718361 0.00225805
4.99807 443.19037 442.804278 441.875217 0.00225637
5.00687 443.53091 442.972579 442.030205 0.00225463
5.01568 443.80081 443.139746 442.183498 0.00225326
5.02449 443.43756 443.305987 442.33527 0.00225511
5.03330 443.71817 443.472254 442.485702 0.00225368
5.04210 444.58987 443.637297 442.634975 0.00224926
5.05091 445.39719 443.802073 442.783269 0.00224519
5.05972 444.95474 443.966811 442.930769 0.00224742
5.06852 444.49435 444.131748 443.07766 0.00224975
5.07733 445.16199 444.299893 443.224126 0.00224637
5.08614 445.47174 444.466672 443.370358 0.00224481
5.09495 445.41934 444.633679 443.516541 0.00224508
5.10375 444.8085 444.801938 443.662861 0.00224816
5.11256 445.0397 444.971591 443.809505 0.00224699
5.12137 445.90173 445.142973 443.956659 0.00224265
5.13017 446.40054 445.316361 444.104506 0.00224014
5.13898 446.41943 445.492044 444.253233 0.00224005
5.14779 446.72214 445.670314 444.403021 0.00223853
5.15660 447.68063 445.85148 444.554049 0.00223374
5.16540 447.36447 446.035856 444.706495 0.00223531
5.17421 446.83514 446.223769 444.860534 0.00223796
5.18302 447.34579 446.41557 445.016342 0.00223541
5.19182 447.70541 446.611615 445.174086 0.00223361
5.20063 447.68445 446.812282 445.333935 0.00223372
5.20944 447.79962 447.018249 445.49605 0.00223314
5.21825 448.23572 447.229567 445.660593 0.00223097
5.22705 449.06577 447.447063 445.827716 0.00222685
5.23586 449.62244 447.670873 445.997566 0.00222409
5.24467 450.47736 447.901253 446.170307 0.00221987
5.25347 450.53793 448.139478 446.346073 0.00221957
5.26228 450.17206 448.386455 446.525001 0.00222137
5.27109 449.72601 448.641308 446.707226 0.00222358
5.27990 450.45639 448.90582 446.892873 0.00221997
5.28870 451.63602 449.180739 447.082066 0.00221417
5.29751 452.08514 449.467107 447.274924 0.00221197
5.30632 451.67108 449.766024 447.471558 0.002214
5.31513 452.20615 450.081012 447.672075 0.00221138
5.32393 452.88843 450.40903 447.876573 0.00220805
5.33274 453.39832 450.754084 448.085149 0.00220557
5.34155 453.43378 451.118459 448.297886 0.00220539
5.35035 453.61697 451.504361 448.514874 0.0022045
5.35916 453.93463 451.915357 448.736184 0.00220296
5.36797 454.19339 452.35592 448.961887 0.00220171
5.37678 454.51178 452.832891 449.192047 0.00220016
5.38558 454.87622 453.353881 449.426716 0.0021984
5.39439 455.64932 453.932866 449.665952 0.00219467
5.40320 456.49268 454.587525 449.909795 0.00219062
5.41200 457.29669 455.345381 450.158282 0.00218676
5.42081 458.4819 456.243923 450.411444 0.00218111
5.42962 459.86426 457.334744 450.669307 0.00217455
5.43843 461.4379 458.685127 450.931883 0.00216714
5.44723 462.84152 460.379263 451.19919 0.00216057
5.45604 464.65497 462.51602 451.47123 0.00215213
5.46485 466.58932 465.205501 451.748002 0.00214321
5.47365 468.78235 468.552766 452.029496 0.00213319
5.48246 472.42654 472.654997 452.315698 0.00211673
5.49127 476.24768 477.571724 452.606583 0.00209975
5.50008 481.26273 483.314855 452.902131 0.00207787
5.50888 487.73642 489.820857 453.202287 0.00205029
5.51769 496.28778 496.926712 453.507047 0.00201496
5.52650 504.59412 504.338465 453.816347 0.00198179
5.53530 514.33667 511.608151 454.130136 0.00194425
5.54411 523.41119 518.107 454.448356 0.00191054
5.55292 532.72498 523.075666 454.77094 0.00187714
5.56173 538.84332 525.777475 455.097827 0.00185583
5.57053 538.54401 525.778312 455.428939 0.00185686
5.57934 529.56885 523.144353 455.764196 0.00188833
5.58815 515.58734 518.407332 456.103515 0.00193954
5.59695 501.57352 512.328616 456.4468 0.00199373
5.60576 491.42197 505.648146 456.793965 0.00203491
5.61457 483.83417 498.950277 457.144907 0.00206682
5.62338 478.11176 492.644381 457.499522 0.00209156
5.63218 474.57016 486.986879 457.857701 0.00210717
5.64099 471.99298 482.114678 458.219332 0.00211868
5.64980 469.69897 478.070351 458.584295 0.00212902
5.65860 468.06216 474.829489 458.952476 0.00213647
5.66741 467.25644 472.320202 459.323748 0.00214015
5.67622 466.57489 470.442775 459.697984 0.00214328
5.68503 466.13858 469.088288 460.075052 0.00214528
5.69383 466.11609 468.148827 460.454818 0.00214539
5.70264 465.75421 467.528973 460.837142 0.00214706
5.71145 465.3819 467.149747 461.221893 0.00214877
5.72025 465.32327 466.945786 461.608924 0.00214904
5.72906 465.03137 466.869947 461.998091 0.00215039
5.73787 465.086 466.887223 462.389248 0.00215014
5.74668 465.36353 466.973103 462.782243 0.00214886
5.75548 466.13086 467.110309 463.176934 0.00214532
5.76429 466.37241 467.287111 463.573168 0.00214421
5.77310 466.9126 467.496289 463.970767 0.00214173
5.78190 467.44046 467.730166 464.369626 0.00213931
5.79071 467.49136 467.98553 464.769566 0.00213908
5.79952 467.40778 468.259095 465.170434 0.00213946
5.80833 467.71515 468.548436 465.572071 0.00213805
5.81713 468.564 468.851838 465.974331 0.00213418
5.82594 468.7702 469.167014 466.377054 0.00213324
5.83475 468.40195 469.492861 466.780086 0.00213492
5.84356 468.81363 469.828598 467.183273 0.00213304
5.85236 469.74628 470.172338 467.586463 0.00212881
5.86117 470.68539 470.52545 467.989499 0.00212456
5.86998 470.72208 470.883471 468.392238 0.0021244
5.87878 471.17892 471.247561 468.794528 0.00212234
5.88759 471.06522 471.618646 469.196219 0.00212285
5.89640 470.40076 471.993219 469.597166 0.00212585
5.90521 470.66086 472.372539 469.997221 0.00212467
5.91401 470.81332 472.756091 470.396249 0.00212398
5.92282 470.55185 473.143344 470.794108 0.00212516
5.93163 470.72073 473.534286 471.190661 0.0021244
5.94043 471.7294 473.928736 471.585772 0.00211986
5.94924 472.51929 474.326603 471.979311 0.00211632
5.95805 472.8251 474.727997 472.371146 0.00211495
5.96686 473.43796 475.132636 472.761159 0.00211221
5.97566 474.06494 475.540789 473.149226 0.00210942
5.98447 473.4776 475.952643 473.535228 0.00211203
5.99328 472.76599 476.368562 473.919052 0.00211521
6.00208 473.09854 476.789255 474.300587 0.00211372
6.01089 474.26382 477.214391 474.679723 0.00210853
6.01970 475.48105 477.646515 475.056367 0.00210313
6.02851 475.55527 478.083863 475.430417 0.00210281
6.03731 475.32227 478.529239 475.80178 0.00210384
6.04612 475.1127 478.984082 476.170347 0.00210476
6.05493 475.42227 479.451134 476.536077 0.00210339
6.06373 476.31918 479.934215 476.898869 0.00209943
6.07254 476.81827 480.43836 477.258646 0.00209724
6.08135 477.30502 480.971644 477.615348 0.0020951
6.09016 477.28998 481.545496 477.968906 0.00209516
6.09896 478.0914 482.176151 478.319264 0.00209165
6.10777 478.91245 482.885824 478.666367 0.00208806
6.11658 479.88184 483.703826 479.010166 0.00208385
6.12538 480.89914 484.66675 479.350626 0.00207944
6.13419 481.82089 485.81829 479.687707 0.00207546
6.14300 483.37036 487.205494 480.021378 0.00206881
6.15181 484.68216 488.876253 480.351615 0.00206321
6.16061 486.20334 490.871954 480.678398 0.00205675
6.16942 488.10126 493.219369 481.001712 0.00204876
6.17823 490.71683 495.922214 481.321556 0.00203784
6.18703 493.15274 498.949747 481.637924 0.00202777
6.19584 496.02869 502.223992 481.950822 0.00201601
6.20465 500.89584 505.605469 482.26026 0.00199642
6.21346 506.34732 508.877476 482.566255 0.00197493
6.22226 511.27261 511.732681 482.868824 0.0019559
6.23107 515.47369 513.815388 483.168004 0.00193996
6.23988 518.56384 514.8099 483.463825 0.0019284
6.24868 519.59631 514.577359 483.756328 0.00192457
6.25749 516.77051 513.22597 484.045559 0.00193509
6.26630 512.61072 511.053933 484.331566 0.0019508
6.27511 507.85199 508.420688 484.614414 0.00196908
6.28391 502.81531 505.640937 484.894164 0.0019888
6.29272 498.46912 502.94448 485.170885 0.00200614
6.30153 496.00433 500.480825 485.444652 0.00201611
6.31033 493.78204 498.334855 485.715532 0.00202519
6.31914 492.37317 496.54291 485.983641 0.00203098
6.32795 491.6629 495.105885 486.249054 0.00203391
6.33676 491.36307 493.998749 486.511874 0.00203515
6.34556 490.79581 493.181683 486.772201 0.00203751
6.35437 490.45761 492.608124 487.030145 0.00203891
6.36318 490.12564 492.229943 487.285819 0.00204029
6.37198 490.35312 492.002885 487.539342 0.00203935
6.38079 490.2316 491.889592 487.790835 0.00203985
6.38960 490.51031 491.85983 488.040433 0.00203869
6.39841 490.86429 491.890555 488.288268 0.00203722
6.40721 491.8537 491.964885 488.534477 0.00203312
6.41602 492.06711 492.070834 488.779206 0.00203224
6.42483 492.05365 492.200153 489.0226 0.0020323
6.43364 491.91971 492.347218 489.264811 0.00203285
6.44244 493.05032 492.508199 489.506 0.00202819
6.45125 493.77066 492.680485 489.746326 0.00202523
6.46006 493.7489 492.86226 489.985953 0.00202532
6.46886 493.28677 493.052242 490.22505 0.00202722
6.47767 493.35754 493.249493 490.463787 0.00202693
6.48648 493.87238 493.453366 490.702346 0.00202481
6.49529 494.59323 493.663382 490.940903 0.00202186
6.50409 494.9534 493.879226 491.179642 0.00202039
6.51290 495.71994 494.100693 491.418748 0.00201727
6.52171 495.69147 494.327663 491.658411 0.00201738
6.53051 495.95459 494.560054 491.89882 0.00201631
6.53932 497.10403 494.797813 492.140174 0.00201165
6.54813 498.70215 495.04085 492.382669 0.0020052
6.55694 499.81271 495.289013 492.626504 0.00200075
6.56574 500.65445 495.542041 492.87188 0.00199739
6.57455 501.40799 495.799507 493.119002 0.00199438
6.58336 502.55981 496.060747 493.36806 0.00198981
6.59216 503.39484 496.3249 493.619287 0.00198651
6.60097 503.83286 496.59097 493.872883 0.00198479
6.60978 503.99716 496.858201 494.129056 0.00198414
6.61859 503.81784 497.126462 494.388017 0.00198484
6.62739 503.55502 497.39639 494.649978 0.00198588
6.63620 503.52698 497.669128 494.915152 0.00198599
6.64501 504.14954 497.945905 495.183748 0.00198354
6.65381 504.83304 498.227784 495.455989 0.00198085
6.66262 504.60257 498.515564 495.732084 0.00198176
6.67143 503.97665 498.80982 496.012247 0.00198422
6.68024 503.82693 499.11095 496.296694 0.00198481
6.68904 504.33389 499.419236 496.585635 0.00198281
6.69785 505.35013 499.73487 496.879289 0.00197883
6.70666 506.05301 500.057987 497.177866 0.00197608
6.71546 506.41736 500.388689 497.481579 0.00197466
6.72427 506.64658 500.727076 497.790637 0.00197376
6.73308 506.65857 501.073254 498.105252 0.00197372
6.74189 506.59845 501.427347 498.425627 0.00197395
6.75069 506.68851 501.789519 498.751978 0.0019736
6.75950 507.31262 502.159951 499.084505 0.00197117
6.76831 507.51929 502.538852 499.423413 0.00197037
6.77711 508.08716 502.92646 499.768902 0.00196817
6.78592 508.67923 503.323036 500.121171 0.00196588
6.79473 509.62631 503.728846 500.480414 0.00196222
6.80354 509.97839 504.144198 500.846833 0.00196087
6.81234 510.80252 504.569393 501.220615 0.0019577
6.82115 511.36331 505.004761 501.60195 0.00195556
6.82996 511.76532 505.45064 501.991022 0.00195402
6.83877 512.0625 505.907387 502.38801 0.00195289
6.84757 512.87854 506.375368 502.79308 0.00194978
6.85638 513.39661 506.855031 503.206448 0.00194781
6.86519 514.0387 507.346783 503.628264 0.00194538
6.87399 514.64087 507.851081 504.058696 0.0019431
6.88280 515.7254 508.368422 504.49791 0.00193902
6.89161 516.22339 508.899345 504.946065 0.00193715
6.90041 516.05347 509.444426 505.403314 0.00193778
6.90922 515.50903 510.004325 505.869817 0.00193983
6.91803 515.52563 510.579745 506.345719 0.00193977
6.92684 516.95135 511.171478 506.831163 0.00193442
6.93564 518.53455 511.780425 507.326286 0.00192851
6.94445 519.08105 512.407593 507.831224 0.00192648
6.95326 518.74139 513.054141 508.346098 0.00192774
6.96207 519.33521 513.721445 508.871045 0.00192554
6.97087 519.84558 514.41111 509.406177 0.00192365
6.97968 521.46466 515.1251 509.951609 0.00191768
6.98849 521.97534 515.865907 510.507448 0.0019158
6.99729 521.30725 516.636756 511.073792 0.00191825
7.00610 521.07257 517.442063 511.650751 0.00191912
7.01491 523.0517 518.287953 512.23841 0.00191186
7.02372 523.89722 519.18323 512.836855 0.00190877
7.03252 524.36462 520.140485 513.446169 0.00190707
7.04133 525.39429 521.177649 514.066424 0.00190333
7.05014 526.97894 522.319804 514.697684 0.00189761
7.05894 528.12561 523.600813 515.340025 0.00189349
7.06775 528.70416 525.064536 515.993498 0.00189142
7.07656 529.71069 526.765224 516.658154 0.00188782
7.08537 530.92883 528.765604 517.334038 0.00188349
7.09417 531.83252 531.133038 518.021189 0.00188029
7.10298 533.96716 533.932473 518.719632 0.00187277
7.11179 536.21338 537.217527 519.429409 0.00186493
7.12059 539.18274 541.017412 520.150491 0.00185466
7.12940 542.22559 545.324125 520.882976 0.00184425
7.13821 545.62262 550.07471 521.626829 0.00183277
7.14702 549.16943 555.128592 522.382053 0.00182093
7.15582 554.72198 560.239976 523.148643 0.0018027
7.16463 560.56323 565.031777 523.926578 0.00178392
7.17344 566.01276 569.006872 524.71586 0.00176674
7.18224 570.43097 571.644333 525.516456 0.00175306
7.19105 571.07709 572.594582 526.328336 0.00175108
7.19986 569.45978 571.855632 527.151464 0.00175605
7.20867 565.92603 569.774313 527.985787 0.00176702
7.21747 562.00244 566.87139 528.831276 0.00177935
7.22628 558.06677 563.645579 529.687866 0.0017919
7.23509 554.82654 560.476128 530.555496 0.00180237
7.24389 552.41644 557.611119 531.434098 0.00181023
7.25270 551.55725 555.192053 532.323599 0.00181305
7.26151 550.77148 553.283823 533.223909 0.00181564
7.27032 549.27002 551.896144 534.134962 0.0018206
7.27912 548.03308 551.000177 535.056656 0.00182471
7.28793 547.89337 550.543837 535.988893 0.00182517
7.29674 548.12665 550.463126 536.931569 0.0018244
7.30554 548.66162 550.691569 537.884574 0.00182262
7.31435 549.33533 551.167616 538.847783 0.00182038
7.32316 550.27246 551.838517 539.821094 0.00181728
7.33197 550.43713 552.662016 540.804372 0.00181674
7.34077 550.60913 553.606327 541.797482 0.00181617
7.34958 551.04492 554.649324 542.800287 0.00181473
7.35839 552.45294 555.776842 543.812632 0.00181011
7.36720 554.09625 556.98136 544.83439 0.00180474
7.37600 555.24524 558.260911 545.865396 0.00180101
7.38481 556.3479 559.617992 546.905431 0.00179744
7.39362 557.61945 561.05931 547.954449 0.00179334
7.40242 558.38995 562.59455 549.012221 0.00179086
7.41123 559.53339 564.236064 550.078573 0.0017872
7.42004 560.60303 565.997315 551.153313 0.00178379
7.42884 562.21301 567.891363 552.236282 0.00177869
7.43765 563.50677 569.928785 553.327278 0.0017746
7.44646 564.30975 572.115088 554.426109 0.00177208
7.45527 565.31952 574.447617 555.532577 0.00176891
7.46407 567.69525 576.911815 556.646481 0.00176151
7.47288 569.4668 579.476473 557.767601 0.00175603
7.48169 571.50397 582.087201 558.895754 0.00174977
7.49050 573.65021 584.662946 560.030713 0.00174322
7.49930 575.79285 587.103937 561.17226 0.00173674
7.50811 576.35394 589.319478 562.320174 0.00173504
7.51692 577.27789 591.270701 563.47423 0.00173227
7.52572 578.78644 592.996021 564.634187 0.00172775
7.53453 580.64612 594.595059 565.79984 0.00172222
7.54334 583.04993 596.18768 566.970942 0.00171512
7.55215 585.81573 597.880811 568.147253 0.00170702
7.56095 588.80206 599.757771 569.328535 0.00169836
7.56976 592.01324 601.880473 570.51453 0.00168915
7.57857 595.5188 604.297528 571.70502 0.00167921
7.58737 600.34143 607.051446 572.899743 0.00166572
7.59618 605.24591 610.186518 574.098449 0.00165222
7.60499 611.7287 613.757397 575.300885 0.00163471
7.61380 619.86536 617.840887 576.506796 0.00161325
7.62260 628.4361 622.549664 577.715912 0.00159125
7.63141 637.49908 628.051575 578.928002 0.00156863
7.64022 648.159 634.593615 580.142793 0.00154283
7.64902 661.39081 642.526624 581.360023 0.00151197
7.65783 676.55841 652.331378 582.579361 0.00147807
7.66664 693.47302 664.639844 583.80068 0.00144202
7.67545 712.42517 680.239025 585.023648 0.00140366
7.68425 735.10699 700.048661 586.247984 0.00136035
7.69306 761.42358 725.066772 587.473451 0.00131333
7.70187 793.13586 756.280703 588.699766 0.00126082
7.71067 827.61169 794.521511 589.926664 0.0012083
7.71948 866.76025 840.293737 591.153875 0.00115372
7.72829 910.49225 893.578157 592.381133 0.00109831
7.73710 957.32526 953.55425 593.608156 0.00104458
7.74590 1008.9953 1018.264244 594.834703 0.00099108
7.75471 1061.1826 1084.17678 596.060494 0.00094234
7.76352 1115.4055 1145.721101 597.285262 0.00089653
7.77232 1162.7306 1195.364899 598.50874 0.00086004
7.78113 1194.6311 1224.993756 599.730649 0.00083708
7.78994 1207.8419 1228.869739 600.950751 0.00082792
7.79875 1196.2255 1206.507348 602.16877 0.00083596
7.80755 1162.1842 1162.957772 603.384442 0.00086045
7.81636 1112.8712 1106.178234 604.597506 0.00089858
7.82517 1056.1104 1043.943136 605.807702 0.00094687
7.83397 993.36267 982.176208 607.014757 0.00100668
7.84278 940.63171 924.718915 608.218443 0.00106312
7.85159 891.20514 873.760272 609.418491 0.00112208
7.86040 850.12219 830.286593 610.614646 0.0011763
7.86920 815.60449 794.43543 611.806659 0.00122608
7.87801 786.37103 765.784239 612.994267 0.00127166
7.88682 760.96124 743.555219 614.177251 0.00131413
7.89563 738.10986 726.791635 615.355351 0.00135481
7.90443 720.7995 714.51132 616.528327 0.00138735
7.91324 707.44122 705.802668 617.69594 0.00141355
7.92205 697.99615 699.889706 618.857888 0.00143267
7.93085 690.66425 696.157194 620.014068 0.00144788
7.93966 684.84796 694.151258 621.164172 0.00146018
7.94847 680.51459 693.562834 622.307997 0.00146948
7.95727 678.99774 694.200434 623.445308 0.00147276
7.96608 679.81531 695.961304 624.575882 0.00147099
7.97489 681.9314 698.808004 625.699502 0.00146642
7.98370 684.41699 702.746248 626.815955 0.0014611
7.99250 689.93182 707.808699 627.925017 0.00144942
8.00131 697.04156 714.047355 629.026568 0.00143463
8.01012 706.92798 721.523374 630.120269 0.00141457
8.01893 717.13354 730.30244 631.205983 0.00139444
8.02773 731.77155 740.447675 632.283502 0.00136655
8.03654 748.07257 752.028956 633.352659 0.00133677
8.04535 765.68524 765.1825 634.413256 0.00130602
8.05415 783.0705 780.247205 635.465109 0.00127702
8.06296 799.93622 797.915928 636.507921 0.0012501
8.07177 817.61304 819.252446 637.541756 0.00122307
8.08057 838.81689 845.507383 638.566323 0.00119216
8.08938 863.91034 877.822648 639.581459 0.00115753
8.09819 896.565 916.967081 640.587001 0.00111537
8.10700 936.47046 963.135239 641.582781 0.00106784
8.11580 989.29333 1015.708855 642.568672 0.00101082
8.12461 1047.771 1072.959616 643.544514 0.00095441
8.13342 1115.5055 1131.663257 644.510164 0.00089645
8.14223 1186.9858 1186.774629 645.465485 0.00084247
8.15103 1256.1234 1231.781318 646.410334 0.0007961
8.15984 1302.6405 1260.356251 647.344604 0.00076767
8.16865 1319.0377 1269.005624 648.268161 0.00075813
8.17745 1301.4515 1258.876291 649.180887 0.00076837
8.18626 1254.2782 1234.921658 650.082668 0.00079727
8.19507 1201.2794 1203.141705 650.973398 0.00083245
8.20388 1149.3236 1168.174814 651.852962 0.00087008
8.21268 1113.7433 1132.338184 652.721282 0.00089787
8.22149 1088.0857 1095.963403 653.578255 0.00091905
8.23030 1070.6696 1058.570553 654.423793 0.00093399
8.23910 1042.256 1020.135254 655.257814 0.00095946
8.24791 1003.6354 981.69425 656.080239 0.00099638
8.25672 957.46881 945.006935 656.890987 0.00104442
8.26553 910.38934 911.790371 657.690008 0.00109843
8.27433 872.70526 883.263679 658.477231 0.00114586
8.28314 845.5321 860.121263 659.252598 0.00118269
8.29195 827.45874 842.699293 660.016057 0.00120852
8.30075 817.68896 831.171246 660.767553 0.00122296
8.30956 814.18469 825.673671 661.507059 0.00122822
8.31837 818.44775 826.355751 662.234532 0.00122183
8.32718 827.72522 833.390953 662.949938 0.00120813
8.33598 844.49603 846.933255 663.653251 0.00118414
8.34479 867.32111 867.054224 664.34445 0.00115298
8.35360 893.50513 893.629419 665.023508 0.00111919
8.36240 925.18164 926.206897 665.690431 0.00108087
8.37121 959.7323 963.830693 666.345203 0.00104196
8.38002 998.45422 1004.766308 666.987823 0.00100155
8.38883 1042.0336 1046.181846 667.618292 0.00095966
8.39763 1084.8574 1083.9111 668.23662 0.00092178
8.40644 1124.2466 1112.693471 668.842811 0.00088948
8.41525 1151.6333 1127.468098 669.436896 0.00086833
8.42406 1154.8058 1125.494958 670.01889 0.00086595
8.43286 1130.4734 1107.857731 670.588821 0.00088459
8.44167 1084.024 1078.946022 671.146719 0.00092249
8.45048 1026.8815 1044.402925 671.692614 0.00097382
8.45928 974.09399 1009.237413 672.226559 0.00102659
8.46809 934.70667 977.041667 672.748592 0.00106985
8.47690 907.89136 949.967923 673.258763 0.00110145
8.48571 894.99487 929.000022 673.757125 0.00111732
8.49451 890.10968 914.163482 674.243735 0.00112346
8.50332 893.07153 904.6519 674.718651 0.00111973
8.51213 899.67804 898.879851 675.18195 0.00111151
8.52093 908.71497 894.638046 675.633696 0.00110046
8.52974 913.65289 889.492894 676.073963 0.00109451
8.53855 911.83942 881.490933 676.502831 0.00109668
8.54736 901.19312 869.831445 676.920381 0.00110964
8.55616 878.72717 854.961022 677.326694 0.00113801
8.56497 854.07983 838.06346 677.72187 0.00117085
8.57378 826.73083 820.450374 678.105996 0.00120958
8.58258 802.39746 803.210576 678.479171 0.00124627
8.59139 781.46185 787.112825 678.841494 0.00127965
8.60020 763.20599 772.634462 679.193029 0.00131026
8.60900 749.33447 760.000711 679.533965 0.00133452
8.61781 738.34271 749.25661 679.86437 0.00135438
8.62662 729.79468 740.311209 680.184354 0.00137025
8.63543 723.45636 732.990028 680.494042 0.00138225
8.64423 717.76141 727.073474 680.793548 0.00139322
8.65304 713.59576 722.327382 681.082997 0.00140135
8.66185 710.23077 718.527663 681.362512 0.00140799
8.67066 707.40851 715.474479 681.632223 0.00141361
8.67946 705.28284 712.999663 681.892256 0.00141787
8.68827 703.71729 710.967646 682.14275 0.00142103
8.69708 703.46002 709.27406 682.38384 0.00142154
8.70588 702.75238 707.8404 682.615661 0.00142298
8.71469 701.19159 706.608768 682.838355 0.00142614
8.72350 700.22559 705.536974 683.052061 0.00142811
8.73231 699.76251 704.594331 683.25693 0.00142906
8.74111 699.49323 703.758059 683.453104 0.00142961
8.74992 698.94867 703.011031 683.640732 0.00143072
8.75873 699.19586 702.340079 683.819965 0.00143021
8.76753 699.36169 701.734677 683.990953 0.00142988
8.77634 698.3078 701.186272 684.15385 0.00143203
8.78515 697.80194 700.687831 684.308812 0.00143307
8.79396 698.06305 700.233352 684.455995 0.00143254
8.80276 698.48627 699.817729 684.595557 0.00143167
8.81157 698.43549 699.436598 684.727655 0.00143177
8.82038 698.46069 699.086184 684.85245 0.00143172
8.82918 698.73553 698.763148 684.970104 0.00143116
8.83799 698.95441 698.46463 685.080778 0.00143071
8.84680 698.22443 698.188136 685.184634 0.0014322
8.85561 697.55945 697.931441 685.281837 0.00143357
8.86441 697.64996 697.6926 685.372551 0.00143338
8.87322 697.78589 697.46994 685.456938 0.0014331
8.88203 697.85419 697.261922 685.535168 0.00143296
8.89083 697.54333 697.067249 685.607403 0.0014336
8.89964 697.35699 696.884767 685.67381 0.00143399
8.90845 697.38373 696.713444 685.734554 0.00143393
8.91726 698.13965 696.552381 685.789803 0.00143238
8.92606 698.91541 696.400805 685.839722 0.00143079
8.93487 699.39075 696.258028 685.884477 0.00142982
8.94368 699.04755 696.123458 685.924235 0.00143052
8.95249 699.37262 695.996603 685.95916 0.00142985
8.96129 699.90753 695.877063 685.989419 0.00142876
8.97010 700.85089 695.764492 686.015176 0.00142684
8.97891 700.96667 695.658674 686.036596 0.0014266
8.98771 700.96423 695.55949 686.053842 0.00142661
8.99652 700.74829 695.466915 686.067079 0.00142705
9.00533 701.34747 695.381088 686.076467 0.00142583
9.01414 701.74713 695.30229 686.08217 0.00142501
9.02294 701.64087 695.230948 686.084347 0.00142523
9.03175 701.66882 695.167648 686.083159 0.00142517
9.04056 702.19049 695.113112 686.078764 0.00142411
9.04936 702.30298 695.068127 686.07132 0.00142389
9.05817 702.21857 695.033476 686.060984 0.00142406
9.06698 703.04651 695.00983 686.04791 0.00142238
9.07579 703.08313 694.997596 686.032253 0.00142231
9.08459 703.14868 694.99674 686.014165 0.00142217
9.09340 702.51257 695.006586 685.993796 0.00142346
9.10221 701.76538 695.02548 685.971298 0.00142498
9.11101 701.25543 695.050392 685.946816 0.00142601
9.11982 701.91418 695.076553 685.920499 0.00142468
9.12863 702.04541 695.097579 685.892489 0.00142441
9.13743 701.48926 695.106726 685.862933 0.00142554
9.14624 701.01801 695.099441 685.831967 0.0014265
9.15505 700.44928 695.07571 685.799732 0.00142766
9.16386 701.01465 695.040206 685.766365 0.0014265
9.17266 701.0354 695.000101 685.732001 0.00142646
9.18147 700.51581 694.962453 685.696773 0.00142752
9.19028 700.09589 694.93276 685.660813 0.00142838
9.19909 699.85638 694.914785 685.624251 0.00142886
9.20789 699.50409 694.910874 685.587211 0.00142958
9.21670 699.46497 694.922368 685.549819 0.00142966
9.22551 699.20392 694.949964 685.512198 0.0014302
9.23431 698.25861 694.99389 685.474467 0.00143213
9.24312 697.99225 695.054154 685.436744 0.00143268
9.25193 698.59326 695.130637 685.399145 0.00143145
9.26074 698.64734 695.223252 685.361782 0.00143134
9.26954 697.90381 695.332001 685.324766 0.00143286
9.27835 696.97815 695.457048 685.288206 0.00143477
9.28716 696.78497 695.598767 685.252206 0.00143516
9.29596 697.44604 695.757746 685.216871 0.0014338
9.30477 697.56891 695.934786 685.1823 0.00143355
9.31358 697.03857 696.130874 685.148592 0.00143464
9.32239 696.76447 696.347232 685.115843 0.00143521
9.33119 697.3703 696.585247 685.084144 0.00143396
9.34000 698.03949 696.846539 685.053587 0.00143258
9.34881 698.01447 697.1329 685.024259 0.00143264
9.35761 698.66663 697.446396 684.996246 0.0014313
9.36642 699.25159 697.789315 684.969629 0.0014301
9.37523 699.37958 698.164258 684.944488 0.00142984
9.38404 699.98639 698.574114 684.920902 0.0014286
9.39284 700.93146 699.02214 684.898943 0.00142667
9.40165 702.70508 699.512028 684.878685 0.00142307
9.41046 702.74652 700.047971 684.860195 0.00142299
9.41926 702.82953 700.634729 684.843541 0.00142282
9.42807 703.13342 701.277656 684.828787 0.00142221
9.43688 704.3822 701.982984 684.815993 0.00141968
9.44569 705.00281 702.757746 684.805218 0.00141843
9.45449 705.54193 703.610109 684.796518 0.00141735
9.46330 705.60156 704.54956 684.789945 0.00141723
9.47211 706.45819 705.587034 684.785552 0.00141551
9.48092 707.02094 706.735446 684.783385 0.00141439
9.48972 708.14856 708.010171 684.78349 0.00141213
9.49853 709.40167 709.429554 684.785909 0.00140964
9.50734 711.37897 711.016239 684.790683 0.00140572
9.51614 713.28827 712.798765 684.79785 0.00140196
9.52495 715.836 714.813822 684.807444 0.00139697
9.53376 718.88831 717.110536 684.819497 0.00139104
9.54257 722.24469 719.755633 684.834041 0.00138457
9.55137 725.96881 722.842144 684.851103 0.00137747
9.56018 731.31342 726.500127 684.870707 0.0013674
9.56899 738.96198 730.910371 684.892876 0.00135325
9.57779 747.09247 736.321797 684.917631 0.00133852
9.58660 755.32709 743.06713 684.94499 0.00132393
9.59541 766.03821 751.57834 684.974967 0.00130542
9.60422 779.66565 762.393918 685.007578 0.0012826
9.61302 794.83838 776.151092 685.042832 0.00125812
9.62183 812.85986 793.56303 685.080738 0.00123022
9.63064 833.9256 815.37083 685.121303 0.00119915
9.63944 858.86206 842.266434 685.164531 0.00116433
9.64825 888.11438 874.798336 685.210424 0.00112598
9.65706 919.74347 913.248918 685.258983 0.00108726
9.66587 956.01031 957.475993 685.310206 0.00104601
9.67467 994.73297 1006.716643 685.364083 0.00100529
9.68348 1038.1837 1059.322868 685.42062 0.00096322
9.69229 1082.4344 1112.382768 685.479803 0.00092384
9.70109 1132.3405 1161.429648 685.541623 0.00088313
9.70990 1178.817 1200.549753 685.606067 0.00084831
9.71871 1223.5175 1223.50667 685.673123 0.00081732
9.72752 1244.9653 1225.915471 685.742776 0.00080324
9.73632 1238.8951 1207.313316 685.815009 0.00080717
9.74513 1204.4292 1171.40185 685.889804 0.00083027
9.75394 1149.8118 1124.239641 685.967139 0.00086971
9.76274 1083.4868 1071.936385 686.046994 0.00092295
9.77155 1019.6777 1019.296991 686.129346 0.0009807
9.78036 960.48071 969.532573 686.21417 0.00104115
9.78917 909.80023 924.531224 686.30144 0.00109914
9.79797 870.71082 885.215066 686.391129 0.00114849
9.80678 837.64819 851.833735 686.483207 0.00119382
9.81559 812.32489 824.180477 686.577644 0.00123103
9.82439 791.52325 801.75235 686.674411 0.00126339
9.83320 774.83868 783.879811 686.773474 0.00129059
9.84201 761.71777 769.825248 686.8748 0.00131282
9.85082 751.29205 758.867512 686.978353 0.00133104
9.85962 742.26776 750.351272 687.0841 0.00134722
9.86843 735.32922 743.717938 687.192001 0.00135994
9.87724 729.46466 738.516042 687.302022 0.00137087
9.88604 724.5163 734.394704 687.414123 0.00138023
9.89485 720.66205 731.09113 687.528266 0.00138761
9.90366 717.57715 728.414311 687.64441 0.00139358
9.91247 714.01923 726.227854 687.762514 0.00140052
9.92127 711.48047 724.435045 687.882538 0.00140552
9.93008 709.61011 722.968469 688.004441 0.00140922
9.93889 707.79437 721.78043 688.128179 0.00141284
9.94769 706.61346 720.837741 688.25371 0.0014152
9.95650 706.10992 720.117309 688.380991 0.00141621
9.96531 705.94513 719.604455 688.509976 0.00141654
9.97412 705.56781 719.29108 688.640625 0.0014173
9.98292 705.34094 719.175404 688.772891 0.00141775
9.99173 705.53906 719.261803 688.906731 0.00141736
10.00054 706.00641 719.560624 689.042101 0.00141642
10.00934 706.7334 720.088281 689.17895 0.00141496
10.01815 707.75171 720.867149 689.317239 0.00141292
10.02696 709.61285 721.924646 689.456922 0.00140922
10.03577 711.31171 723.29328 689.59797 0.00140585
10.04457 713.88312 725.008671 689.740307 0.00140079
10.05338 716.73822 727.109961 689.883903 0.00139521
10.06219 720.1582 729.638674 690.028715 0.00138858
10.07099 723.79755 732.639033 690.174698 0.0013816
10.07980 728.20575 736.156726 690.321825 0.00137324
10.08861 733.81195 740.235985 690.470019 0.00136275
10.09742 739.91187 744.918243 690.619252 0.00135151
10.10622 746.0592 750.239535 690.769482 0.00134038
10.11503 753.96368 756.244226 690.920666 0.00132632
10.12384 764.15851 763.025386 691.072763 0.00130863
10.13265 774.61536 770.7789 691.225747 0.00129096
10.14145 785.81726 779.83135 691.379544 0.00127256
10.15026 799.28015 790.607321 691.534129 0.00125113
10.15907 814.07239 803.532458 691.689464 0.00122839
10.16787 829.20337 818.926138 691.845508 0.00120598
10.17668 846.52722 836.92492 692.002242 0.0011813
10.18549 865.28394 857.39691 692.159593 0.00115569
10.19430 883.94275 879.864499 692.317539 0.00113129
10.20310 905.52881 903.383897 692.476029 0.00110433
10.21191 926.10901 926.431298 692.635063 0.00107979
10.22072 946.05829 946.893715 692.794587 0.00105702
10.22952 965.11639 962.402487 692.954587 0.00103614
10.23833 975.35938 971.076458 693.114995 0.00102526
10.24714 978.77985 972.415232 693.275796 0.00102168
10.25595 976.59827 967.647351 693.43696 0.00102396
10.26475 963.63739 959.220309 693.598458 0.00103773
10.27356 950.61139 949.874207 693.760279 0.00105195
10.28237 935.86298 941.91309 693.922359 0.00106853
10.29117 924.36407 936.867287 694.084691 0.00108182
10.29998 918.94714 935.496474 694.247249 0.0010882
10.30879 921.3194 937.834935 694.41001 0.0010854
10.31760 926.79016 943.181689 694.57295 0.00107899
10.32640 937.32214 950.100232 694.736066 0.00106687
10.33521 945.52936 956.458634 694.899301 0.00105761
10.34402 952.82861 959.719113 695.062654 0.00104951
10.35282 952.40009 957.637371 695.226108 0.00104998
10.36163 946.7052 949.096811 695.389644 0.0010563
10.37044 932.5813 934.534656 695.553268 0.00107229
10.37925 916.49054 915.635589 695.716926 0.00109112
10.38805 896.13544 894.519769 695.880626 0.0011159
10.39686 876.73169 873.106972 696.044355 0.0011406
10.40567 860.42493 852.829054 696.208103 0.00116222
10.41447 847.20062 834.628884 696.371862 0.00118036
10.42328 835.68048 819.088448 696.535642 0.00119663
10.43209 828.25861 806.543774 696.699399 0.00120735
10.44090 822.19684 797.146653 696.863149 0.00121625
10.44970 818.36237 790.942953 697.026886 0.00122195
10.45851 817.3504 787.901295 697.190609 0.00122347
10.46732 817.53088 787.929189 697.354336 0.0012232
10.47612 818.86652 790.889456 697.518029 0.0012212
10.48493 821.18549 796.596982 697.68171 0.00121775
10.49374 824.86255 804.791764 697.845381 0.00121232
10.50255 830.04395 815.10953 698.009048 0.00120476
10.51135 838.08588 827.027601 698.172715 0.0011932
10.52016 846.09302 839.773159 698.336409 0.0011819
10.52897 855.37915 852.23547 698.500101 0.00116907
10.53777 862.28491 862.955577 698.663819 0.00115971
10.54658 867.6557 870.262222 698.827575 0.00115253
10.55539 868.96082 872.704406 698.991381 0.0011508
10.56420 865.04163 869.601344 699.15527 0.00115601
10.57300 855.20068 861.347086 699.319219 0.00116932
10.58181 841.53937 849.21051 699.483263 0.0011883
10.59062 824.92773 834.789947 699.64742 0.00121223
10.59943 808.31342 819.541904 699.811709 0.00123714
10.60823 793.59412 804.556851 699.976149 0.00126009
10.61704 779.18793 790.540118 700.140781 0.00128339
10.62585 767.79718 777.907778 700.30559 0.00130243
10.63465 758.7533 766.851595 700.470617 0.00131795
10.64346 750.59485 757.407694 700.635888 0.00133228
10.65227 744.58936 749.51126 700.801429 0.00134302
10.66108 740.05737 743.026706 700.967285 0.00135125
10.66988 735.61792 737.778867 701.133447 0.0013594
10.67869 731.48871 733.57753 701.299963 0.00136708
10.68750 727.98785 730.234073 701.466862 0.00137365
10.69630 724.54059 727.577458 701.634177 0.00138018
10.70511 721.77466 725.459414 701.801958 0.00138547
10.71392 720.11835 723.757853 701.9702 0.00138866
10.72273 718.7644 722.375965 702.138957 0.00139128
10.73153 717.96753 721.239753 702.308264 0.00139282
10.74034 716.73578 720.293612 702.478137 0.00139521
10.74915 715.7674 719.496741 702.648651 0.0013971
10.75795 715.40833 718.819507 702.819845 0.0013978
10.76676 714.43335 718.240555 702.991717 0.00139971
10.77557 713.36548 717.743686 703.164326 0.00140181
10.78438 712.77826 717.317007 703.337713 0.00140296
10.79318 712.40588 716.951378 703.511917 0.00140369
10.80199 712.23169 716.639422 703.687001 0.00140404
10.81080 712.11243 716.375443 703.862965 0.00140427
10.81960 711.93188 716.154673 704.039872 0.00140463
10.82841 712.08344 715.973083 704.217766 0.00140433
10.83722 712.49139 715.827395 704.39669 0.00140353
10.84602 713.59961 715.714891 704.576687 0.00140135
10.85483 713.48724 715.633197 704.757824 0.00140157
10.86364 713.45001 715.580474 704.940104 0.00140164
10.87245 714.07135 715.55521 705.123592 0.00140042
10.88125 715.14105 715.556134 705.308336 0.00139833
10.89006 715.66388 715.582432 705.494379 0.0013973
10.89887 715.84668 715.633562 705.681791 0.00139695
10.90768 716.60065 715.709246 705.870576 0.00139548
10.91648 716.9917 715.80969 706.060801 0.00139472
10.92529 717.2417 715.935522 706.252513 0.00139423
10.93410 717.94684 716.087892 706.445759 0.00139286
10.94290 718.61505 716.268785 706.640587 0.00139157
10.95171 719.97382 716.48123 706.837067 0.00138894
10.96052 720.73682 716.72952 707.0352 0.00138747
10.96933 721.10297 717.020037 707.235057 0.00138676
10.97813 721.03644 717.361582 707.436684 0.00138689
10.98694 721.46851 717.766067 707.640129 0.00138606
10.99575 722.28723 718.249513 707.845463 0.00138449
11.00455 723.15277 718.832023 708.052685 0.00138283
11.01336 724.31104 719.538549 708.261866 0.00138062
11.02217 725.9364 720.398687 708.473051 0.00137753
11.03098 727.48169 721.445356 708.686288 0.00137461
11.03978 728.27527 722.713136 708.901621 0.00137311
11.04859 729.24091 724.23631 709.119121 0.00137129
11.05740 730.96954 726.0434 709.338785 0.00136805
11.06621 732.97296 728.154121 709.56068 0.00136431
11.07501 735.12769 730.573982 709.784852 0.00136031
11.08382 737.24609 733.286101 710.011344 0.0013564
11.09263 738.79541 736.243268 710.240226 0.00135355
11.10143 740.68994 739.355572 710.471487 0.00135009
11.11024 743.15009 742.475932 710.705197 0.00134562
11.11905 744.74292 745.388318 710.941396 0.00134275
11.12786 746.29504 747.815727 711.180126 0.00133995
11.13666 747.4953 749.462578 711.421426 0.0013378
11.14547 749.24292 750.102687 711.665363 0.00133468
11.15428 749.39014 749.669063 711.911922 0.00133442
11.16308 748.33435 748.284511 712.161166 0.0013363
11.17189 746.15906 746.207489 712.413133 0.0013402
11.18070 743.65466 743.734997 712.667859 0.00134471
11.18951 740.93042 741.129134 712.925409 0.00134965
11.19831 737.96399 738.584529 713.185759 0.00135508
11.20712 735.89203 736.229686 713.44897 0.00135889
11.21593 734.62836 734.14044 713.715075 0.00136123
11.22473 733.97406 732.354279 713.984107 0.00136245
11.23354 733.25348 730.880289 714.256094 0.00136378
11.24235 732.41711 729.709106 714.531097 0.00136534
11.25116 731.99341 728.818016 714.809083 0.00136613
11.25996 731.96466 728.176644 715.090109 0.00136619
11.26877 731.43317 727.751167 715.374201 0.00136718
11.27758 730.77264 727.507934 715.661352 0.00136841
11.28638 730.98743 727.415344 715.951682 0.00136801
11.29519 731.18219 727.446301 716.245117 0.00136765
11.30400 731.40302 727.578315 716.54171 0.00136724
11.31281 731.65674 727.79359 716.841481 0.00136676
11.32161 732.03033 728.079023 717.144448 0.00136606
11.33042 732.48145 728.425542 717.450664 0.00136522
11.33923 732.66467 728.827322 717.760075 0.00136488
11.34803 732.73889 729.281609 718.072731 0.00136474
11.35684 732.77759 729.788214 718.388645 0.00136467
11.36565 733.61432 730.349157 718.707828 0.00136311
11.37445 734.29285 730.968727 719.030292 0.00136185
11.38326 734.77899 731.653641 719.356083 0.00136095
11.39207 735.11359 732.412652 719.685134 0.00136033
11.40088 736.30377 733.257384 720.017489 0.00135814
11.40968 738.63159 734.202265 720.353153 0.00135385
11.41849 740.22498 735.26456 720.69213 0.00135094
11.42730 741.83569 736.464864 721.03446 0.00134801
11.43611 743.42969 737.826943 721.380066 0.00134512
11.44491 744.96307 739.377995 721.728986 0.00134235
11.45372 746.37219 741.148344 722.081218 0.00133981
11.46253 748.21198 743.170876 722.436759 0.00133652
11.47133 750.44849 745.478818 722.795602 0.00133254
11.48014 753.32416 748.103205 723.157782 0.00132745
11.48895 755.33832 751.06791 723.523209 0.00132391
11.49776 758.46704 754.384955 723.891914 0.00131845
11.50656 762.07715 758.051394 724.263886 0.0013122
11.51537 765.99951 762.054034 724.639112 0.00130548
11.52418 769.49182 766.37852 725.01762 0.00129956
11.53299 773.3031 771.02115 725.39931 0.00129315
11.54179 777.07739 775.987694 725.784207 0.00128687
11.55060 781.04572 781.268843 726.172291 0.00128033
11.55941 785.26239 786.804869 726.563543 0.00127346
11.56821 789.96875 792.445861 726.957942 0.00126587
11.57702 794.25403 797.93308 727.355508 0.00125904
11.58583 798.2215 802.916121 727.756128 0.00125279
11.59464 801.4173 807.031389 728.15982 0.00124779
11.60344 804.56659 810.022325 728.566556 0.00124291
11.61225 806.69061 811.846944 728.976308 0.00123963
11.62106 808.15497 812.693505 729.389092 0.00123739
11.62986 808.9975 812.885942 729.804783 0.0012361
11.63867 809.24426 812.752905 730.223394 0.00123572
11.64748 810.34863 812.546409 730.644889 0.00123404
11.65629 812.00311 812.430445 731.069235 0.00123152
11.66509 814.3252 812.537097 731.496392 0.00122801
11.67390 817.85144 813.047806 731.926371 0.00122272
11.68271 821.70123 814.230451 732.359034 0.00121699
11.69151 826.16418 816.421037 732.794389 0.00121041
11.70032 830.67407 819.968706 733.232392 0.00120384
11.70913 836.58435 825.170039 733.673001 0.00119534
11.71794 843.14569 832.229919 734.116219 0.00118603
11.72674 851.21643 841.241471 734.5619 0.00117479
11.73555 861.12433 852.1682 735.010047 0.00116127
11.74436 872.39099 864.818194 735.460609 0.00114628
11.75316 885.45099 878.813669 735.913538 0.00112937
11.76197 897.85254 893.529026 736.368782 0.00111377
11.77078 911.67999 908.048445 736.826341 0.00109688
11.77959 922.57861 921.172515 737.286057 0.00108392
11.78839 935.35779 931.559921 737.747927 0.00106911
11.79720 940.85742 938.043218 738.211896 0.00106286
11.80601 944.51801 940.031677 738.677908 0.00105874
11.81481 941.59155 937.757922 739.145904 0.00106203
11.82362 935.81256 932.188858 739.615826 0.00106859
11.83243 925.69556 924.659265 740.087614 0.00108027
11.84123 917.24457 916.497761 740.561209 0.00109022
11.85004 909.57648 908.793786 741.036548 0.00109941
11.85885 904.77191 902.347954 741.513623 0.00110525
11.86766 903.26477 897.757336 741.992265 0.0011071
11.87646 901.19672 895.486313 742.472462 0.00110964
11.88527 902.62372 895.918409 742.95415 0.00110788
11.89408 905.60229 899.361002 743.437264 0.00110424
11.90288 911.59064 905.98525 743.921737 0.00109698
11.91169 917.68219 915.776714 744.40756 0.0010897
11.92050 926.07794 928.499537 744.894553 0.00107982
11.92931 935.4483 943.642853 745.382704 0.00106901
11.93811 948.39178 960.364225 745.871946 0.00105442
11.94692 964.62225 977.442983 746.362208 0.00103668
11.95573 980.91498 993.252732 746.853477 0.00101946
11.96454 997.77924 1005.890267 747.345573 0.00100223
11.97334 1009.3856 1013.551865 747.83848 0.0009907
11.98215 1016.0533 1015.034773 748.332128 0.0009842
11.99096 1012.723 1010.174606 748.826447 0.00098744
11.99976 1002.9477 999.866084 749.321363 0.00099706
12.00857 986.78021 985.671257 749.816864 0.0010134
12.01738 968.33533 969.277153 750.312763 0.0010327
12.02619 946.9455 952.072846 750.809046 0.00105603
12.03499 928.42151 935.003882 751.30564 0.0010771
12.04380 911.54254 918.580732 751.802474 0.00109704
12.05261 896.46722 902.985126 752.299531 0.00111549
12.06142 883.18134 888.251464 752.796626 0.00113227
12.07022 870.62286 874.387779 753.293744 0.0011486
12.07903 859.28986 861.459366 753.790812 0.00116375
12.08784 847.92029 849.592382 754.287757 0.00117936
12.09664 837.98383 838.912419 754.784508 0.00119334
12.10545 828.22394 829.488907 755.28105 0.0012074
12.11426 819.13416 821.331002 755.777197 0.0012208
12.12307 812.09772 814.383449 756.272934 0.00123138
12.13187 806.77191 808.549945 756.768191 0.00123951
12.14068 802.17975 803.716715 757.262896 0.0012466
12.14949 797.21637 799.761323 757.757034 0.00125436
12.15829 793.3714 796.560276 758.250424 0.00126044
12.16710 790.17871 793.992663 758.743051 0.00126554
12.17591 788.40668 791.941403 759.234847 0.00126838
12.18472 786.41315 790.29432 759.725741 0.0012716
12.19352 785.06879 788.951676 760.215667 0.00127377
12.20233 783.3244 787.832578 760.704611 0.00127661
12.21114 781.94562 786.882287 761.192394 0.00127886
12.21994 780.89099 786.073979 761.679007 0.00128059
12.22875 780.26392 785.40279 762.164383 0.00128162
12.23756 779.21094 784.8757 762.648457 0.00128335
12.24637 778.63293 784.504171 763.131219 0.0012843
12.25517 778.69415 784.297989 763.612496 0.0012842
12.26398 778.02991 784.263543 764.092279 0.0012853
12.27279 777.22131 784.402851 764.570507 0.00128663
12.28159 777.3905 784.712788 765.047118 0.00128635
12.29040 777.92767 785.183842 765.522052 0.00128547
12.29921 777.35687 785.799466 765.995304 0.00128641
12.30802 777.45496 786.532931 766.466706 0.00128625
12.31682 778.53571 787.345585 766.936256 0.00128446
12.32563 780.12189 788.184445 767.403897 0.00128185
12.33444 781.33905 788.981714 767.869573 0.00127985
12.34324 781.56927 789.660709 768.333284 0.00127948
12.35205 781.58966 790.150059 768.794817 0.00127944
12.36086 781.82117 790.403879 769.25428 0.00127906
12.36966 782.59967 790.417226 769.711567 0.00127779
12.37847 782.82007 790.227664 770.16663 0.00127743
12.38728 782.48718 789.900923 770.619472 0.00127798
12.39609 782.64221 789.511038 771.069941 0.00127772
12.40489 782.64172 789.124046 771.518045 0.00127772
12.41370 782.53833 788.792029 771.963737 0.00127789
12.42251 782.3653 788.551935 772.406976 0.00127818
12.43131 782.56891 788.427554 772.847718 0.00127784
12.44012 782.96301 788.432612 773.285972 0.0012772
12.44893 783.51074 788.572672 773.721601 0.00127631
12.45774 783.7475 788.846018 774.154616 0.00127592
12.46654 784.52026 789.245386 774.58498 0.00127466
12.47535 786.30719 789.757965 775.012658 0.00127177
12.48416 787.7356 790.366029 775.437666 0.00126946
12.49297 788.92035 791.04868 775.859874 0.00126756
12.50177 790.07831 791.785113 776.2793 0.0012657
12.51058 791.81671 792.560684 776.695915 0.00126292
12.51939 793.2749 793.374194 777.109692 0.0012606
12.52819 794.34052 794.242733 777.520605 0.00125891
12.53700 795.91388 795.200108 777.928675 0.00125642
12.54581 797.37903 796.290041 778.333786 0.00125411
12.55462 800.3631 797.557076 778.735965 0.00124943
12.56342 802.73773 799.038562 779.13519 0.00124574
12.57223 804.03033 800.760265 779.531445 0.00124373
12.58104 805.38251 802.732335 779.924757 0.00124165
12.58985 807.43634 804.94555 780.315021 0.00123849
12.59865 809.7644 807.369719 780.70227 0.00123493
12.60746 812.69171 809.945577 781.086491 0.00123048
12.61627 815.23059 812.579028 781.467675 0.00122665
12.62507 817.38446 815.136906 781.845813 0.00122341
12.63388 819.54553 817.448447 782.220941 0.00122019
12.64269 821.96918 819.325116 782.592968 0.00121659
12.65150 823.51709 820.603112 782.961934 0.0012143
12.66030 823.5603 821.191136 783.327837 0.00121424
12.66911 822.44128 821.104451 783.690677 0.00121589
12.67792 821.41705 820.456777 784.050495 0.00121741
12.68672 820.10229 819.419708 784.407214 0.00121936
12.69553 818.19611 818.171023 784.760879 0.0012222
12.70434 816.59186 816.85667 785.111497 0.0012246
12.71315 815.00372 815.576806 785.459075 0.00122699
12.72195 813.68091 814.384049 785.803623 0.00122898
12.73076 812.20618 813.288984 786.145191 0.00123121
12.73957 811.28583 812.275171 786.483715 0.00123261
12.74837 810.15106 811.313437 786.819247 0.00123434
12.75718 809.02441 810.379263 787.151804 0.00123606
12.76599 807.71429 809.466828 787.481403 0.00123806
12.77480 806.92841 808.589826 787.808102 0.00123927
12.78360 806.73145 807.774493 788.131845 0.00123957
12.79241 806.82251 807.049089 788.452694 0.00123943
12.80122 806.72156 806.436164 788.770672 0.00123959
12.81002 805.66156 805.950265 789.085804 0.00124122
12.81883 804.6369 805.599227 789.398118 0.0012428
12.82764 804.18677 805.385694 789.707676 0.00124349
12.83645 804.84265 805.310076 790.014439 0.00124248
12.84525 806.07867 805.372021 790.318473 0.00124057
12.85406 806.50433 805.57159 790.619812 0.00123992
12.86287 806.61938 805.910532 790.918488 0.00123974
12.87167 807.29309 806.393451 791.214573 0.00123871
12.88048 808.72467 807.027632 791.508035 0.00123651
12.88929 809.54895 807.824575 791.798914 0.00123526
12.89809 810.59949 808.800054 792.087315 0.00123365
12.90690 811.83209 809.97377 792.373247 0.00123178
12.91571 813.73059 811.36904 792.656753 0.00122891
12.92452 814.9433 813.012615 792.937907 0.00122708
12.93332 816.65753 814.931763 793.216691 0.0012245
12.94213 819.33722 817.153751 793.493183 0.0012205
12.95094 821.87299 819.703891 793.767431 0.00121673
12.95974 824.52393 822.601999 794.039483 0.00121282
12.96855 827.2868 825.86018 794.30942 0.00120877
12.97736 831.04022 829.479153 794.57723 0.00120331
12.98617 835.30957 833.443735 794.842998 0.00119716
12.99497 839.26324 837.716016 795.106775 0.00119152
13.00378 843.02087 842.22985 795.368617 0.00118621
13.01259 846.90314 846.882999 795.628607 0.00118077
13.02140 851.12543 851.538036 795.886742 0.00117491
13.03020 855.74115 856.042284 796.14311 0.00116858
13.03901 860.45313 860.262369 796.397768 0.00116218
13.04782 864.57684 864.134892 796.650775 0.00115664
13.05662 867.85895 867.702876 796.902191 0.00115226
13.06543 870.72522 871.115511 797.152104 0.00114847
13.07424 872.87378 874.581463 797.40052 0.00114564
13.08305 876.20282 878.317476 797.647528 0.00114129
13.09185 879.89551 882.48875 797.893191 0.0011365
13.10066 883.69965 887.17822 798.137573 0.00113161
13.10947 888.02295 892.36968 798.380766 0.0011261
13.11828 893.76868 897.937778 798.622779 0.00111886
13.12708 901.22046 903.660366 798.863705 0.00110961
13.13589 908.33228 909.260577 799.10361 0.00110092
13.14470 915.51166 914.474605 799.34256 0.00109229
13.15350 921.58032 919.148346 799.580622 0.00108509
13.16231 927.18604 923.302314 799.81789 0.00107853
13.17112 931.82434 927.129356 800.054379 0.00107316
13.17993 935.14148 930.918761 800.290183 0.00106936
13.18873 939.47284 934.950353 800.52537 0.00106443
13.19754 944.30225 939.400565 800.76001 0.00105898
13.20635 949.64386 944.289157 800.994197 0.00105303
13.21515 956.52985 949.469635 801.227948 0.00104545
13.22396 964.80493 954.666082 801.461359 0.00103648
13.23277 972.01587 959.563025 801.694499 0.00102879
13.24157 977.74597 963.916955 801.927438 0.00102276
13.25038 981.68823 967.656679 802.160245 0.00101865
13.25919 984.0351 970.898684 802.393017 0.00101622
13.26800 984.96021 973.870446 802.62577 0.00101527
13.27680 984.58685 976.77872 802.8586 0.00101565
13.28561 983.42615 979.693442 803.091578 0.00101685
13.29442 982.60602 982.464447 803.324771 0.0010177
13.30323 982.91327 984.731176 803.558277 0.00101738
13.31203 982.09656 985.993036 803.792112 0.00101823
13.32084 981.4715 985.751167 804.02637 0.00101888
13.32965 979.13599 983.691824 804.26112 0.00102131
13.33845 976.36523 979.807783 804.49643 0.00102421
13.34726 970.96417 974.399391 804.732369 0.0010299
13.35607 964.48364 967.962873 804.969032 0.00103682
13.36488 958.17517 961.016504 805.20643 0.00104365
13.37368 952.69623 953.970388 805.444658 0.00104965
13.38249 946.26337 947.06631 805.683783 0.00105679
13.39130 940.42224 940.375936 805.923869 0.00106335
13.40010 934.6452 933.855821 806.16501 0.00106992
13.40891 929.09283 927.411972 806.407216 0.00107632
13.41772 922.43195 920.938302 806.650577 0.00108409
13.42652 915.30035 914.354324 806.895128 0.00109254
13.43533 907.76495 907.607423 807.14099 0.00110161
13.44414 900.65802 900.687873 807.388194 0.0011103
13.45295 893.08795 893.637097 807.636831 0.00111971
13.46175 885.56238 886.558456 807.886906 0.00112923
13.47056 878.78107 879.592758 808.138504 0.00113794
13.47937 872.47003 872.892624 808.391686 0.00114617
13.48818 866.39185 866.588365 808.646508 0.00115421
13.49698 860.46539 860.775231 808.903057 0.00116216
13.50579 854.74225 855.511145 809.161332 0.00116994
13.51460 849.79437 850.817187 809.421414 0.00117676
13.52340 846.10339 846.69079 809.68336 0.00118189
13.53221 842.62408 843.111276 809.947221 0.00118677
13.54102 839.54358 840.044382 810.21305 0.00119112
13.54983 837.15149 837.449025 810.480927 0.00119453
13.55863 835.28546 835.28038 810.750843 0.0011972
13.56744 833.65283 833.490596 811.022875 0.00119954
13.57625 832.27441 832.03363 811.297071 0.00120153
13.58505 831.18457 830.866061 811.573477 0.0012031
13.59386 830.71875 829.948066 811.85217 0.00120378
13.60267 830.67096 829.245707 812.133131 0.00120385
13.61148 830.19214 828.730187 812.416433 0.00120454
13.62028 829.55164 828.378732 812.702119 0.00120547
13.62909 829.11298 828.174578 812.990227 0.00120611
13.63790 829.61511 828.10651 813.280796 0.00120538
13.64671 830.24506 828.168265 813.573898 0.00120446
13.65551 830.96515 828.358221 813.869501 0.00120342
13.66432 830.80176 828.678251 814.167674 0.00120366
13.67313 831.21008 829.132966 814.468449 0.00120307
13.68193 832.55121 829.729109 814.771858 0.00120113
13.69074 833.57593 830.474298 815.077967 0.00119965
13.69955 834.02808 831.376437 815.386735 0.001199
13.70835 835.06921 832.442707 815.698223 0.00119751
13.71716 836.20667 833.678099 816.012459 0.00119588
13.72597 837.36646 835.08419 816.329466 0.00119422
13.73478 838.17224 836.655808 816.649267 0.00119307
13.74358 838.68378 838.379056 816.971921 0.00119234
13.75239 839.87183 840.227805 817.297375 0.00119066
13.76120 841.22821 842.160366 817.625683 0.00118874
13.77000 842.99829 844.11556 817.956862 0.00118624
13.77881 845.02545 846.011619 818.290929 0.0011834
13.78762 846.32703 847.747373 818.627934 0.00118158
13.79643 847.14063 849.212894 818.967813 0.00118044
13.80523 848.2359 850.31111 819.310617 0.00117892
13.81404 849.39844 850.981155 819.656353 0.0011773
13.82285 850.12006 851.217426 820.005029 0.0011763
13.83166 850.38788 851.070438 820.356692 0.00117593
13.84046 848.73993 850.630412 820.711266 0.00117822
13.84927 846.71606 850.000715 821.068793 0.00118103
13.85808 845.18707 849.274127 821.429275 0.00118317
13.86688 844.5744 848.520393 821.792712 0.00118403
13.87569 845.8172 847.780247 822.159102 0.00118229
13.88450 848.84869 847.066392 822.528483 0.00117807
13.89331 853.72974 846.371378 822.900767 0.00117133
13.90211 858.8949 845.675134 823.275988 0.00116429
13.91092 863.32513 844.956724 823.654139 0.00115831
13.91973 863.40143 844.205662 824.03521 0.00115821
13.92854 858.73676 843.426514 824.419233 0.0011645
13.93734 851.4671 842.637971 824.806109 0.00117444
13.94615 845.75598 841.866448 825.195866 0.00118237
13.95496 841.67065 841.13948 825.588489 0.00118811
13.96376 840.40057 840.480435 825.983916 0.00118991
13.97257 839.91516 839.90655 826.382216 0.0011906
13.98138 838.61292 839.428874 826.783371 0.00119245
13.99018 837.57184 839.053598 827.187268 0.00119393
13.99899 837.08124 838.782846 827.593929 0.00119463
14.00780 837.1106 838.615782 828.00333 0.00119459
14.01661 836.66663 838.54974 828.415443 0.00119522
14.02541 837.138 838.580558 828.830288 0.00119455
14.03422 837.52246 838.7029 829.247743 0.001194
14.04303 837.13727 838.910676 829.667823 0.00119455
14.05183 836.08667 839.197171 830.090497 0.00119605
14.06064 836.52991 839.555062 830.515731 0.00119541
14.06945 836.8667 839.976717 830.943492 0.00119493
14.07826 837.38727 840.453961 831.373792 0.00119419
14.08706 837.51068 840.977839 831.806495 0.00119401
14.09587 837.71564 841.53868 832.241613 0.00119372
14.10468 837.98639 842.125591 832.679106 0.00119334
14.11348 838.28119 842.726558 833.118932 0.00119292
14.12229 838.61475 843.329126 833.5611 0.00119244
14.13110 839.3941 843.921309 834.005466 0.00119134
14.13991 840.58234 844.494422 834.452035 0.00118965
14.14871 841.22192 845.045085 834.900762 0.00118875
14.15752 841.8952 845.576669 835.3516 0.0011878
14.16633 842.92438 846.099114 835.8045 0.00118635
14.17513 843.92273 846.627341 836.259465 0.00118494
14.18394 844.32654 847.178888 836.716343 0.00118438
14.19275 844.84015 847.77265 837.175133 0.00118366
14.20156 845.6745 848.428313 837.635783 0.00118249
14.21036 847.70856 849.166218 838.098241 0.00117965
14.21917 848.66675 850.008088 838.562504 0.00117832
14.22798 850.59845 850.97727 839.028413 0.00117564
14.23678 851.50806 852.099453 839.495964 0.00117439
14.24559 853.25183 853.402193 839.965102 0.00117199
14.25440 854.62891 854.915235 840.435767 0.0011701
14.26321 856.71063 856.668853 840.907902 0.00116726
14.27201 857.40515 858.693097 841.381502 0.00116631
14.28082 859.88092 861.015639 841.856399 0.00116295
14.28963 861.90094 863.660045 842.332587 0.00116023
14.29843 864.15198 866.642476 842.810005 0.0011572
14.30724 867.11578 869.970385 843.28859 0.00115325
14.31605 871.4057 873.637269 843.768335 0.00114757
14.32486 875.89844 877.61999 844.249068 0.00114168
14.33366 880.11304 881.874404 844.730779 0.00113622
14.34247 885.09619 886.32969 845.213406 0.00112982
14.35128 890.21088 890.881363 845.696883 0.00112333
14.36008 894.53046 895.387158 846.181146 0.0011179
14.36889 900.00562 899.660576 846.666184 0.0011111
14.37770 904.70911 903.478037 847.151821 0.00110533
14.38651 907.99957 906.599453 847.638047 0.00110132
14.39531 909.90076 908.806675 848.124795 0.00109902
14.40412 911.39398 909.952855 848.611999 0.00109722
14.41293 911.37939 910.003191 849.099647 0.00109724
14.42174 910.74976 909.04685 849.587562 0.001098
14.43054 908.50806 907.271647 850.075731 0.00110071
14.43935 905.07678 904.919162 850.564088 0.00110488
14.44816 901.72406 902.237242 851.052564 0.00110899
14.45696 898.82953 899.448998 851.541094 0.00111256
14.46577 896.46765 896.73697 852.029663 0.00111549
14.47458 894.00775 894.248304 852.518095 0.00111856
14.48339 891.64227 892.093066 853.006377 0.00112153
14.49219 889.63873 890.356557 853.494442 0.00112405
14.50100 888.67291 889.101746 853.982167 0.00112527
14.50981 887.22498 888.372263 854.469652 0.00112711
14.51861 886.56848 888.194189 854.956662 0.00112794
14.52742 886.11884 888.578716 855.443188 0.00112852
14.53623 886.74005 889.520878 855.929161 0.00112773
14.54504 887.53064 890.999872 856.414517 0.00112672
14.55384 889.55566 892.980752 856.899245 0.00112416
14.56265 891.22717 895.411263 857.383168 0.00112205
14.57146 893.01465 898.220368 857.866276 0.0011198
14.58026 894.68518 901.318542 858.348506 0.00111771
14.58907 897.15753 904.593548 858.829792 0.00111463
14.59788 900.73065 907.913373 859.310071 0.00111021
14.60669 904.60938 911.132535 859.789333 0.00110545
14.61549 908.80212 914.100107 860.267408 0.00110035
14.62430 912.80151 916.673031 860.744287 0.00109553
14.63311 916.14557 918.727716 861.219909 0.00109153
14.64191 919.15985 920.16818 861.694212 0.00108795
14.65072 921.77899 920.938531 862.167191 0.00108486
14.65953 922.76074 921.035956 862.638677 0.0010837
14.66834 922.42926 920.521496 863.108666 0.00108409
14.67714 922.67273 919.519007 863.577099 0.00108381
14.68595 921.34058 918.200304 864.04392 0.00108537
14.69476 919.21234 916.75933 864.509071 0.00108789
14.70356 916.82056 915.386875 864.972549 0.00109073
14.71237 914.91254 914.252646 865.434193 0.001093
14.72118 913.9682 913.496793 865.894003 0.00109413
14.72999 913.24469 913.227293 866.351926 0.001095
14.73879 913.65741 913.521765 866.807908 0.0010945
14.74760 915.0094 914.428662 867.26195 0.00109288
14.75641 917.05518 915.969741 867.713899 0.00109045
14.76521 920.34192 918.138281 868.163756 0.00108655
14.77402 924.47864 920.900685 868.611474 0.00108169
14.78283 928.27521 924.193319 869.057005 0.00107727
14.79164 930.60632 927.92152 869.500303 0.00107457
14.80044 932.81982 931.954101 869.941372 0.00107202
14.80925 936.1994 936.122661 870.380069 0.00106815
14.81806 939.77643 940.221839 870.8164 0.00106408
14.82686 943.6261 944.019051 871.250325 0.00105974
14.83567 947.73822 947.275436 871.681801 0.00105514
14.84448 950.19482 949.782128 872.110839 0.00105242
14.85329 952.763 951.399595 872.537302 0.00104958
14.86209 955.61163 952.096687 872.961202 0.00104645
14.87090 956.86951 951.95939 873.382503 0.00104507
14.87971 956.51459 951.171729 873.801172 0.00104546
14.88851 955.48718 949.975453 874.217173 0.00104659
14.89732 953.1012 948.620497 874.630523 0.00104921
14.90613 951.46808 947.333675 875.041096 0.00105101
14.91494 950.93054 946.293386 875.448909 0.0010516
14.92374 951.05688 945.626239 875.853935 0.00105146
14.93255 951.15143 945.403286 876.256147 0.00105136
14.94136 950.67529 945.645873 876.655563 0.00105188
14.95017 951.32715 946.330991 877.05207 0.00105116
14.95897 952.30487 947.404438 877.44569 0.00105008
14.96778 953.30206 948.792249 877.8364 0.00104899
14.97659 954.22076 950.418609 878.224181 0.00104798
14.98539 955.46979 952.209421 878.609014 0.00104661
14.99420 955.83661 954.089797 878.990924 0.0010462
15.00301 956.63556 955.974179 879.369808 0.00104533
15.01182 957.33777 957.747988 879.745696 0.00104456
15.02062 957.21326 959.257657 880.118573 0.0010447
15.02943 956.70477 960.318831 880.488428 0.00104525
15.03824 956.08966 960.73515 880.855249 0.00104593
15.04704 955.02466 960.337848 881.219028 0.00104709
15.05585 954.85443 959.029883 881.579756 0.00104728
15.06466 954.31689 956.812792 881.937427 0.00104787
15.07347 951.58252 953.788975 882.292036 0.00105088
15.08227 948.51813 950.134444 882.643618 0.00105428
15.09108 945.74298 946.062787 882.992091 0.00105737
15.09989 941.81299 941.783776 883.337494 0.00106178
15.10869 937.97998 937.480077 883.679828 0.00106612
15.11750 934.79437 933.299292 884.019093 0.00106975
15.12631 932.039 929.35175 884.355293 0.00107292
15.13512 928.80426 925.712934 884.688469 0.00107665
15.14392 926.00793 922.434509 885.018552 0.0010799
15.15273 923.46448 919.544279 885.345586 0.00108288
15.16154 921.50378 917.052075 885.66958 0.00108518
15.17034 919.70306 914.955609 885.990542 0.00108731
15.17915 917.75916 913.242246 886.308521 0.00108961
15.18796 914.92566 911.892659 886.623455 0.00109298
15.19677 912.83966 910.884714 886.935394 0.00109548
15.20557 912.22418 910.195503 887.244353 0.00109622
15.21438 911.54407 909.802561 887.550348 0.00109704
15.22319 910.21143 909.685792 887.853395 0.00109865
15.23199 909.68896 909.826356 888.153547 0.00109928
15.24080 909.91089 910.205943 888.450755 0.00109901
15.24961 910.10822 910.807337 888.745075 0.00109877
15.25842 910.44788 911.612696 889.036528 0.00109836
15.26722 910.79071 912.602702 889.325136 0.00109795
15.27603 911.71118 913.756375 889.610957 0.00109684
15.28484 912.22357 915.048072 889.89395 0.00109622
15.29364 913.52368 916.447516 890.174175 0.00109466
15.30245 915.64172 917.91899 890.45166 0.00109213
15.31126 918.04541 919.422261 890.726431 0.00108927
15.32007 919.31567 920.916358 890.99852 0.00108777
15.32887 920.35529 922.366653 891.267986 0.00108654
15.33768 921.72375 923.751576 891.534801 0.00108492
15.34649 923.5387 925.068668 891.799028 0.00108279
15.35529 923.6098 926.334559 892.060699 0.00108271
15.36410 923.65338 927.580488 892.31985 0.00108266
15.37291 923.66913 928.842671 892.576545 0.00108264
15.38172 924.00903 930.15394 892.830761 0.00108224
15.39052 924.25446 931.536481 893.082565 0.00108195
15.39933 925.40668 932.997988 893.331994 0.00108061
15.40814 925.7785 934.530837 893.579088 0.00108017
15.41695 927.16998 936.115872 893.823886 0.00107855
15.42575 929.30219 937.728704 894.066455 0.00107608
15.43456 931.22913 939.351537 894.306782 0.00107385
15.44337 933.22839 940.98575 894.544935 0.00107155
15.45217 934.88776 942.661265 894.780957 0.00106965
15.46098 936.91302 944.439556 895.014892 0.00106733
15.46979 938.85388 946.404944 895.246808 0.00106513
15.47860 940.6449 948.650618 895.476697 0.0010631
15.48740 942.89697 951.266287 895.704631 0.00106056
15.49621 945.04236 954.322104 895.930655 0.00105815
15.50502 948.5827 957.86099 896.154815 0.0010542
15.51382 952.22174 961.895427 896.377157 0.00105018
15.52263 957.17786 966.399165 896.597753 0.00104474
15.53144 962.18518 971.303515 896.8166 0.0010393
15.54025 968.14209 976.497661 897.033771 0.00103291
15.54905 973.89288 981.817743 897.249313 0.00102681
15.55786 980.0517 987.047514 897.463276 0.00102035
15.56667 985.76221 991.9264 897.675732 0.00101444
15.57547 992.75818 996.15956 897.886658 0.00100729
15.58428 998.59979 999.459256 898.096174 0.0010014
15.59309 1002.7471 1001.583348 898.304307 0.00099726
15.60190 1003.8703 1002.377082 898.511107 0.00099614
15.61070 1003.3461 1001.79885 898.716646 0.00099667
15.61951 1000.2733 999.91508 898.920927 0.00099973
15.62832 995.26898 996.872974 899.124024 0.00100475
15.63712 988.49683 992.865452 899.325987 0.00101164
15.64593 981.79376 988.099709 899.526867 0.00101854
15.65474 974.77203 982.783777 899.726714 0.00102588
15.66355 968.13208 977.116215 899.9256 0.00103292
15.67235 961.19708 971.281209 900.12353 0.00104037
15.68116 955.17834 965.443223 900.320578 0.00104692
15.68997 949.742 959.742847 900.516792 0.00105292
15.69877 945.69965 954.290658 900.712225 0.00105742
15.70758 942.95709 949.171145 900.906946 0.00106049
15.71639 941.60638 944.444804 901.100961 0.00106201
15.72520 941.58063 940.144856 901.294343 0.00106204
15.73400 944.49194 936.287549 901.48714 0.00105877
15.74281 950.47284 932.87254 901.679401 0.00105211
15.75162 958.40863 929.885066 901.871174 0.0010434
15.76042 963.54095 927.301815 902.062531 0.00103784
15.76923 962.02887 925.093705 902.253475 0.00103947
15.77804 953.66681 923.225567 902.444075 0.00104858
15.78685 942.79218 921.661943 902.63438 0.00106068
15.79565 932.88727 920.367297 902.824435 0.00107194
15.80446 926.07849 919.306828 903.014309 0.00107982
15.81327 921.63776 918.449236 903.204004 0.00108502
15.82207 918.66138 917.765716 903.393588 0.00108854
15.83088 915.78052 917.230656 903.583105 0.00109196
15.83969 913.79242 916.82235 903.7726 0.00109434
15.84850 913.06744 916.522486 903.962117 0.00109521
15.85730 912.71924 916.31579 904.151719 0.00109563
15.86611 912.83698 916.189362 904.341408 0.00109549
15.87492 913.57526 916.136078 904.531246 0.0010946
15.88373 914.67767 916.148137 904.721274 0.00109328
15.89253 915.19666 916.221218 904.911534 0.00109266
15.90134 914.86237 916.353048 905.102087 0.00109306
15.91015 914.35437 916.543118 905.292929 0.00109367
15.91895 915.16553 916.79272 905.48412 0.0010927
15.92776 916.71747 917.104623 905.675697 0.00109085
15.93657 917.17969 917.482994 905.867699 0.0010903
15.94538 917.43677 917.933257 906.06016 0.00108999
15.95418 919.49402 918.461946 906.253139 0.00108755
15.96299 920.88293 919.076384 906.446626 0.00108591
15.97180 922.54602 919.784734 906.640677 0.00108396
15.98060 923.88544 920.595522 906.835324 0.00108239
15.98941 925.02924 921.517555 907.0306 0.00108105
15.99822 926.1911 922.559507 907.226558 0.00107969
16.00702 928.75897 923.728851 907.423161 0.00107671
16.01583 930.96875 925.032958 907.620528 0.00107415
16.02464 932.57214 926.47603 907.818598 0.0010723
16.03345 934.48834 928.060827 908.017487 0.0010701
16.04225 936.24908 929.78529 908.217133 0.00106809
16.05106 938.80573 931.644433 908.417675 0.00106518
16.05987 940.73938 933.625772 908.618999 0.00106299
16.06868 943.13 935.714078 908.821245 0.0010603
16.07748 946.0191 937.887548 909.024341 0.00105706
16.08629 949.03375 940.123922 909.228404 0.0010537
16.09510 950.78406 942.39989 909.433383 0.00105176
16.10391 953.21558 944.695565 909.639345 0.00104908
16.11271 955.12207 946.993544 909.846237 0.00104699
16.12152 957.51038 949.280003 910.054172 0.00104438
16.13032 959.06866 951.538585 910.263072 0.00104268
16.13913 961.03046 953.751584 910.473046 0.00104055
16.14794 962.50208 955.895329 910.684037 0.00103896
16.15675 964.57605 957.944396 910.896108 0.00103672
16.16555 965.80243 959.872606 911.109197 0.00103541
16.17436 967.00348 961.659831 911.323413 0.00103412
16.18317 967.74841 963.293768 911.538668 0.00103333
16.19198 969.49921 964.775599 911.755095 0.00103146
16.20078 970.78162 966.116492 911.972553 0.0010301
16.20959 971.34735 967.341257 912.191173 0.0010295
16.21840 970.86841 968.478502 912.410862 0.00103001
16.22721 971.19495 969.558499 912.631724 0.00102966
16.23601 970.78894 970.604316 912.853688 0.00103009
16.24482 970.09338 971.624326 913.076807 0.00103083
16.25363 969.93591 972.607681 913.301006 0.001031
16.26243 969.57324 973.524866 913.526389 0.00103138
16.27124 970.27155 974.326527 913.752852 0.00103064
16.28005 970.91858 974.955177 913.980497 0.00102995
16.28886 972.03119 975.35509 914.209244 0.00102877
16.29766 972.36096 975.484831 914.439142 0.00102842
16.30647 972.95697 975.331586 914.670107 0.00102779
16.31528 972.58087 974.91801 914.90224 0.00102819
16.32408 973.45923 974.303506 915.135428 0.00102726
16.33289 972.96729 973.577105 915.369769 0.00102778
16.34170 972.21796 972.846192 915.605176 0.00102858
16.35051 971.8847 972.221141 915.841693 0.00102893
16.35931 972.62128 971.806318 916.079228 0.00102815
16.36812 972.17285 971.689564 916.317879 0.00102862
16.37693 972.6601 971.941026 916.557524 0.00102811
16.38573 973.4187 972.610288 916.798232 0.00102731
16.39454 975.0127 973.726641 917.03999 0.00102563
16.40335 976.71326 975.296079 917.282699 0.00102384
16.41215 978.45673 977.304461 917.526454 0.00102202
16.42096 980.75824 979.710838 917.771128 0.00101962
16.42977 984.33636 982.449711 918.016842 0.00101591
16.43858 988.04858 985.425013 918.26341 0.0010121
16.44738 991.06061 988.512413 918.510953 0.00100902
16.45619 993.52686 991.554949 918.759339 0.00100652
16.46500 996.58032 994.373013 919.00866 0.00100343
16.47380 998.72394 996.771308 919.25878 0.00100128
16.48261 1000.3871 998.562548 919.509819 0.00099961
16.49142 1002.2018 999.590624 919.761584 0.0009978
16.50023 1002.7816 999.760094 920.014194 0.00099723
16.50903 1001.4868 999.052088 920.267508 0.00099852
16.51784 999.67236 997.525716 920.521618 0.00100033
16.52665 996.82263 995.303064 920.77641 0.00100319
16.53546 992.75177 992.543573 921.031916 0.0010073
16.54426 988.94458 989.417568 921.288022 0.00101118
16.55307 984.85748 986.083407 921.544816 0.00101538
16.56188 980.33417 982.680756 921.802153 0.00102006
16.57068 976.11102 979.319545 922.060121 0.00102447
16.57949 973.28894 976.08662 922.318603 0.00102744
16.58830 969.52643 973.04782 922.577629 0.00103143
16.59710 965.76282 970.25365 922.837077 0.00103545
16.60591 963.03107 967.7423 923.097037 0.00103839
16.61472 961.13715 965.546616 923.357358 0.00104043
16.62353 959.56842 963.690071 923.618156 0.00104214
16.63233 958.09241 962.191288 923.879222 0.00104374
16.64114 956.28198 961.059438 924.14067 0.00104572
16.64995 956.13666 960.295907 924.40235 0.00104588
16.65876 955.98108 959.892464 924.664346 0.00104605
16.66756 955.35126 959.832425 924.926506 0.00104674
16.67637 954.98029 960.090247 925.188944 0.00104714
16.68518 955.69604 960.631664 925.451449 0.00104636
16.69399 956.74866 961.414903 925.714133 0.00104521
16.70279 957.57916 962.38938 925.976843 0.0010443
16.71160 958.39252 963.497607 926.239664 0.00104341
16.72041 959.66296 964.675817 926.50247 0.00104203
16.72921 961.56604 965.858612 926.765287 0.00103997
16.73802 962.99683 966.982757 927.027988 0.00103843
16.74683 964.3689 967.996327 927.290658 0.00103695
16.75563 965.69391 968.86151 927.553141 0.00103552
16.76444 967.36658 969.559638 927.815522 0.00103373
16.77325 968.67383 970.088508 928.077675 0.00103234
16.78206 969.55402 970.456763 928.339623 0.0010314
16.79086 970.24823 970.677042 928.601242 0.00103066
16.79967 970.90662 970.760384 928.862614 0.00102997
16.80848 971.4342 970.711764 929.123585 0.00102941
16.81729 971.63074 970.53223 929.384268 0.0010292
16.82609 971.94867 970.222282 929.644449 0.00102886
16.83490 971.78876 969.78664 929.904241 0.00102903
16.84371 971.72229 969.239419 930.163489 0.0010291
16.85251 972.48248 968.604385 930.422277 0.0010283
16.86132 972.82233 967.914582 930.680452 0.00102794
16.87013 972.95892 967.208117 930.938126 0.00102779
16.87893 972.70593 966.525519 931.195088 0.00102806
16.88774 972.96161 965.906004 931.45145 0.00102779
16.89655 972.80078 965.388028 931.707061 0.00102796
16.90536 972.98529 965.008495 931.962004 0.00102776
16.91416 973.53589 964.804127 932.216158 0.00102718
16.92297 973.90735 964.811982 932.46949 0.00102679
16.93178 974.38727 965.068264 932.722053 0.00102629
16.94058 974.87762 965.608237 932.9737 0.00102577
16.94939 975.37109 966.465372 933.224513 0.00102525
16.95820 976.44794 967.669922 933.474374 0.00102412
16.96701 977.54852 969.24805 933.72331 0.00102297
16.97581 979.48273 971.22152 933.971204 0.00102095
16.98462 981.82361 973.607318 934.218138 0.00101851
16.99343 984.30249 976.414332 934.46397 0.00101595
17.00223 987.90045 979.646486 934.708783 0.00101225
17.01104 991.76593 983.297398 934.952463 0.0010083
17.01985 996.4118 987.351079 935.195037 0.0010036
17.02866 999.64868 991.77884 935.436395 0.00100035
17.03746 1002.851 996.539914 935.67662 0.00099716
17.04627 1006.493 1001.572729 935.915574 0.00099355
17.05508 1011.0061 1006.801896 936.153367 0.00098911
17.06388 1015.4745 1012.125526 936.389811 0.00098476
17.07269 1021.946 1017.428788 936.625016 0.00097853
17.08150 1025.7617 1022.57944 936.858849 0.00097489
17.09031 1030.5818 1027.445759 937.091394 0.00097033
17.09911 1034.7609 1031.904002 937.322521 0.00096641
17.10792 1037.327 1035.863468 937.552339 0.00096402
17.11673 1039.7228 1039.268062 937.780669 0.00096179
17.12554 1042.5524 1042.110888 938.00762 0.00095918
17.13434 1041.764 1044.419453 938.233067 0.00095991
17.14315 1042.7152 1046.247539 938.457094 0.00095903
17.15196 1042.751 1047.658241 938.679604 0.000959
17.16077 1043.2816 1048.715506 938.900629 0.00095851
17.16957 1043.0435 1049.484141 939.120077 0.00095873
17.17838 1043.6466 1050.033742 939.338029 0.00095818
17.18718 1043.6453 1050.442293 939.554371 0.00095818
17.19599 1043.8669 1050.801295 939.769185 0.00095798
17.20480 1043.614 1051.207881 939.982382 0.00095821
17.21361 1043.5797 1051.756459 940.193997 0.00095824
17.22241 1044.1074 1052.528548 940.403945 0.00095776
17.23122 1045.1277 1053.578982 940.612307 0.00095682
17.24003 1047.046 1054.93137 940.818978 0.00095507
17.24884 1049.2112 1056.572269 941.024063 0.0009531
17.25764 1052.604 1058.447406 941.227412 0.00095002
17.26645 1055.5851 1060.464429 941.42913 0.00094734
17.27526 1059.2198 1062.498895 941.629119 0.00094409
17.28406 1061.1312 1064.397732 941.827459 0.00094239
17.29287 1065.3052 1065.998046 942.024054 0.0009387
17.30168 1068.3849 1067.146154 942.219008 0.00093599
17.31049 1071.8401 1067.717543 942.412183 0.00093297
17.31929 1070.4628 1067.641292 942.603683 0.00093418
17.32810 1070.2406 1066.913132 942.793417 0.00093437
17.33691 1067.359 1065.59668 942.981468 0.00093689
17.34571 1066.9534 1063.817746 943.167768 0.00093725
17.35452 1063.235 1061.747311 943.352357 0.00094053
17.36333 1060.5142 1059.577132 943.535172 0.00094294
17.37214 1055.0308 1057.498554 943.716295 0.00094784
17.38094 1051.9739 1055.687893 943.895643 0.00095059
17.38975 1048.1466 1054.291058 944.073299 0.00095407
17.39856 1047.0022 1053.41864 944.249204 0.00095511
17.40737 1045.9689 1053.147485 944.4234 0.00095605
17.41617 1046.9406 1053.513797 944.595831 0.00095516
17.42498 1047.9105 1054.517367 944.766579 0.00095428
17.43379 1050.8273 1056.120013 944.93557 0.00095163
17.44260 1052.8226 1058.245693 945.102906 0.00094983
17.45140 1056.3933 1060.774849 945.268477 0.00094662
17.46021 1061.105 1063.554957 945.432349 0.00094241
17.46901 1065.73 1066.39707 945.594564 0.00093832
17.47782 1069.3314 1069.086078 945.755057 0.00093516
17.48663 1071.8572 1071.401952 945.913908 0.00093296
17.49544 1074.5162 1073.13929 946.071073 0.00093065
17.50424 1076.6571 1074.133724 946.226597 0.0009288
17.51305 1078.0986 1074.283356 946.380437 0.00092756
17.52186 1077.5475 1073.558344 946.532674 0.00092803
17.53066 1075.4336 1071.997454 946.68325 0.00092986
17.53947 1071.8354 1069.689855 946.832262 0.00093298
17.54828 1068.5293 1066.754337 946.979622 0.00093587
17.55709 1063.2888 1063.312848 947.125426 0.00094048
17.56589 1057.8281 1059.476813 947.269621 0.00094533
17.57470 1051.9191 1055.333073 947.412288 0.00095064
17.58351 1045.9554 1050.94839 947.553391 0.00095606
17.59232 1040.5428 1046.365579 947.692979 0.00096104
17.60112 1036.256 1041.621421 947.831019 0.00096501
17.60993 1031.8411 1036.74727 947.96759 0.00096914
17.61874 1027.2368 1031.783794 948.102647 0.00097349
17.62754 1022.3231 1026.778597 948.236267 0.00097816
17.63635 1017.4196 1021.793573 948.368422 0.00098288
17.64516 1012.1301 1016.891476 948.499159 0.00098802
17.65396 1006.3353 1012.139968 948.628454 0.0009937
17.66277 1001.2066 1007.59674 948.756381 0.00099879
17.67158 996.49652 1003.313201 948.882903 0.00100352
17.68039 991.51318 999.325728 949.008095 0.00100856
17.68919 986.87421 995.661769 949.131934 0.0010133
17.69800 983.48975 992.334035 949.254468 0.00101679
17.70681 980.41071 989.348191 949.375675 0.00101998
17.71562 976.7381 986.698958 949.49563 0.00102382
17.72442 974.91431 984.376575 949.614299 0.00102573
17.73323 972.73151 982.364025 949.73177 0.00102803
17.74204 971.00476 980.642655 949.847983 0.00102986
17.75085 969.62036 979.188091 949.963026 0.00103133
17.75965 968.1449 977.975586 950.076867 0.0010329
17.76846 966.78748 976.977768 950.189579 0.00103435
17.77727 965.91553 976.167583 950.301146 0.00103529
17.78607 965.19684 975.51783 950.411613 0.00103606
17.79488 965.07202 975.002992 950.520966 0.00103619
17.80369 964.85693 974.598543 950.629274 0.00103642
17.81249 964.5965 974.282278 950.736511 0.0010367
17.82130 964.48529 974.033396 950.842746 0.00103682
17.83011 964.85339 973.833204 950.947966 0.00103643
17.83892 965.43866 973.665155 951.052215 0.0010358
17.84772 965.85583 973.515915 951.15548 0.00103535
17.85653 965.95129 973.376452 951.25783 0.00103525
17.86534 966.17151 973.243466 951.359238 0.00103501
17.87415 965.63916 973.11946 951.459785 0.00103558
17.88295 965.43347 973.013011 951.559422 0.0010358
17.89176 965.20508 972.926549 951.658228 0.00103605
17.90057 964.97784 972.897177 951.756179 0.00103629
17.90937 965.70746 972.931502 951.853341 0.00103551
17.91818 966.25061 973.046558 951.949688 0.00103493
17.92699 967.26172 973.257929 952.045298 0.00103385
17.93579 968.32257 973.579209 952.140124 0.00103271
17.94460 969.24554 974.022006 952.234241 0.00103173
17.95341 970.02148 974.594807 952.327626 0.00103091
17.96222 971.18463 975.304258 952.420341 0.00102967
17.97102 971.86426 976.153788 952.512373 0.00102895
17.97983 972.88263 977.143623 952.603761 0.00102787
17.98864 973.9574 978.270607 952.694495 0.00102674
17.99744 975.88214 979.52772 952.784612 0.00102471
18.00625 978.16846 980.903734 952.874152 0.00102232
18.01506 980.17828 982.381797 952.9631 0.00102022
18.02387 981.87573 983.941479 953.051494 0.00101846
18.03267 983.49036 985.557061 953.139321 0.00101679
18.04148 985.24219 987.202131 953.226638 0.00101498
18.05029 987.17969 988.84965 953.31342 0.00101299
18.05909 989.04242 990.47708 953.399723 0.00101108
18.06790 990.48053 992.06745 953.485532 0.00100961
18.07671 992.19885 993.612051 953.570881 0.00100786
18.08552 993.30896 995.108333 953.655755 0.00100674
18.09432 993.99823 996.559321 953.740207 0.00100604
18.10313 995.41095 997.967013 953.824212 0.00100461
18.11194 996.88043 999.329962 953.907819 0.00100313
18.12074 998.75708 1000.638372 953.991014 0.00100124
18.12955 999.98541 1001.871607 954.073825 0.00100001
18.13836 1000.6167 1002.997568 954.156237 0.00099938
18.14717 1001.7662 1003.975708 954.238296 0.00099824
18.15597 1003.5323 1004.757579 954.319976 0.00099648
18.16478 1004.4113 1005.295666 954.401333 0.00099561
18.17359 1005.0031 1005.548042 954.482319 0.00099502
18.18240 1005.1052 1005.486593 954.562989 0.00099492
18.19120 1004.7128 1005.101685 954.643314 0.00099531
18.20001 1004.3304 1004.402999 954.723337 0.00099569
18.20882 1003.9545 1003.420728 954.803037 0.00099606
18.21763 1002.7339 1002.197982 954.882438 0.00099727
18.22643 1001.439 1000.787029 954.961519 0.00099856
18.23524 1000.3243 999.242878 955.040319 0.00099968
18.24404 998.95093 997.62143 955.118807 0.00100105
18.25285 997.71881 995.972471 955.197021 0.00100229
18.26166 996.70862 994.343173 955.274938 0.0010033
18.27047 995.26355 992.774816 955.352577 0.00100476
18.27927 994.50629 991.304123 955.429912 0.00100552
18.28808 994.13361 989.96269 955.50698 0.0010059
18.29689 993.07605 988.779347 955.583745 0.00100697
18.30570 992.09424 987.776232 955.660242 0.00100797
18.31450 991.19775 986.972302 955.736443 0.00100888
18.32331 990.95227 986.371905 955.812364 0.00100913
18.33212 991.23883 986.00131 955.887975 0.00100884
18.34092 991.85339 985.85481 955.963308 0.00100821
18.34973 991.8291 985.931823 956.038325 0.00100824
18.35854 992.37903 986.226902 956.113063 0.00100768
18.36735 993.18268 986.730123 956.187466 0.00100686
18.37615 993.88593 987.42842 956.261571 0.00100615
18.38496 994.09833 988.302368 956.335337 0.00100594
18.39377 995.37451 989.328364 956.408791 0.00100465
18.40257 996.42706 990.473545 956.481899 0.00100359
18.41138 997.9845 991.707899 956.55467 0.00100202
18.42019 999.82202 992.984701 956.627069 0.00100018
18.42900 1002.6168 994.255741 956.699121 0.00099739
18.43780 1004.9514 995.465173 956.77078 0.00099507
18.44661 1007.2134 996.555647 956.84207 0.00099284
18.45542 1009.0074 997.470062 956.912954 0.00099107
18.46423 1012.389 998.157719 956.983436 0.00098776
18.47303 1015.2263 998.579916 957.053479 0.000985
18.48184 1016.3746 998.715863 957.123101 0.00098389
18.49065 1016.7171 998.564474 957.192258 0.00098356
18.49945 1016.8044 998.144687 957.260966 0.00098347
18.50826 1014.6619 997.49185 957.329186 0.00098555
18.51707 1011.8073 996.652289 957.396919 0.00098833
18.52587 1008.6696 995.678576 957.464124 0.0009914
18.53468 1005.876 994.62262 957.530802 0.00099416
18.54349 1002.5034 993.534095 957.596949 0.0009975
18.55230 999.8587 992.458697 957.662526 0.00100014
18.56110 997.6095 991.435194 957.72753 0.0010024
18.56991 995.40302 990.497618 957.791919 0.00100462
18.57872 993.41101 989.673042 957.855704 0.00100663
18.58752 992.44067 988.983259 957.918837 0.00100762
18.59633 991.78467 988.443967 957.981333 0.00100828
18.60514 991.07495 988.06655 958.04313 0.00100901
18.61395 990.75586 987.855894 958.104243 0.00100933
18.62275 990.30872 987.813179 958.164622 0.00100979
18.63156 989.84906 987.927677 958.224274 0.00101026
18.64037 990.64783 988.206848 958.283156 0.00100944
18.64918 991.60577 988.634155 958.341261 0.00100847
18.65798 993.05432 989.199196 958.398546 0.00100699
18.66679 995.00525 989.892728 958.455015 0.00100502
18.67560 995.49969 990.708045 958.510618 0.00100452
18.68440 996.40082 991.643562 958.56536 0.00100361
18.69321 998.24261 992.702162 958.619197 0.00100176
18.70202 1000.2928 993.892657 958.672119 0.00099971
18.71082 1002.2477 995.2265 958.724083 0.00099776
18.71963 1003.2281 996.718195 958.775091 0.00099678
18.72844 1004.653 998.38028 958.825094 0.00099537
18.73725 1006.4951 1000.223986 958.874093 0.00099355
18.74605 1009.3453 1002.25436 958.922045 0.00099074
18.75486 1011.9557 1004.472727 958.968938 0.00098819
18.76367 1014.327 1006.87267 959.014732 0.00098588
18.77248 1017.1165 1009.442484 959.059423 0.00098317
18.78128 1019.8981 1012.171395 959.102967 0.00098049
18.79009 1022.6066 1015.041513 959.145365 0.00097789
18.79890 1025.6735 1018.033124 959.186564 0.00097497
18.80770 1028.3312 1021.129267 959.226563 0.00097245
18.81651 1030.7953 1024.309598 959.265321 0.00097012
18.82532 1032.8893 1027.553092 959.302831 0.00096816
18.83413 1035.701 1030.831556 959.339057 0.00096553
18.84293 1038.6406 1034.109898 959.373984 0.0009628
18.85174 1041.8693 1037.341318 959.407577 0.00095981
18.86055 1043.0662 1040.471075 959.439829 0.00095871
18.86935 1044.9037 1043.433432 959.470702 0.00095703
18.87816 1046.0177 1046.161034 959.500187 0.00095601
18.88697 1048.5168 1048.587294 959.528254 0.00095373
18.89578 1049.7615 1050.657289 959.554886 0.0009526
18.90458 1051.1129 1052.331856 959.580052 0.00095137
18.91339 1051.5442 1053.5959 959.603745 0.00095098
18.92220 1052.2585 1054.456365 959.625932 0.00095034
18.93100 1051.3555 1054.940794 959.646604 0.00095115
18.93981 1050.7395 1055.087544 959.665733 0.00095171
18.94862 1049.8463 1054.939396 959.683306 0.00095252
18.95743 1050.7834 1054.531181 959.699296 0.00095167
18.96623 1050.0581 1053.885779 959.713695 0.00095233
18.97504 1049.5632 1053.010933 959.726478 0.00095278
18.98385 1048.4828 1051.898313 959.737634 0.00095376
18.99265 1047.7562 1050.529889 959.747141 0.00095442
19.00146 1046.358 1048.88418 959.754987 0.0009557
19.01027 1045.3247 1046.944535 959.761156 0.00095664
19.01908 1043.3674 1044.705544 959.765635 0.00095844
19.02788 1041.4247 1042.179949 959.768408 0.00096022
19.03669 1038.188 1039.394865 959.769465 0.00096322
19.04550 1034.7594 1036.394359 959.768792 0.00096641
19.05431 1030.6111 1033.227182 959.766379 0.0009703
19.06311 1027.2535 1029.947213 959.762216 0.00097347
19.07192 1023.4037 1026.602591 959.756292 0.00097713
19.08073 1019.1708 1023.233937 959.748597 0.00098119
19.08953 1015.2368 1019.876401 959.739128 0.00098499
19.09834 1012.68 1016.553609 959.727873 0.00098748
19.10715 1009.99 1013.28613 959.714831 0.00099011
19.11595 1006.7882 1010.088504 959.699991 0.00099326
19.12476 1004.0184 1006.976428 959.683353 0.000996
19.13357 1002.3915 1003.964449 959.664911 0.00099761
19.14238 999.30756 1001.068629 959.64467 0.00100069
19.15118 996.17078 998.30374 959.622619 0.00100384
19.15999 993.51031 995.685598 959.598767 0.00100653
19.16880 990.87317 993.226149 959.573106 0.00100921
19.17760 988.08795 990.936657 959.545645 0.00101206
19.18641 986.47388 988.823221 959.516382 0.00101371
19.19522 984.86285 986.890286 959.485331 0.00101537
19.20403 982.35931 985.137368 959.452483 0.00101796
19.21283 980.17499 983.562778 959.41786 0.00102023
19.22164 978.56885 982.161168 959.381449 0.0010219
19.23045 976.99738 980.927285 959.343285 0.00102354
19.23926 975.12292 979.852602 959.303355 0.00102551
19.24806 974.17078 978.929055 959.261689 0.00102651
19.25687 973.80341 978.146855 959.21828 0.0010269
19.26568 973.20807 977.496395 959.173162 0.00102753
19.27448 972.64838 976.967121 959.126323 0.00102812
19.28329 972.53333 976.548952 959.077811 0.00102824
19.29210 972.31793 976.231016 959.027616 0.00102847
19.30091 971.65112 976.002898 958.975779 0.00102918
19.30971 971.2746 975.854042 958.922295 0.00102957
19.31852 970.69202 975.774304 958.867204 0.00103019
19.32733 970.56647 975.754124 958.810516 0.00103033
19.33613 970.75116 975.78483 958.752271 0.00103013
19.34494 970.8504 975.859277 958.69247 0.00103002
19.35375 971.1792 975.972446 958.631163 0.00102968
19.36256 972.2558 976.12213 958.568351 0.00102854
19.37136 973.01031 976.309283 958.504083 0.00102774
19.38017 973.1142 976.538475 958.438372 0.00102763
19.38898 972.49689 976.817297 958.371271 0.00102828
19.39778 972.42633 977.156323 958.302783 0.00102836
19.40659 973.20544 977.567946 958.23297 0.00102753
19.41540 974.18182 978.065852 958.161827 0.0010265
19.42421 974.95807 978.663226 958.089437 0.00102569
19.43301 975.77081 979.373589 958.015795 0.00102483
19.44182 976.88232 980.208157 957.940971 0.00102366
19.45063 978.14185 981.177159 957.86497 0.00102235
19.45943 979.12531 982.288301 957.787858 0.00102132
19.46824 980.72516 983.546701 957.709656 0.00101965
19.47705 981.72864 984.954235 957.630433 0.00101861
19.48586 983.13934 986.510991 957.550195 0.00101715
19.49466 984.91302 988.211819 957.469023 0.00101532
19.50347 986.96399 990.049765 957.386923 0.00101321
19.51228 989.45526 992.013338 957.303969 0.00101066
19.52109 991.95898 994.08703 957.220187 0.00100811
19.52989 994.31421 996.25086 957.135654 0.00100572
19.53870 997.25781 998.48139 957.050379 0.00100275
19.54751 1000.0757 1000.748407 956.964449 0.00099992
19.55631 1002.8893 1003.019661 956.877875 0.00099712
19.56512 1005.8724 1005.258474 956.790735 0.00099416
19.57393 1009.3284 1007.426167 956.703062 0.00099076
19.58273 1011.9307 1009.483003 956.614936 0.00098821
19.59154 1014.8027 1011.39026 956.526369 0.00098541
19.60035 1017.2444 1013.107489 956.437453 0.00098305
19.60916 1019.9815 1014.595918 956.348213 0.00098041
19.61796 1022.5432 1015.816338 956.258701 0.00097795
19.62677 1023.7585 1016.728687 956.169001 0.00097679
19.63558 1023.4655 1017.2961 956.079128 0.00097707
19.64438 1024.2389 1017.486813 955.989176 0.00097633
19.65319 1024.7737 1017.279021 955.89915 0.00097583
19.66200 1023.9006 1016.665963 955.809166 0.00097666
19.67081 1021.7917 1015.657139 955.719228 0.00097867
19.67961 1020.023 1014.281143 955.629433 0.00098037
19.68842 1017.9536 1012.580712 955.539795 0.00098236
19.69723 1015.6556 1010.610458 955.45041 0.00098459
19.70604 1013.3957 1008.428786 955.361283 0.00098678
19.71484 1011.5086 1006.096603 955.272531 0.00098862
19.72365 1008.2094 1003.667829 955.184158 0.00099186
19.73246 1004.6416 1001.192851 955.096258 0.00099538
19.74126 1000.8848 998.712166 955.008848 0.00099912
19.75007 997.53571 996.26036 954.92201 0.00100247
19.75888 994.06458 993.865142 954.83578 0.00100597
19.76769 990.48914 991.549344 954.750239 0.0010096
19.77649 987.90289 989.329841 954.665402 0.00101225
19.78530 986.24457 987.222071 954.58136 0.00101395
19.79411 984.26416 985.235813 954.498125 0.00101599
19.80291 981.77002 983.378566 954.415778 0.00101857
19.81172 979.30524 981.65388 954.33435 0.00102113
19.82053 977.90222 980.061905 954.253917 0.0010226
19.82934 976.66553 978.598241 954.174491 0.00102389
19.83814 975.77399 977.256678 954.096156 0.00102483
19.84695 974.67297 976.026689 954.018914 0.00102599
19.85576 973.04633 974.897228 953.942862 0.0010277
19.86456 971.81458 973.855052 953.868 0.001029
19.87337 970.90906 972.887706 953.794406 0.00102996
19.88218 970.26599 971.983128 953.722088 0.00103065
19.89099 969.39923 971.131953 953.651117 0.00103157
19.89979 968.55573 970.326192 953.581493 0.00103247
19.90860 967.61053 969.56133 953.5133 0.00103347
19.91741 967.46613 968.834461 953.446535 0.00103363
19.92621 967.02338 968.145226 953.381261 0.0010341
19.93502 966.30072 967.494291 953.317482 0.00103487
19.94383 965.69983 966.883987 953.255249 0.00103552
19.95264 965.21411 966.31648 953.194577 0.00103604
19.96144 963.92041 965.794774 953.135514 0.00103743
19.97025 963.11621 965.321305 953.078057 0.0010383
19.97906 962.73615 964.898684 953.022256 0.00103871
19.98786 962.57104 964.528933 952.968105 0.00103888
19.99667 962.22693 964.214269 952.915643 0.00103926
20.00548 962.42377 963.956124 952.864875 0.00103904
20.01429 962.07098 963.756027 952.815832 0.00103942
20.02309 961.93195 963.614919 952.768504 0.00103957
20.03190 962.11072 963.533452 952.722923 0.00103938
20.04071 962.9201 963.511812 952.679073 0.00103851
20.04951 962.74854 963.549838 952.636988 0.00103869
20.05832 962.57117 963.64663 952.596647 0.00103888
20.06713 963.37543 963.800786 952.558071 0.00103802
20.07594 963.57043 964.010209 952.52124 0.00103781
20.08474 963.58612 964.271802 952.486169 0.00103779
20.09355 963.82434 964.581933 952.45283 0.00103753
20.10236 964.44446 964.935868 952.42124 0.00103687
20.11117 964.28925 965.328288 952.391368 0.00103703
20.11997 964.63617 965.753031 952.363215 0.00103666
20.12878 965.49225 966.203655 952.336754 0.00103574
20.13759 965.68756 966.672952 952.311975 0.00103553
20.14639 965.69189 967.15405 952.288858 0.00103553
20.15520 966.34082 967.640058 952.267372 0.00103483
20.16401 967.43018 968.123725 952.247503 0.00103367
20.17281 968.34692 968.598205 952.229214 0.00103269
20.18162 968.9386 969.056134 952.212482 0.00103206
20.19043 969.31812 969.489775 952.197271 0.00103165
20.19924 969.42548 969.890938 952.183552 0.00103154
20.20804 969.09106 970.251469 952.171283 0.00103189
20.21685 968.96051 970.563295 952.16043 0.00103203
20.22566 969.21552 970.81995 952.150949 0.00103176
20.23447 969.30048 971.016951 952.1428 0.00103167
20.24327 969.00421 971.152984 952.135936 0.00103199
20.25208 968.72253 971.230267 952.130314 0.00103229
20.26089 968.66248 971.254612 952.125883 0.00103235
20.26969 968.97791 971.234924 952.122594 0.00103202
20.27850 969.81769 971.182318 952.120394 0.00103112
20.28731 970.26233 971.109079 952.119231 0.00103065
20.29612 971.22687 971.027874 952.119049 0.00102963
20.30492 970.68628 970.950982 952.119793 0.0010302
20.31373 970.14233 970.889938 952.121404 0.00103078
20.32254 970.58557 970.855651 952.123824 0.00103031
20.33134 971.19305 970.858225 952.126994 0.00102966
20.34015 971.94586 970.907084 952.13085 0.00102886
20.34896 972.52551 971.011439 952.135333 0.00102825
20.35777 972.46057 971.179924 952.140379 0.00102832
20.36657 973.1626 971.420857 952.145926 0.00102758
20.37538 973.70599 971.742075 952.151909 0.001027
20.38419 973.66663 972.140913 952.158266 0.00102705
20.39299 974.44281 972.642738 952.164929 0.00102623
20.40180 975.40765 973.2435 952.171838 0.00102521
20.41061 976.06744 973.947323 952.178925 0.00102452
20.41942 976.81995 974.757853 952.186128 0.00102373
20.42822 977.12592 975.677374 952.193383 0.00102341
20.43703 978.03906 976.707214 952.200627 0.00102245
20.44584 979.63977 977.847091 952.207796 0.00102078
20.45464 981.16431 979.096561 952.214829 0.0010192
20.46345 982.0332 980.452601 952.221665 0.0010183
20.47226 982.81287 981.912484 952.228246 0.00101749
20.48107 983.88568 983.471198 952.23451 0.00101638
20.48987 984.97943 985.124172 952.240404 0.00101525
20.49868 985.71198 986.866077 952.245869 0.0010145
20.50749 986.82666 988.692729 952.250853 0.00101335
20.51629 988.73517 990.599764 952.255304 0.00101139
20.52510 990.55365 992.584785 952.259172 0.00100954
20.53391 992.28253 994.643785 952.262408 0.00100778
20.54272 994.1203 996.774391 952.264968 0.00100591
20.55152 996.69922 998.969969 952.266809 0.00100331
20.56033 999.69305 1001.223034 952.26789 0.00100031
20.56914 1002.3483 1003.518329 952.268173 0.00099766
20.57795 1005.1317 1005.837542 952.267623 0.00099489
20.58675 1008.4467 1008.152395 952.266209 0.00099162
20.59556 1011.1196 1010.429551 952.263901 0.000989
20.60437 1013.6412 1012.62693 952.260672 0.00098654
20.61317 1015.6738 1014.698173 952.256502 0.00098457
20.62198 1018.0437 1016.59251 952.251369 0.00098228
20.63079 1020.0591 1018.260003 952.245257 0.00098034
20.63959 1021.334 1019.65459 952.238155 0.00097911
20.64840 1022.8354 1020.739929 952.230051 0.00097767
20.65721 1024.1898 1021.491048 952.220943 0.00097638
20.66602 1025.0651 1021.898602 952.210823 0.00097555
20.67482 1025.1027 1021.966859 952.199697 0.00097551
20.68363 1023.8887 1021.713309 952.187569 0.00097667
20.69244 1023.4834 1021.164058 952.174442 0.00097706
20.70124 1022.2872 1020.350581 952.160334 0.0009782
20.71005 1021.3339 1019.30476 952.145252 0.00097911
20.71886 1019.8405 1018.057511 952.129221 0.00098055
20.72767 1018.1107 1016.636443 952.112255 0.00098221
20.73647 1016.911 1015.066647 952.094387 0.00098337
20.74528 1015.407 1013.370408 952.075633 0.00098483
20.75409 1012.709 1011.569555 952.056033 0.00098745
20.76290 1010.9122 1009.685057 952.035606 0.00098921
20.77170 1009.101 1007.739943 952.014402 0.00099098
20.78051 1006.5475 1005.75523 951.992444 0.0009935
20.78932 1005.0201 1003.753943 951.96978 0.000995
20.79812 1002.9788 1001.755148 951.94644 0.00099703
20.80693 1000.69 999.77783 951.922472 0.00099931
20.81574 998.14594 997.834986 951.897913 0.00100186
20.82455 995.71411 995.939072 951.872815 0.0010043
20.83335 993.46942 994.096477 951.847208 0.00100657
20.84216 991.68573 992.310976 951.821146 0.00100838
20.85097 989.62183 990.582635 951.79466 0.00101049
20.85977 987.00079 988.909843 951.767801 0.00101317
20.86858 985.25549 987.288342 951.740601 0.00101497
20.87739 984.18793 985.713775 951.713109 0.00101607
20.88620 982.99835 984.180691 951.685346 0.0010173
20.89500 981.15826 982.686402 951.657359 0.0010192
20.90381 979.39655 981.228191 951.629161 0.00102104
20.91262 978.03564 979.807792 951.600796 0.00102246
20.92142 977.12195 978.427666 951.57227 0.00102341
20.93023 976.72333 977.09383 951.543613 0.00102383
20.93904 975.26929 975.81283 951.514821 0.00102536
20.94785 974.02484 974.592948 951.485914 0.00102667
20.95665 973.05353 973.441889 951.456873 0.00102769
20.96546 971.97156 972.368235 951.427708 0.00102884
20.97427 971.55548 971.378768 951.398389 0.00102928
20.98307 970.9649 970.480594 951.368901 0.0010299
20.99188 970.63025 969.678992 951.339202 0.00103026
21.00069 969.39825 968.979847 951.309256 0.00103157
21.00950 969.18127 968.387301 951.279007 0.0010318
21.01830 969.19678 967.905698 951.248405 0.00103178
21.02711 968.8924 967.538453 951.217364 0.00103211
21.03592 968.77075 967.288701 951.185814 0.00103224
21.04472 969.27875 967.159185 951.153653 0.00103169
21.05353 969.60535 967.152116 951.120784 0.00103135
21.06234 969.33588 967.2694 951.087087 0.00103163
21.07115 968.53864 967.512006 951.05245 0.00103248
21.07995 968.57819 967.880507 951.01672 0.00103244
21.08876 969.88605 968.374271 950.979768 0.00103105
21.09757 970.99329 968.992483 950.941419 0.00102987
21.10637 971.93048 969.732018 950.90153 0.00102888
21.11518 972.75293 970.589488 950.859906 0.00102801
21.12399 973.26678 971.559888 950.816385 0.00102747
21.13280 973.86407 972.636904 950.77076 0.00102684
21.14160 974.68671 973.812216 950.722855 0.00102597
21.15041 975.74725 975.076771 950.672447 0.00102486
21.15922 976.68915 976.418541 950.619368 0.00102387
21.16803 977.84668 977.820894 950.563392 0.00102266
21.17683 978.48969 979.276092 950.504348 0.00102198
21.18564 979.08813 980.763146 950.442013 0.00102136
21.19445 981.08014 982.261867 950.376229 0.00101928
21.20325 982.89374 983.75035 950.306809 0.0010174
21.21206 984.19653 985.203572 950.233623 0.00101606
21.22087 985.8208 986.595621 950.15652 0.00101438
21.22968 987.29413 987.899845 950.075371 0.00101287
21.23848 988.87305 989.088503 949.990127 0.00101125
21.24729 990.32465 990.135348 949.900726 0.00100977
21.25610 991.29901 991.016685 949.807199 0.00100878
21.26490 991.31262 991.712718 949.709557 0.00100876
21.27371 991.90741 992.207937 949.60796 0.00100816
21.28252 992.11462 992.493224 949.50254 0.00100795
21.29133 992.54669 992.565679 949.393585 0.00100751
21.30013 992.31 992.429013 949.281417 0.00100775
21.30894 991.75647 992.093585 949.16652 0.00100831
21.31775 990.75641 991.575087 949.049397 0.00100933
21.32655 989.88525 990.89441 948.930783 0.00101022
21.33536 988.71643 990.074826 948.811442 0.00101141
21.34417 987.58386 989.138201 948.692392 0.00101257
21.35298 986.1839 988.118114 948.57476 0.00101401
21.36178 984.59668 987.035084 948.459922 0.00101564
21.37059 982.91473 985.911013 948.349378 0.00101738
21.37940 981.59766 984.765167 948.244967 0.00101875
21.38820 980.34003 983.612352 948.148672 0.00102005
21.39701 979.31708 982.464825 948.062878 0.00102112
21.40582 978.12708 981.330069 947.990164 0.00102236
21.41463 977.38019 980.213977 947.933532 0.00102314
21.42343 976.65881 979.118813 947.896286 0.0010239
21.43224 975.67712 978.046951 947.882178 0.00102493
21.44105 975.2962 976.998627 947.895375 0.00102533
21.44985 975.13861 975.97583 947.940505 0.0010255
21.45866 974.48871 974.980306 948.022746 0.00102618
21.46747 973.55243 974.015836 948.147769 0.00102717
21.47628 973.34674 973.087829 948.321945 0.00102738
21.48508 973.64465 972.204584 948.552187 0.00102707
21.49389 973.68896 971.376253 948.846218 0.00102702
21.50270 972.87708 970.615912 949.212351 0.00102788
21.51150 972.23505 969.93819 949.659998 0.00102856
21.52031 972.72412 969.360154 950.199077 0.00102804
21.52912 973.00238 968.899664 950.840913 0.00102775
21.53793 972.2583 968.575907 951.597394 0
21.54673 971.89484 0 0 0
21.55554 971.43219 0 0 0
21.56435 971.11462 0 0 0
21.57315 971.38025 0 0 0
21.58196 971.6839 0 0 0
21.59077 972.08484 0 0 0
21.59958 971.58551 0 0 0
21.60838 970.48938 0 0 0
21.61719 970.11047 0 0 0
21.62600 970.29028 0 0 0
21.63481 970.48145 0 0 0
21.64361 970.48181 0 0 0
21.65242 970.56049 0 0 0
21.66123 971.05975 0 0 0
21.67003 971.26611 0 0 0
21.67884 970.92627 0 0 0
21.68765 970.62646 0 0 0
21.69646 970.94647 0 0 0
21.70526 971.59583 0 0 0
21.71407 970.99933 0 0 0
21.72288 969.96838 0 0 0
21.73168 969.57251 0 0 0
21.74049 968.82483 0 0 0
21.74930 967.91998 0 0 0
21.75810 967.19806 0 0 0
21.76691 966.17999 0 0 0
21.77572 965.61597 0 0 0
21.78453 964.38397 0 0 0
21.79333 963.07422 0 0 0
21.80214 962.44574 0 0 0
21.81095 962.1814 0 0 0
21.81976 961.87878 0 0 0
21.82856 961.1474 0 0 0
21.83737 959.53632 0 0 0
21.84618 958.75708 0 0 0
21.85498 958.6358 0 0 0
21.86379 957.95001 0 0 0
21.87260 957.36389 0 0 0
21.88141 957.46667 0 0 0
21.89021 956.31189 0 0 0
21.89902 955.84174 0 0 0
21.90783 955.48163 0 0 0
21.91663 955.12897 0 0 0
21.92544 954.87842 0 0 0
21.93425 954.86493 0 0 0
21.94306 954.82672 0 0 0
21.95186 954.56091 0 0 0
21.96067 953.24316 0 0 0
21.96948 951.89319 0 0 0
21.97828 950.97046 0 0 0
21.98709 950.86957 0 0 0
21.99590 951.25781 0 0 0
22.00471 951.26416 0 0 0
22.01351 950.42523 0 0 0
22.02232 949.8656 0 0 0
22.03113 949.09576 0 0 0
22.03993 948.33459 0 0 0
22.04874 948.28003 0 0 0
22.05755 947.93353 0 0 0
22.06636 947.59851 0 0 0
22.07516 948.00317 0 0 0
22.08397 947.81897 0 0 0
22.09278 947.17273 0 0 0
22.10159 947.26697 0 0 0
22.11039 947.78027 0 0 0
22.11920 947.59863 0 0 0
22.12801 946.92798 0 0 0
22.13681 945.96466 0 0 0
22.14562 944.94409 0 0 0
22.15443 944.51575 0 0 0
22.16324 945.57825 0 0 0
22.17204 945.50787 0 0 0
22.18085 945.13782 0 0 0
22.18966 945.43134 0 0 0
22.19846 945.60669 0 0 0
22.20727 945.55426 0 0 0
22.21608 945.30896 0 0 0
22.22489 944.57959 0 0 0
22.23369 944.46729 0 0 0
22.24250 945.04395 0 0 0
22.25131 945.28284 0 0 0
22.26011 945.58429 0 0 0
22.26892 945.40442 0 0 0
22.27773 945.16974 0 0 0
22.28654 945.04578 0 0 0
22.29534 945.23035 0 0 0
22.30415 945.07813 0 0 0
22.31296 944.92633 0 0 0
22.32176 945.83429 0 0 0
22.33057 946.66119 0 0 0
22.33938 946.29047 0 0 0
22.34819 946.07153 0 0 0
22.35699 946.88519 0 0 0
22.36580 947.62683 0 0 0
22.37461 947.77112 0 0 0
22.38341 947.78064 0 0 0
22.39222 947.4245 0 0 0
22.40103 947.30066 0 0 0
22.40984 947.5379 0 0 0
22.41864 947.51752 0 0 0
22.42745 947.05884 0 0 0
22.43626 947.75635 0 0 0
22.44506 949.43445 0 0 0
22.45387 949.84271 0 0 0
22.46268 948.98669 0 0 0
22.47149 948.86438 0 0 0
22.48029 949.21515 0 0 0
22.48910 949.1308 0 0 0
22.49791 948.90082 0 0 0
22.50671 949.60693 0 0 0
22.51552 949.98584 0 0 0
22.52433 950.5094 0 0 0
22.53314 950.84778 0 0 0
22.54194 951.5769 0 0 0
22.55075 952.48346 0 0 0
22.55956 953.15259 0 0 0
22.56837 953.33228 0 0 0
22.57717 952.75201 0 0 0
22.58598 952.78778 0 0 0
22.59479 953.56213 0 0 0
22.60359 954.03674 0 0 0
22.61240 954.40564 0 0 0
22.62121 955.70404 0 0 0
22.63001 956.08582 0 0 0
22.63882 956.62946 0 0 0
22.64763 958.15698 0 0 0
22.65644 959.57111 0 0 0
22.66524 960.41272 0 0 0
22.67405 960.71448 0 0 0
22.68286 961.33972 0 0 0
22.69167 962.11938 0 0 0
22.70047 963.01196 0 0 0
22.70928 964.20032 0 0 0
22.71809 965.05316 0 0 0
22.72689 966.06134 0 0 0
22.73570 967.00165 0 0 0
22.74451 968.0451 0 0 0
22.75332 969.43597 0 0 0
22.76212 970.10168 0 0 0
22.77093 970.62427 0 0 0
22.77974 971.94891 0 0 0
22.78854 973.71649 0 0 0
22.79735 975.12897 0 0 0
22.80616 975.14258 0 0 0
22.81497 974.99518 0 0 0
22.82377 976.39197 0 0 0
22.83258 977.60956 0 0 0
22.84139 978.80939 0 0 0
22.85019 979.10419 0 0 0
22.85900 979.28156 0 0 0
22.86781 980.03668 0 0 0
22.87662 981.41089 0 0 0
22.88542 981.85834 0 0 0
22.89423 981.45551 0 0 0
22.90304 981.48608 0 0 0
22.91184 980.61053 0 0 0
22.92065 979.35046 0 0 0
22.92946 977.89734 0 0 0
22.93827 976.93237 0 0 0
22.94707 975.60046 0 0 0
22.95588 973.03656 0 0 0
22.96469 970.46295 0 0 0
22.97349 968.15582 0 0 0
22.98230 966.47876 0 0 0
22.99111 964.59906 0 0 0
22.99992 963.05328 0 0 0
23.00872 961.70483 0 0 0
23.01753 960.89008 0 0 0
23.02634 959.89136 0 0 0
23.03514 958.5827 0 0 0
23.04395 957.27875 0 0 0
23.05276 956.38403 0 0 0
23.06157 955.651 0 0 0
23.07037 954.45508 0 0 0
23.07918 953.75073 0 0 0
23.08799 952.92468 0 0 0
23.09679 952.06598 0 0 0
23.10560 951.224 0 0 0
23.11441 950.8302 0 0 0
23.12322 950.8573 0 0 0
23.13202 949.95502 0 0 0
23.14083 948.59583 0 0 0
23.14964 947.55615 0 0 0
23.15845 946.94141 0 0 0
23.16725 946.92047 0 0 0
23.17606 947.13623 0 0 0
23.18487 946.85852 0 0 0
23.19367 947.54095 0 0 0
23.20248 947.50842 0 0 0
23.21129 946.36792 0 0 0
23.22010 946.03735 0 0 0
23.22890 946.47668 0 0 0
23.23771 946.32886 0 0 0
23.24652 946.50427 0 0 0
23.25532 946.30878 0 0 0
23.26413 944.81274 0 0 0
23.27294 944.07745 0 0 0
23.28175 944.31366 0 0 0
23.29055 944.30444 0 0 0
23.29936 944.93622 0 0 0
23.30817 945.12036 0 0 0
23.31697 944.5863 0 0 0
23.32578 944.63373 0 0 0
23.33459 945.14551 0 0 0
23.34340 945.13324 0 0 0
23.35220 945.32782 0 0 0
23.36101 945.81604 0 0 0
23.36982 946.05487 0 0 0
23.37862 946.42639 0 0 0
23.38743 946.37018 0 0 0
23.39624 946.59381 0 0 0
23.40505 947.34875 0 0 0
23.41385 947.9552 0 0 0
23.42266 948.19 0 0 0
23.43147 948.67889 0 0 0
23.44027 949.53857 0 0 0
23.44908 950.06006 0 0 0
23.45789 950.32013 0 0 0
23.46670 950.55627 0 0 0
23.47550 950.88324 0 0 0
23.48431 951.39868 0 0 0
23.49312 952.08484 0 0 0
23.50192 952.75629 0 0 0
23.51073 953.55725 0 0 0
23.51954 954.25073 0 0 0
23.52835 955.1001 0 0 0
23.53715 955.72729 0 0 0
23.54596 956.11218 0 0 0
23.55477 956.99286 0 0 0
23.56357 957.35822 0 0 0
23.57238 956.92578 0 0 0
23.58119 956.46759 0 0 0
23.59000 955.97809 0 0 0
23.59880 956.34381 0 0 0
23.60761 957.22137 0 0 0
23.61642 956.73621 0 0 0
23.62523 955.96777 0 0 0
23.63403 956.3161 0 0 0
23.64284 956.46649 0 0 0
23.65165 955.72809 0 0 0
23.66045 955.25122 0 0 0
23.66926 954.92139 0 0 0
23.67807 954.89874 0 0 0
23.68687 954.78522 0 0 0
23.69568 954.39697 0 0 0
23.70449 953.7973 0 0 0
23.71330 952.99207 0 0 0
23.72210 952.4621 0 0 0
23.73091 952.16071 0 0 0
23.73972 952.12555 0 0 0
23.74853 952.02551 0 0 0
23.75733 952.05713 0 0 0
23.76614 952.26007 0 0 0
23.77495 951.96533 0 0 0
23.78375 951.66895 0 0 0
23.79256 951.21375 0 0 0
23.80137 950.97754 0 0 0
23.81018 950.95197 0 0 0
23.81898 950.45227 0 0 0
23.82779 950.3053 0 0 0
23.83660 950.62909 0 0 0
23.84540 950.76337 0 0 0
23.85421 949.97247 0 0 0
23.86302 949.32782 0 0 0
23.87183 949.86853 0 0 0
23.88063 950.12012 0 0 0
23.88944 949.12512 0 0 0
23.89825 948.09424 0 0 0
23.90705 948.26117 0 0 0
23.91586 948.52698 0 0 0
23.92467 948.1524 0 0 0
23.93348 948.56366 0 0 0
23.94228 948.66156 0 0 0
23.95109 947.60431 0 0 0
23.95990 947.29437 0 0 0
23.96870 947.60626 0 0 0
23.97751 947.49414 0 0 0
23.98632 947.35559 0 0 0
23.99513 947.93634 0 0 0
24.00393 948.25922 0 0 0
24.01274 948.32758 0 0 0
24.02155 948.37152 0 0 0
24.03035 948.36884 0 0 0
24.03916 948.91876 0 0 0
24.04797 949.1795 0 0 0
24.05678 949.22656 0 0 0
24.06558 949.89227 0 0 0
24.07439 950.22241 0 0 0
24.08320 950.61865 0 0 0
24.09201 951.51868 0 0 0
24.10081 952.07678 0 0 0
24.10962 951.38348 0 0 0
24.11842 950.78979 0 0 0
24.12723 951.82092 0 0 0
24.13604 953.276 0 0 0
24.14485 953.73016 0 0 0
24.15365 953.7818 0 0 0
24.16246 954.40161 0 0 0
24.17127 955.38049 0 0 0
24.18008 956.49658 0 0 0
24.18888 957.46033 0 0 0
24.19769 958.07025 0 0 0
24.20650 958.22461 0 0 0
24.21531 959.38593 0 0 0
24.22411 960.89789 0 0 0
24.23292 960.93768 0 0 0
24.24173 960.20599 0 0 0
24.25053 959.43701 0 0 0
24.25934 959.74207 0 0 0
24.26815 959.64087 0 0 0
24.27696 959.04437 0 0 0
24.28576 959.35394 0 0 0
24.29457 959.68127 0 0 0
24.30338 958.98828 0 0 0
24.31218 958.26117 0 0 0
24.32099 957.4964 0 0 0
24.32980 956.58765 0 0 0
24.33861 957.27502 0 0 0
24.34741 958.284 0 0 0
24.35622 957.54834 0 0 0
24.36503 955.99097 0 0 0
24.37383 955.78113 0 0 0
24.38264 956.25458 0 0 0
24.39145 956.88483 0 0 0
24.40026 956.67712 0 0 0
24.40906 956.49335 0 0 0
24.41787 956.56653 0 0 0
24.42668 956.25073 0 0 0
24.43548 956.47876 0 0 0
24.44429 957.25568 0 0 0
24.45310 957.96832 0 0 0
24.46191 958.34155 0 0 0
24.47071 958.65796 0 0 0
24.47952 959.79047 0 0 0
24.48833 960.91876 0 0 0
24.49713 961.8717 0 0 0
24.50594 962.66852 0 0 0
24.51475 963.56805 0 0 0
24.52356 965.18903 0 0 0
24.53236 967.06543 0 0 0
24.54117 967.20087 0 0 0
24.54998 966.78296 0 0 0
24.55878 968.13672 0 0 0
24.56759 969.40839 0 0 0
24.57640 970.87372 0 0 0
24.58520 971.45813 0 0 0
24.59401 971.07025 0 0 0
24.60282 971.48138 0 0 0
24.61163 972.85394 0 0 0
24.62043 973.2959 0 0 0
24.62924 973.58655 0 0 0
24.63805 973.37018 0 0 0
24.64686 971.82941 0 0 0
24.65566 971.09711 0 0 0
24.66447 970.86633 0 0 0
24.67328 971.00238 0 0 0
24.68209 970.41876 0 0 0
24.69089 969.685 0 0 0
24.69970 968.59772 0 0 0
24.70851 967.16534 0 0 0
24.71731 966.10498 0 0 0
24.72612 966.28333 0 0 0
24.73493 966.17834 0 0 0
24.74373 964.67145 0 0 0
24.75254 963.63 0 0 0
24.76135 961.56342 0 0 0
24.77016 959.85211 0 0 0
24.77896 958.26404 0 0 0
24.78777 957.11871 0 0 0
24.79658 957.09277 0 0 0
24.80539 956.49585 0 0 0
24.81419 955.27441 0 0 0
24.82300 954.729 0 0 0
24.83181 953.9422 0 0 0
24.84061 953.93726 0 0 0
24.84942 954.26868 0 0 0
24.85823 954.18384 0 0 0
24.86704 954.64728 0 0 0
24.87584 954.38989 0 0 0
24.88465 954.95178 0 0 0
24.89346 955.71448 0 0 0
24.90226 955.62805 0 0 0
24.91107 955.90393 0 0 0
24.91988 956.51056 0 0 0
24.92869 956.46008 0 0 0
24.93749 956.85126 0 0 0
24.94630 957.34583 0 0 0
24.95511 957.29956 0 0 0
24.96392 957.06689 0 0 0
24.97272 957.21222 0 0 0
24.98153 957.97888 0 0 0
24.99034 958.42291 0 0 0
24.99914 959.53748 0 0 0
25.00795 959.86652 0 0 0
25.01676 960.1297 0 0 0
25.02556 960.63477 0 0 0
25.03437 961.03302 0 0 0
25.04318 960.66626 0 0 0
25.05198 960.56293 0 0 0
25.06079 959.836 0 0 0
25.06960 958.14313 0 0 0
25.07841 956.94427 0 0 0
25.08721 956.14423 0 0 0
25.09602 954.95795 0 0 0
25.10483 953.73846 0 0 0
25.11364 952.93726 0 0 0
25.12244 950.94244 0 0 0
25.13125 950.75275 0 0 0
25.14006 949.61664 0 0 0
25.14887 947.18408 0 0 0
25.15767 946.42798 0 0 0
25.16648 945.86285 0 0 0
25.17528 944.45398 0 0 0
25.18409 942.57666 0 0 0
25.19290 941.23462 0 0 0
25.20171 940.85449 0 0 0
25.21051 940.57086 0 0 0
25.21932 939.85901 0 0 0
25.22813 939.10822 0 0 0
25.23694 938.35223 0 0 0
25.24574 938.03333 0 0 0
25.25455 937.17712 0 0 0
25.26336 936.79724 0 0 0
25.27217 936.25391 0 0 0
25.28097 935.26202 0 0 0
25.28978 934.85272 0 0 0
25.29859 935.18677 0 0 0
25.30739 935.94965 0 0 0
25.31620 936.41638 0 0 0
25.32501 936.09894 0 0 0
25.33382 936.25458 0 0 0
25.34262 936.63074 0 0 0
25.35143 936.87469 0 0 0
25.36024 938.19775 0 0 0
25.36904 937.68634 0 0 0
25.37785 936.65784 0 0 0
25.38666 937.0957 0 0 0
25.39547 937.04425 0 0 0
25.40427 937.43134 0 0 0
25.41308 938.82135 0 0 0
25.42189 939.41925 0 0 0
25.43070 939.56781 0 0 0
25.43950 940.09125 0 0 0
25.44831 940.63507 0 0 0
25.45712 941.47302 0 0 0
25.46592 940.92664 0 0 0
25.47473 941.31378 0 0 0
25.48354 942.56323 0 0 0
25.49234 942.97479 0 0 0
25.50115 941.82916 0 0 0
25.50996 940.56604 0 0 0
25.51876 940.50385 0 0 0
25.52757 940.04065 0 0 0
25.53638 939.77582 0 0 0
25.54519 940.02271 0 0 0
25.55399 940.41223 0 0 0
25.56280 940.52832 0 0 0
25.57161 940.64758 0 0 0
25.58042 940.10602 0 0 0
25.58922 939.32037 0 0 0
25.59803 938.18311 0 0 0
25.60684 937.54108 0 0 0
25.61564 937.80298 0 0 0
25.62445 936.98547 0 0 0
25.63326 936.33441 0 0 0
25.64206 935.78381 0 0 0
25.65087 934.53986 0 0 0
25.65968 933.56482 0 0 0
25.66849 933.29584 0 0 0
25.67729 932.94757 0 0 0
25.68610 932.32062 0 0 0
25.69491 931.56262 0 0 0
25.70372 930.81476 0 0 0
25.71252 930.55859 0 0 0
25.72133 930.69739 0 0 0
25.73014 931.3042 0 0 0
25.73895 930.56476 0 0 0
25.74775 929.40558 0 0 0
25.75656 929.1947 0 0 0
25.76537 929.75043 0 0 0
25.77417 929.62744 0 0 0
25.78298 929.56934 0 0 0
25.79179 930.39478 0 0 0
25.80059 930.68695 0 0 0
25.80940 930.42871 0 0 0
25.81821 930.27887 0 0 0
25.82702 930.51935 0 0 0
25.83582 930.65625 0 0 0
25.84463 930.52313 0 0 0
25.85344 930.65466 0 0 0
25.86225 932.31036 0 0 0
25.87105 933.97253 0 0 0
25.87986 934.1922 0 0 0
25.88867 934.14233 0 0 0
25.89747 934.17334 0 0 0
25.90628 934.20593 0 0 0
25.91509 935.01471 0 0 0
25.92390 936.59662 0 0 0
25.93270 937.25421 0 0 0
25.94151 936.78259 0 0 0
25.95032 937.66241 0 0 0
25.95912 938.37042 0 0 0
25.96793 937.91614 0 0 0
25.97674 938.15137 0 0 0
25.98555 939.30701 0 0 0
25.99435 940.40424 0 0 0
26.00316 939.54901 0 0 0
26.01197 939.07104 0 0 0
26.02078 939.3855 0 0 0
26.02958 939.62408 0 0 0
26.03839 939.30139 0 0 0
26.04719 938.43903 0 0 0
26.05600 937.59656 0 0 0
26.06481 937.22217 0 0 0
26.07362 937.16077 0 0 0
26.08242 935.98279 0 0 0
26.09123 934.14795 0 0 0
26.10004 933.1615 0 0 0
26.10884 931.88348 0 0 0
26.11765 930.64203 0 0 0
26.12646 930.04358 0 0 0
26.13527 929.05005 0 0 0
26.14407 927.61841 0 0 0
26.15288 925.94293 0 0 0
26.16169 925.48126 0 0 0
26.17050 925.16174 0 0 0
26.17930 924.14478 0 0 0
26.18811 922.98627 0 0 0
26.19692 922.63422 0 0 0
26.20573 923.06927 0 0 0
26.21453 922.8902 0 0 0
26.22334 923.04913 0 0 0
26.23214 922.90381 0 0 0
26.24095 921.97101 0 0 0
26.24976 921.8205 0 0 0
26.25857 921.88428 0 0 0
26.26737 921.66595 0 0 0
26.27618 921.67572 0 0 0
26.28499 921.62946 0 0 0
26.29380 921.77722 0 0 0
26.30260 921.54187 0 0 0
26.31141 920.34113 0 0 0
26.32022 919.90228 0 0 0
26.32903 920.86981 0 0 0
26.33783 921.75269 0 0 0
26.34664 921.5459 0 0 0
26.35545 921.51361 0 0 0
26.36425 921.39502 0 0 0
26.37306 921.62787 0 0 0
26.38187 922.58307 0 0 0
26.39068 923.07318 0 0 0
26.39948 922.10309 0 0 0
26.40829 921.59296 0 0 0
26.41710 921.75635 0 0 0
26.42590 921.53448 0 0 0
26.43471 921.83136 0 0 0
26.44352 922.6803 0 0 0
26.45233 922.90363 0 0 0
26.46113 922.53644 0 0 0
26.46994 921.87701 0 0 0
26.47875 921.22046 0 0 0
26.48756 921.35565 0 0 0
26.49636 921.42761 0 0 0
26.50517 921.39185 0 0 0
26.51397 921.05859 0 0 0
26.52278 920.31201 0 0 0
26.53159 920.3609 0 0 0
26.54040 920.74866 0 0 0
26.54920 920.7525 0 0 0
26.55801 919.95013 0 0 0
26.56682 919.7951 0 0 0
26.57563 920.81958 0 0 0
26.58443 920.27301 0 0 0
26.59324 918.86603 0 0 0
26.60205 919.03607 0 0 0
26.61085 919.20087 0 0 0
26.61966 917.85986 0 0 0
26.62847 917.67218 0 0 0
26.63728 919.16437 0 0 0
26.64608 919.44391 0 0 0
26.65489 918.63928 0 0 0
26.66370 918.58496 0 0 0
26.67250 919.26776 0 0 0
26.68131 919.34326 0 0 0
26.69012 919.23395 0 0 0
26.69892 919.37775 0 0 0
26.70773 920.03455 0 0 0
26.71654 920.23865 0 0 0
26.72535 920.91968 0 0 0
26.73415 921.72778 0 0 0
26.74296 921.46625 0 0 0
26.75177 921.68298 0 0 0
26.76058 922.18176 0 0 0
26.76938 921.95337 0 0 0
26.77819 921.85779 0 0 0
26.78700 922.60297 0 0 0
26.79581 922.96014 0 0 0
26.80461 922.26123 0 0 0
26.81342 922.36243 0 0 0
26.82223 922.19244 0 0 0
26.83103 921.28876 0 0 0
26.83984 921.0957 0 0 0
26.84865 920.87628 0 0 0
26.85745 921.07727 0 0 0
26.86626 922.35486 0 0 0
26.87507 922.742 0 0 0
26.88388 921.47791 0 0 0
26.89268 921.03003 0 0 0
26.90149 920.76044 0 0 0
26.91030 920.3844 0 0 0
26.91911 920.96967 0 0 0
26.92791 921.44678 0 0 0
26.93672 921.54724 0 0 0
26.94553 921.05322 0 0 0
26.95433 920.50189 0 0 0
26.96314 920.52051 0 0 0
26.97195 920.59924 0 0 0
26.98075 920.7218 0 0 0
26.98956 920.84564 0 0 0
26.99837 920.58466 0 0 0
27.00718 919.84503 0 0 0
27.01598 919.62329 0 0 0
27.02479 919.58844 0 0 0
27.03360 919.57507 0 0 0
27.04241 919.33984 0 0 0
27.05121 919.0719 0 0 0
27.06002 919.39923 0 0 0
27.06883 919.82727 0 0 0
27.07764 920.04242 0 0 0
27.08644 920.14038 0 0 0
27.09525 920.14606 0 0 0
27.10405 919.5871 0 0 0
27.11286 918.04028 0 0 0
27.12167 917.4649 0 0 0
27.13048 917.65173 0 0 0
27.13928 916.63708 0 0 0
27.14809 915.83337 0 0 0
27.15690 914.46692 0 0 0
27.16570 913.58484 0 0 0
27.17451 913.27673 0 0 0
27.18332 912.633 0 0 0
27.19213 912.35077 0 0 0
27.20093 912.06396 0 0 0
27.20974 911.67841 0 0 0
27.21855 911.33069 0 0 0
27.22736 911.39075 0 0 0
27.23616 910.1618 0 0 0
27.24497 909.41254 0 0 0
27.25378 909.61548 0 0 0
27.26259 909.72894 0 0 0
27.27139 909.72552 0 0 0
27.28020 909.90814 0 0 0
27.28900 909.47302 0 0 0
27.29781 909.59247 0 0 0
27.30662 910.6795 0 0 0
27.31543 910.28894 0 0 0
27.32423 909.56506 0 0 0
27.33304 909.45911 0 0 0
27.34185 909.96198 0 0 0
27.35066 910.39868 0 0 0
27.35946 911.11261 0 0 0
27.36827 911.20996 0 0 0
27.37708 910.36951 0 0 0
27.38588 910.15759 0 0 0
27.39469 910.11108 0 0 0
27.40350 909.19672 0 0 0
27.41231 909.1026 0 0 0
27.42111 909.39612 0 0 0
27.42992 909.66962 0 0 0
27.43873 909.73151 0 0 0
27.44753 909.56781 0 0 0
27.45634 909.44781 0 0 0
27.46515 909.46375 0 0 0
27.47396 909.0686 0 0 0
27.48276 907.71088 0 0 0
27.49157 907.81158 0 0 0
27.50038 909.02185 0 0 0
27.50919 909.28296 0 0 0
27.51799 909.13409 0 0 0
27.52680 909.75623 0 0 0
27.53561 909.68719 0 0 0
27.54442 908.62195 0 0 0
27.55322 907.76447 0 0 0
27.56203 906.55652 0 0 0
27.57083 905.7981 0 0 0
27.57964 906.59052 0 0 0
27.58845 907.19647 0 0 0
27.59726 907.17377 0 0 0
27.60606 907.63428 0 0 0
27.61487 907.31183 0 0 0
27.62368 906.4646 0 0 0
27.63249 906.87915 0 0 0
27.64129 907.34943 0 0 0
27.65010 907.28168 0 0 0
27.65891 907.96417 0 0 0
27.66771 908.30414 0 0 0
27.67652 908.07001 0 0 0
27.68533 908.55933 0 0 0
27.69414 909.59381 0 0 0
27.70294 909.25867 0 0 0
27.71175 908.2962 0 0 0
27.72056 908.47424 0 0 0
27.72936 908.53455 0 0 0
27.73817 907.50409 0 0 0
27.74698 907.26428 0 0 0
27.75578 907.91718 0 0 0
27.76459 907.31232 0 0 0
27.77340 906.89722 0 0 0
27.78221 907.21558 0 0 0
27.79101 906.81006 0 0 0
27.79982 906.40363 0 0 0
27.80863 906.72235 0 0 0
27.81744 907.19025 0 0 0
27.82624 907.99078 0 0 0
27.83505 907.98175 0 0 0
27.84386 907.83569 0 0 0
27.85266 907.51105 0 0 0
27.86147 907.1062 0 0 0
27.87028 908.16693 0 0 0
27.87909 909.15326 0 0 0
27.88789 909.53955 0 0 0
27.89670 909.94995 0 0 0
27.90551 909.67426 0 0 0
27.91431 909.91681 0 0 0
27.92312 910.1424 0 0 0
27.93193 909.60065 0 0 0
27.94074 909.80341 0 0 0
27.94954 910.49017 0 0 0
27.95835 911.19586 0 0 0
27.96716 910.25464 0 0 0
27.97596 909.5033 0 0 0
27.98477 909.81201 0 0 0
27.99358 911.08813 0 0 0
28.00239 912.67175 0 0 0
28.01119 912.98187 0 0 0
28.02000 912.10938 0 0 0
28.02881 911.74432 0 0 0
28.03761 912.87122 0 0 0
28.04642 912.17664 0 0 0
28.05523 910.47772 0 0 0
28.06404 910.36798 0 0 0
28.07284 909.34216 0 0 0
28.08165 909.13989 0 0 0
28.09046 909.64526 0 0 0
28.09927 909.71832 0 0 0
28.10807 909.95166 0 0 0
28.11688 908.47998 0 0 0
28.12569 908.00482 0 0 0
28.13450 907.51343 0 0 0
28.14330 906.19885 0 0 0
28.15211 905.88574 0 0 0
28.16091 905.51788 0 0 0
28.16972 904.75067 0 0 0
28.17853 905.33374 0 0 0
28.18734 905.80695 0 0 0
28.19614 904.23071 0 0 0
28.20495 902.44916 0 0 0
28.21376 901.88556 0 0 0
28.22256 902.88568 0 0 0
28.23137 903.10406 0 0 0
28.24018 902.05951 0 0 0
28.24899 901.24512 0 0 0
28.25779 901.07898 0 0 0
28.26660 901.84393 0 0 0
28.27541 901.55176 0 0 0
28.28422 901.16809 0 0 0
28.29302 901.0965 0 0 0
28.30183 900.78479 0 0 0
28.31064 899.96912 0 0 0
28.31945 899.02814 0 0 0
28.32825 898.67535 0 0 0
28.33706 898.47546 0 0 0
28.34586 896.87158 0 0 0
28.35467 881.56995 0 0 0
28.36348 874.52008 0 0 0
28.37229 882.47882 0 0 0
28.38109 885.83136 0 0 0
28.38990 888.20349 0 0 0
28.39871 888.92236 0 0 0
28.40752 888.18341 0 0 0
28.41632 888.39984 0 0 0
28.42513 889.74524 0 0 0
28.43394 890.67859 0 0 0
28.44274 892.16693 0 0 0
28.45155 892.78192 0 0 0
28.46036 891.47162 0 0 0
28.46917 891.71619 0 0 0
28.47797 893.95587 0 0 0
28.48678 895.40887 0 0 0
28.49559 895.44348 0 0 0
28.50439 895.14276 0 0 0
28.51320 895.29639 0 0 0
28.52201 895.37634 0 0 0
28.53082 895.09937 0 0 0
28.53962 894.46979 0 0 0
28.54843 893.31909 0 0 0
28.55724 893.96661 0 0 0
28.56605 895.90247 0 0 0
28.57485 895.87238 0 0 0
28.58366 895.26117 0 0 0
28.59247 894.82092 0 0 0
28.60127 895.42493 0 0 0
28.61008 897.22919 0 0 0
28.61889 896.89331 0 0 0
28.62769 895.86328 0 0 0
28.63650 896.18445 0 0 0
28.64531 896.53406 0 0 0
28.65412 896.2428 0 0 0
28.66292 896.50769 0 0 0
28.67173 897.383 0 0 0
28.68054 897.76227 0 0 0
28.68935 897.90369 0 0 0
28.69815 898.24194 0 0 0
28.70696 898.79846 0 0 0
28.71577 898.56354 0 0 0
28.72458 897.25183 0 0 0
28.73338 896.59082 0 0 0
28.74219 896.2052 0 0 0
28.75100 896.56897 0 0 0
28.75980 897.7337 0 0 0
28.76861 897.32922 0 0 0
28.77742 896.77167 0 0 0
28.78622 896.05212 0 0 0
28.79503 895.83966 0 0 0
28.80384 895.76721 0 0 0
28.81264 895.19727 0 0 0
28.82145 895.3866 0 0 0
28.83026 895.0733 0 0 0
28.83907 893.93713 0 0 0
28.84787 892.48114 0 0 0
28.85668 892.54791 0 0 0
28.86549 893.23621 0 0 0
28.87430 893.10327 0 0 0
28.88310 892.97687 0 0 0
28.89191 892.56042 0 0 0
28.90072 893.32349 0 0 0
28.90952 893.30823 0 0 0
28.91833 891.49359 0 0 0
28.92714 890.85205 0 0 0
28.93595 891.20459 0 0 0
28.94475 891.42114 0 0 0
28.95356 891.08093 0 0 0
28.96237 890.14612 0 0 0
28.97117 889.42694 0 0 0
28.97998 889.71246 0 0 0
28.98879 890.58514 0 0 0
28.99760 891.37384 0 0 0
29.00640 890.60889 0 0 0
29.01521 890.31812 0 0 0
29.02402 891.78839 0 0 0
29.03282 891.58142 0 0 0
29.04163 890.9198 0 0 0
29.05044 890.55939 0 0 0
29.05925 890.10437 0 0 0
29.06805 889.56738 0 0 0
29.07686 888.56702 0 0 0
29.08567 889.14923 0 0 0
29.09447 888.4928 0 0 0
29.10328 886.54108 0 0 0
29.11209 886.97119 0 0 0
29.12090 888.48438 0 0 0
29.12970 889.20581 0 0 0
29.13851 887.97687 0 0 0
29.14732 886.97406 0 0 0
29.15613 887.26129 0 0 0
29.16493 889.06348 0 0 0
29.17374 889.62341 0 0 0
29.18255 889.35852 0 0 0
29.19136 888.84601 0 0 0
29.20016 887.83142 0 0 0
29.20897 886.67535 0 0 0
29.21777 886.35162 0 0 0
29.22658 886.76031 0 0 0
29.23539 887.14252 0 0 0
29.24420 887.87 0 0 0
29.25300 887.71045 0 0 0
29.26181 888.20605 0 0 0
29.27062 888.7832 0 0 0
29.27942 887.87274 0 0 0
29.28823 887.52301 0 0 0
29.29704 887.23975 0 0 0
29.30585 886.87872 0 0 0
29.31465 886.25818 0 0 0
29.32346 885.55603 0 0 0
29.33227 886.81812 0 0 0
29.34108 887.23883 0 0 0
29.34988 885.31812 0 0 0
29.35869 885.88257 0 0 0
29.36750 887.93188 0 0 0
29.37630 886.95892 0 0 0
29.38511 886.75726 0 0 0
29.39392 887.70056 0 0 0
29.40273 886.86603 0 0 0
29.41153 886.97906 0 0 0
29.42034 887.84161 0 0 0
29.42915 886.01233 0 0 0
29.43795 885.64795 0 0 0
29.44676 886.92529 0 0 0
29.45557 885.00439 0 0 0
29.46438 884.02045 0 0 0
29.47318 884.26715 0 0 0
29.48199 883.44067 0 0 0
29.49080 884.35852 0 0 0
29.49960 886.96527 0 0 0
29.50841 887.86658 0 0 0
29.51722 886.75562 0 0 0
29.52603 886.39447 0 0 0
29.53483 886.27667 0 0 0
29.54364 886.24573 0 0 0
29.55245 886.85803 0 0 0
29.56125 887.93506 0 0 0
29.57006 889.56738 0 0 0
29.57887 889.89502 0 0 0
29.58768 889.15863 0 0 0
29.59648 888.74048 0 0 0
29.60529 887.68988 0 0 0
29.61410 887.71143 0 0 0
29.62291 887.74622 0 0 0
29.63171 888.28375 0 0 0
29.64052 889.76563 0 0 0
29.64933 889.11749 0 0 0
29.65813 887.64746 0 0 0
29.66694 888.42725 0 0 0
29.67575 890.1579 0 0 0
29.68455 891.59027 0 0 0
29.69336 898.14172 0 0 0
29.70217 921.8894 0 0 0
29.71098 964.01678 0 0 0
29.71978 1022.2383 0 0 0
29.72859 1051.2562 0 0 0
29.73740 1056.0531 0 0 0
29.74621 1048.0508 0 0 0
29.75501 1013.9297 0 0 0
29.76382 970.00378 0 0 0
29.77263 941.96234 0 0 0
29.78143 920.85785 0 0 0
29.79024 908.89789 0 0 0
29.79905 902.77618 0 0 0
29.80786 899.92712 0 0 0
29.81666 898.93292 0 0 0
29.82547 897.93756 0 0 0
29.83428 896.24512 0 0 0
29.84308 895.30273 0 0 0
29.85189 897.01099 0 0 0
29.86070 899.22125 0 0 0
29.86951 898.14661 0 0 0
29.87831 895.65747 0 0 0
29.88712 896.50568 0 0 0
29.89593 896.21429 0 0 0
29.90473 895.80212 0 0 0
29.91354 895.44464 0 0 0
29.92235 897.09247 0 0 0
29.93116 897.65338 0 0 0
29.93996 896.07306 0 0 0
29.94877 896.35291 0 0 0
29.95758 895.77118 0 0 0
29.96638 896.15936 0 0 0
29.97519 895.55566 0 0 0
29.98400 891.80273 0 0 0
29.99281 891.96716 0 0 0
30.00161 893.32782 0 0 0
30.01042 891.69055 0 0 0
30.01923 890.27277 0 0 0
30.02803 889.97107 0 0 0
30.03684 889.99292 0 0 0
30.04565 889.60681 0 0 0
30.05446 890.14862 0 0 0
30.06326 890.76215 0 0 0
30.07207 888.30945 0 0 0
30.08088 888.12036 0 0 0
30.08968 891.12018 0 0 0
30.09849 891.44818 0 0 0
30.10730 891.37909 0 0 0
30.11611 890.28357 0 0 0
30.12491 889.70306 0 0 0
30.13372 891.35193 0 0 0
30.14253 890.71838 0 0 0
30.15133 890.14771 0 0 0
30.16014 890.05505 0 0 0
30.16895 890.22888 0 0 0
30.17776 890.86279 0 0 0
30.18656 890.36847 0 0 0
30.19537 891.3739 0 0 0
30.20418 892.04163 0 0 0
30.21299 890.52039 0 0 0
30.22179 889.22266 0 0 0
30.23060 889.46533 0 0 0
30.23941 890.64362 0 0 0
30.24821 891.74689 0 0 0
30.25702 893.13281 0 0 0
30.26583 894.36169 0 0 0
30.27463 894.04016 0 0 0
30.28344 894.87225 0 0 0
30.29225 895.54724 0 0 0
30.30106 893.88519 0 0 0
30.30986 895.3938 0 0 0
30.31867 895.87372 0 0 0
30.32748 893.92627 0 0 0
30.33629 893.8067 0 0 0
30.34509 896.09052 0 0 0
30.35390 896.71869 0 0 0
30.36271 894.78766 0 0 0
30.37151 893.68042 0 0 0
30.38032 896.20978 0 0 0
30.38913 898.33276 0 0 0
30.39794 896.80762 0 0 0
30.40674 894.39038 0 0 0
30.41555 894.38306 0 0 0
30.42436 895.23572 0 0 0
30.43316 895.98706 0 0 0
30.44197 897.15045 0 0 0
30.45078 897.25854 0 0 0
30.45959 895.60205 0 0 0
30.46839 892.53577 0 0 0
30.47720 893.07721 0 0 0
30.48601 894.95496 0 0 0
30.49481 895.16095 0 0 0
30.50362 892.97632 0 0 0
30.51243 892.41077 0 0 0
30.52124 891.54132 0 0 0
30.53004 892.5918 0 0 0
30.53885 893.84802 0 0 0
30.54766 893.12616 0 0 0
30.55646 892.27405 0 0 0
30.56527 891.24738 0 0 0
30.57408 892.42542 0 0 0
30.58289 895.24634 0 0 0
30.59169 895.50244 0 0 0
30.60050 894.39148 0 0 0
30.60931 895.448 0 0 0
30.61811 893.78064 0 0 0
30.62692 892.75623 0 0 0
30.63573 892.78027 0 0 0
30.64454 893.67371 0 0 0
30.65334 894.60303 0 0 0
30.66215 893.43286 0 0 0
30.67096 894.54865 0 0 0
30.67977 895.15741 0 0 0
30.68857 894.42468 0 0 0
30.69738 894.31531 0 0 0
30.70619 896.12213 0 0 0
30.71499 896.27087 0 0 0
30.72380 896.07233 0 0 0
30.73261 894.15955 0 0 0
30.74141 891.47827 0 0 0
30.75022 892.06537 0 0 0
30.75903 892.86542 0 0 0
30.76784 894.86334 0 0 0
30.77664 895.06384 0 0 0
30.78545 893.47235 0 0 0
30.79426 893.37097 0 0 0
30.80307 892.34003 0 0 0
30.81187 892.81238 0 0 0
30.82068 893.47388 0 0 0
30.82949 893.46368 0 0 0
30.83829 892.73993 0 0 0
30.84710 889.0921 0 0 0
30.85591 887.62665 0 0 0
30.86472 888.79846 0 0 0
30.87352 888.61847 0 0 0
30.88233 890.45203 0 0 0
30.89114 892.08002 0 0 0
30.89994 890.43176 0 0 0
30.90875 887.82068 0 0 0
30.91756 888.38983 0 0 0
30.92637 887.65363 0 0 0
30.93517 885.9635 0 0 0
30.94398 886.95282 0 0 0
30.95279 885.68994 0 0 0
30.96159 884.94049 0 0 0
30.97040 885.2948 0 0 0
30.97921 883.03241 0 0 0
30.98802 882.39642 0 0 0
30.99682 883.1217 0 0 0
31.00563 882.80255 0 0 0
31.01444 882.17877 0 0 0
31.02324 881.77728 0 0 0
31.03205 882.69147 0 0 0
31.04086 882.74866 0 0 0
31.04967 881.6026 0 0 0
31.05847 881.22559 0 0 0
31.06728 880.90637 0 0 0
31.07609 879.88397 0 0 0
31.08489 878.61365 0 0 0
31.09370 877.78857 0 0 0
31.10251 877.21021 0 0 0
31.11132 876.72931 0 0 0
31.12012 875.71436 0 0 0
31.12893 875.83514 0 0 0
31.13774 877.04987 0 0 0
31.14654 875.92603 0 0 0
31.15535 873.30927 0 0 0
31.16416 871.3786 0 0 0
31.17297 872.55914 0 0 0
31.18177 872.99469 0 0 0
31.19058 873.16638 0 0 0
31.19939 875.54651 0 0 0
31.20819 876.6803 0 0 0
31.21700 874.96271 0 0 0
31.22581 873.27704 0 0 0
31.23462 872.19873 0 0 0
31.24342 871.52667 0 0 0
31.25223 871.86621 0 0 0
31.26104 871.17535 0 0 0
31.26985 868.96436 0 0 0
31.27865 869.38226 0 0 0
31.28746 871.61938 0 0 0
31.29627 872.99438 0 0 0
31.30507 873.87396 0 0 0
31.31388 870.89276 0 0 0
31.32269 869.56268 0 0 0
31.33150 871.84338 0 0 0
31.34030 875.18634 0 0 0
31.34911 874.83191 0 0 0
31.35792 873.3111 0 0 0
31.36672 872.52142 0 0 0
31.37553 873.50378 0 0 0
31.38434 873.23779 0 0 0
31.39315 872.59583 0 0 0
31.40195 872.78027 0 0 0
31.41076 872.13721 0 0 0
31.41957 872.66553 0 0 0
31.42837 872.17743 0 0 0
31.43718 871.04742 0 0 0
31.44599 871.72339 0 0 0
31.45480 873.59241 0 0 0
31.46360 873.97168 0 0 0
31.47241 871.33197 0 0 0
31.48122 869.46814 0 0 0
31.49002 870.18427 0 0 0
31.49883 870.0116 0 0 0
31.50764 870.68488 0 0 0
31.51645 869.84686 0 0 0
31.52525 868.5769 0 0 0
31.53406 868.16876 0 0 0
31.54287 866.57977 0 0 0
31.55167 866.86365 0 0 0
31.56048 868.04547 0 0 0
31.56929 867.45526 0 0 0
31.57810 867.33093 0 0 0
31.58690 866.82245 0 0 0
31.59571 864.83722 0 0 0
31.60452 864.46973 0 0 0
31.61332 867.23511 0 0 0
31.62213 867.97412 0 0 0
31.63094 866.65137 0 0 0
31.63975 864.98022 0 0 0
31.64855 864.93134 0 0 0
31.65736 866.09576 0 0 0
31.66617 868.06909 0 0 0
31.67497 870.09827 0 0 0
31.68378 864.84283 0 0 0
31.69259 861.16553 0 0 0
31.70140 861.04163 0 0 0
31.71020 859.41669 0 0 0
31.71901 860.76147 0 0 0
31.72782 859.38666 0 0 0
31.73663 858.65436 0 0 0
31.74543 860.61871 0 0 0
31.75424 859.55511 0 0 0
31.76305 859.43036 0 0 0
31.77185 859.6969 0 0 0
31.78066 861.68115 0 0 0
31.78947 860.18921 0 0 0
31.79828 856.76746 0 0 0
31.80708 856.03986 0 0 0
31.81589 858.07794 0 0 0
31.82470 859.59863 0 0 0
31.83350 857.92102 0 0 0
31.84231 856.2121 0 0 0
31.85112 856.32361 0 0 0
31.85993 858.45117 0 0 0
31.86873 858.58044 0 0 0
31.87754 855.09595 0 0 0
31.88635 854.91547 0 0 0
31.89515 856.03687 0 0 0
31.90396 858.21338 0 0 0
31.91277 853.02448 0 0 0
31.92158 848.37231 0 0 0
31.93038 851.8031 0 0 0
31.93919 854.35333 0 0 0
31.94800 852.70654 0 0 0
31.95680 854.047 0 0 0
31.96561 856.40961 0 0 0
31.97442 853.97992 0 0 0
31.98323 848.59705 0 0 0
31.99203 846.92731 0 0 0
32.00084 850.68622 0 0 0
32.00965 851.34247 0 0 0
32.01846 850.45612 0 0 0
32.02726 851.13367 0 0 0
32.03607 853.15247 0 0 0
32.04488 852.30884 0 0 0
32.05368 848.3028 0 0 0
32.06249 847.80005 0 0 0
32.07130 850.27197 0 0 0
32.08011 852.83801 0 0 0
32.08891 851.70947 0 0 0
32.09772 848.85004 0 0 0
32.10652 844.60358 0 0 0
32.11533 842.23187 0 0 0
32.12414 843.25665 0 0 0
32.13295 840.30981 0 0 0
32.14175 838.63934 0 0 0
32.15056 843.35864 0 0 0
32.15937 843.2287 0 0 0
32.16817 837.82825 0 0 0
32.17698 837.26599 0 0 0
32.18579 839.18665 0 0 0
32.19460 838.29138 0 0 0
32.20340 837.39111 0 0 0
32.21221 838.70404 0 0 0
32.22102 840.4809 0 0 0
32.22983 840.30377 0 0 0
32.23863 838.47144 0 0 0
32.24744 834.2525 0 0 0
32.25625 835.57819 0 0 0
32.26506 837.45831 0 0 0
32.27386 837.31659 0 0 0
32.28267 839.41461 0 0 0
32.29148 838.74573 0 0 0
32.30029 834.36743 0 0 0
32.30909 828.4809 0 0 0
32.31790 827.70319 0 0 0
32.32671 831.03693 0 0 0
32.33551 831.02252 0 0 0
32.34432 831.09833 0 0 0
32.35313 833.96588 0 0 0
32.36194 839.49219 0 0 0
32.37074 836.11157 0 0 0
32.37955 832.94 0 0 0
32.38835 824.34357 0 0 0
32.39716 824.14557 0 0 0
32.40597 832.05798 0 0 0
32.41478 828.66821 0 0 0
32.42358 822.45642 0 0 0
32.43239 822.11182 0 0 0
32.44120 818.87659 0 0 0
32.45000 818.36469 0 0 0
32.45881 825.11108 0 0 0
32.46762 829.21405 0 0 0
32.47643 823.35181 0 0 0
32.48523 823.96277 0 0 0
32.49404 823.78009 0 0 0
32.50285 814.95135 0 0 0
32.51165 809.3382 0 0 0
32.52046 806.10449 0 0 0
32.52927 809.8363 0 0 0
32.53808 817.20453 0 0 0
32.54688 816.20801 0 0 0
32.55569 810.98419 0 0 0
32.56450 805.48724 0 0 0
32.57331 796.36786 0 0 0
32.58211 802.87091 0 0 0
32.59092 809.82178 0 0 0
32.59973 798.33264 0 0 0
32.60854 792.79828 0 0 0
32.61734 798.69922 0 0 0
32.62615 806.31793 0 0 0
32.63496 792.96637 0 0 0
32.64376 790.48523 0 0 0
32.65257 795.67908 0 0 0
32.66138 790.16705 0 0 0
32.67018 786.8183 0 0 0
32.67899 788.47491 0 0 0
32.68780 778.08038 0 0 0
32.69661 774.40112 0 0 0
32.70541 777.86475 0 0 0
32.71422 775.78638 0 0 0
32.72303 768.79297 0 0 0
32.73183 763.23639 0 0 0
32.74064 747.15979 0 0 0
32.74945 728.49188 0 0 0
32.75825 728.01263 0 0 0
32.76706 715.84589 0 0 0
32.77587 699.47827 0 0 0
32.78468 687.88025 0 0 0
32.79348 681.56946 0 0 0
32.80229 665.59161 0 0 0
32.81110 639.23853 0 0 0
32.81991 605.36926 0 0 0
32.82871 560.09882 0 0 0
32.83752 484.42416 0 0 0
32.84633 411.38635 0 0 0
32.85514 285.0712 0 0 0
32.86394 168.85214 0 0 0
32.87275 163.18823 0 0 0
32.88156 163.75999 0 0 0
32.89037 161.43834 0 0 0
32.89917 165.9814 0 0 0
32.90798 168.05823 0 0 0
32.91679 164.58478 0 0 0
32.92559 168.07816 0 0 0
32.93440 171.99319 0 0 0
32.94321 169.98088 0 0 0
32.95202 172.15273 0 0 0
32.96082 175.77895 0 0 0
32.96963 180.00204 0 0 0
32.97844 182.1237 0 0 0
32.98724 181.57153 0 0 0
32.99605 180.77713 0 0 0
33.00486 180.60631 0 0 0
33.01366 168.23518 0 0 0
33.02247 157.93918 0 0 0
33.03128 160.50314 0 0 0
33.04008 164.44783 0 0 0
33.04889 170.1407 0 0 0
33.05770 181.74687 0 0 0
33.06650 182.91818 0 0 0
33.07531 173.86655 0 0 0
33.08412 166.29646 0 0 0
33.09293 166.95773 0 0 0
33.10173 170.71664 0 0 0
33.11054 173.88702 0 0 0
33.11935 177.41194 0 0 0
33.12816 185.3362 0 0 0
33.13696 188.95891 0 0 0
33.14577 190.21957 0 0 0
33.15458 186.77908 0 0 0
33.16339 175.45105 0 0 0
33.17219 168.23595 0 0 0
33.18100 157.69128 0 0 0
33.18981 148.38179 0 0 0
33.19862 147.46983 0 0 0
33.20742 160.69008 0 0 0
33.21623 169.54111 0 0 0
33.22504 168.14156 0 0 0
33.23385 170.58823 0 0 0
33.24265 177.90756 0 0 0
33.25146 179.90552 0 0 0
33.26026 176.57323 0 0 0
33.26907 172.26933 0 0 0
33.27788 170.78033 0 0 0
33.28669 171.73766 0 0 0
33.29549 183.2171 0 0 0
33.30430 193.33809 0 0 0
33.31311 182.759 0 0 0
33.32191 164.2 0 0 0
33.33072 163.99629 0 0 0
33.33953 175.23914 0 0 0
33.34833 171.23491 0 0 0
33.35714 162.73474 0 0 0
33.36595 165.69714 0 0 0
33.37476 160.37834 0 0 0
33.38356 154.30411 0 0 0
33.39237 164.65269 0 0 0
33.40118 178.89067 0 0 0
33.40999 182.75044 0 0 0
33.41879 186.48102 0 0 0
33.42760 184.57193 0 0 0
33.43641 173.8463 0 0 0
33.44522 165.48795 0 0 0
33.45402 163.93855 0 0 0
33.46283 171.64897 0 0 0
33.47164 181.8745 0 0 0
33.48045 184.55785 0 0 0
33.48925 181.26758 0 0 0
33.49806 185.93707 0 0 0
33.50687 190.84688 0 0 0
33.51568 184.89842 0 0 0
33.52448 181.88507 0 0 0
33.53329 182.69334 0 0 0
33.54210 179.74698 0 0 0
33.55090 173.51694 0 0 0
33.55971 175.04669 0 0 0
33.56852 179.8557 0 0 0
33.57732 184.93085 0 0 0
33.58613 178.26637 0 0 0
33.59494 173.65172 0 0 0
33.60375 161.29471 0 0 0
33.61255 156.95253 0 0 0
33.62136 156.99336 0 0 0
33.63016 162.95392 0 0 0
33.63897 175.77431 0 0 0
33.64778 183.55095 0 0 0
33.65659 175.89648 0 0 0
33.66539 170.18517 0 0 0
33.67420 172.76115 0 0 0
33.68301 184.28409 0 0 0
33.69181 191.67393 0 0 0
33.70062 186.22778 0 0 0
33.70943 180.40439 0 0 0
33.71824 187.31389 0 0 0
33.72704 195.94418 0 0 0
33.73585 201.62056 0 0 0
33.74466 195.42084 0 0 0
33.75347 183.24162 0 0 0
33.76227 182.98761 0 0 0
33.77108 182.01282 0 0 0
33.77989 169.23441 0 0 0
33.78870 160.31297 0 0 0
33.79750 168.4895 0 0 0
33.80631 174.68535 0 0 0
33.81512 175.03517 0 0 0
33.82393 180.57191 0 0 0
33.83273 185.89935 0 0 0
33.84154 188.26486 0 0 0
33.85035 183.17487 0 0 0
33.85915 179.68723 0 0 0
33.86796 177.77251 0 0 0
33.87677 178.41982 0 0 0
33.88557 187.8688 0 0 0
33.89438 189.67781 0 0 0
33.90319 184.78941 0 0 0
33.91199 186.25594 0 0 0
33.92080 187.02068 0 0 0
33.92961 186.73578 0 0 0
33.93842 191.9971 0 0 0
33.94722 193.84938 0 0 0
33.95603 182.89287 0 0 0
33.96484 172.34544 0 0 0
33.97364 172.35809 0 0 0
33.98245 182.84491 0 0 0
33.99126 179.97327 0 0 0
34.00007 178.45804 0 0 0
34.00887 185.1178 0 0 0
34.01768 198.24751 0 0 0
34.02649 199.86288 0 0 0
34.03530 191.72017 0 0 0
34.04410 195.38774 0 0 0
34.05291 200.11749 0 0 0
34.06172 204.5542 0 0 0
34.07053 206.63962 0 0 0
34.07933 210.19548 0 0 0
34.08814 200.10129 0 0 0
34.09695 187.72215 0 0 0
34.10575 185.84384 0 0 0
34.11456 186.68752 0 0 0
34.12337 188.23174 0 0 0
34.13217 198.42648 0 0 0
34.14098 205.71439 0 0 0
34.14979 200.87318 0 0 0
34.15860 206.30473 0 0 0
34.16740 200.18544 0 0 0
34.17621 193.18703 0 0 0
34.18502 188.9772 0 0 0
34.19382 192.49234 0 0 0
34.20263 201.29237 0 0 0
34.21144 195.67789 0 0 0
34.22024 184.76927 0 0 0
34.22905 175.64948 0 0 0
34.23786 171.26221 0 0 0
34.24667 174.26366 0 0 0
34.25547 176.12619 0 0 0
34.26428 184.7506 0 0 0
34.27309 192.35909 0 0 0
34.28189 195.14587 0 0 0
34.29070 198.50735 0 0 0
34.29951 200.92354 0 0 0
34.30832 203.24469 0 0 0
34.31712 200.45235 0 0 0
34.32593 207.99597 0 0 0
34.33474 212.54048 0 0 0
34.34355 212.68953 0 0 0
34.35235 207.89331 0 0 0
34.36116 193.328 0 0 0
34.36997 191.53398 0 0 0
34.37878 197.63895 0 0 0
34.38758 199.09261 0 0 0
34.39639 195.32375 0 0 0
34.40520 195.97958 0 0 0
34.41401 197.26596 0 0 0
34.42281 196.55835 0 0 0
34.43162 197.63588 0 0 0
34.44043 197.87662 0 0 0
34.44923 197.12758 0 0 0
34.45804 194.17436 0 0 0
34.46685 197.22949 0 0 0
34.47566 201.84663 0 0 0
34.48446 201.03096 0 0 0
34.49327 197.21242 0 0 0
34.50207 201.97411 0 0 0
34.51088 206.19104 0 0 0
34.51969 204.65967 0 0 0
34.52850 202.00008 0 0 0
34.53730 196.88524 0 0 0
34.54611 202.92406 0 0 0
34.55492 210.47388 0 0 0
34.56372 207.47215 0 0 0
34.57253 209.35599 0 0 0
34.58134 212.60788 0 0 0
34.59015 215.73045 0 0 0
34.59895 223.2834 0 0 0
34.60776 227.32051 0 0 0
34.61657 218.05154 0 0 0
34.62538 205.01498 0 0 0
34.63418 196.05052 0 0 0
34.64299 199.30353 0 0 0
34.65180 202.5386 0 0 0
34.66060 202.26251 0 0 0
34.66941 204.52657 0 0 0
34.67822 204.34494 0 0 0
34.68703 203.63986 0 0 0
34.69583 204.18066 0 0 0
34.70464 211.93291 0 0 0
34.71345 230.13724 0 0 0
34.72226 212.08609 0 0 0
34.73106 179.78444 0 0 0
34.73987 183.35129 0 0 0
34.74868 198.7552 0 0 0
34.75748 205.9225 0 0 0
34.76629 217.04456 0 0 0
34.77510 224.20128 0 0 0
34.78390 208.30482 0 0 0
34.79271 205.5432 0 0 0
34.80152 206.23798 0 0 0
34.81033 201.2529 0 0 0
34.81913 213.5457 0 0 0
34.82794 225.40881 0 0 0
34.83675 229.52528 0 0 0
34.84555 239.68671 0 0 0
34.85436 229.26465 0 0 0
34.86317 197.23367 0 0 0
34.87197 185.44493 0 0 0
34.88078 204.89085 0 0 0
34.88959 209.3531 0 0 0
34.89840 205.11473 0 0 0
34.90720 222.42856 0 0 0
34.91601 238.05688 0 0 0
34.92482 248.82333 0 0 0
34.93363 238.57213 0 0 0
34.94243 212.12416 0 0 0
34.95124 192.47617 0 0 0
34.96005 190.5865 0 0 0
34.96886 200.09578 0 0 0
34.97766 206.33803 0 0 0
34.98647 205.81499 0 0 0
34.99528 209.24017 0 0 0
35.00409 208.24417 0 0 0
35.01289 206.17682 0 0 0
35.02170 200.99599 0 0 0
35.03051 202.99979 0 0 0
35.03931 202.10872 0 0 0
35.04812 204.61475 0 0 0
35.05693 210.61545 0 0 0
35.06573 213.5984 0 0 0
35.07454 209.99805 0 0 0
35.08335 212.81131 0 0 0
35.09215 220.74205 0 0 0
35.10096 221.68649 0 0 0
35.10977 217.4294 0 0 0
35.11858 209.85643 0 0 0
35.12738 206.45421 0 0 0
35.13619 212.35965 0 0 0
35.14500 221.2728 0 0 0
35.15380 222.23476 0 0 0
35.16261 221.46591 0 0 0
35.17142 212.37271 0 0 0
35.18023 209.26486 0 0 0
35.18903 212.81624 0 0 0
35.19784 210.18991 0 0 0
35.20665 207.22572 0 0 0
35.21545 206.48766 0 0 0
35.22426 214.95766 0 0 0
loop_
_gsas_i100_meas
2.63
10.93
4.12
0.04
6.35
0.88
100.00
5.08
83.55
28.51
66.28
21.81
1.65
0.14
52.08
38.47
2.65
40.06
37.46
27.30
6.11
0.10
1.49
9.21
4.59
31.73
3.92
43.55
7.24
0.64
1.37
0.03
0.67
5.69
1.47
0.05
7.03
8.08
4.99
17.10
24.76
6.60
6.75
0.09
4.85
1.93
0.12
0.40
11.74
0.24
3.55
7.28
0.98
13.57
4.56
13.67
0.34
2.85
4.49
18.67
0.07
5.15
0.03
0.49
0.49
1.81
1.40
3.59
2.91
1.49
1.08
7.18
0.42
16.79
0.13
1.43
0.00
4.81
3.96
0.09
1.01
14.75
0.07
10.11
0.69
10.28
13.68
1.81
20.90
1.91
4.41
1.13
3.14
0.49
1.33
4.06
0.02
2.64
0.33
5.45
0.60
1.11
1.15
0.52
0.00
10.37
0.65
2.66
0.49
4.12
2.29
15.03
10.64
0.49
2.43
1.67
1.88
0.06
0.01
0.04
0.46
0.82
0.65
0.00
0.09
4.57
13.41
1.51
1.19
0.51
0.00
0.01
0.02
0.00
0.78
2.91
0.16
0.56
0.27
0.52
3.11
0.06
0.04
8.88
6.59
0.01
4.69
1.46
0.03
0.43
1.24
3.24
0.11
0.46
0.05
1.39
1.45
3.13
2.26
0.36
2.86
0.99
0.69
1.85
0.08
