#------------------------------------------------------------------------------
#$Date: 2021-02-05 01:04:31 +0200 (Fri, 05 Feb 2021) $
#$Revision: 261628 $
#$URL: file:///home/coder/svn-repositories/cod/cif/7/24/18/7241846.cif $
#------------------------------------------------------------------------------
#
# This file is available in the Crystallography Open Database (COD),
# http://www.crystallography.net/
#
# All data on this site have been placed in the public domain by the
# contributors.
#
data_7241846
loop_
_publ_author_name
'Gu\'nka, Piotr A.'
'Hanfland, Michael'
'Chen, Yu-Sheng'
'Zachara, Janusz'
_publ_section_title
;
 High-pressure and low-temperature structural study of claudetite I, a
 monoclinic layered As2O3 polymorph
;
_journal_issue                   3
_journal_name_full               CrystEngComm
_journal_page_first              638
_journal_page_last               644
_journal_paper_doi               10.1039/D0CE01401J
_journal_volume                  23
_journal_year                    2021
_chemical_formula_moiety         'As2 O3'
_chemical_formula_sum            'As2 O3'
_chemical_formula_weight         197.84
_chemical_name_common            'claudetite I'
_chemical_name_systematic
;
arsenic(III) oxide
;
_space_group_IT_number           14
_space_group_name_Hall           '-P 2yn'
_space_group_name_H-M_alt        'P 1 21/n 1'
_symmetry_cell_setting           monoclinic
_symmetry_space_group_name_H-M   'P 1 21/n 1'
_audit_creation_date             2020-10-21T11:36
_audit_creation_method           'created in GSAS-II'
_audit_update_record
;
2020-10-22 deposited with the CCDC.	2020-12-10 downloaded from the CCDC.
;
_cell_angle_alpha                90
_cell_angle_beta                 94.543(5)
_cell_angle_gamma                90
_cell_formula_units_Z            4
_cell_length_a                   4.9201(5)
_cell_length_b                   12.15166(23)
_cell_length_c                   4.3032(4)
_cell_measurement_pressure       7.85e6(5)
_cell_measurement_temperature    293
_cell_volume                     256.47(4)
_computing_data_reduction        Fit2D
_computing_structure_refinement
'GSAS-II (Toby & Von Dreele, J. Appl. Cryst. 46, 544-549, 2013)'
_diffrn_ambient_pressure         7.85e6(5)
_diffrn_ambient_temperature      293
_diffrn_detector                 'Mar555 flat panel'
_diffrn_detector_type            'Mar555 flat panel'
_diffrn_measurement_device_type  'ESRF ID09A beamline'
_diffrn_radiation_monochromator  Si
_diffrn_radiation_polarisn_ratio 0.9900
_diffrn_radiation_probe          x-ray
_diffrn_radiation_wavelength     0.41421
_diffrn_source                   'ESRF ID09A'
_diffrn_source_type              synchrotron
_exptl_crystal_colour            colourless
_exptl_crystal_density_diffrn    5.1237
_exptl_crystal_description       'white powder'
_pd_block_id                     2020-10-21T11:36|clau1_011rietveld||id09a
_pd_calc_method                  'Rietveld Refinement'
_pd_meas_number_of_points        4000
_pd_phase_name                   claudetiteI
_pd_prep_pressure                100.0(1)
_pd_prep_temperature             293
_pd_proc_info_datetime           2020-10-21T11:36
_pd_proc_ls_background_function
;
Background function: "chebyschev" function with 15 terms:
    724.2(18), 424(11), 1.9(4)e2, -2.49(16)e3, 2.87(20)e3, 1.83(7)e4, 
    -3.339(29)e4, -5.56(10)e4, 1.1464(14)e5, 8.202(13)e4, -1.8181(23)e5, 
    -5.87(12)e4, 1.3787(25)e5, 1.64(7)e4, -4.046(25)e4, 
;
_pd_proc_ls_pref_orient_corr
;
Simple spherical harmonic correction Order = 6
    Coefficients:  0:0:C(6,6) = 0.075(22); 0:0:C(4,4) = 0.716(25); 
    0:0:C(6,-2) = -0.022(32); 0:0:C(2,-2) = 0.177(14); 0:0:C(4,-4) = 0.110(21); 
    0:0:C(2,2) = 0.573(18); 0:0:C(4,0) = 0.068(21); 0:0:C(6,-6) = -0.55(3); 
    0:0:C(6,4) = 0.189(26); 0:0:C(4,2) = -0.094(20); 0:0:C(6,2) = 0.273(29); 
    0:0:C(6,-4) = -0.059(23); 0:0:C(6,0) = 0.16(3); 0:0:C(2,0) = 0.811(17); 
    0:0:C(4,-2) = -0.387(20); 
;
_pd_proc_ls_profile_function
;
Finger-Cox-Jephcoat function parameters U, V, W, X, Y, SH/L:
  peak variance(Gauss) = Utan(Th)^2^+Vtan(Th)+W:
  peak HW(Lorentz) = X/cos(Th)+Ytan(Th); SH/L = S/L+H/L
  U, V, W in (centideg)^2^, X & Y in centideg
    4.5(7)e2, -84(13), 5.7(7), 4.84(17), 25(4), 0.002, 
  Crystallite size in microns with "isotropic" model:
  parameters: Size, G/L mix
    1.000, 1.000, 
  Microstrain, "isotropic" model (10^6^ * delta Q/Q)
    parameters: Mustrain, G/L mix
    1000.000, 1.000, 

;
_pd_proc_ls_prof_R_factor        0.01985
_pd_proc_ls_prof_wR_expected     0.03497
_pd_proc_ls_prof_wR_factor       0.03154
_refine_ls_goodness_of_fit_all   0.920
_refine_ls_matrix_type           full
_refine_ls_number_parameters     57
_refine_ls_R_Fsqd_factor         0.15244
_refine_ls_shift/su_max          0.0011
_refine_ls_wR_factor_obs         0.03174
_reflns_d_resolution_high        1.133
_reflns_d_resolution_low         6.076
_reflns_limit_h_max              4
_reflns_limit_h_min              0
_reflns_limit_k_max              10
_reflns_limit_k_min              0
_reflns_limit_l_max              3
_reflns_limit_l_min              -3
_reflns_number_total             183
_cod_data_source_file            d0ce01401j3.cif
_cod_data_source_block           clau1_011rietveld
_cod_depositor_comments
'Adding full bibliography for 7241824--7241862.cif.'
_cod_original_cell_volume        256.473(14)
_cod_database_code               7241846
_refine_ls_r_f_factor            0.06001
_gsas_proc_ls_prof_r_b_factor    0.03725
_gsas_proc_ls_prof_wr_b_factor   0.05822
loop_
_space_group_symop_id
_space_group_symop_operation_xyz
1 x,y,z
2 1/2-x,1/2+y,1/2-z
3 -x,-y,-z
4 1/2+x,1/2-y,1/2+z
loop_
_atom_site_label
_atom_site_type_symbol
_atom_site_fract_x
_atom_site_fract_y
_atom_site_fract_z
_atom_site_occupancy
_atom_site_adp_type
_atom_site_U_iso_or_equiv
_atom_site_symmetry_multiplicity
As1 As 0.2605(10) 0.09023(25) 0.0617(8) 1.000 Uiso 0.0045(14) 4
As2 As 0.3322(8) 0.35629(28) 0.0237(8) 1.000 Uiso 0.0045 4
O3 O 0.435(3) 0.2184(6) 0.114(5) 1.000 Uiso 0.0045 4
O4 O 0.6538(24) 0.4038(14) 0.1676(23) 1.000 Uiso 0.0045 4
O5 O -0.0465(29) 0.1518(17) 0.1512(28) 1.000 Uiso 0.0045 4
loop_
_atom_type_symbol
_atom_type_number_in_cell
_atom_type_scat_Cromer_Mann_a1
_atom_type_scat_Cromer_Mann_a2
_atom_type_scat_Cromer_Mann_a3
_atom_type_scat_Cromer_Mann_a4
_atom_type_scat_Cromer_Mann_b1
_atom_type_scat_Cromer_Mann_b2
_atom_type_scat_Cromer_Mann_b3
_atom_type_scat_Cromer_Mann_b4
_atom_type_scat_Cromer_Mann_c
_atom_type_scat_length_neutron
_atom_type_scat_source
_atom_type_scat_dispersion_real
_atom_type_scat_dispersion_imag
_atom_type_scat_dispersion_source
As 8 16.6723 6.0701 3.4313 4.2779 2.6345 0.2647 12.9479 47.7972 2.531 0.658
https://subversion.xray.aps.anl.gov/pyGSAS/trunk/atmdata.py 0.283 0.775
https://subversion.xray.aps.anl.gov/pyGSAS/trunk/atmdata.py
O 12 3.0485 2.2868 1.5463 0.867 13.2771 5.7011 0.3239 32.9089 0.2508 0.5805
https://subversion.xray.aps.anl.gov/pyGSAS/trunk/atmdata.py 0.002 0.002
https://subversion.xray.aps.anl.gov/pyGSAS/trunk/atmdata.py
loop_
_geom_angle_atom_site_label_1
_geom_angle_atom_site_label_2
_geom_angle_atom_site_label_3
_geom_angle
_geom_angle_site_symmetry_1
_geom_angle_site_symmetry_2
_geom_angle_site_symmetry_3
_geom_angle_publ_flag
O3 As1 O4 101.1(9) 1_555 1_555 4_454 yes
O3 As1 O5 90.8(10) 1_555 1_555 1_555 yes
O4 As1 O5 89.9(6) 4_454 1_555 1_555 yes
O3 As2 O4 90.0(7) 1_555 1_555 1_555 yes
O3 As2 O5 92.0(11) 1_555 1_555 4_554 yes
O4 As2 O5 88.8(6) 1_555 1_555 4_554 yes
As1 O3 As2 131.9(8) 1_555 1_555 1_555 yes
As1 O4 As2 123.7(8) 4_555 1_555 1_555 yes
As1 O5 As2 122.5(8) 1_555 1_555 4_455 yes
loop_
_geom_bond_atom_site_label_1
_geom_bond_atom_site_label_2
_geom_bond_distance
_geom_bond_site_symmetry_1
_geom_bond_site_symmetry_2
_geom_bond_publ_flag
As1 O3 1.784(8) 1_555 1_555 yes
As1 O4 1.736(8) 1_555 4_454 yes
As1 O5 1.756(8) 1_555 1_555 yes
As2 O3 1.783(8) 1_555 1_555 yes
As2 O4 1.751(8) 1_555 1_555 yes
As2 O5 1.757(8) 1_555 4_554 yes
loop_
_pd_meas_2theta_scan
_pd_meas_intensity_total
_pd_calc_intensity_total
_pd_proc_intensity_bkg_calc
_pd_proc_ls_weight
0.00440 100.70033 0 0 0
0.01320 101.23376 0 0 0
0.02201 104.84339 0 0 0
0.03081 106.20372 0 0 0
0.03961 112.83032 0 0 0
0.04841 110.18221 0 0 0
0.05721 105.2577 0 0 0
0.06602 103.23016 0 0 0
0.07482 104.46413 0 0 0
0.08362 104.88036 0 0 0
0.09242 103.34699 0 0 0
0.10122 105.33391 0 0 0
0.11003 106.57276 0 0 0
0.11883 107.61965 0 0 0
0.12763 107.59333 0 0 0
0.13643 109.39468 0 0 0
0.14523 110.05122 0 0 0
0.15404 109.19579 0 0 0
0.16284 109.78465 0 0 0
0.17164 109.59042 0 0 0
0.18044 108.82076 0 0 0
0.18925 107.60719 0 0 0
0.19805 106.12239 0 0 0
0.20685 106.54231 0 0 0
0.21565 107.31635 0 0 0
0.22445 107.29522 0 0 0
0.23326 106.63911 0 0 0
0.24206 106.66195 0 0 0
0.25086 107.72093 0 0 0
0.25966 108.41132 0 0 0
0.26846 110.22703 0 0 0
0.27727 110.01196 0 0 0
0.28607 111.61066 0 0 0
0.29487 112.64831 0 0 0
0.30367 113.5423 0 0 0
0.31248 112.79546 0 0 0
0.32128 113.24083 0 0 0
0.33008 114.55616 0 0 0
0.33888 114.97925 0 0 0
0.34768 115.00779 0 0 0
0.35649 114.03372 0 0 0
0.36529 112.24207 0 0 0
0.37409 111.10395 0 0 0
0.38289 110.83152 0 0 0
0.39169 110.28261 0 0 0
0.40050 110.3763 0 0 0
0.40930 110.08208 0 0 0
0.41810 110.87275 0 0 0
0.42690 110.90666 0 0 0
0.43570 111.17133 0 0 0
0.44451 111.55889 0 0 0
0.45331 112.67131 0 0 0
0.46211 112.57901 0 0 0
0.47091 112.1571 0 0 0
0.47972 111.88744 0 0 0
0.48852 112.00687 0 0 0
0.49732 111.77611 0 0 0
0.50612 111.31295 0 0 0
0.51492 110.15497 0 0 0
0.52373 110.08517 0 0 0
0.53253 111.00122 0 0 0
0.54133 111.64366 0 0 0
0.55013 110.30154 0 0 0
0.55893 109.73296 0 0 0
0.56774 109.84787 0 0 0
0.57654 111.36858 0 0 0
0.58534 112.68972 0 0 0
0.59414 112.84405 0 0 0
0.60295 112.15884 0 0 0
0.61175 111.93019 0 0 0
0.62055 112.56395 0 0 0
0.62935 111.707 0 0 0
0.63815 110.77377 0 0 0
0.64696 111.32829 0 0 0
0.65576 112.48233 0 0 0
0.66456 113.1692 0 0 0
0.67336 112.74377 0 0 0
0.68216 112.12327 0 0 0
0.69097 111.23943 0 0 0
0.69977 111.36163 0 0 0
0.70857 111.59588 0 0 0
0.71737 112.00727 0 0 0
0.72617 113.26911 0 0 0
0.73498 114.12972 0 0 0
0.74378 114.01125 0 0 0
0.75258 113.71112 0 0 0
0.76138 113.54549 0 0 0
0.77019 113.08065 0 0 0
0.77899 112.59225 0 0 0
0.78779 113.59888 0 0 0
0.79659 115.63435 0 0 0
0.80539 116.62405 0 0 0
0.81420 115.51196 0 0 0
0.82300 115.13171 0 0 0
0.83180 114.82614 0 0 0
0.84060 114.58282 0 0 0
0.84940 114.79276 0 0 0
0.85821 115.56638 0 0 0
0.86701 115.95132 0 0 0
0.87581 116.46099 0 0 0
0.88461 118.12926 0 0 0
0.89342 119.05274 0 0 0
0.90222 120.16953 0 0 0
0.91102 120.09909 0 0 0
0.91982 121.84882 0 0 0
0.92862 123.8333 0 0 0
0.93743 125.79063 0 0 0
0.94623 127.57138 0 0 0
0.95503 129.9429 0 0 0
0.96383 131.47054 0 0 0
0.97263 131.33177 0 0 0
0.98144 133.00165 0 0 0
0.99024 135.83566 0 0 0
0.99904 139.50562 0 0 0
1.00784 142.93953 0 0 0
1.01664 145.45436 0 0 0
1.02545 152.77299 0 0 0
1.03425 160.91908 0 0 0
1.04305 168.18454 0 0 0
1.05185 173.36568 0 0 0
1.06066 177.5872 0 0 0
1.06946 188.19923 0 0 0
1.07826 194.53952 0 0 0
1.08706 199.64365 0 0 0
1.09586 205.42439 0 0 0
1.10467 213.56534 0 0 0
1.11347 220.43011 0 0 0
1.12227 225.13396 0 0 0
1.13107 230.20769 0 0 0
1.13987 234.52811 0 0 0
1.14868 238.39 0 0 0
1.15748 242.50748 0 0 0
1.16628 244.22656 0 0 0
1.17508 246.05003 0 0 0
1.18389 247.9577 0 0 0
1.19269 249.7863 0 0 0
1.20149 250.74109 0 0 0
1.21029 252.72508 0 0 0
1.21909 255.39709 0 0 0
1.22790 256.80847 0 0 0
1.23670 259.40143 0 0 0
1.24550 260.49561 0 0 0
1.25430 262.06265 0 0 0
1.26310 264.44766 0 0 0
1.27191 267.02158 0 0 0
1.28071 268.04581 0 0 0
1.28951 269.65878 0 0 0
1.29831 271.86475 0 0 0
1.30711 273.36096 0 0 0
1.31592 274.43225 0 0 0
1.32472 275.99774 0 0 0
1.33352 277.52927 0 0 0
1.34232 278.93768 0 0 0
1.35113 280.2515 0 0 0
1.35993 281.95624 0 0 0
1.36873 283.01447 0 0 0
1.37753 285.21857 0 0 0
1.38633 286.45819 0 0 0
1.39514 287.14001 0 0 0
1.40394 287.09253 0 0 0
1.41274 289.22247 0 0 0
1.42154 291.8797 0 0 0
1.43034 292.7915 0 0 0
1.43915 293.21066 0 0 0
1.44795 294.65533 0 0 0
1.45675 296.36234 0 0 0
1.46555 296.97095 0 0 0
1.47436 297.8483 0 0 0
1.48316 298.38828 0 0 0
1.49196 298.58661 0 0 0
1.50076 298.94058 0 0 0
1.50956 301.04562 0 0 0
1.51837 302.47464 0 0 0
1.52717 303.73495 0 0 0
1.53597 305.26715 0 0 0
1.54477 306.47186 0 0 0
1.55357 306.68344 0 0 0
1.56238 306.75269 0 0 0
1.57118 306.28516 0 0 0
1.57998 306.97415 0 0 0
1.58878 307.37112 0 0 0
1.59758 308.67383 0 0 0
1.60639 310.4205 0 0 0
1.61519 311.56519 0 0 0
1.62399 311.87958 0 0 0
1.63279 312.79849 0 0 0
1.64160 314.30875 0 0 0
1.65040 315.45358 0 0 0
1.65920 316.06717 0 0 0
1.66800 317.36176 0 0 0
1.67680 317.81543 0 0 0
1.68561 318.38675 0 0 0
1.69441 319.7066 0 0 0
1.70321 320.49158 0 0 0
1.71201 320.42685 0 0 0
1.72081 320.47232 0 0 0
1.72962 321.14291 0 0 0
1.73842 321.40878 0 0 0
1.74722 322.51083 0 0 0
1.75602 323.15402 0 0 0
1.76483 323.57504 0 0 0
1.77363 324.59232 0 0 0
1.78243 326.82297 0 0 0
1.79123 327.77005 0 0 0
1.80003 327.96762 0 0 0
1.80884 327.73465 0 0 0
1.81764 329.27563 0 0 0
1.82644 329.41568 0 0 0
1.83524 330.63919 0 0 0
1.84404 331.17303 0 0 0
1.85285 332.16751 0 0 0
1.86165 331.96622 0 0 0
1.87045 332.65268 0 0 0
1.87925 333.90775 0 0 0
1.88805 335.30902 0 0 0
1.89686 336.27982 0 0 0
1.90566 336.51297 0 0 0
1.91446 337.13031 0 0 0
1.92326 337.08255 0 0 0
1.93207 338.28198 0 0 0
1.94087 338.51862 0 0 0
1.94967 339.05627 0 0 0
1.95847 339.43591 0 0 0
1.96727 341.14261 0 0 0
1.97608 342.48477 0 0 0
1.98488 342.99176 0 0 0
1.99368 342.34848 0 0 0
2.00248 341.62842 0 0 0
2.01128 342.08524 0 0 0
2.02009 343.04459 0 0 0
2.02889 344.67093 0 0 0
2.03769 345.36465 0 0 0
2.04649 345.48544 0 0 0
2.05530 345.74197 0 0 0
2.06410 347.29071 0 0 0
2.07290 348.08755 0 0 0
2.08170 348.59665 0 0 0
2.09050 348.4278 0 0 0
2.09931 349.79498 0 0 0
2.10811 350.11609 0 0 0
2.11691 350.33362 0 0 0
2.12571 349.58606 0 0 0
2.13451 350.23376 0 0 0
2.14332 350.32715 0 0 0
2.15212 350.27951 0 0 0
2.16092 350.63843 0 0 0
2.16972 351.80283 0 0 0
2.17852 352.8468 0 0 0
2.18733 353.81506 0 0 0
2.19613 353.66199 0 0 0
2.20493 353.87604 0 0 0
2.21373 354.42874 0 0 0
2.22254 356.45547 0 0 0
2.23134 357.46924 0 0 0
2.24014 358.09985 0 0 0
2.24894 358.70831 0 0 0
2.25774 359.21652 0 0 0
2.26655 359.65311 0 0 0
2.27535 359.94482 0 0 0
2.28415 359.8905 0 0 0
2.29295 360.1051 0 0 0
2.30175 359.99475 0 0 0
2.31056 359.54459 0 0 0
2.31936 359.94946 348.116113 348.095808 0.002778168
2.32816 360.84399 350.032992 350.012562 0.002771281
2.33696 361.89975 351.867818 351.847261 0.002763196
2.34576 363.30536 353.623354 353.60267 0.002752505
2.35457 363.70499 355.302352 355.281539 0.002749481
2.36337 363.91852 356.907382 356.886439 0.002747868
2.37217 364.4426 358.441043 358.419968 0.002743916
2.38097 364.42386 359.905766 359.884559 0.002744057
2.38978 364.11942 361.30409 361.282749 0.002746352
2.39858 364.12451 362.63834 362.616863 0.002746313
2.40738 364.9173 363.910832 363.889219 0.002740347
2.41618 365.81714 365.123784 365.102033 0.002733606
2.42498 366.29672 366.279477 366.257587 0.002730027
2.43379 366.13901 367.380014 367.357984 0.002731203
2.44259 366.84256 368.427471 368.405298 0.002725965
2.45139 367.67706 369.423904 369.401588 0.002719778
2.46019 368.11914 370.37125 370.348789 0.002716512
2.46899 368.48532 371.271501 371.248894 0.002713812
2.47780 369.03772 372.1265 372.103746 0.00270975
2.48660 369.30948 372.938073 372.91517 0.002707756
2.49540 369.685 373.707971 373.684917 0.002705006
2.50420 370.59329 374.437974 374.414768 0.002698376
2.51301 371.20987 375.129737 375.106377 0.002693894
2.52181 371.97784 375.784885 375.76137 0.002688332
2.53061 371.42886 376.405009 376.381337 0.002692306
2.53941 372.84009 376.991665 376.967836 0.002682115
2.54821 373.92825 377.546354 377.522365 0.00267431
2.55702 373.90695 378.070525 378.046374 0.002674462
2.56582 372.63312 378.565577 378.541263 0.002683605
2.57462 372.10632 379.032918 379.008438 0.002687404
2.58342 373.08817 379.473863 379.449217 0.002680332
2.59222 374.04785 379.889707 379.864893 0.002673455
2.60103 375.05307 380.281701 380.256717 0.002666289
2.60983 375.55176 380.651063 380.625907 0.002662749
2.61863 375.67499 380.998982 380.973653 0.002661875
2.62743 376.2821 381.326602 381.301097 0.002657581
2.63624 376.68616 381.635028 381.609345 0.00265473
2.64504 376.23621 381.925322 381.89946 0.002657905
2.65384 375.427 382.198547 382.172503 0.002663634
2.66264 376.11136 382.455696 382.42947 0.002658787
2.67144 377.20279 382.697746 382.671335 0.002651094
2.68025 378.10535 382.925631 382.899032 0.002644766
2.68905 378.22656 383.140277 383.113489 0.002643918
2.69785 379.44504 383.342557 383.315578 0.002635428
2.70665 379.40634 383.53332 383.506147 0.002635697
2.71545 378.92542 383.713392 383.686024 0.002639042
2.72426 379.0676 383.883559 383.855993 0.002638052
2.73306 379.06924 384.044597 384.016831 0.00263804
2.74186 378.84097 384.197239 384.169271 0.00263963
2.75066 379.36359 384.342198 384.314026 0.002635994
2.75946 379.51797 384.480154 384.451775 0.002634921
2.76827 380.21771 384.611777 384.583189 0.002630072
2.77707 380.09106 384.737699 384.708899 0.002630948
2.78587 380.28479 384.858529 384.829516 0.002629608
2.79467 380.27124 384.974857 384.945627 0.002629702
2.80348 381.89487 385.087249 385.0578 0.002618522
2.81228 383.11432 385.196248 385.166579 0.002610187
2.82108 384.50757 385.302374 385.272481 0.002600729
2.82988 385.02713 385.406123 385.376003 0.00259722
2.83868 384.81763 385.507979 385.47763 0.002598634
2.84749 384.25189 385.608398 385.577818 0.00260246
2.85629 385.34445 385.707819 385.677003 0.002595081
2.86509 385.38867 385.806658 385.775605 0.002594783
2.87389 385.40042 385.905316 385.874023 0.002594704
2.88269 385.4299 386.004177 385.972641 0.002594506
2.89150 385.96399 386.103605 386.071823 0.002590915
2.90030 386.54529 386.203945 386.171914 0.002587019
2.90910 387.24435 386.305524 386.273241 0.002582349
2.91790 387.78568 386.408662 386.376123 0.002578744
2.92670 387.83569 386.51815 386.480853 0.002578411
2.93551 387.51624 386.625299 386.587714 0.002580537
2.94431 387.8241 386.734845 386.696967 0.002578489
2.95311 388.20566 386.847044 386.808871 0.002575954
2.96191 388.61301 386.962131 386.923658 0.002573254
2.97072 388.68945 387.080329 387.041553 0.002572748
2.97952 388.8808 387.201848 387.162765 0.002571482
2.98832 388.99335 387.326878 387.287485 0.002570738
2.99712 389.01428 387.455613 387.415904 0.0025706
3.00592 389.93744 387.588218 387.548191 0.002564514
3.01473 390.20355 387.724852 387.684502 0.002562765
3.02353 390.51254 387.865658 387.824982 0.002560737
3.03233 391.06885 388.010781 387.969774 0.002557094
3.04113 392.21466 388.160341 388.118998 0.002549624
3.04993 392.43588 388.314451 388.272768 0.002548187
3.05874 391.84952 388.473212 388.431185 0.002552
3.06754 391.71899 388.636724 388.594348 0.00255285
3.07634 391.9068 388.80507 388.762341 0.002551627
3.08514 393.10184 388.978323 388.935235 0.00254387
3.09395 394.41721 389.156542 389.113091 0.002535386
3.10275 394.86707 389.339795 389.295976 0.002532498
3.11155 393.78671 389.528126 389.483934 0.002539446
3.12035 392.77765 389.721573 389.677003 0.00254597
3.12915 392.54733 389.920168 389.875214 0.002547464
3.13796 393.31683 390.123933 390.07859 0.00254248
3.14676 394.45065 390.332891 390.287154 0.002535171
3.15556 395.21429 390.547051 390.500914 0.002530273
3.16436 395.6658 390.766415 390.719872 0.002527385
3.17316 395.88248 390.990971 390.944017 0.002526002
3.18197 396.32632 391.220725 391.173353 0.002523173
3.19077 396.7561 391.455653 391.407857 0.00252044
3.19957 396.97809 391.695733 391.647507 0.002519031
3.20837 396.76132 391.94093 391.892267 0.002520407
3.21717 397.64627 392.191227 392.14212 0.002514798
3.22598 398.2569 392.446575 392.397018 0.002510942
3.23478 398.45584 392.706937 392.656923 0.002509688
3.24358 398.12085 392.972262 392.921784 0.0025118
3.25238 398.65097 393.242489 393.191539 0.00250846
3.26119 398.80984 393.51758 393.466151 0.002507461
3.26999 398.33899 393.801835 393.745548 0.002510425
3.27879 398.96588 394.086475 394.029668 0.00250648
3.28759 399.07266 394.375767 394.318429 0.002505809
3.29639 398.96854 394.669657 394.611782 0.002506463
3.30520 399.18271 394.968058 394.909636 0.002505119
3.31400 399.86703 395.270899 395.21192 0.002500831
3.32280 400.56873 395.578086 395.518541 0.00249645
3.33160 401.12018 395.889547 395.829426 0.002493018
3.34040 402.08142 396.205194 396.144488 0.002487058
3.34921 402.0419 396.524934 396.463632 0.002487303
3.35801 401.9306 396.848677 396.786767 0.002487992
3.36681 402.11017 397.176315 397.113788 0.002486881
3.37561 402.9574 397.507777 397.44462 0.002481652
3.38442 402.88513 397.842947 397.779149 0.002482097
3.39322 402.36172 398.181736 398.117283 0.002485326
3.40202 402.59811 398.524029 398.45891 0.002483867
3.41082 402.98233 398.869736 398.803936 0.002481498
3.41962 403.36874 399.218752 399.152257 0.002479121
3.42843 403.4054 399.570967 399.503765 0.002478896
3.43723 403.38092 399.926265 399.858338 0.002479046
3.44603 404.1969 400.28456 400.215894 0.002474042
3.45483 405.04901 400.645734 400.576311 0.002468837
3.46363 404.6777 401.009676 400.939479 0.002471102
3.47244 404.56345 401.376265 401.305276 0.0024718
3.48124 405.04535 401.745416 401.673616 0.002468859
3.49004 405.61829 402.117002 402.04437 0.002465372
3.49884 405.40295 402.49092 402.417435 0.002466682
3.50764 405.48175 402.867056 402.792695 0.002466202
3.51645 406.13232 403.245285 403.170025 0.002462252
3.52525 406.93393 403.625523 403.549338 0.002457401
3.53405 406.77261 404.007647 403.93051 0.002458376
3.54285 406.41125 404.391545 404.313427 0.002460562
3.55166 406.43875 404.777096 404.697966 0.002460395
3.56046 406.19919 405.164216 405.08404 0.002461846
3.56926 406.85309 405.552778 405.471521 0.00245789
3.57806 407.01401 405.942684 405.860308 0.002456918
3.58686 406.58255 406.333814 406.250275 0.002459525
3.59567 406.80746 406.726074 406.641328 0.002458165
3.60447 407.93008 407.119361 407.033357 0.0024514
3.61327 409.21912 407.513565 407.426249 0.002443679
3.62207 409.57056 407.908585 407.819897 0.002441582
3.63087 409.80328 408.304307 408.21418 0.002440195
3.63968 409.95383 408.70066 408.609021 0.002439299
3.64848 410.79605 409.097529 409.004295 0.002434298
3.65728 410.64056 409.494831 409.399909 0.00243522
3.66608 410.94318 409.892459 409.795746 0.002433426
3.67489 411.12784 410.290341 410.191718 0.002432333
3.68369 411.42398 410.688392 410.587725 0.002430583
3.69249 412.13818 411.08653 410.983663 0.002426371
3.70129 412.30164 411.484667 411.37942 0.002425409
3.71009 411.81989 411.882763 411.774928 0.002428246
3.71890 411.60159 412.280746 412.170077 0.002429534
3.72770 412.10385 412.678562 412.56477 0.002426573
3.73650 412.0011 413.076177 412.958913 0.002427178
3.74530 412.04791 413.473584 413.35243 0.002426902
3.75410 412.66611 413.870773 413.745218 0.002423267
3.76291 412.85022 414.267783 414.137197 0.002422186
3.77171 413.43555 414.664682 414.528278 0.002418757
3.78051 413.75778 415.06158 414.918361 0.002416873
3.78931 413.86664 415.458708 415.307391 0.002416237
3.79811 413.56201 415.85637 415.695273 0.002418017
3.80692 413.44339 416.255098 416.081928 0.002418711
3.81572 413.81714 416.661014 416.467263 0.002416526
3.82452 414.68808 417.066392 416.851229 0.002411451
3.83332 414.92355 417.482992 417.233734 0.002410083
3.84213 415.1243 417.928466 417.614715 0.002408917
3.85093 415.17841 418.442681 417.994086 0.002408603
3.85973 415.92047 419.097112 418.371792 0.002404306
3.86853 416.88434 419.983449 418.747765 0.002398747
3.87733 417.50443 421.160787 419.121935 0.002395184
3.88614 420.46921 422.570246 419.494239 0.002378295
3.89494 428.5322 423.96529 419.864602 0.002333547
3.90374 434.50851 424.924704 420.232989 0.002301451
3.91254 434.27618 425.101832 420.599325 0.002302682
3.92134 429.21234 424.618592 420.963563 0.002329849
3.93015 425.1254 423.909422 421.325635 0.002352247
3.93895 422.41129 423.325637 421.685501 0.002367361
3.94775 420.74829 423.021124 422.04311 0.002376718
3.95655 420.56918 422.988766 422.39841 0.00237773
3.96535 421.14139 423.144788 422.751342 0.002374499
3.97416 420.98642 423.403079 423.101884 0.002375374
3.98296 420.37805 423.707149 423.449981 0.002378811
3.99176 419.92908 424.028912 423.795589 0.002381354
4.00056 419.94034 424.356868 424.138675 0.002381291
4.00937 420.90591 424.686721 424.47919 0.002375828
4.01817 421.87259 425.016793 424.817123 0.002370384
4.02697 421.49753 425.346208 425.152404 0.002372493
4.03577 421.07242 425.674459 425.485022 0.002374888
4.04457 421.12909 426.001199 425.814968 0.002374569
4.05338 421.38962 426.326111 426.142169 0.002373101
4.06218 422.15637 426.64901 426.466622 0.002368791
4.07098 422.78601 426.969753 426.78832 0.002365263
4.07978 423.02527 427.288181 427.107208 0.002363925
4.08858 422.51065 427.604889 427.423294 0.002366804
4.09739 422.03201 427.918434 427.736527 0.002369489
4.10619 421.7818 428.229435 428.04691 0.002370894
4.11499 422.44281 428.537847 428.35444 0.002367184
4.12379 422.508 428.843594 428.65907 0.002366819
4.13260 423.01147 429.14666 428.96081 0.002364002
4.14140 423.37851 429.447026 429.25966 0.002361953
4.15020 423.13876 429.744636 429.555581 0.002363291
4.15900 423.08322 430.039504 429.848599 0.002363601
4.16780 424.17444 430.331584 430.13868 0.002357521
4.17661 425.28519 430.620874 430.425831 0.002351363
4.18541 426.21042 430.907387 430.710068 0.002346259
4.19421 426.04605 431.191087 430.991364 0.002347164
4.20301 425.97827 431.471997 431.269746 0.002347538
4.21181 426.37067 431.750089 431.545187 0.002345377
4.22062 426.59207 432.025382 431.817709 0.00234416
4.22942 425.86618 432.297898 432.087337 0.002348155
4.23822 425.95462 432.567609 432.354042 0.002347668
4.24702 426.9502 432.834542 432.617852 0.002342194
4.25582 427.26804 433.098723 432.878792 0.002340451
4.26463 428.1348 433.360139 433.136849 0.002335713
4.27343 428.27057 433.618829 433.39206 0.002334972
4.28223 428.36157 433.874784 433.644415 0.002334476
4.29103 428.15652 434.12804 433.893947 0.002335594
4.29984 428.39484 434.378626 434.140684 0.002334295
4.30864 428.02621 434.62654 434.38462 0.002336306
4.31744 427.80646 434.871834 434.625804 0.002337506
4.32624 428.71057 435.11451 434.864234 0.002332576
4.33504 429.17844 435.354602 435.099942 0.002330033
4.34385 429.68875 435.624486 435.332969 0.002327266
4.35265 430.95233 435.859701 435.563318 0.002320442
4.36145 431.96649 436.092429 435.791025 0.002314994
4.37025 432.09439 436.322719 436.016133 0.002314309
4.37905 431.70047 436.550579 436.238647 0.002316421
4.38786 431.02789 436.776077 436.458628 0.002320035
4.39666 431.25531 436.99922 436.676076 0.002318812
4.40546 431.63483 437.220065 436.891042 0.002316773
4.41426 431.85571 437.438665 437.103571 0.002315588
4.42307 432.29315 437.655042 437.313678 0.002313245
4.43187 433.0137 437.869261 437.52142 0.002309396
4.44067 432.79062 438.081347 437.726812 0.002310586
4.44947 432.6785 438.291362 437.929909 0.002311185
4.45827 432.98441 438.499364 438.130757 0.002309552
4.46708 433.54019 438.705382 438.329377 0.002306591
4.47588 433.10156 438.909484 438.525824 0.002308927
4.48468 433.24603 439.111733 438.720149 0.002308157
4.49348 433.86087 439.312162 438.912375 0.002304886
4.50228 433.83911 439.510853 439.102569 0.002305002
4.51109 434.02206 439.707845 439.290757 0.00230403
4.51989 434.39804 439.903208 439.476992 0.002302036
4.52869 434.73016 440.097016 439.661335 0.002300277
4.53749 434.17059 440.289317 439.843814 0.002303242
4.54630 434.30875 440.480193 440.024495 0.002302509
4.55510 434.78653 440.669695 440.203409 0.002299979
4.56390 435.74237 440.857904 440.380617 0.002294934
4.57270 436.43326 441.044907 440.556182 0.002291301
4.58150 437.3476 441.230752 440.730131 0.002286511
4.59031 437.78647 441.415531 440.90253 0.002284219
4.59911 438.00793 441.599334 441.07344 0.002283064
4.60791 437.71255 441.804291 441.242898 0.002284604
4.61671 438.3454 441.986502 441.410974 0.002281306
4.62551 438.7316 442.167972 441.577705 0.002279298
4.63432 439.24042 442.348807 441.743157 0.002276658
4.64312 438.9942 442.537995 441.907393 0.002277934
4.65192 438.81238 442.71789 442.070452 0.002278878
4.66072 438.68591 442.897444 442.232401 0.002279535
4.66952 440.03946 443.076769 442.393304 0.002272523
4.67833 440.93329 443.255955 442.5532 0.002267917
4.68713 441.58755 443.435139 442.712168 0.002264557
4.69593 441.70599 443.614422 442.870248 0.002263949
4.70473 441.45929 443.793936 443.027505 0.002265215
4.71354 441.16757 443.973826 443.184009 0.002266712
4.72234 441.63046 444.154208 443.3398 0.002264337
4.73114 442.84308 444.335252 443.494959 0.002258136
4.73994 442.70392 444.517087 443.649523 0.002258846
4.74874 442.5014 444.699889 443.803565 0.00225988
4.75755 442.11252 444.883842 443.957152 0.002261868
4.76635 442.83005 445.069111 444.110329 0.002258203
4.77515 442.6329 445.255899 444.263163 0.002259208
4.78395 442.86435 445.444431 444.415724 0.002258028
4.79275 442.49109 445.634914 444.568058 0.002259933
4.80156 443.3519 445.827609 444.72024 0.002255545
4.81036 444.0535 446.163434 444.872316 0.002251981
4.81916 444.4808 446.362168 445.024357 0.002249816
4.82796 445.18674 446.563985 445.17643 0.002246248
4.83676 445.48401 446.769204 445.32858 0.002244749
4.84557 445.25259 446.978222 445.480886 0.002245916
4.85437 445.47342 447.191429 445.633395 0.002244803
4.86317 446.28467 447.409287 445.786171 0.002240722
4.87197 446.43683 447.654089 445.939287 0.002239959
4.88078 447.0737 447.882956 446.092789 0.002236768
4.88958 446.81564 448.118171 446.246743 0.00223806
4.89838 446.7681 448.360459 446.40122 0.002238298
4.90718 447.81674 448.610588 446.556263 0.002233056
4.91598 448.3298 448.869495 446.711954 0.002230501
4.92479 448.64822 449.138175 446.86833 0.002228918
4.93359 449.0939 449.417826 447.025464 0.002226706
4.94239 449.86526 449.709825 447.183424 0.002222888
4.95119 450.74658 450.015712 447.342254 0.002218542
4.95999 450.58163 450.337333 447.502029 0.002219354
4.96880 450.59409 450.676799 447.662791 0.002219292
4.97760 451.453 451.036648 447.82461 0.00221507
4.98640 451.78284 451.419852 447.987552 0.002213453
4.99520 452.13708 451.82993 448.151658 0.002211719
5.00401 453.11536 452.271162 448.316998 0.002206944
5.01281 454.60892 452.748697 448.483636 0.002199693
5.02161 455.40979 453.268744 448.651612 0.002195825
5.03041 455.63782 453.839051 448.821002 0.002194726
5.03921 456.18399 454.489563 448.991847 0.002192098
5.04802 456.7681 455.192316 449.164209 0.002189295
5.05682 458.00409 455.98104 449.338155 0.002183387
5.06562 458.54684 456.875884 449.513723 0.002180802
5.07442 459.94061 457.901927 449.690988 0.002174194
5.08322 461.58618 459.091916 449.869983 0.002166443
5.09203 463.87512 460.489722 450.050772 0.002155753
5.10083 467.70743 462.154816 450.233422 0.002138089
5.10963 471.60345 464.169469 450.417967 0.002120426
5.11843 476.16656 466.652244 450.604466 0.002100105
5.12723 483.42975 469.790571 450.792984 0.002068553
5.13604 497.49484 473.940629 450.983555 0.002010071
5.14484 522.51147 479.946533 451.176247 0.001913834
5.15364 566.11243 490.010785 451.371091 0.001766434
5.16244 632.12531 509.471491 451.568151 0.001581965
5.17125 729.78229 549.019794 451.767484 0.001370272
5.18005 850.61145 624.737379 451.969118 0.001175625
5.18885 983.86316 751.538619 452.173114 0.001016402
5.19765 1114.1754 928.579823 452.379534 0.000897525
5.20645 1231.2382 1122.467782 452.588397 0.000812191
5.21526 1282.1637 1258.144928 452.799777 0.000779932
5.22406 1241.1216 1252.019646 453.013697 0.000805723
5.23286 1027.7676 1108.706742 453.230212 0.000972983
5.24166 765.79755 914.393723 453.449379 0.001305828
5.25046 616.3313 741.067613 453.671221 0.001622504
5.25927 544.93927 619.031122 453.895806 0.001835067
5.26807 508.96786 547.245541 454.123149 0.001964761
5.27687 490.93173 510.26 454.353307 0.002036943
5.28567 480.49625 492.292775 454.586334 0.002081182
5.29448 475.31128 483.129857 454.822249 0.002103884
5.30328 471.92197 477.768209 455.061098 0.002118994
5.31208 470.37079 474.163699 455.302939 0.002125982
5.32088 469.67572 471.532709 455.547786 0.002129129
5.32968 469.42618 469.539392 455.795698 0.00213026
5.33849 468.48395 468.004506 456.046688 0.002134545
5.34729 467.76346 466.813012 456.30081 0.002137833
5.35609 467.60614 465.884813 456.558108 0.002138552
5.36489 467.68951 465.162205 456.818592 0.002138171
5.37369 467.12494 464.602392 457.082326 0.002140755
5.38250 466.96298 464.173427 457.349316 0.002141497
5.39130 467.01865 463.850869 457.619605 0.002141242
5.40010 467.04404 463.615883 457.893242 0.002141126
5.40890 467.07678 463.453811 458.170229 0.002140976
5.41770 467.11252 463.353036 458.450616 0.002140812
5.42651 467.3826 463.304297 458.734441 0.002139575
5.43531 467.51678 463.300172 459.021705 0.002138961
5.44411 467.58112 463.33462 459.312469 0.002138666
5.45291 467.41129 463.40272 459.60673 0.002139443
5.46172 467.95349 463.500409 459.904526 0.002136965
5.47052 468.17709 463.624346 460.205903 0.002135944
5.47932 468.50354 463.771738 460.510856 0.002134456
5.48812 468.93774 463.940266 460.819436 0.002132479
5.49692 469.64676 464.127971 461.131635 0.00212926
5.50573 469.30841 464.33323 461.447498 0.002130795
5.51453 469.12866 464.554676 461.767058 0.002131611
5.52333 469.73221 464.791574 462.090303 0.002128873
5.53213 470.72345 465.042106 462.417271 0.00212439
5.54093 471.36478 465.305923 462.748004 0.002121499
5.54974 472.14972 465.582331 463.082478 0.002117972
5.55854 472.37479 465.870836 463.42075 0.002116963
5.56734 471.99435 466.170993 463.762804 0.002118669
5.57614 471.38831 466.482501 464.108668 0.002121393
5.58495 471.27783 466.805175 464.458381 0.002121891
5.59375 472.1098 467.138872 464.811918 0.002118151
5.60255 473.25446 467.483625 465.169336 0.002113028
5.61135 473.42007 467.83948 465.530601 0.002112289
5.62015 473.24875 468.206671 465.89575 0.002113054
5.62896 473.27502 468.585546 466.264813 0.002112936
5.63776 473.40933 468.976536 466.637766 0.002112337
5.64656 473.89908 469.380285 467.014629 0.002110154
5.65536 474.5921 469.797646 467.395438 0.002107073
5.66416 474.90814 470.229631 467.780162 0.00210567
5.67297 475.30322 470.677631 468.168843 0.00210392
5.68177 475.74097 471.143305 468.561449 0.002101984
5.69057 475.98962 471.628854 468.958012 0.002100886
5.69937 476.36514 472.137066 469.358551 0.00209923
5.70817 476.9335 472.671435 469.763028 0.002096728
5.71698 476.90857 473.236584 470.171471 0.002096838
5.72578 477.0607 473.838555 470.583909 0.002096169
5.73458 477.00949 474.485204 471.000288 0.002096394
5.74338 477.44086 475.187265 471.420662 0.0020945
5.75219 478.42438 475.95917 471.844983 0.002090194
5.76099 479.63483 476.82119 472.27328 0.002084919
5.76979 480.87387 477.802624 472.705565 0.002079547
5.77859 481.02704 478.949448 473.141792 0.002078885
5.78739 480.90704 480.348463 473.582009 0.002079404
5.79620 482.1026 482.200904 474.026166 0.002074247
5.80500 484.57941 485.021151 474.474274 0.002063645
5.81380 487.23093 490.030617 474.926359 0.002052415
5.82260 490.83008 499.617811 475.382369 0.002037365
5.83140 499.28848 517.255159 475.842312 0.00200285
5.84021 519.65814 545.934444 476.306212 0.001924342
5.84901 564.48334 584.926164 476.774015 0.001771531
5.85781 636.63867 626.064951 477.245753 0.00157075
5.86661 691.10797 651.70386 477.721368 0.001446952
5.87541 682.35437 644.765511 478.200878 0.001465514
5.88422 614.08868 610.868703 478.684304 0.001628429
5.89302 552.11377 570.014737 479.171568 0.001811221
5.90182 519.38727 535.915414 479.662718 0.001925346
5.91062 505.11801 513.143034 480.157692 0.001979735
5.91943 498.11441 500.373693 480.656492 0.002007571
5.92823 494.25516 494.099658 481.159137 0.002023246
5.93703 492.26929 491.225539 481.665555 0.002031408
5.94583 490.75882 489.902297 482.175765 0.002037661
5.95463 490.0152 489.270591 482.689767 0.002040753
5.96344 489.16367 488.986062 483.207491 0.002044306
5.97224 489.29898 488.911506 483.728979 0.00204374
5.98104 489.02988 488.983057 484.254157 0.002044865
5.98984 489.71725 489.163933 484.783025 0.002041995
5.99864 490.51694 489.430093 485.315598 0.002038666
6.00745 490.91422 489.764928 485.851802 0.002037016
6.01625 490.81787 490.156882 486.391665 0.002037416
6.02505 491.02826 490.59792 486.935108 0.002036543
6.03385 491.60678 491.082737 487.482145 0.002034146
6.04266 492.05768 491.608141 488.032774 0.002032282
6.05146 492.14111 492.172665 488.586914 0.002031938
6.06026 492.33582 492.776589 489.14457 0.002031134
6.06906 492.80405 493.444107 489.705758 0.002029204
6.07786 493.63962 494.134688 490.270374 0.002025769
6.08667 494.6366 494.951125 490.838464 0.002021686
6.09547 495.68195 495.753832 491.409935 0.002017423
6.10427 496.55289 496.630045 491.984799 0.002013884
6.11307 497.26288 497.598697 492.563048 0.002011009
6.12187 498.37061 498.687426 493.144595 0.002006539
6.13068 499.79871 499.940237 493.729477 0.002000805
6.13948 502.24612 501.438259 494.317603 0.001991056
6.14828 506.30634 503.366621 494.908965 0.001975089
6.15708 511.76617 506.192771 495.503572 0.001954017
6.16589 518.34308 511.024701 496.101331 0.001929224
6.17469 529.1156 520.043794 496.702232 0.001889946
6.18349 546.3783 536.457215 497.306284 0.001830234
6.19229 573.28711 563.096831 497.913393 0.001744327
6.20109 609.1485 599.461656 498.523579 0.001641636
6.20990 651.61133 638.11783 499.136748 0.001534657
6.21870 683.81799 662.435333 499.7529 0.001462377
6.22750 678.4317 655.984454 500.372042 0.001473988
6.23630 634.18506 624.235123 500.994056 0.001576827
6.24510 578.32568 586.302162 501.618948 0.00172913
6.25391 541.87744 554.917567 502.246724 0.001845436
6.26271 522.80023 534.112412 502.877264 0.001912777
6.27151 513.69666 522.523902 503.51061 0.001946674
6.28031 509.94833 516.876945 504.146651 0.001960983
6.28911 508.61435 514.329942 504.785394 0.001966126
6.29792 508.32614 513.202549 505.426823 0.001967241
6.30672 508.1077 512.71643 506.070834 0.001968087
6.31552 507.45096 512.557406 506.717461 0.001970634
6.32432 506.43146 512.597761 507.3666 0.001974601
6.33313 506.76501 512.776 508.018232 0.001973301
6.34193 507.79721 513.055846 508.672363 0.00196929
6.35073 508.56436 513.413004 509.328886 0.001966319
6.35953 508.86887 513.830305 509.987782 0.001965143
6.36833 509.06711 514.295323 510.649055 0.001964378
6.37714 508.49149 514.798802 511.312598 0.001966601
6.38594 508.3605 515.333854 511.978428 0.001967108
6.39474 508.68344 515.895155 512.646437 0.001965859
6.40354 509.88232 516.478674 513.316619 0.001961237
6.41234 510.63196 517.081291 513.988978 0.001958358
6.42115 511.47464 517.700445 514.66338 0.001955131
6.42995 511.50455 518.334259 515.339867 0.001955017
6.43875 511.7894 518.981158 516.018318 0.001953929
6.44755 512.53705 519.639884 516.698736 0.001951078
6.45636 513.62854 520.309541 517.381101 0.001946932
6.46516 514.33331 520.989321 518.065299 0.001944265
6.47396 514.71838 521.678709 518.751333 0.00194281
6.48276 515.33868 522.416885 519.439182 0.001940471
6.49156 515.88159 523.124627 520.128731 0.001938429
6.50037 516.34338 523.841223 520.820013 0.001936696
6.50917 517.1889 524.566599 521.512914 0.00193353
6.51797 518.13629 525.300906 522.20741 0.001929994
6.52677 519.29822 526.053476 522.903506 0.001925676
6.53557 519.90228 526.806637 523.601083 0.001923438
6.54438 519.90338 527.569998 524.30016 0.001923434
6.55318 520.52362 528.344229 525.00062 0.001921142
6.56198 521.7561 529.130344 525.702455 0.001916604
6.57078 522.24396 529.929637 526.405669 0.001914814
6.57958 522.12573 530.743569 527.110119 0.001915248
6.58839 523.23425 531.574175 527.815807 0.00191119
6.59719 523.90057 532.424018 528.522726 0.001908759
6.60599 524.16278 533.296204 529.230758 0.001907804
6.61479 524.45313 534.194909 529.93992 0.001906748
6.62360 525.22266 535.125321 530.650094 0.001903954
6.63240 526.10498 536.094402 531.36128 0.001900761
6.64120 526.79382 537.111323 532.073457 0.001898276
6.65000 527.38794 538.188198 532.786505 0.001896137
6.65880 528.68005 539.341826 533.500457 0.001891503
6.66761 530.27832 540.595252 534.215193 0.001885802
6.67641 531.01306 541.981802 534.930692 0.001883193
6.68521 532.03082 543.552792 535.646954 0.00187959
6.69401 533.57257 545.399233 536.363859 0.001874159
6.70281 535.65717 547.732542 537.081385 0.001866866
6.71162 537.78235 551.017488 537.799534 0.001859488
6.72042 541.138 556.420654 538.518184 0.001847957
6.72922 546.57526 566.232796 539.237355 0.001829574
6.73802 557.84363 583.881583 539.956925 0.001792617
6.74682 581.9187 612.546021 540.676888 0.001718453
6.75563 628.32446 652.042357 541.397246 0.001591534
6.76443 701.64215 694.756009 542.117855 0.001425228
6.77323 750.51508 722.440847 542.838716 0.001332418
6.78203 739.56842 716.0581 543.559823 0.00135214
6.79084 683.09613 681.332565 544.281056 0.001463923
6.79964 624.57135 639.881315 545.002433 0.001601098
6.80844 590.99609 605.770168 545.723835 0.001692059
6.81724 572.74689 583.2107 546.445263 0.001745972
6.82604 562.28021 570.62662 547.166696 0.001778473
6.83485 556.021 564.460366 547.888014 0.001798493
6.84365 552.66736 561.656782 548.609251 0.001809407
6.85245 550.41376 560.413898 549.330289 0.001816815
6.86125 548.60535 559.893077 550.051106 0.001822804
6.87005 547.84149 559.75144 550.771704 0.001825346
6.87886 548.46338 559.845985 551.491965 0.001823276
6.88766 549.49957 560.106132 552.211867 0.001819838
6.89646 550.04126 560.489925 552.931414 0.001818045
6.90526 550.06641 560.969529 553.650478 0.001817962
6.91407 549.44684 561.525845 554.369104 0.001820012
6.92287 550.03308 562.145529 555.08715 0.001818072
6.93167 551.51239 562.81961 555.804619 0.001813196
6.94047 552.84094 563.542424 556.521507 0.001808839
6.94927 553.7229 564.310985 557.237697 0.001805957
6.95808 554.49915 565.125102 557.953208 0.001803429
6.96688 555.91577 565.987592 558.667925 0.001798834
6.97568 557.39984 566.906447 559.381851 0.001794044
6.98448 559.64838 567.90104 560.094967 0.001786836
6.99328 562.6684 569.020296 560.807157 0.001777246
7.00209 566.45435 570.383565 561.518427 0.001765367
7.01089 569.51904 572.239778 562.228756 0.001755868
7.01969 572.89618 574.991435 562.93803 0.001745517
7.02849 577.98529 579.074078 563.646287 0.001730148
7.03729 584.47498 584.61426 564.353411 0.001710937
7.04610 594.10321 590.935109 565.059386 0.001683209
7.05490 600.20483 596.038892 565.764216 0.001666098
7.06370 605.67731 597.218927 566.467789 0.001651044
7.07250 606.6535 594.350682 567.170127 0.001648387
7.08131 605.53784 590.092995 567.871118 0.001651424
7.09011 599.79358 586.544837 568.57076 0.00166724
7.09891 596.01147 584.463587 569.26906 0.00167782
7.10771 592.19696 583.767447 569.965883 0.001688627
7.11651 589.51984 584.037759 570.661237 0.001696296
7.12532 587.24146 584.874203 571.355122 0.001702877
7.13412 584.96045 586.029907 572.047426 0.001709517
7.14292 583.30298 587.393974 572.738175 0.001714375
7.15172 582.48883 588.932486 573.427259 0.001716771
7.16052 582.89807 590.647854 574.114686 0.001715566
7.16933 584.11816 592.560665 574.800442 0.001711982
7.17813 586.2923 594.704644 575.484419 0.001705634
7.18693 588.96295 597.128493 576.166657 0.0016979
7.19573 592.91223 599.898729 576.84705 0.00168659
7.20453 596.33661 603.113411 577.525583 0.001676905
7.21334 601.50946 606.888518 578.202267 0.001662484
7.22214 608.98535 611.410479 578.876997 0.001642076
7.23094 619.55518 616.947098 579.549759 0.001614061
7.23974 633.71057 623.935845 580.220565 0.001578007
7.24855 654.66388 633.226936 580.889303 0.001527501
7.25735 683.12354 646.791125 581.556022 0.001463864
7.26615 722.77301 669.362536 582.220596 0.00138356
7.27495 774.64606 711.12159 582.883039 0.001290912
7.28375 845.5907 789.54068 583.543352 0.001182605
7.29256 949.75659 925.61588 584.201437 0.001052901
7.30136 1099.4592 1130.257258 584.857282 0.000909538
7.31016 1280.1731 1382.053269 585.5109 0.000781144
7.31896 1453.7415 1600.917924 586.162192 0.00068788
7.32777 1520.8806 1654.697226 586.811185 0.000657514
7.33657 1481.1599 1500.471312 587.457783 0.000675147
7.34537 1362.8077 1251.961526 588.101998 0.000733779
7.35417 1200.7883 1021.436679 588.743822 0.000832786
7.36297 1034.9174 854.941117 589.383159 0.000966261
7.37178 901.40479 753.778867 590.020052 0.00110938
7.38058 803.49359 699.422763 590.654408 0.001244565
7.38938 739.93738 671.717481 591.286219 0.001351466
7.39818 697.78003 657.052804 591.915499 0.001433116
7.40698 670.27679 648.480044 592.542156 0.001491921
7.41579 652.74933 643.010704 593.166185 0.001531982
7.42459 642.55865 639.411268 593.7876 0.001556278
7.43339 635.58887 637.116704 594.406305 0.001573344
7.44219 631.34546 635.81819 595.02235 0.001583919
7.45099 629.20508 635.329029 595.635626 0.001589307
7.45980 628.97321 635.536068 596.246149 0.001589893
7.46860 629.46686 636.379745 596.853928 0.001588646
7.47740 630.26978 637.84458 597.458878 0.001586622
7.48620 633.1264 639.956962 598.061028 0.001579463
7.49501 636.93823 642.788596 598.660294 0.001570011
7.50381 642.86688 646.468966 599.256694 0.001555532
7.51261 648.52026 651.214648 599.850225 0.001541972
7.52141 656.00623 657.408312 600.440803 0.001524376
7.53021 667.52802 665.839725 601.028448 0.001498064
7.53902 683.63251 678.350072 601.613158 0.001462774
7.54782 707.00543 699.181715 602.194852 0.001414416
7.55662 741.39832 736.812194 602.773576 0.001348803
7.56542 795.21802 804.411433 603.34925 0.001257517
7.57422 886.85455 915.686689 603.921874 0.001127581
7.58303 1036.0664 1074.39645 604.491469 0.000965189
7.59183 1247.9449 1258.924071 605.05795 0.000801317
7.60063 1458.6381 1405.454406 605.62137 0.000685571
7.60943 1524.3438 1436.15141 606.181635 0.00065602
7.61823 1422.1162 1364.487962 606.738766 0.000703177
7.62704 1259.2448 1266.937796 607.292777 0.000794127
7.63584 1141.4324 1172.887598 607.843595 0.000876092
7.64464 1066.4069 1069.029907 608.391222 0.000937728
7.65344 999.83649 960.785374 608.935682 0.001000164
7.66225 928.36047 870.252583 609.476902 0.001077168
7.67105 861.9989 807.085523 610.014917 0.001160094
7.67985 812.68604 769.918244 610.549658 0.001230487
7.68865 776.85858 752.725029 611.081149 0.001287236
7.69745 757.44043 748.945524 611.609393 0.001320236
7.70626 750.25079 753.924319 612.134323 0.001332888
7.71506 754.198 765.465632 612.655989 0.001325912
7.72386 764.61145 783.331179 613.174322 0.001307854
7.73266 787.63733 808.857222 613.689332 0.00126962
7.74146 816.8833 845.624997 614.20104 0.001224165
7.75027 866.82239 902.126126 614.709385 0.001153639
7.75907 939.76807 998.885309 615.214374 0.001064092
7.76787 1065.5303 1179.094597 615.716032 0.0009385
7.77667 1337.108 1515.20904 616.214292 0.000747883
7.78548 1845.6161 2092.315898 616.709208 0.000541824
7.79428 2937.2856 2951.522774 617.200704 0.00034045
7.80308 4271.7881 3998.516795 617.688806 0.000234094
7.81188 5312.9619 4887.534817 618.173535 0.000188219
7.82068 5218.8926 5063.69988 618.654833 0.000191612
7.82949 4270.6577 4393.955615 619.132712 0.000234156
7.83829 3199.0857 3388.266907 619.607197 0.000312589
7.84709 2495.9983 2510.11319 620.078235 0.000400641
7.85589 2021.9799 1941.627574 620.545863 0.000494565
7.86469 1739.4293 1678.021557 621.010028 0.000574901
7.87350 1583.2552 1613.658376 621.47076 0.00063161
7.88230 1515.5118 1596.711139 621.928068 0.000659843
7.89110 1429.3728 1498.421718 622.381903 0.000699608
7.89990 1308.8202 1317.531048 622.832315 0.000764047
7.90870 1155.7971 1128.032297 623.279253 0.000865204
7.91751 1012.9445 976.227795 623.722733 0.000987221
7.92631 908.26526 872.958866 624.162782 0.001101
7.93511 830.86981 810.012634 624.599349 0.001203558
7.94391 780.89526 773.425453 625.032464 0.001280581
7.95272 747.67712 751.692703 625.462141 0.001337476
7.96152 727.19238 738.001923 625.888336 0.001375152
7.97032 714.98474 729.130646 626.311099 0.001398631
7.97912 707.86816 723.812481 626.730386 0.001412692
7.98792 705.2619 721.829572 627.146215 0.001417913
7.99673 706.28577 723.97429 627.558615 0.001415857
8.00553 711.20129 732.84488 627.96757 0.001406072
8.01433 722.94281 754.3231 628.373026 0.001383235
8.02313 748.9386 798.595389 628.775085 0.001335223
8.03193 800.7652 877.978826 629.173703 0.001248806
8.04074 913.93317 999.141088 629.568844 0.001094172
8.04954 1093.0653 1150.048301 629.960593 0.000914858
8.05834 1258.7157 1282.371582 630.348915 0.000794461
8.06714 1282.0734 1313.956226 630.733776 0.000779987
8.07594 1158.8756 1217.576727 631.11526 0.000862905
8.08475 995.72119 1063.555286 631.493334 0.001004297
8.09355 894.10242 920.929566 631.867965 0.00111844
8.10235 824.55963 817.143467 632.239238 0.001212769
8.11115 783.56342 752.73986 632.607121 0.001276221
8.11996 754.63031 716.727725 632.971622 0.001325152
8.12876 732.67853 697.158327 633.332712 0.001364855
8.13756 717.30957 685.848736 633.690473 0.001394098
8.14636 703.40424 678.523481 634.044877 0.001421658
8.15516 692.82111 673.27648 634.395898 0.001443374
8.16397 685.33539 669.283349 634.743616 0.00145914
8.17277 679.51251 666.146119 635.088006 0.001471643
8.18157 674.5849 663.633918 635.429044 0.001482393
8.19037 670.64233 661.593924 635.766809 0.001491108
8.19917 668.24634 659.919411 636.101277 0.001496454
8.20798 666.9389 658.532867 636.432424 0.001499388
8.21678 665.12811 657.376277 636.760339 0.00150347
8.22558 664.1554 656.406333 637.084989 0.001505672
8.23438 663.38037 655.589629 637.40639 0.001507431
8.24319 663.14563 654.900244 637.72452 0.001507964
8.25199 663.35156 654.317448 638.039467 0.001507496
8.26079 663.84814 653.824946 638.351202 0.001506369
8.26959 663.60071 653.409309 638.659706 0.00150693
8.27839 663.00702 653.060087 638.965065 0.00150828
8.28720 662.10858 652.768212 639.267261 0.001510326
8.29600 661.16492 652.529025 639.566268 0.001512482
8.30480 660.87445 652.33094 639.862173 0.001513147
8.31360 660.98944 652.171393 640.154957 0.001512883
8.32240 660.93756 652.046045 640.444607 0.001513002
8.33121 660.60876 651.951094 640.731198 0.001513755
8.34001 660.89294 651.88336 641.014716 0.001513104
8.34881 661.41644 651.840094 641.295179 0.001511907
8.35761 661.70612 651.818943 641.572575 0.001511245
8.36641 661.78943 651.81785 641.846979 0.001511055
8.37522 661.43439 651.835087 642.118379 0.001511866
8.38402 661.51874 651.86917 642.386767 0.001511673
8.39282 661.34784 651.918828 642.652215 0.001512064
8.40162 660.58612 651.983024 642.914715 0.001513807
8.41043 659.43457 652.060916 643.174259 0.001516451
8.41923 659.1546 652.151865 643.430919 0.001517095
8.42803 658.771 652.260437 643.684689 0.001517978
8.43683 658.78802 652.376482 643.935561 0.001517939
8.44563 658.70447 652.50506 644.183608 0.001518131
8.45444 659.05157 652.64659 644.428824 0.001517332
8.46324 658.80103 652.801935 644.671229 0.001517909
8.47204 659.16528 652.97255 644.91082 0.00151707
8.48084 659.00977 653.160809 645.147667 0.001517428
8.48964 659.4292 653.370475 645.381766 0.001516463
8.49845 659.81641 653.608104 645.613116 0.001515573
8.50725 660.75806 653.887028 645.841785 0.001513413
8.51605 660.84271 654.237472 646.067772 0.001513219
8.52485 660.98816 654.727971 646.291076 0.001512886
8.53366 662.41888 655.494653 646.511766 0.001509619
8.54246 664.46228 656.750589 646.729841 0.001504976
8.55126 666.73236 658.72258 646.9453 0.001499852
8.56006 670.52612 661.482991 647.158217 0.001491366
8.56886 674.8764 664.67712 647.368586 0.001481753
8.57767 678.76099 667.162515 647.576433 0.001473273
8.58647 680.79681 667.35897 647.781759 0.001468867
8.59527 679.30328 665.26367 647.984637 0.001472097
8.60407 675.54199 662.457166 648.185062 0.001480293
8.61287 670.18469 660.081593 648.38304 0.001492126
8.62168 665.60565 658.493716 648.578639 0.001502391
8.63048 662.29712 657.622832 648.771864 0.001509896
8.63928 661.15356 657.241947 648.962714 0.001512508
8.64808 661.02234 657.137894 649.15126 0.001512808
8.65689 660.32916 657.174388 649.337505 0.001514396
8.66569 659.53015 657.282393 649.521456 0.001516231
8.67449 659.70099 657.432385 649.703176 0.001515838
8.68329 660.04108 657.610682 649.882672 0.001515057
8.69209 659.77496 657.810731 650.059971 0.001515668
8.70090 659.16174 658.028745 650.235079 0.001517078
8.70970 658.45978 658.262424 650.40806 0.001518696
8.71850 657.9726 658.510294 650.578922 0.00151982
8.72730 657.73218 658.771469 650.747674 0.001520376
8.73610 658.31604 659.047159 650.914378 0.001519027
8.74491 658.99146 659.334057 651.079042 0.00151747
8.75371 658.66144 659.633901 651.241678 0.001518231
8.76251 658.75562 659.947128 651.402346 0.001518014
8.77131 658.67444 660.274281 651.561055 0.001518201
8.78011 659.05438 660.616109 651.717819 0.001517325
8.78892 658.99347 660.973615 651.872695 0.001517466
8.79772 659.11768 661.347879 652.025696 0.00151718
8.80652 658.84351 661.740199 652.176849 0.001517811
8.81532 658.52362 662.154182 652.326166 0.001518548
8.82413 658.61292 662.587398 652.473707 0.001518343
8.83293 659.849 663.043863 652.619484 0.001515498
8.84173 660.27155 663.525806 652.763509 0.001514528
8.85053 659.62598 664.046064 652.905842 0.001516011
8.85933 659.69922 664.587123 653.046494 0.001515842
8.86814 660.1322 665.16238 653.185481 0.001514848
8.87694 660.85406 665.775775 653.322859 0.001513193
8.88574 661.08362 666.454809 653.458642 0.001512668
8.89454 661.52637 667.158008 653.592844 0.001511656
8.90334 662.17664 667.914439 653.725524 0.001510171
8.91215 662.63611 668.730661 653.856694 0.001509124
8.92095 662.40704 669.614403 653.986384 0.001509646
8.92975 662.49286 670.574554 654.114607 0.00150945
8.93855 663.52399 671.621953 654.241424 0.001507105
8.94736 664.36389 672.768946 654.366845 0.001505199
8.95616 665.18524 674.045125 654.490886 0.001503341
8.96496 665.81055 675.438527 654.613606 0.001501929
8.97376 667.01654 676.985038 654.735019 0.001499213
8.98256 668.64429 678.709915 654.855138 0.001495564
8.99137 670.5174 680.644664 654.974022 0.001491386
9.00017 671.92426 682.830853 655.091685 0.001488263
9.00897 673.82709 685.307752 655.208145 0.00148406
9.01777 676.91351 688.138325 655.323454 0.001477294
9.02657 680.14874 691.396427 655.437629 0.001470267
9.03538 684.46509 695.17634 655.5507 0.001460995
9.04418 689.38861 699.599111 655.662684 0.001450561
9.05298 694.57739 704.824999 655.773632 0.001439724
9.06178 701.17371 711.064418 655.883563 0.00142618
9.07058 710.30322 718.600912 655.992495 0.001407849
9.07939 722.61993 727.831826 656.100478 0.001383853
9.08819 737.94989 739.306671 656.20753 0.001355106
9.09699 758.81104 753.871863 656.31367 0.001317851
9.10579 785.67535 772.954878 656.418948 0.00127279
9.11460 823.88556 799.292949 656.523382 0.001213761
9.12340 877.66284 838.562806 656.62699 0.00113939
9.13220 960.55139 902.29665 656.729823 0.001041069
9.14100 1085.5077 1011.402979 656.831898 0.000921228
9.14980 1281.9095 1197.566797 656.933234 0.000780086
9.15861 1593.5288 1497.049592 657.033881 0.000627538
9.16741 1959.5101 1928.762701 657.133856 0.000510332
9.17621 2365.8464 2451.725374 657.233188 0.000422682
9.18501 2778.3362 2939.53803 657.331895 0.000359928
9.19381 3104.2012 3218.915017 657.430027 0.000322144
9.20262 3123.0264 3105.830975 657.527601 0.000320202
9.21142 2763.4016 2627.876202 657.624636 0.000361873
9.22022 2197.6501 2052.229919 657.72118 0.000455031
9.22902 1689.6022 1570.305917 657.817251 0.000591855
9.23782 1303.9883 1235.556469 657.912867 0.000766878
9.24663 1074.9719 1030.248025 658.008078 0.000930257
9.25543 929.771 913.346083 658.102899 0.001075534
9.26423 843.83795 847.144386 658.197348 0.001185062
9.27303 789.30145 807.08884 658.291475 0.001266943
9.28184 754.02692 780.365437 658.385297 0.001326213
9.29064 731.16791 761.038399 658.478841 0.001367675
9.29944 715.59753 746.366726 658.572123 0.001397434
9.30824 704.20844 734.919108 658.665192 0.001420034
9.31704 695.03687 725.83327 658.758067 0.001438773
9.32585 688.5401 718.531545 658.850762 0.001452348
9.33465 683.66626 712.603836 658.943325 0.001462702
9.34345 680.51782 707.755833 659.035773 0.001469469
9.35225 678.06927 703.770355 659.128124 0.001474776
9.36105 676.41638 700.483796 659.220423 0.001478379
9.36986 675.37 697.77384 659.312687 0.00148067
9.37866 675.04285 695.54741 659.404933 0.001481387
9.38746 674.75488 693.733071 659.497206 0.00148202
9.39626 674.24219 692.276705 659.589524 0.001483147
9.40507 673.08954 691.137792 659.681911 0.001485686
9.41387 673.03857 690.286802 659.774385 0.001485799
9.42267 672.81866 689.703462 659.866991 0.001486285
9.43147 672.51007 689.375139 659.959743 0.001486967
9.44027 672.66339 689.297739 660.052659 0.001486628
9.44908 673.25012 689.474481 660.145782 0.001485332
9.45788 674.0921 689.916785 660.239128 0.001483477
9.46668 675.42371 690.645131 660.332713 0.001480552
9.47548 677.05109 691.69101 660.42658 0.001476993
9.48428 678.43811 693.090339 660.520746 0.001473974
9.49309 680.76654 694.924184 660.615223 0.001468932
9.50189 684.29382 697.27 660.710057 0.001461361
9.51069 687.97913 700.246948 660.805262 0.001453532
9.51949 692.88965 704.022392 660.900862 0.001443231
9.52829 698.78888 708.833755 660.99687 0.001431047
9.53710 707.16724 715.032174 661.093331 0.001414093
9.54590 718.38599 723.167677 661.190257 0.001392009
9.55470 734.07666 734.217491 661.287663 0.001362256
9.56350 757.43994 750.173854 661.385591 0.001320237
9.57231 788.75769 775.322855 661.484055 0.001267816
9.58111 839.33649 818.259376 661.583065 0.001191417
9.58991 908.74054 893.439902 661.682668 0.001100424
9.59871 1012.8945 1019.134088 661.782874 0.00098727
9.60751 1173.0511 1208.249811 661.883693 0.000852478
9.61632 1398.8833 1451.290497 661.985171 0.000714856
9.62512 1635.8346 1688.509485 662.087319 0.000611309
9.63392 1792.4098 1794.436296 662.190158 0.000557908
9.64272 1767.0841 1693.009597 662.293697 0.000565904
9.65152 1602.0782 1480.099218 662.397981 0.000624189
9.66033 1402.553 1282.08648 662.503021 0.000712986
9.66913 1243.0164 1153.05188 662.608823 0.000804495
9.67793 1120.9857 1090.097556 662.715433 0.000892072
9.68673 1041.9363 1054.036616 662.822861 0.000959752
9.69553 972.69513 1001.169579 662.931113 0.001028071
9.70434 919.77222 928.672776 663.040234 0.001087226
9.71314 863.10095 858.49225 663.150231 0.001158613
9.72194 821.40375 803.391311 663.261113 0.001217428
9.73074 784.79822 765.40001 663.372922 0.001274213
9.73955 761.69019 741.40096 663.485666 0.00131287
9.74835 744.89728 726.8361 663.599364 0.001342467
9.75715 734.61414 717.890265 663.714023 0.001361259
9.76595 729.68756 712.195327 663.829684 0.00137045
9.77475 729.42786 708.484157 663.946354 0.001370937
9.78356 730.87408 706.22538 664.06404 0.001368225
9.79236 734.99579 705.215717 664.182783 0.001360552
9.80116 740.49823 705.476282 664.302589 0.001350442
9.80996 748.41046 707.299346 664.423463 0.001336165
9.81876 756.46527 711.501398 664.545447 0.001321938
9.82757 767.44116 719.926563 664.668545 0.001303031
9.83637 778.60345 736.039826 664.792762 0.001284351
9.84517 790.14899 764.949714 664.918139 0.001265584
9.85397 800.43188 811.782605 665.04468 0.001249326
9.86278 821.13989 877.823128 665.1724 0.001217819
9.87158 855.04175 953.876333 665.301304 0.001169534
9.88038 901.84119 1010.81488 665.431431 0.001108843
9.88918 952.10596 1008.98907 665.562786 0.001050303
9.89798 966.30829 949.478357 665.695368 0.001034866
9.90679 930.30432 872.29145 665.829221 0.001074917
9.91559 862.78284 805.719442 665.964345 0.00115904
9.92439 793.82916 758.369734 666.100739 0.001259717
9.93319 748.55048 728.656584 666.238449 0.001335915
9.94199 723.59229 711.378848 666.377472 0.001381994
9.95080 708.78442 701.433117 666.517806 0.001410866
9.95960 698.79205 695.359638 666.659497 0.001431041
9.96840 691.40747 691.29201 666.802544 0.001446325
9.97720 686.24396 688.343271 666.946955 0.001457208
9.98600 682.72223 686.09838 667.09273 0.001464725
9.99481 679.98584 684.341154 667.239913 0.001470619
10.00361 677.86212 682.942456 667.388508 0.001475226
10.01241 676.70789 681.81592 667.538488 0.001477742
10.02121 676.08197 680.900123 667.68993 0.001479111
10.03002 674.8382 680.150976 667.842795 0.001481837
10.03882 673.79022 679.535442 667.997093 0.001484141
10.04762 673.33936 679.02842 668.152887 0.001485135
10.05642 673.39435 678.611029 668.310137 0.001485014
10.06522 673.7821 678.272616 668.46887 0.001484159
10.07403 673.93964 677.993294 668.629095 0.001483812
10.08283 673.96674 677.767925 668.790843 0.001483753
10.09163 673.32965 677.589206 668.954086 0.001485157
10.10043 673.18713 677.451165 669.118832 0.001485471
10.10923 673.29498 677.349239 669.285148 0.001485233
10.11804 673.53302 677.278898 669.452986 0.001484708
10.12684 673.76709 677.23726 669.622374 0.001484192
10.13564 673.54993 677.22168 669.79332 0.001484671
10.14444 674.06195 677.227886 669.965853 0.001483543
10.15325 674.20612 677.258439 670.139922 0.001483226
10.16205 674.51892 677.309805 670.315593 0.001482538
10.17085 674.41162 677.380983 670.492874 0.001482774
10.17965 674.72485 677.471144 670.671712 0.001482086
10.18845 675.18384 677.583739 670.852197 0.001481078
10.19726 675.49188 677.71074 671.034272 0.001480403
10.20606 675.94666 677.85889 671.217987 0.001479407
10.21486 676.18494 678.022799 671.403284 0.001478885
10.22366 676.47223 678.205902 671.590233 0.001478257
10.23246 676.69098 678.409152 671.778841 0.001477779
10.24127 676.86157 678.633762 671.969048 0.001477407
10.25007 678.16626 678.881593 672.160946 0.001474565
10.25887 679.2818 679.15488 672.354475 0.001472143
10.26767 680.17181 679.456624 672.549663 0.001470217
10.27647 680.22845 679.79074 672.746513 0.001470094
10.28528 680.3634 680.162167 672.945031 0.001469803
10.29408 681.74426 680.577446 673.14522 0.001466826
10.30288 683.39087 681.044995 673.347084 0.001463291
10.31168 685.07275 681.576438 673.550651 0.001459699
10.32048 687.47375 682.185547 673.755854 0.001454601
10.32929 690.5105 682.89303 673.962791 0.001448204
10.33809 694.73303 683.726369 674.171393 0.001439402
10.34689 701.2356 684.724449 674.381687 0.001426054
10.35569 710.04144 685.945527 674.593675 0.001408369
10.36450 720.79688 687.484565 674.807361 0.001387353
10.37330 733.03217 689.519835 675.02277 0.001364197
10.38210 747.07434 692.420791 675.239832 0.001338555
10.39090 758.55499 696.954409 675.458646 0.001318296
10.39971 767.61304 704.538979 675.679139 0.00130274
10.40851 773.90723 717.316121 675.901312 0.001292145
10.41731 774.68225 737.640189 676.125243 0.001290852
10.42611 771.16718 766.655798 676.350856 0.001296736
10.43491 765.11224 801.769436 676.578177 0.001306998
10.44371 763.04279 832.48884 676.807206 0.001310542
10.45252 762.58478 840.513222 677.03797 0.00131133
10.46132 757.51587 819.585681 677.270416 0.001320104
10.47012 746.82373 785.397638 677.504543 0.001339004
10.47892 732.3067 753.408205 677.740432 0.001365548
10.48773 720.47992 729.644657 677.978001 0.001387964
10.49653 712.08392 714.530163 678.217275 0.001404329
10.50533 708.86914 706.220202 678.458255 0.001410698
10.51413 708.69745 702.441429 678.700938 0.001411039
10.52293 711.11456 701.343311 678.945322 0.001406243
10.53174 713.09131 701.440638 679.191407 0.001402345
10.54054 712.4649 701.212542 679.439219 0.001403578
10.54934 709.32813 699.653698 679.688669 0.001409785
10.55814 705.13831 697.221684 679.93987 0.001418161
10.56695 700.74408 694.871351 680.192734 0.001427055
10.57575 696.86072 693.06827 680.447286 0.001435007
10.58455 694.29449 691.879343 680.703523 0.001440311
10.59335 693.34747 691.196967 680.961442 0.001442278
10.60215 692.60406 690.867286 681.221069 0.001443826
10.61096 692.02118 690.760349 681.482312 0.001445042
10.61976 691.28052 690.793096 681.745285 0.001446591
10.62856 691.50311 690.916865 682.009897 0.001446125
10.63736 691.83191 691.117896 682.276171 0.001445438
10.64616 692.57312 691.365073 682.544104 0.001443891
10.65497 693.29187 691.660029 682.813692 0.001442394
10.66377 693.90735 691.998162 683.084929 0.001441115
10.67257 693.28351 692.376589 683.35781 0.001442411
10.68137 693.53876 692.79383 683.632363 0.00144188
10.69017 694.26685 693.283093 683.908519 0.001440368
10.69898 695.16956 693.777758 684.186303 0.001438498
10.70778 695.69739 694.312486 684.465711 0.001437407
10.71658 696.06177 694.889662 684.746737 0.001436654
10.72538 696.22748 695.512578 685.029374 0.001436312
10.73419 696.84174 696.18547 685.313616 0.001435046
10.74299 697.99835 696.913927 685.59949 0.001432668
10.75179 698.32361 697.704798 685.886892 0.001432001
10.76059 698.91364 698.567319 686.175945 0.001430792
10.76939 699.19348 699.512644 686.466544 0.001430219
10.77820 700.02509 700.555201 686.758683 0.00142852
10.78700 700.71509 701.714001 687.052453 0.001427114
10.79580 702.51678 703.0133 687.347748 0.001423454
10.80460 704.02222 704.485651 687.644627 0.00142041
10.81340 705.78625 706.174982 687.942982 0.00141686
10.82221 707.79749 708.144521 688.242905 0.001412833
10.83101 710.17578 710.491295 688.54439 0.001408102
10.83981 712.87439 713.379345 688.847326 0.001402772
10.84861 716.57794 717.117969 689.151841 0.001395522
10.85741 720.89996 722.292869 689.457825 0.001387155
10.86622 726.7298 729.948773 689.765304 0.001376027
10.87502 735.0141 741.734247 690.074267 0.001360518
10.88382 747.05981 759.820466 690.384708 0.001338581
10.89262 765.50934 786.34651 690.696617 0.00130632
10.90142 790.84369 821.827116 691.009985 0.001264472
10.91023 820.83411 862.171234 691.324838 0.001218273
10.91903 849.09528 898.535721 691.641097 0.001177724
10.92783 874.16699 923.313963 691.958786 0.001143946
10.93663 888.13519 926.318801 692.277898 0.001125955
10.94544 888.30646 898.251523 692.598421 0.001125738
10.95424 870.32739 853.70577 692.920347 0.001148993
10.96304 842.51404 815.517755 693.243665 0.001186924
10.97184 814.9093 791.4069 693.568402 0.00122713
10.98064 795.28912 779.956459 693.894438 0.001257404
10.98945 783.62225 778.16941 694.22191 0.001276125
10.99825 780.58313 783.685431 694.550696 0.001281094
11.00705 786.20355 795.883423 694.880824 0.001271935
11.01585 799.82837 816.865847 695.212282 0.001250268
11.02465 828.8028 852.571761 695.54506 0.00120656
11.03346 883.71973 913.756292 695.879186 0.00113158
11.04226 979.75104 1015.098872 696.214533 0.001020667
11.05106 1145.5277 1170.296063 696.551245 0.00087296
11.05986 1402.7013 1381.375559 696.889194 0.00071291
11.06867 1669.0881 1619.757674 697.228408 0.00059913
11.07747 1818.031 1798.579827 697.568877 0.000550046
11.08627 1725.1012 1801.024666 697.910588 0.000579676
11.09507 1496.1555 1626.484748 698.253529 0.00066838
11.10387 1248.1538 1391.453884 698.597691 0.000801183
11.11268 1070.361 1183.50711 698.9431 0.000934264
11.12148 948.8786 1031.666895 699.289626 0.001053876
11.13028 875.25134 934.131756 699.637376 0.001142529
11.13908 829.22925 877.464873 699.986339 0.001205939
11.14789 803.35394 847.144919 700.336422 0.001244781
11.15669 788.56494 832.633617 700.687655 0.001268126
11.16549 783.16803 828.189386 701.040024 0.001276865
11.17429 785.81653 831.954767 701.393558 0.001272562
11.18309 797.35492 845.193791 701.748124 0.001254147
11.19190 821.61761 872.655569 702.10383 0.001217111
11.20070 867.55438 923.318555 702.460665 0.001152665
11.20950 950.26849 1009.997854 702.818494 0.001052334
11.21830 1092.3502 1145.848618 703.177468 0.000915457
11.22710 1309.2156 1335.164868 703.537451 0.000763816
11.23591 1576.135 1557.912447 703.898472 0.000634463
11.24471 1806.3687 1751.019979 704.260519 0.000553597
11.25351 1888.9441 1815.440374 704.623579 0.000529396
11.26231 1760.4066 1700.204357 704.98768 0.000568051
11.27111 1517.2748 1480.248072 705.352686 0.000659076
11.27992 1278.9542 1258.761512 705.718749 0.000781889
11.28872 1107.8221 1084.937989 706.085733 0.000902672
11.29752 999.17566 967.00471 706.453665 0.001000825
11.30632 936.89001 895.458097 706.822534 0.001067361
11.31513 899.93372 855.455712 707.192325 0.001111193
11.32393 876.53448 832.910877 707.563027 0.001140856
11.33273 862.09668 816.658816 707.934627 0.001159963
11.34153 847.81018 800.888533 708.307152 0.001179509
11.35033 829.09564 785.786238 708.680464 0.001206133
11.35914 807.33704 772.962113 709.05472 0.00123864
11.36794 787.06708 762.984265 709.429777 0.00127054
11.37674 771.04376 755.629453 709.805667 0.001296943
11.38554 761.06287 750.384981 710.182376 0.001313952
11.39434 753.96637 746.738769 710.55989 0.001326319
11.40315 748.74603 744.350264 710.93824 0.001335566
11.41195 744.65771 743.129179 711.317283 0.001342899
11.42075 742.505 743.220783 711.697179 0.001346792
11.42955 742.9306 744.902408 712.077784 0.001346021
11.43835 745.13696 748.371354 712.459086 0.001342035
11.44716 747.29205 753.386213 712.841202 0.001338165
11.45596 748.59247 758.636507 713.223988 0.00133584
11.46476 748.41522 761.217245 713.607474 0.001336157
11.47356 746.52618 758.681251 713.991647 0.001339538
11.48237 743.34381 752.480648 714.376539 0.001345273
11.49117 740.55768 745.737182 714.762003 0.001350334
11.49997 738.48431 740.171093 715.148159 0.001354125
11.50877 736.32611 736.195472 715.534994 0.001358094
11.51757 733.89594 733.622061 715.922406 0.001362591
11.52638 732.1358 732.057524 716.310426 0.001365867
11.53518 731.69531 731.131149 716.699042 0.001366689
11.54398 731.29028 730.582512 717.088284 0.001367446
11.55278 730.48724 730.26139 717.478007 0.001368949
11.56158 730.18054 730.092253 717.868331 0.001369524
11.57039 730.43225 730.03143 718.259241 0.001369052
11.57919 730.54596 730.060165 718.650593 0.001368839
11.58799 731.20404 730.167809 719.042551 0.001367607
11.59679 731.65509 730.347465 719.434969 0.001366764
11.60559 731.63354 730.596416 719.827878 0.001366804
11.61440 731.8421 730.914979 720.221266 0.001366415
11.62320 733.30017 731.305679 720.615119 0.001363698
11.63200 734.58301 731.77178 721.00947 0.001361317
11.64080 735.87323 732.315134 721.404171 0.00135893
11.64961 737.237 732.93671 721.799389 0.001356416
11.65841 739.32452 733.63426 722.194978 0.001352586
11.66721 741.58832 734.510739 722.590968 0.001348457
11.67601 744.84259 735.779736 722.987348 0.001342566
11.68481 750.26385 737.963745 723.384104 0.001332864
11.69362 759.71515 742.00544 723.781226 0.001316283
11.70242 777.74768 749.255949 724.178699 0.001285764
11.71122 807.12067 760.836143 724.576557 0.001238972
11.72002 843.06842 776.140628 724.974652 0.001186143
11.72883 868.25653 791.579725 725.373153 0.001151733
11.73763 870.44812 800.288242 725.771911 0.001148834
11.74643 847.45801 797.13397 726.17096 0.001179999
11.75523 816.88757 785.591898 726.570288 0.001224159
11.76403 792.35828 772.474021 726.969882 0.001262055
11.77284 778.90381 761.609295 727.369776 0.001283856
11.78164 770.18793 754.067517 727.769821 0.001298384
11.79044 765.51135 749.550833 728.170189 0.001306316
11.79924 760.88617 747.301965 728.57073 0.001314257
11.80804 759.18536 746.584043 728.971433 0.001317201
11.81685 758.43182 746.922196 729.372422 0.00131851
11.82565 759.83942 748.156821 729.77355 0.001316068
11.83445 762.7818 750.459871 730.174851 0.001310991
11.84325 766.97357 754.399679 730.576313 0.001303826
11.85206 775.21094 761.016257 730.97797 0.001289971
11.86086 786.96759 771.753356 731.379721 0.0012707
11.86966 802.77252 788.030227 731.781553 0.001245683
11.87846 820.23193 810.341762 732.183592 0.001219167
11.88726 836.15613 836.594048 732.585691 0.001195949
11.89607 844.06628 859.230687 732.987885 0.001184741
11.90487 841.65137 865.787075 733.390161 0.00118814
11.91367 834.27228 851.586636 733.792556 0.001198649
11.92247 820.68848 826.770835 734.194922 0.001218489
11.93127 808.30176 802.431078 734.597384 0.001237162
11.94008 795.53326 783.379909 734.999933 0.001257018
11.94888 786.27466 770.325361 735.402421 0.00127182
11.95768 777.02429 762.210643 735.805021 0.001286961
11.96648 771.224 757.534695 736.207584 0.00129664
11.97528 764.81543 754.975115 736.610193 0.001307505
11.98409 761.69128 753.661061 737.012699 0.001312868
11.99289 758.95941 753.144499 737.415231 0.001317594
12.00169 758.07916 753.268638 737.817778 0.001319123
12.01049 757.14789 754.106592 738.220194 0.001320746
12.01929 758.341 755.899658 738.622651 0.001318668
12.02810 761.07526 759.017587 739.025003 0.001313931
12.03690 767.61603 763.812719 739.427286 0.001302735
12.04570 777.93658 770.348509 739.829491 0.001285452
12.05450 789.88983 777.900022 740.231608 0.001265999
12.06330 794.73071 784.185528 740.633629 0.001258288
12.07211 790.81744 785.719711 741.035543 0.001264514
12.08091 781.16553 781.586724 741.437388 0.001280138
12.08971 773.24451 774.799081 741.839064 0.001293252
12.09851 767.28406 768.31924 742.240607 0.001303298
12.10732 763.04095 763.363578 742.64201 0.001310546
12.11612 760.07446 760.061485 743.043262 0.001315661
12.12492 758.34137 758.072468 743.444356 0.001318667
12.13372 757.72662 756.90876 743.845283 0.001319737
12.14252 758.26898 756.116758 744.246082 0.001318793
12.15133 759.17432 755.353341 744.646606 0.001317221
12.16013 759.67487 754.4214 745.04703 0.001316353
12.16893 760.2948 753.323366 745.44721 0.001315279
12.17773 761.56287 752.393995 745.847138 0.001313089
12.18653 763.5011 752.434902 746.246942 0.001309756
12.19534 765.87189 754.126816 746.646479 0.001305701
12.20414 767.90039 757.366182 747.045832 0.001302252
12.21294 768.41479 761.389768 747.444857 0.00130138
12.22174 769.78467 765.976724 747.843729 0.001299065
12.23055 772.08521 771.405208 748.242305 0.001295194
12.23935 775.39648 778.166344 748.640577 0.001289663
12.24815 780.35114 786.62414 749.038674 0.001281474
12.25695 786.15515 796.518826 749.436455 0.001272014
12.26575 792.14929 806.190187 749.833956 0.001262388
12.27456 796.64777 812.18142 750.231173 0.00125526
12.28336 797.67926 812.022304 750.628144 0.001253637
12.29216 796.92828 807.864936 751.024726 0.001254818
12.30096 797.58337 803.574291 751.42105 0.001253787
12.30977 798.85382 801.442339 751.817108 0.001251793
12.31857 803.73956 802.430187 752.212806 0.001244184
12.32737 810.62262 807.02946 752.608181 0.00123362
12.33617 819.46149 815.751229 753.003229 0.001220314
12.34497 832.45404 829.330875 753.397988 0.001201268
12.35378 853.26019 848.69316 753.792319 0.001171975
12.36258 874.09851 874.584221 754.18635 0.001144036
12.37138 901.42316 906.577392 754.580077 0.001109357
12.38018 939.25232 943.199098 754.97336 0.001064677
12.38898 985.24371 986.285485 755.366372 0.001014977
12.39779 1052.7968 1041.356659 755.758976 0.000949851
12.40659 1140.5577 1108.613429 756.15121 0.000876764
12.41539 1211.0573 1175.914903 756.54307 0.000825725
12.42419 1258.1097 1228.974758 756.934551 0.000794843
12.43299 1289.4501 1276.166277 757.32565 0.000775524
12.44180 1295.6416 1336.796714 757.716361 0.000771818
12.45060 1334.1039 1405.693458 758.106725 0.000749567
12.45940 1364.0629 1440.775196 758.496649 0.000733104
12.46820 1362.5902 1398.533529 758.886174 0.000733896
12.47701 1309.1272 1295.329757 759.275295 0.000763868
12.48581 1208.0292 1183.763108 759.664009 0.000827795
12.49461 1112.3331 1098.727214 760.052312 0.000899011
12.50341 1055.0198 1053.411198 760.440201 0.00094785
12.51221 1043.207 1049.459278 760.827717 0.000958583
12.52102 1076.5063 1081.467399 761.214723 0.000928931
12.52982 1152.251 1136.210575 761.601393 0.000867866
12.53862 1221.3389 1187.165278 761.987593 0.000818774
12.54742 1234.3046 1197.846671 762.373318 0.000810173
12.55622 1162.9023 1156.370074 762.758699 0.000859917
12.56503 1063.0569 1090.634043 763.1436 0.000940683
12.57383 982.73895 1030.809928 763.528106 0.001017564
12.58263 943.76447 989.113938 763.912085 0.001059586
12.59143 922.43872 963.559866 764.295708 0.001084083
12.60023 909.62103 943.445495 764.678843 0.001099359
12.60904 893.74829 919.235099 765.061487 0.001118883
12.61784 873.61676 891.934643 765.443768 0.001144667
12.62664 855.40576 867.282678 765.825555 0.001169036
12.63544 839.03888 848.520399 766.206889 0.00119184
12.64424 826.8053 836.515365 766.587769 0.001209475
12.65305 819.89825 831.270521 766.968235 0.001219664
12.66185 817.42065 832.60835 767.348158 0.00122336
12.67065 819.64215 840.298487 767.727665 0.001220045
12.67945 827.77997 853.63311 768.106754 0.00120805
12.68826 840.979 870.244722 768.48534 0.00118909
12.69706 851.92914 884.179791 768.863463 0.001173807
12.70586 854.61523 886.552888 769.241122 0.001170117
12.71466 847.26611 874.387722 769.618361 0.001180267
12.72346 836.39789 854.707874 769.995049 0.001195603
12.73227 824.75409 835.266105 770.371315 0.001212483
12.74107 815.49719 819.579161 770.747157 0.001226246
12.74987 807.41302 808.297598 771.122448 0.001238524
12.75867 801.13538 800.779551 771.497358 0.001248228
12.76747 795.91925 795.984602 771.871758 0.001256409
12.77628 791.93707 792.943189 772.245691 0.001262727
12.78508 788.86829 790.947494 772.619158 0.001267639
12.79388 786.315 789.57852 772.992158 0.001271755
12.80268 784.59271 788.603548 773.364734 0.001274547
12.81148 783.41217 787.913287 773.736759 0.001276467
12.82029 782.72711 787.413349 774.108403 0.001277584
12.82909 782.37946 787.076714 774.479539 0.001278152
12.83789 782.31329 786.878645 774.850211 0.00127826
12.84669 782.33496 786.804483 775.220418 0.001278225
12.85550 782.59088 786.849124 775.590163 0.001277807
12.86430 782.77277 787.018578 775.959445 0.00127751
12.87310 783.31818 787.33687 776.328266 0.00127662
12.88190 784.52777 787.864019 776.696668 0.001274652
12.89070 786.69641 788.70015 777.064528 0.001271138
12.89951 788.54987 790.016815 777.432013 0.001268151
12.90831 790.60822 792.049711 777.799 0.001264849
12.91711 792.87915 795.041211 778.165532 0.001261226
12.92591 795.96283 799.126821 778.53161 0.00125634
12.93472 799.55609 804.121875 778.897235 0.001250694
12.94352 804.02509 809.130831 779.262452 0.001243742
12.95232 808.22919 812.341103 779.627137 0.001237273
12.96112 809.81042 812.432074 779.991458 0.001234857
12.96992 810.93268 810.277176 780.355293 0.001233148
12.97873 807.75861 807.425858 780.718643 0.001237994
12.98753 804.48389 804.366466 781.081635 0.001243033
12.99633 799.62976 801.17451 781.444147 0.001250579
13.00513 796.25098 798.303609 781.806222 0.001255885
13.01393 793.51166 796.179521 782.167862 0.001260221
13.02274 792.33667 794.886622 782.529112 0.00126209
13.03154 791.22699 794.295106 782.889891 0.00126386
13.04034 790.84033 794.162914 783.250202 0.001264478
13.04914 790.96857 794.174487 783.61017 0.001264273
13.05795 791.1123 794.094596 783.969676 0.001264043
13.06675 791.46667 793.966288 784.328762 0.001263477
13.07555 792.22156 793.990814 784.687432 0.001262273
13.08435 794.29004 794.336073 785.045728 0.001258986
13.09315 797.14215 795.103173 785.403533 0.001254481
13.10196 800.59241 796.328093 785.760971 0.001249075
13.11076 804.26666 797.940994 786.118044 0.001243369
13.11956 806.73676 799.660954 786.474635 0.001239562
13.12836 806.99579 800.889329 786.830908 0.001239164
13.13716 805.81775 801.012203 787.186745 0.001240975
13.14597 802.99274 800.131832 787.54223 0.001245341
13.15477 800.34082 798.904443 787.897246 0.001249468
13.16357 798.31158 797.824366 788.251917 0.001252644
13.17237 796.82544 797.074707 788.606246 0.00125498
13.18117 795.40161 796.666997 788.960115 0.001257227
13.18998 794.55127 796.539038 789.31369 0.001258572
13.19878 794.19598 796.610732 789.666853 0.001259135
13.20758 794.62384 796.812335 790.019649 0.001258457
13.21638 794.59247 797.095728 790.372079 0.001258507
13.22518 795.19263 797.432915 790.724149 0.001257557
13.23399 795.83752 797.807355 791.075863 0.001256538
13.24279 797.37195 798.211864 791.427223 0.00125412
13.25159 800.61139 798.642589 791.778273 0.001249045
13.26039 803.62445 799.097505 792.128938 0.001244362
13.26920 810.6524 799.575971 792.479261 0.001233574
13.27800 815.37299 800.078091 792.829246 0.001226433
13.28680 817.23505 800.604583 793.178898 0.001223638
13.29560 817.82178 801.156784 793.52822 0.00122276
13.30440 819.39777 801.739201 793.877216 0.001220408
13.31321 816.87292 802.34831 794.225929 0.001224181
13.32201 817.72797 802.988991 794.574246 0.001222901
13.33081 817.81635 803.664304 794.922328 0.001222768
13.33961 815.96246 804.378316 795.270061 0.001225547
13.34841 812.90314 805.137042 795.61745 0.001230159
13.35722 809.90936 805.950067 795.964615 0.001234706
13.36602 808.44141 806.82096 796.311445 0.001236948
13.37482 806.90381 807.761666 796.658021 0.001239305
13.38362 805.98273 808.78333 797.004229 0.001240721
13.39243 805.63226 809.910092 797.350232 0.001241261
13.40123 805.53918 811.140601 797.695915 0.001241405
13.41003 805.62091 812.507011 798.041284 0.001241279
13.41883 806.66693 814.036934 798.386459 0.001239669
13.42763 807.4184 815.766941 798.731327 0.001238515
13.43644 808.46234 817.743871 799.075933 0.001236916
13.44524 810.58069 820.030044 799.42028 0.001233683
13.45404 813.39014 822.708383 799.764412 0.001229422
13.46284 815.85797 825.893677 800.108215 0.001225704
13.47164 818.3089 829.75588 800.451812 0.001222032
13.48045 822.13922 834.571702 800.795206 0.001216339
13.48925 827.83441 840.803963 801.138285 0.001207971
13.49805 835.32166 849.329106 801.48121 0.001197144
13.50685 845.89355 861.714829 801.823867 0.001182182
13.51566 863.11255 880.561525 802.166339 0.001158597
13.52446 890.13184 909.617254 802.508513 0.001123429
13.53326 934.71307 953.30782 802.850511 0.001069847
13.54206 1013.2702 1015.296027 803.192336 0.000986904
13.55086 1137.8051 1095.856939 803.533877 0.000878885
13.55967 1278.5679 1187.15676 803.875293 0.000782125
13.56847 1377.5641 1265.613025 804.216472 0.000725919
13.57727 1358.6274 1293.645522 804.557457 0.000736037
13.58607 1253.8633 1253.506262 804.898252 0.000797535
13.59487 1132.3986 1171.071988 805.238862 0.000883081
13.60368 1032.9229 1082.612969 805.57929 0.000968126
13.61248 969.10022 1007.718399 805.919541 0.001031885
13.62128 926.81061 951.961982 806.259658 0.001078969
13.63008 898.99713 914.083232 806.599567 0.001112351
13.63889 881.8302 890.178338 806.939312 0.001134005
13.64769 871.38544 876.028711 807.278896 0.001147598
13.65649 864.71881 868.334569 807.618324 0.001156445
13.66529 861.51953 865.016487 807.957599 0.00116074
13.67409 860.27478 864.993963 808.296726 0.001162419
13.68290 862.41943 867.800146 808.635747 0.001159529
13.69170 868.78687 873.211265 808.974551 0.00115103
13.70050 878.09949 880.936686 809.313295 0.001138823
13.70930 890.05072 890.562639 809.651868 0.001123531
13.71810 908.2605 902.758875 809.990274 0.001101006
13.72691 931.08386 920.563781 810.328633 0.001074017
13.73571 961.71301 948.232757 810.666831 0.001039811
13.74451 1005.5955 988.42823 811.004951 0.000994436
13.75331 1055.6016 1040.07322 811.342881 0.000947327
13.76211 1109.1646 1095.351906 811.680777 0.000901579
13.77092 1156.042 1137.890482 812.018529 0.00086502
13.77972 1172.165 1148.652679 812.35614 0.000853122
13.78852 1142.5933 1120.15822 812.693729 0.000875202
13.79732 1085.1354 1065.983421 813.031184 0.000921544
13.80612 1015.1268 1007.315573 813.368547 0.000985099
13.81493 957.97211 956.979519 813.705821 0.001043872
13.82373 917.64185 918.909291 814.043048 0.00108975
13.83253 890.96753 892.494237 814.380117 0.001122375
13.84133 873.10785 875.276488 814.717146 0.001145334
13.85014 861.43134 864.539287 815.054137 0.001160859
13.85894 853.97736 858.046863 815.391018 0.001170991
13.86774 849.76587 854.323003 815.727829 0.001176795
13.87654 848.13043 852.602552 816.064575 0.001179064
13.88534 848.29742 852.688575 816.401296 0.001178832
13.89415 850.41205 854.836645 816.73788 0.001175901
13.90295 853.99774 859.63991 817.074445 0.001170963
13.91175 859.72632 867.854992 817.410994 0.001163161
13.92055 866.83478 880.065908 817.747414 0.001153622
13.92935 878.09918 896.161338 818.083863 0.001138824
13.93816 890.2934 914.35459 818.420226 0.001123225
13.94696 903.42383 929.751861 818.756546 0.0011069
13.95576 914.43762 934.991389 819.092825 0.001093568
13.96456 918.94037 926.914596 819.429065 0.00108821
13.97337 916.39191 910.768173 819.765307 0.001091236
13.98217 907.4552 893.707552 820.101438 0.001101983
13.99097 894.67029 879.675667 820.437614 0.00111773
13.99977 882.97461 869.784228 820.773722 0.001132535
14.00857 873.92908 863.59898 821.109802 0.001144258
14.01738 867.37531 859.893199 821.445857 0.001152903
14.02618 863.09448 857.443664 821.781888 0.001158622
14.03498 860.69775 855.824652 822.117898 0.001161848
14.04378 860.5614 855.331879 822.453888 0.001162032
14.05259 862.82947 856.456982 822.789898 0.001158978
14.06139 867.95233 859.82764 823.125815 0.001152137
14.07019 877.85846 866.253359 823.461793 0.001139136
14.07899 895.0213 876.676138 823.79772 0.001117292
14.08779 919.0575 891.928099 824.133636 0.001088071
14.09660 945.81659 912.219599 824.46954 0.001057287
14.10540 967.81537 936.082679 824.805436 0.001033255
14.11420 977.00842 958.89469 825.141362 0.001023533
14.12300 974.63409 973.687513 825.477204 0.001026026
14.13180 965.35883 977.005548 825.813117 0.001035884
14.14061 951.67023 970.513075 826.148987 0.001050784
14.14941 937.45416 955.674208 826.484815 0.001066719
14.15821 923.20477 934.553074 826.820716 0.001083183
14.16701 909.89264 912.09488 827.156576 0.001099031
14.17581 898.51825 892.564434 827.492434 0.001112943
14.18462 887.98871 877.550391 827.828291 0.00112614
14.19342 878.7655 866.903995 828.164185 0.00113796
14.20222 870.28766 859.807708 828.500041 0.001149045
14.21102 864.31427 855.336956 828.835858 0.001156987
14.21983 860.37207 852.713696 829.171752 0.001162288
14.22863 858.36224 851.386429 829.507608 0.001165009
14.23743 857.26147 851.083196 829.843464 0.001166505
14.24623 856.8587 851.619318 830.17932 0.001167054
14.25503 857.82764 852.866058 830.515176 0.001165735
14.26384 860.12671 854.595762 830.851031 0.001162619
14.27264 861.90051 856.308572 831.186886 0.001160227
14.28144 862.95367 857.198133 831.522779 0.001158811
14.29024 862.21661 856.712278 831.858593 0.001159801
14.29904 859.63452 855.214875 832.194482 0.001163285
14.30785 856.85388 853.485997 832.53033 0.00116706
14.31665 855.33429 852.044808 832.866174 0.001169134
14.32545 854.10773 851.083656 833.202014 0.001170812
14.33425 852.42377 850.614885 833.537849 0.001173125
14.34305 851.24414 850.572995 833.873715 0.001174751
14.35186 850.89844 850.871169 834.209498 0.001175228
14.36066 850.2829 851.433041 834.545348 0.001176079
14.36946 850.13208 852.207114 834.88115 0.001176288
14.37826 850.12085 853.168005 835.21694 0.001176303
14.38706 850.5423 854.311606 835.552718 0.00117572
14.39587 851.55566 855.650263 835.888481 0.001174321
14.40467 853.0896 857.209644 836.224228 0.00117221
14.41347 854.19385 859.031859 836.559957 0.001170694
14.42227 855.90784 861.173049 836.895704 0.00116835
14.43108 858.7356 863.711393 837.231391 0.001164503
14.43988 862.91522 866.780469 837.567054 0.001158862
14.44868 866.84546 870.59345 837.902692 0.001153608
14.45748 871.47021 875.520165 838.238301 0.001147486
14.46628 878.49658 882.195602 838.573879 0.001138308
14.47509 887.79895 891.656157 838.909425 0.001126381
14.48389 900.27533 905.432635 839.244973 0.001110771
14.49269 917.59924 925.482101 839.580407 0.0010898
14.50149 941.26587 953.908505 839.915876 0.001062399
14.51029 975.31281 992.206812 840.251264 0.001025312
14.51910 1024.7793 1039.998225 840.586567 0.00097582
14.52790 1079.5471 1092.54448 840.921897 0.000926314
14.53670 1117.0935 1138.206206 841.257136 0.00089518
14.54550 1130.3379 1163.354697 841.59232 0.000884691
14.55430 1129.3693 1165.045591 841.927445 0.00088545
14.56311 1122.356 1149.321575 842.262507 0.000890983
14.57191 1107.2659 1119.144271 842.597543 0.000903125
14.58071 1080.5563 1077.674128 842.932432 0.000925449
14.58951 1046.4895 1033.770523 843.267326 0.000955576
14.59832 1014.3777 995.812398 843.602105 0.000985826
14.60712 987.78857 967.279345 843.936804 0.001012362
14.61592 965.84924 948.303768 844.271418 0.001035358
14.62472 951.87164 937.752215 844.605945 0.001050562
14.63352 945.22882 934.402407 844.94038 0.001057945
14.64233 944.3219 937.534245 845.274719 0.001058961
14.65113 950.57166 947.172836 845.608995 0.001051999
14.65993 964.81812 964.012821 845.943091 0.001036465
14.66873 987.82373 988.994521 846.277154 0.001012326
14.67754 1023.7401 1022.409065 846.611066 0.00097681
14.68634 1073.9745 1063.087749 846.944859 0.000931121
14.69514 1135.3035 1108.228369 847.27853 0.000880822
14.70394 1202.938 1152.417987 847.612074 0.000831298
14.71274 1263.0461 1185.882434 847.945523 0.000791737
14.72155 1296.2162 1201.616119 848.27876 0.000771476
14.73035 1305.5277 1208.455279 848.61193 0.000765974
14.73915 1310.439 1226.463208 848.944916 0.000763103
14.74795 1349.795 1272.30233 849.27775 0.000740853
14.75675 1460.9688 1353.612368 849.610426 0.000684477
14.76556 1647.2631 1467.122136 849.94294 0.000607068
14.77436 1816.6165 1593.086045 850.275285 0.000550474
14.78316 1850.6504 1688.078373 850.607458 0.000540351
14.79196 1733.8384 1699.348537 850.93949 0.000576755
14.80077 1548.6774 1614.711762 851.271299 0.000645712
14.80957 1375.1425 1476.183457 851.602881 0.000727197
14.81837 1242.8812 1331.97616 851.934342 0.000804582
14.82717 1151.4235 1208.043758 852.265564 0.00086849
14.83597 1093.3578 1112.334297 852.596578 0.000914614
14.84478 1053.6439 1043.593032 852.92738 0.000949087
14.85358 1024.3961 996.669763 853.257999 0.000976185
14.86238 999.97455 965.466873 853.588318 0.001000025
14.87118 981.10168 944.659155 853.918443 0.001019262
14.87998 965.89484 930.376535 854.248368 0.001035309
14.88879 952.93567 920.139573 854.577973 0.001049389
14.89759 941.90143 912.482298 854.907403 0.001061682
14.90639 932.26593 906.575408 855.236539 0.001072655
14.91519 923.3988 901.937057 855.565449 0.001082956
14.92399 915.60309 898.271976 855.894014 0.001092176
14.93280 908.42432 895.385046 856.222341 0.001100807
14.94160 902.81879 893.14391 856.550421 0.001107642
14.95040 898.03802 891.457869 856.878137 0.001113539
14.95920 894.35913 890.268824 857.205632 0.001118119
14.96800 891.47986 889.551128 857.532785 0.00112173
14.97681 889.45398 889.317511 857.859629 0.001124285
14.98561 888.12585 889.632978 858.186155 0.001125967
14.99441 888.35962 890.65012 858.512357 0.00112567
15.00321 889.54706 892.645864 858.838228 0.001124168
15.01201 890.55493 896.056623 859.16376 0.001122895
15.02082 891.64923 901.470552 859.488985 0.001121517
15.02962 893.5321 909.540397 859.813819 0.001119154
15.03842 896.0929 920.78691 860.138294 0.001115956
15.04722 899.29169 935.274217 860.462401 0.001111986
15.05603 903.67737 952.024871 860.786135 0.00110659
15.06483 907.12817 968.087978 861.109486 0.00110238
15.07363 912.09943 978.299502 861.432448 0.001096372
15.08243 919.07788 978.674477 861.75505 0.001088047
15.09123 926.79742 971.232274 862.077175 0.001078984
15.10004 930.29315 961.99158 862.398961 0.00107493
15.10884 931.81903 955.688973 862.720291 0.00107317
15.11764 932.82678 954.20696 863.041158 0.00107201
15.12644 935.60461 957.030597 863.361663 0.001068828
15.13524 940.34796 961.287804 863.68169 0.001063436
15.14405 945.6601 962.033316 864.001303 0.001057462
15.15285 949.91913 955.512698 864.320386 0.001052721
15.16165 951.37469 943.876085 864.639076 0.001051111
15.17045 950.56842 933.179624 864.957257 0.001052002
15.17925 947.61066 927.52309 865.274921 0.001055286
15.18806 946.41119 928.060353 865.592168 0.001056623
15.19686 947.11761 934.92698 865.908882 0.001055835
15.20566 951.93793 947.960018 866.225092 0.001050489
15.21446 962.44873 966.420614 866.540789 0.001039016
15.22327 977.50507 988.172034 866.856002 0.001023013
15.23207 992.98871 1008.417967 867.170615 0.001007061
15.24087 1006.5883 1019.658026 867.484728 0.000993455
15.24967 1005.2099 1016.707062 867.798331 0.000994817
15.25848 996.55402 1002.738604 868.111347 0.001003458
15.26728 988.4859 985.878429 868.423803 0.001011648
15.27608 982.39722 972.426434 868.735691 0.001017918
15.28488 978.68243 965.145786 869.047037 0.001021782
15.29368 973.66119 963.449544 869.357729 0.001027051
15.30249 964.30438 963.508591 869.667864 0.001037017
15.31129 953.22931 960.990211 869.977434 0.001049066
15.32009 944.12134 954.599529 870.286325 0.001059186
15.32889 936.64209 945.848293 870.59467 0.001067644
15.33769 931.11835 937.012431 870.902355 0.001073977
15.34650 927.14258 929.977797 871.209408 0.001078583
15.35530 925.22797 925.973418 871.515821 0.001080815
15.36410 925.43542 925.811667 871.821585 0.001080572
15.37290 928.19751 930.205833 872.126728 0.001077357
15.38170 933.58551 939.911814 872.431137 0.001071139
15.39051 943.2326 955.631636 872.734942 0.001060184
15.39931 959.45514 977.596743 873.038032 0.001042258
15.40811 981.17511 1004.840678 873.340434 0.001019186
15.41691 1001.9752 1033.832786 873.64214 0.000998029
15.42572 1017.4166 1057.017965 873.943141 0.000982882
15.43452 1024.5526 1064.642595 874.24343 0.000976036
15.44332 1025.5405 1052.594334 874.542999 0.000975096
15.45212 1018.6438 1026.872383 874.841874 0.000981697
15.46092 1005.0815 997.170781 875.139946 0.000994944
15.46973 986.10626 970.015795 875.437341 0.001014089
15.47853 965.97461 948.093791 875.733951 0.001035224
15.48733 948.40973 931.788 876.029802 0.001054397
15.49613 933.46008 920.39047 876.324885 0.001071283
15.50493 922.7818 912.785955 876.619194 0.00108368
15.51374 913.8739 907.862139 876.912754 0.001094243
15.52254 907.95221 904.724711 877.205457 0.00110138
15.53134 902.90594 902.749551 877.497429 0.001107535
15.54014 899.49127 901.550762 877.788562 0.00111174
15.54894 896.8689 900.908701 878.078849 0.00111499
15.55775 896.29834 900.709358 878.368382 0.0011157
15.56655 895.50354 900.905063 878.657054 0.00111669
15.57535 896.63684 901.495313 878.944891 0.001115279
15.58415 897.3938 902.526278 879.231886 0.001114338
15.59296 899.49799 904.104227 879.518063 0.001111731
15.60176 902.33307 906.417784 879.803317 0.001108238
15.61056 906.81238 909.773151 880.08774 0.001102764
15.61936 912.21545 914.621038 880.371323 0.001096232
15.62816 921.4801 921.572156 880.653995 0.001085211
15.63697 934.15631 931.369318 880.935781 0.001070485
15.64577 955.5448 944.756562 881.216674 0.001046523
15.65457 977.68866 962.168388 881.496699 0.00102282
15.66337 997.73596 983.177405 881.775754 0.001002269
15.67217 1009.178 1006.242503 882.053927 0.000990905
15.68098 1018.6527 1029.254591 882.331211 0.000981689
15.68978 1023.3546 1049.536888 882.607504 0.000977178
15.69858 1029.2858 1061.982727 882.882927 0.000971547
15.70738 1026.2764 1060.268255 883.157378 0.000974396
15.71618 1013.8667 1043.592822 883.430881 0.000986323
15.72499 994.46045 1018.560849 883.703432 0.00100557
15.73379 974.21594 992.831454 883.975022 0.001026466
15.74259 955.60126 970.861602 884.245677 0.001046462
15.75139 941.87494 954.270705 884.515298 0.001061712
15.76020 933.3299 943.16934 884.784001 0.001071433
15.76900 927.81647 937.039247 885.051689 0.001077799
15.77780 925.1463 935.200322 885.318386 0.00108091
15.78660 925.18304 937.082399 885.584087 0.001080867
15.79540 928.72418 942.220003 885.848785 0.001076746
15.80421 934.61676 950.159251 886.112474 0.001069957
15.81301 943.71118 960.531549 886.375149 0.001059646
15.82181 955.05994 973.182088 886.636835 0.001047055
15.83061 968.52026 987.511865 886.897435 0.001032503
15.83942 983.14801 1001.077586 887.157064 0.001017141
15.84822 996.49554 1009.033975 887.415627 0.001003517
15.85702 1002.8523 1006.912292 887.673148 0.000997156
15.86582 998.57166 995.30374 887.929623 0.00100143
15.87462 985.43091 979.258559 888.185046 0.001014784
15.88343 968.22083 963.606547 888.43944 0.001032822
15.89223 951.71533 950.987832 888.692716 0.001050734
15.90103 939.98303 942.424131 888.944982 0.001063849
15.90983 933.29175 938.087787 889.196148 0.001071476
15.91863 930.69189 937.688031 889.44621 0.001074469
15.92744 933.11737 940.60909 889.695248 0.001071677
15.93624 937.73871 945.851418 889.943172 0.001066395
15.94504 944.16028 951.739797 890.190008 0.001059142
15.95384 949.82568 955.566271 890.435749 0.001052825
15.96265 951.41089 954.460097 890.680421 0.001051071
15.97145 948.3891 947.695127 890.923962 0.00105442
15.98025 944.71722 937.712481 891.166371 0.001058518
15.98905 941.21271 927.869722 891.407725 0.001062459
15.99785 939.60278 920.320098 891.647937 0.00106428
16.00665 937.77753 915.511766 891.887033 0.001066351
16.01546 936.90076 912.890354 892.125009 0.001067349
16.02426 934.20734 911.731445 892.361887 0.001070426
16.03306 931.55243 911.473629 892.597611 0.001073477
16.04186 927.97687 911.733658 892.832204 0.001077613
16.05066 925.02582 912.283355 893.065637 0.001081051
16.05947 922.38745 913.015894 893.29796 0.001084143
16.06827 920.72046 913.911119 893.52917 0.001086106
16.07707 921.2677 915.005805 893.759212 0.001085461
16.08588 922.60968 916.380792 893.988134 0.001083882
16.09468 925.84644 918.165833 894.215883 0.001080093
16.10348 929.76495 920.560318 894.442431 0.001075541
16.11228 934.50641 923.854266 894.667904 0.001070084
16.12108 941.45721 928.42127 894.892196 0.001062183
16.12989 952.10437 934.68666 895.115358 0.001050305
16.13869 965.98126 943.027786 895.337335 0.001035217
16.14749 982.8396 953.629906 895.558178 0.00101746
16.15629 1002.3887 966.22771 895.777833 0.000997617
16.16509 1019.0217 979.652216 895.996275 0.000981333
16.17390 1030.5948 991.40988 896.213627 0.000970313
16.18270 1034.2059 998.051029 896.429787 0.000966925
16.19150 1030.4202 997.964902 896.644804 0.000970478
16.20030 1024.2997 993.407719 896.858628 0.000976277
16.20911 1017.4982 988.482119 897.071306 0.000982803
16.21790 1012.6124 986.393446 897.28274 0.000987545
16.22671 1009.4918 988.830021 897.493052 0.000990597
16.23551 1009.8949 996.289091 897.702215 0.000990202
16.24431 1014.1007 1008.165437 897.910182 0.000986095
16.25312 1024.8531 1022.430992 898.116999 0.00097575
16.26192 1040.8135 1035.161185 898.322619 0.000960787
16.27072 1057.6071 1041.558563 898.527088 0.000945531
16.27952 1063.5427 1039.60349 898.730315 0.000940254
16.28832 1057.5031 1032.169913 898.932414 0.000945624
16.29713 1046.1871 1024.066077 899.133363 0.000955852
16.30593 1037.7877 1018.967496 899.333116 0.000963588
16.31473 1034.2321 1019.15946 899.531718 0.000966901
16.32353 1038.4172 1026.473938 899.729126 0.000963004
16.33233 1049.4088 1043.070025 899.925341 0.000952917
16.34114 1068.4028 1071.974134 900.120407 0.000935977
16.34994 1098.2532 1117.206813 900.314304 0.000910537
16.35874 1144.4663 1183.341198 900.507054 0.00087377
16.36754 1216.1913 1274.343309 900.698615 0.000822239
16.37635 1323.0768 1391.607554 900.889032 0.000755814
16.38515 1491.1462 1530.693015 901.078262 0.000670625
16.39395 1670.4182 1675.876334 901.266307 0.000598652
16.40275 1806.9226 1794.303348 901.453213 0.000553427
16.41155 1816.0425 1842.517166 901.638959 0.000550648
16.42036 1728.5997 1798.267456 901.823568 0.000578503
16.42916 1589.7433 1684.063098 902.007001 0.000629032
16.43796 1457.4114 1543.921662 902.1893 0.000686148
16.44676 1357.0623 1411.241681 902.370386 0.000736886
16.45556 1282.3237 1301.817424 902.550386 0.000779834
16.46437 1225.8569 1219.973667 902.729218 0.000815756
16.47317 1181.6766 1163.445169 902.906906 0.000846255
16.48197 1145.6073 1126.421108 903.083473 0.000872899
16.49077 1115.2125 1101.852935 903.258882 0.00089669
16.49958 1088.5068 1084.421497 903.433175 0.00091869
16.50838 1063.439 1072.102637 903.606277 0.000940345
16.51718 1042.3167 1064.481453 903.778309 0.000959401
16.52598 1024.2184 1060.362756 903.949196 0.000976354
16.53478 1010.5989 1056.769725 904.11896 0.000989512
16.54359 1002.242 1049.95948 904.287625 0.000997763
16.55239 996.98853 1038.402205 904.455155 0.001003021
16.56119 991.43243 1024.256348 904.621555 0.001008642
16.56999 984.59753 1011.01683 904.786867 0.001015643
16.57879 978.27899 1001.179027 904.951093 0.001022203
16.58760 976.16412 995.895597 905.114202 0.001024418
16.59640 980.41101 995.344544 905.276215 0.00101998
16.60520 991.75635 998.877293 905.437155 0.001008312
16.61400 1001.7241 1004.821395 905.596991 0.000998279
16.62280 1003.0293 1010.149462 905.755726 0.00099698
16.63161 993.37134 1011.007644 905.913402 0.001006673
16.64041 978.5257 1005.181356 906.070024 0.001021946
16.64921 964.23175 994.059497 906.225559 0.001037095
16.65801 953.03113 980.932297 906.380031 0.001049284
16.66681 943.93976 968.396822 906.533463 0.00105939
16.67562 937.75269 957.732452 906.685789 0.001066379
16.68442 932.75214 949.304607 906.83712 0.001072096
16.69322 928.61139 943.025839 906.987391 0.001076877
16.70202 925.08344 938.584215 907.136642 0.001080984
16.71082 922.89233 935.610706 907.284845 0.00108355
16.71963 921.48944 933.767485 907.432021 0.0010852
16.72843 921.77136 932.788182 907.578194 0.001084868
16.73723 921.58441 932.470103 907.723302 0.001085088
16.74603 921.85382 932.633083 907.867451 0.001084771
16.75483 922.40515 933.054552 908.010581 0.001084122
16.76364 922.87823 933.407409 908.15273 0.001083567
16.77244 923.07117 933.319522 908.293872 0.00108334
16.78124 923.07422 932.628899 908.434029 0.001083337
16.79004 922.59918 931.51278 908.573192 0.001083894
16.79885 922.18262 930.274347 908.711399 0.001084384
16.80765 922.15369 929.110229 908.848656 0.001084418
16.81645 921.49707 928.100614 908.984938 0.001085191
16.82525 920.55615 927.288462 909.120282 0.0010863
16.83405 919.07373 926.707381 909.254665 0.001088052
16.84286 917.95477 926.368626 909.388109 0.001089378
16.85166 917.3418 926.262778 909.520605 0.001090106
16.86046 917.22296 926.375061 909.65219 0.001090247
16.86926 917.04926 926.699532 909.782871 0.001090454
16.87806 917.53906 927.248993 909.912625 0.001089872
16.88687 918.0741 928.063999 910.041488 0.001089237
16.89567 918.44476 929.221499 910.169439 0.001088797
16.90447 919.64319 930.840736 910.29647 0.001087378
16.91327 921.74744 933.083474 910.42266 0.001084896
16.92207 924.1474 936.135039 910.547959 0.001082078
16.93088 926.21948 940.170881 910.672403 0.001079658
16.93968 929.0545 945.298714 910.795971 0.001076363
16.94848 932.82642 951.470588 910.918698 0.001072011
16.95728 935.02576 958.332874 911.040564 0.001069489
16.96608 937.87634 965.020108 911.161562 0.001066239
16.97489 941.70776 970.187789 911.281769 0.001061901
16.98369 945.815 972.834117 911.401137 0.001057289
16.99249 950.83032 973.438467 911.519701 0.001051712
17.00129 957.24872 973.772006 911.637442 0.001044661
17.01010 966.74017 975.706458 911.754394 0.001034404
17.01890 980.52814 980.593941 911.870512 0.001019859
17.02770 997.69049 989.257285 911.985869 0.001002315
17.03650 1019.6682 1002.019971 912.100459 0.000980711
17.04530 1047.1194 1018.802544 912.214265 0.000955001
17.05411 1079.4076 1039.417533 912.32732 0.000926434
17.06291 1116.1967 1063.370147 912.439605 0.000895899
17.07171 1155.7074 1088.666102 912.551142 0.000865271
17.08051 1191.1721 1110.708692 912.661926 0.000839509
17.08931 1215.9863 1123.315862 912.771989 0.000822378
17.09812 1222.3835 1122.490952 912.88134 0.000818074
17.10692 1215.4781 1109.313436 912.989961 0.000822722
17.11572 1188.1652 1088.113356 913.097884 0.000841634
17.12452 1149.9875 1063.550557 913.205093 0.000869575
17.13333 1111.8669 1039.717016 913.311595 0.000899388
17.14213 1080.205 1019.596788 913.417424 0.00092575
17.15093 1053.7646 1004.783237 913.522573 0.000948979
17.15973 1035.0258 995.83622 913.627064 0.000966159
17.16853 1022.3803 992.68011 913.730879 0.00097811
17.17734 1014.8362 994.792169 913.834051 0.000985381
17.18614 1012.2708 1001.190323 913.936563 0.000987878
17.19494 1013.8361 1010.21265 914.038423 0.000986353
17.20374 1017.1605 1019.180743 914.139663 0.000983129
17.21254 1017.8352 1024.61369 914.240278 0.000982477
17.22135 1014.7581 1023.708139 914.340286 0.000985457
17.23015 1006.8619 1016.093856 914.439674 0.000993185
17.23895 996.1604 1003.931881 914.538471 0.001003854
17.24775 984.96375 990.283612 914.636639 0.001015266
17.25656 975.06873 977.470068 914.734254 0.001025569
17.26536 966.604 966.672171 914.831278 0.00103455
17.27416 958.81567 958.225427 914.927729 0.001042953
17.28296 951.61908 952.005352 915.023626 0.001050841
17.29177 946.12793 947.675078 915.118954 0.00105694
17.30057 942.77063 944.834428 915.213721 0.001060703
17.30937 939.89728 943.11713 915.307955 0.001063946
17.31817 937.73175 942.239227 915.401663 0.001066403
17.32697 936.3609 942.01352 915.494832 0.001067964
17.33578 937.06372 942.344168 915.587478 0.001067163
17.34458 937.77924 943.219219 915.679619 0.001066349
17.35338 939.45343 944.707955 915.771241 0.001064449
17.36218 940.84692 946.971346 915.862351 0.001062872
17.37098 944.31287 950.281895 915.952977 0.001058971
17.37979 948.68658 955.046159 916.043124 0.001054089
17.38859 955.20782 961.813452 916.132779 0.001046893
17.39739 961.35901 971.24404 916.221959 0.001040194
17.40619 971.35425 984.004388 916.31068 0.001029491
17.41499 982.72601 1000.545437 916.398908 0.001017578
17.42380 998.80023 1020.881395 916.48671 0.001001201
17.43260 1017.8408 1044.351539 916.574052 0.000982472
17.44140 1045.1931 1069.312438 916.660959 0.000956761
17.45020 1070.0817 1092.277333 916.747419 0.000934508
17.45901 1085.7631 1107.414517 916.833446 0.000921011
17.46781 1079.9381 1108.928697 916.919056 0.000925979
17.47661 1062.1561 1095.934107 917.004216 0.000941481
17.48541 1037.5277 1073.533482 917.088989 0.00096383
17.49421 1015.962 1048.385076 917.173343 0.000984289
17.50302 996.61554 1025.048215 917.257302 0.001003396
17.51182 983.13672 1005.664291 917.340853 0.001017153
17.52062 971.62946 990.833906 917.424009 0.001029199
17.52942 964.06226 980.336365 917.506766 0.001037277
17.53822 959.39392 973.5485 917.589148 0.001042325
17.54703 956.65015 969.73989 917.67116 0.001045314
17.55583 955.38214 968.244571 917.752788 0.001046702
17.56463 956.33356 968.597106 917.834055 0.00104566
17.57343 959.47992 970.630244 917.914946 0.001042231
17.58224 964.89703 974.514898 917.995475 0.00103638
17.59104 972.90967 980.714434 918.075638 0.001027845
17.59984 983.83948 989.901362 918.155456 0.001016426
17.60864 999.03076 1002.876393 918.234934 0.00100097
17.61744 1023.7769 1020.446075 918.314056 0.000976775
17.62625 1061.8373 1043.252858 918.392836 0.000941764
17.63505 1109.6359 1071.459701 918.471286 0.000901197
17.64385 1165.2843 1104.259451 918.549373 0.00085816
17.65265 1220.5664 1139.339035 918.627154 0.000819292
17.66145 1261.5854 1172.961189 918.704597 0.000792653
17.67026 1286.5784 1201.761111 918.781722 0.000777255
17.67906 1285.2911 1225.450241 918.858514 0.000778034
17.68786 1285.9615 1247.447 918.934985 0.000777628
17.69666 1301.8218 1271.366645 919.011146 0.000768154
17.70546 1346.4757 1296.174057 919.086964 0.00074268
17.71427 1399.1045 1314.274091 919.162493 0.000714743
17.72307 1441.0544 1314.572581 919.2377 0.000693936
17.73187 1417.5065 1291.520574 919.312605 0.000705464
17.74067 1364.0814 1251.045723 919.387193 0.000733094
17.74948 1286.4164 1205.116388 919.461472 0.000777353
17.75828 1226.0708 1163.658518 919.535437 0.000815614
17.76708 1177.1761 1132.204582 919.609104 0.000849491
17.77588 1140.4585 1113.004138 919.682476 0.00087684
17.78468 1116.7699 1106.182711 919.755535 0.00089544
17.79349 1110.6746 1110.253621 919.8283 0.000900354
17.80229 1112.3259 1122.076475 919.900753 0.000899017
17.81109 1124.3361 1136.407429 919.972905 0.000889414
17.81989 1139.7573 1146.144055 920.044746 0.00087738
17.82869 1156.1954 1144.833531 920.116292 0.000864906
17.83750 1156.7399 1130.611749 920.187545 0.000864499
17.84630 1144.5577 1107.188317 920.258486 0.0008737
17.85510 1118.0033 1080.586596 920.329132 0.000894452
17.86390 1092.8079 1055.694513 920.399466 0.000915074
17.87270 1066.1304 1035.312389 920.469486 0.000937972
17.88151 1045.9454 1020.695691 920.539208 0.000956073
17.89031 1027.3029 1012.238655 920.608623 0.000973423
17.89911 1018.8439 1009.880856 920.677736 0.000981505
17.90791 1013.1295 1013.279386 920.746531 0.000987041
17.91672 1016.2097 1021.847448 920.81502 0.000984049
17.92552 1022.5301 1034.552461 920.883188 0.000977966
17.93432 1033.1555 1049.541966 920.951031 0.000967909
17.94312 1044.5945 1063.732786 921.018563 0.000957309
17.95192 1053.9576 1073.276738 921.085773 0.000948805
17.96073 1055.1836 1075.405168 921.152666 0.000947702
17.96953 1048.3539 1069.703246 921.219225 0.000953876
17.97833 1035.9033 1057.40415 921.28546 0.000965341
17.98713 1022.1465 1040.698657 921.35134 0.000978333
17.99593 1008.2844 1022.424925 921.416905 0.000991784
18.00474 996.10181 1005.147662 921.482122 0.001003913
18.01354 985.47028 990.394522 921.546994 0.001014744
18.02234 977.59302 978.700221 921.611526 0.001022921
18.03114 971.12427 970.005695 921.675697 0.001029734
18.03995 965.63068 963.932561 921.739519 0.001035593
18.04875 960.68408 959.981197 921.802958 0.001040925
18.05755 956.80121 957.601969 921.866052 0.001045149
18.06635 953.25415 956.227482 921.928768 0.001049038
18.07515 950.03552 955.276885 921.991109 0.001052592
18.08396 947.57355 954.260643 922.053075 0.001055327
18.09276 945.92297 952.992843 922.114648 0.001057169
18.10156 944.65814 951.647837 922.175822 0.001058584
18.11036 943.33997 950.55646 922.236605 0.001060063
18.11916 942.76672 949.999184 922.296992 0.001060708
18.12797 942.48102 950.146958 922.356963 0.001061029
18.13677 942.79718 951.062962 922.416517 0.001060674
18.14557 944.61206 952.703454 922.475657 0.001058636
18.15437 945.24207 954.933218 922.534361 0.00105793
18.16317 945.90735 957.596815 922.592624 0.001057186
18.17198 947.7218 960.531511 922.650451 0.001055162
18.18078 949.98914 963.406238 922.707836 0.001052644
18.18958 952.25684 965.545654 922.764758 0.001050137
18.19838 953.81732 966.098254 922.821217 0.001048419
18.20719 953.79297 964.666033 922.877212 0.001048446
18.21599 953.2655 961.720683 922.932709 0.001049026
18.22479 951.59534 958.207977 922.98774 0.001050867
18.23359 949.32947 954.946336 923.04227 0.001053375
18.24239 947.04755 952.422264 923.096299 0.001055913
18.25120 945.64026 950.861823 923.149825 0.001057485
18.26000 944.91388 950.330076 923.202826 0.001058298
18.26880 944.18872 950.779606 923.255307 0.00105911
18.27760 945.13324 952.066587 923.307235 0.001058052
18.28640 947.00616 953.933615 923.358638 0.001055959
18.29521 947.83801 955.967675 923.409483 0.001055033
18.30401 948.47528 957.624592 923.459768 0.001054324
18.31281 948.39325 958.466723 923.509488 0.001054415
18.32161 948.02026 958.517316 923.558624 0.00105483
18.33041 946.93506 958.288238 923.607166 0.001056039
18.33922 947.21606 958.45146 923.655117 0.001055725
18.34802 949.07141 959.581971 923.702467 0.001053661
18.35682 952.2868 962.119499 923.749196 0.001050104
18.36562 956.26709 966.392653 923.795299 0.001045733
18.37443 962.69629 972.608991 923.840773 0.001038749
18.38323 972.2948 980.802699 923.885598 0.001028495
18.39203 986.02136 990.719286 923.929763 0.001014177
18.40083 1002.8572 1001.631767 923.973269 0.000997151
18.40963 1017.6122 1012.080145 924.016106 0.000982693
18.41844 1024.7665 1019.963237 924.058255 0.000975832
18.42724 1024.3793 1023.581393 924.099711 0.000976201
18.43604 1018.3356 1023.143254 924.140467 0.000981995
18.44484 1012.0378 1020.819447 924.180496 0.000988105
18.45364 1008.8307 1019.270584 924.219815 0.000991247
18.46245 1012.292 1020.567437 924.258396 0.000987857
18.47125 1023.5265 1026.067879 924.296237 0.000977014
18.48005 1041.8721 1036.544363 924.33332 0.000959811
18.48885 1064.0428 1052.137304 924.369638 0.000939812
18.49766 1083.5131 1072.193156 924.405186 0.000922924
18.50646 1098.0154 1095.402562 924.439938 0.000910734
18.51526 1111.8876 1120.58531 924.473907 0.000899371
18.52406 1125.9403 1146.978684 924.507067 0.000888147
18.53286 1144.7156 1173.015984 924.539416 0.000873579
18.54167 1162.7469 1194.369077 924.570936 0.000860032
18.55047 1172.1095 1204.278853 924.60162 0.000853163
18.55927 1165.5959 1197.619946 924.631456 0.00085793
18.56807 1149.0502 1175.481978 924.660441 0.000870284
18.57687 1121.4464 1144.20523 924.688563 0.000891706
18.58568 1092.5162 1110.773001 924.715806 0.000915318
18.59448 1067.9708 1080.097466 924.742168 0.000936355
18.60328 1049.1707 1054.966036 924.767632 0.000953134
18.61208 1035.3368 1036.603135 924.792191 0.000965869
18.62088 1028.8933 1025.282988 924.815833 0.000971918
18.62969 1028.2301 1020.683662 924.838555 0.000972545
18.63849 1031.9347 1022.102167 924.860346 0.000969054
18.64729 1038.6959 1028.508804 924.881191 0.000962746
18.65609 1049.6605 1038.390667 924.901088 0.000952689
18.66490 1061.9221 1049.434065 924.920021 0.000941689
18.67370 1071.5109 1058.323544 924.937982 0.000933262
18.68250 1073.963 1061.596388 924.954967 0.000931131
18.69130 1068.5253 1057.703553 924.970965 0.000935869
18.70010 1056.0577 1048.118248 924.985968 0.000946918
18.70891 1041.1995 1035.787766 924.999965 0.000960431
18.71771 1026.078 1023.083595 925.012951 0.000974585
18.72651 1013.9377 1011.193044 925.024915 0.000986254
18.73531 1003.4855 1000.455212 925.03585 0.000996527
18.74411 995.11084 990.824831 925.04575 0.001004913
18.75292 987.71045 982.280394 925.054606 0.001012442
18.76172 980.20343 974.877202 925.062412 0.001020196
18.77052 972.87982 968.574568 925.069159 0.001027876
18.77932 966.40131 963.185634 925.074842 0.001034767
18.78812 961.28259 958.537283 925.079453 0.001040277
18.79693 956.96765 954.558632 925.082986 0.001044967
18.80573 953.5332 951.235726 925.085436 0.001048731
18.81453 950.13678 948.535323 925.086797 0.00105248
18.82333 948.16736 946.390092 925.087062 0.001054666
18.83214 947.16577 944.718954 925.086226 0.001055781
18.84094 946.2619 943.440965 925.084285 0.00105679
18.84974 944.71448 942.485375 925.081234 0.001058521
18.85854 943.58032 941.793032 925.077068 0.001059793
18.86734 942.8634 941.319157 925.071783 0.001060599
18.87615 943.10718 941.032479 925.065376 0.001060325
18.88495 943.38116 940.914537 925.057842 0.001060017
18.89375 944.11511 940.960088 925.04918 0.001059193
18.90255 944.54681 941.177871 925.039387 0.001058709
18.91135 945.56708 941.594197 925.028459 0.001057566
18.92016 946.27972 942.2595 925.016395 0.00105677
18.92896 947.83459 943.257034 925.003191 0.001055036
18.93776 950.16003 944.714081 924.98885 0.001052454
18.94656 952.95007 946.810658 924.973367 0.001049373
18.95537 955.6452 949.780767 924.956745 0.001046413
18.96417 960.32306 953.89863 924.938984 0.001041316
18.97297 964.8064 959.446804 924.920082 0.001036477
18.98177 971.44421 966.659282 924.90004 0.001029395
18.99057 979.75574 975.634503 924.878858 0.001020663
18.99938 988.05481 986.209645 924.856541 0.00101209
19.00818 996.29822 997.758719 924.833088 0.001003716
19.01698 1004.1774 1008.928785 924.808511 0.00099584
19.02578 1011.6172 1017.599217 924.782798 0.000988516
19.03458 1019.0881 1021.562828 924.755962 0.000981269
19.04339 1023.8672 1019.910249 924.728006 0.000976689
19.05219 1023.2468 1013.541799 924.69893 0.000977281
19.06099 1016.079 1004.243064 924.668746 0.000984175
19.06979 1005.3548 993.732165 924.637453 0.000994674
19.07859 993.6189 983.384979 924.605072 0.001006422
19.08740 984.17847 974.14364 924.571587 0.001016076
19.09620 975.9848 966.511991 924.53702 0.001024606
19.10500 970.08087 960.625356 924.501376 0.001030842
19.11380 965.51563 956.414444 924.464658 0.001035716
19.12261 961.92816 953.722625 924.426884 0.001039579
19.13141 959.40692 952.387967 924.388064 0.001042311
19.14021 958.49664 952.285936 924.348199 0.0010433
19.14901 957.85663 953.340165 924.307299 0.001043998
19.15781 957.7641 955.561321 924.265385 0.001044098
19.16662 958.48889 958.964643 924.222465 0.001043309
19.17542 960.78839 963.56261 924.178545 0.001040812
19.18422 963.63428 969.284101 924.133649 0.001037738
19.19302 968.22296 975.876846 924.087792 0.00103282
19.20182 976.51324 982.780884 924.040977 0.001024052
19.21063 985.23877 989.044475 923.993219 0.001014982
19.21943 991.27045 993.539264 923.944544 0.001008806
19.22823 993.79761 995.531868 923.894964 0.001006241
19.23703 991.23553 995.143299 923.84449 0.001008842
19.24583 986.22888 993.23744 923.793163 0.001013963
19.25464 980.2724 990.971303 923.740966 0.001020125
19.26344 976.38171 989.37683 923.687943 0.00102419
19.27224 974.94104 989.138883 923.6341 0.001025703
19.28104 975.63647 990.569774 923.579472 0.001024972
19.28985 977.63849 993.730595 923.524071 0.001022873
19.29865 981.53223 998.683664 923.467916 0.001018815
19.30745 987.06195 1005.717413 923.411053 0.001013108
19.31625 994.54297 1015.305209 923.353467 0.001005487
19.32505 1004.9864 1027.792129 923.295209 0.000995038
19.33386 1017.6151 1043.212214 923.23629 0.00098269
19.34266 1032.0479 1061.405196 923.176749 0.000968947
19.35146 1048.614 1082.266048 923.116605 0.00095364
19.36026 1067.1133 1105.673429 923.055894 0.000937108
19.36906 1090.1654 1130.787875 922.994628 0.000917292
19.37787 1114.4806 1154.995084 922.932835 0.000897279
19.38667 1135.723 1173.380423 922.87056 0.000880496
19.39547 1145.1432 1180.155551 922.807819 0.000873253
19.40427 1143.1438 1172.449293 922.744655 0.000874781
19.41307 1130.6356 1152.984225 922.681108 0.000884458
19.42188 1112.7795 1128.156731 922.617175 0.000898651
19.43068 1094.7058 1104.180861 922.552916 0.000913487
19.43948 1078.8386 1085.147043 922.488352 0.000926923
19.44828 1065.1036 1073.075613 922.423531 0.000938876
19.45709 1056.7025 1068.608468 922.358474 0.00094634
19.46589 1053.1675 1071.46372 922.293231 0.000949517
19.47469 1054.9996 1080.517154 922.227847 0.000947868
19.48349 1061.8855 1093.609843 922.162322 0.000941721
19.49229 1072.5295 1107.239028 922.096725 0.000932375
19.50110 1083.5533 1116.80514 922.031078 0.00092289
19.50990 1088.4406 1118.296783 921.965436 0.000918746
19.51870 1086.0854 1110.788827 921.899826 0.000920738
19.52750 1077.7422 1096.918255 921.834317 0.000927866
19.53630 1067.5164 1080.692868 921.768915 0.000936754
19.54511 1058.1101 1065.48418 921.703669 0.000945081
19.55391 1052.74 1053.568995 921.638638 0.000949902
19.56271 1050.6501 1046.439904 921.57385 0.000951792
19.57151 1054.8575 1044.967212 921.509365 0.000947995
19.58032 1067.99 1049.404498 921.445213 0.000936338
19.58912 1092.4462 1059.280483 921.381469 0.000915377
19.59792 1125.2579 1073.273611 921.318144 0.000888685
19.60672 1150.3489 1088.888822 921.255291 0.000869301
19.61552 1154.4398 1102.179093 921.192974 0.000866221
19.62433 1134.538 1108.414224 921.131227 0.000881416
19.63313 1106.1155 1104.295508 921.070111 0.000904065
19.64193 1077.3413 1090.25897 921.009678 0.000928211
19.65073 1053.0605 1069.940414 920.949963 0.000949613
19.65953 1033.3375 1047.566137 920.891024 0.000967738
19.66834 1017.0517 1026.164649 920.832905 0.000983234
19.67714 1003.449 1007.383965 920.775672 0.000996563
19.68594 992.84088 991.869782 920.719364 0.001007211
19.69474 983.92743 979.68613 920.664047 0.001016335
19.70354 977.92828 970.531108 920.609773 0.00102257
19.71235 972.85706 963.91284 920.556583 0.0010279
19.72115 968.41046 959.254108 920.504539 0.00103262
19.72995 964.67163 955.950267 920.453689 0.001036622
19.73875 961.74512 953.430034 920.4041 0.001039777
19.74756 958.96985 951.23436 920.355815 0.001042786
19.75636 956.97052 949.128315 920.308912 0.001044964
19.76516 955.02069 947.104054 920.263414 0.001047098
19.77396 953.03607 945.272503 920.219398 0.001049278
19.78276 951.30811 943.741524 920.176917 0.001051184
19.79157 950.58679 942.571361 920.136022 0.001051982
19.80037 949.94263 941.772461 920.096779 0.001052695
19.80917 949.43091 941.309643 920.059236 0.001053263
19.81797 948.97485 941.098342 920.023467 0.001053769
19.82678 949.35809 940.995605 919.989505 0.001053343
19.83558 950.28064 940.801887 919.957422 0.001052321
19.84438 951.40826 940.313313 919.927273 0.001051073
19.85318 953.18915 939.422397 919.89911 0.00104911
19.86198 955.38586 938.178063 919.872999 0.001046698
19.87079 957.28839 936.734746 919.848994 0.001044617
19.87959 959.97626 935.281343 919.827148 0.001041692
19.88839 963.17566 934.033421 919.807517 0.001038232
19.89719 966.58862 933.246357 919.790164 0.001034566
19.90599 969.73029 933.132516 919.775141 0.001031215
19.91480 972.95557 933.768285 919.762503 0.001027796
19.92360 975.32587 935.096477 919.752308 0.001025298
19.93240 976.23071 937.039659 919.744611 0.001024348
19.94120 976.2699 939.582694 919.739465 0.001024307
19.95001 976.44232 942.813228 919.736923 0.001024126
19.95881 976.6272 946.925612 919.737041 0.001023932
19.96761 977.02881 952.208275 919.73987 0.001023511
19.97641 979.04114 959.020546 919.745463 0.001021408
19.98521 982.98822 967.735151 919.753868 0.001017306
19.99402 989.5083 978.684171 919.765142 0.001010603
20.00282 997.71289 992.03581 919.779328 0.001002292
20.01162 1007.0082 1007.652652 919.79648 0.000993041
20.02042 1018.4141 1024.874175 919.816641 0.000981919
20.02922 1031.6853 1042.286887 919.839859 0.000969288
20.03803 1047.6128 1057.710136 919.866182 0.000954551
20.04683 1062.3993 1068.643073 919.895642 0.000941266
20.05563 1071.0851 1073.123413 919.928301 0.000933633
20.06443 1067.3131 1070.398921 919.964186 0.000936932
20.07324 1054.5637 1061.390532 920.003346 0.000948259
20.08204 1037.1742 1048.549152 920.045809 0.000964158
20.09084 1020.0601 1034.84629 920.091618 0.000980334
20.09964 1005.4144 1022.700913 920.1408 0.000994615
20.10844 995.94739 1013.631578 920.1934 0.001004069
20.11725 991.2417 1008.398522 920.24945 0.001008836
20.12605 989.14868 1007.215539 920.308967 0.00101097
20.13485 989.6731 1009.883872 920.371991 0.001010435
20.14365 993.255 1015.789002 920.438532 0.001006791
20.15245 998.82013 1023.843412 920.508621 0.001001181
20.16126 1006.2023 1032.481802 920.582268 0.000993836
20.17006 1013.6966 1040.050235 920.659509 0.000986488
20.17886 1020.8695 1045.543974 920.740359 0.000979557
20.18766 1029.9436 1049.058167 920.824812 0.000970927
20.19646 1041.3353 1051.337086 920.912898 0.000960305
20.20527 1051.4241 1052.884161 921.004602 0.000951091
20.21407 1054.3027 1053.354883 921.099916 0.000948494
20.22287 1050.1548 1051.731591 921.198894 0.000952241
20.23167 1040.8585 1047.272069 921.301492 0.000960745
20.24047 1031.2787 1040.390192 921.407724 0.00096967
20.24928 1023.7541 1032.43206 921.517558 0.000976797
20.25808 1020.4862 1024.656325 921.631004 0.000979925
20.26688 1019.7748 1017.565689 921.74802 0.000980609
20.27568 1018.0667 1010.959807 921.868569 0.000982254
20.28449 1015.2412 1004.472057 921.992694 0.000984988
20.29329 1009.8472 998.101704 922.120311 0.000990249
20.30209 1004.0956 992.214719 922.251415 0.000995921
20.31089 997.45892 987.139933 922.385937 0.001002548
20.31969 992.1521 982.878774 922.523865 0.00100791
20.32850 988.37219 979.131265 922.665087 0.001011765
20.33730 985.98505 975.525169 922.80963 0.001014214
20.34610 982.97455 971.822733 922.957419 0.00101732
20.35490 979.72565 967.981139 923.10836 0.001020694
20.36370 976.09979 964.142486 923.262416 0.001024485
20.37251 972.30731 960.568529 923.419478 0.001028481
20.38131 967.5838 957.508328 923.579502 0.001033502
20.39011 963.7912 955.109481 923.742327 0.001037569
20.39891 960.44946 953.4028 923.907952 0.001041179
20.40771 958.07874 952.352545 924.076261 0.001043756
20.41652 957.11267 951.915788 924.247111 0.001044809
20.42532 957.41412 952.080434 924.420427 0.00104448
20.43412 957.45563 952.872184 924.596051 0.001044435
20.44292 958.29077 954.325666 924.773855 0.001043525
20.45172 959.66101 956.436255 924.953747 0.001042035
20.46053 962.1427 959.094866 925.135564 0.001039347
20.46933 965.93982 962.040444 925.319179 0.001035261
20.47813 970.46094 964.789965 925.504392 0.001030438
20.48693 973.72583 966.705094 925.69108 0.001026983
20.49574 973.9408 967.24416 925.879027 0.001026756
20.50454 970.43018 966.335687 926.068049 0.001030471
20.51334 966.37372 964.442908 926.257998 0.001034796
20.52214 962.90112 962.278225 926.448652 0.001038528
20.53094 961.17505 960.46774 926.639823 0.001040393
20.53975 959.53296 959.433277 926.831247 0.001042174
20.54855 959.3642 959.399476 927.022738 0.001042357
20.55735 960.51276 960.443241 927.21397 0.001041111
20.56615 962.67688 962.50529 927.404822 0.00103877
20.57495 964.61945 965.374297 927.594946 0.001036678
20.58376 967.65424 968.662744 927.784093 0.001033427
20.59256 971.96704 971.80328 927.972 0.001028841
20.60136 976.66235 974.204424 928.15833 0.001023895
20.61016 979.46094 975.582503 928.342819 0.00102097
20.61896 981.29218 976.208235 928.525065 0.001019064
20.62777 981.41479 976.761437 928.704861 0.001018937
20.63657 982.66315 977.956081 928.881781 0.001017643
20.64537 984.95313 980.271498 929.055489 0.001015277
20.65417 987.51843 983.869482 929.225633 0.001012639
20.66298 990.67108 988.555704 929.391792 0.001009417
20.67178 993.38922 993.756819 929.553568 0.001006655
20.68058 992.80426 998.528228 929.710586 0.001007248
20.68938 990.17761 1001.789422 929.862419 0.00100992
20.69818 987.18335 1002.808072 930.00859 0.001012983
20.70699 985.60071 1001.549303 930.148658 0.00101461
20.71579 981.35162 998.454974 930.282167 0.001019003
20.72459 975.96954 994.045113 930.408597 0.001024622
20.73339 969.71924 988.785703 930.527446 0.001031226
20.74219 964.86591 983.084492 930.638217 0.001036413
20.75100 960.62219 977.256042 930.740369 0.001040992
20.75980 956.62323 971.536763 930.833323 0.001045344
20.76860 953.09821 966.157475 930.916514 0.00104921
20.77741 950.60773 961.36372 930.989359 0.001051959
20.78620 948.54633 957.349416 931.051215 0.001054245
20.79501 947.1424 954.192648 931.101493 0.001055807
20.80381 945.82733 951.941481 931.139516 0.001057275
20.81261 944.95154 950.545903 931.164621 0.001058255
20.82141 944.93781 949.946968 931.176113 0.001058271
20.83022 945.84332 950.06607 931.173281 0.001057258
20.83902 947.19299 950.802664 931.15539 0.001055751
20.84782 949.29785 952.014276 931.121697 0.00105341
20.85662 951.62317 953.488701 931.071403 0.001050836
20.86542 953.34912 954.907032 931.003724 0.001048934
20.87423 953.99835 955.848089 930.917821 0.00104822
20.88303 952.69495 955.90232 930.812865 0.001049654
20.89183 949.85846 954.879842 930.687978 0.001052788
20.90063 946.22369 952.929283 930.542279 0.001056833
20.90943 942.32062 950.421821 930.374816 0.00106121
20.91824 938.95355 947.740845 930.184633 0.001065015
20.92704 937.00372 945.159338 929.9708 0.001067232
20.93584 936.28662 942.830417 929.732267 0.001068049
20.94465 936.00946 940.819686 929.468062 0.001068365
20.95345 935.52203 939.13569 929.177103 0.001068922
20.96225 934.71558 937.750012 928.858344 0.001069844
20.97105 934.39081 936.608956 928.5106 0.001070216
20.97985 934.55164 935.64604 928.132718 0.001070032
20.98866 934.96985 934.79476 927.723612 0.001069553
20.99746 935.62622 934.004594 927.281983 0.001068803
21.00626 936.38336 933.250069 926.806699 0.001067939
21.01506 936.68903 932.523187 926.296562 0.00106759
21.02386 937.77228 931.818201 925.749979 0.001066357
21.03267 939.74146 931.124666 925.165852 0.001064122
21.04147 941.14246 930.425424 924.542682 0.001062538
21.05027 941.46564 929.697424 923.879208 0.001062174
21.05907 941.83661 928.907199 923.173926 0.001061755
21.06788 942.94604 928.014322 922.425275 0.001060506
21.07668 944.21216 926.989172 921.632102 0.001059084
21.08548 944.88629 925.831021 920.79232 0
21.09428 944.87036 0 0 0
21.10308 945.01392 0 0 0
21.11189 945.47278 0 0 0
21.12069 946.31226 0 0 0
21.12949 947.07062 0 0 0
21.13829 947.67596 0 0 0
21.14709 947.56226 0 0 0
21.15590 947.47296 0 0 0
21.16470 947.01538 0 0 0
21.17350 946.39142 0 0 0
21.18230 945.45868 0 0 0
21.19110 944.32764 0 0 0
21.19991 943.89612 0 0 0
21.20871 943.9491 0 0 0
21.21751 944.05908 0 0 0
21.22631 944.20972 0 0 0
21.23512 944.7074 0 0 0
21.24392 944.84857 0 0 0
21.25272 944.06964 0 0 0
21.26152 944.69092 0 0 0
21.27032 945.94135 0 0 0
21.27913 947.31146 0 0 0
21.28793 949.84558 0 0 0
21.29673 953.20264 0 0 0
21.30553 956.40186 0 0 0
21.31433 958.27673 0 0 0
21.32314 959.03424 0 0 0
21.33194 960.05371 0 0 0
21.34074 961.18439 0 0 0
21.34954 961.88074 0 0 0
21.35834 962.69684 0 0 0
21.36715 963.75256 0 0 0
21.37595 965.05066 0 0 0
21.38475 967.52576 0 0 0
21.39355 971.15985 0 0 0
21.40236 976.28687 0 0 0
21.41116 981.88733 0 0 0
21.41996 988.5614 0 0 0
21.42876 996.92908 0 0 0
21.43756 1006.9365 0 0 0
21.44637 1018.975 0 0 0
21.45517 1031.7026 0 0 0
21.46397 1041.4601 0 0 0
21.47277 1044.7753 0 0 0
21.48157 1041.3622 0 0 0
21.49038 1033.0277 0 0 0
21.49918 1022.3413 0 0 0
21.50798 1012.5076 0 0 0
21.51678 1003.7761 0 0 0
21.52558 994.73206 0 0 0
21.53439 988.05182 0 0 0
21.54319 985.71136 0 0 0
21.55199 986.16974 0 0 0
21.56079 988.65881 0 0 0
21.56959 996.51477 0 0 0
21.57840 1010.8311 0 0 0
21.58720 1030.7679 0 0 0
21.59600 1056.2241 0 0 0
21.60480 1085.8873 0 0 0
21.61360 1106.5162 0 0 0
21.62241 1113.5519 0 0 0
21.63121 1107.6035 0 0 0
21.64001 1090.339 0 0 0
21.64881 1064.1024 0 0 0
21.65762 1036.8839 0 0 0
21.66642 1011.8293 0 0 0
21.67522 992.39978 0 0 0
21.68402 977.80438 0 0 0
21.69282 967.8595 0 0 0
21.70163 960.02167 0 0 0
21.71043 954.58582 0 0 0
21.71923 950.86823 0 0 0
21.72803 948.51398 0 0 0
21.73683 946.73938 0 0 0
21.74564 946.13416 0 0 0
21.75444 946.12909 0 0 0
21.76324 945.22229 0 0 0
21.77204 944.22791 0 0 0
21.78085 944.60406 0 0 0
21.78965 946.15601 0 0 0
21.79845 946.92188 0 0 0
21.80725 948.02814 0 0 0
21.81605 951.22162 0 0 0
21.82486 954.25665 0 0 0
21.83366 957.6109 0 0 0
21.84246 960.48999 0 0 0
21.85126 963.78656 0 0 0
21.86006 966.30322 0 0 0
21.86887 966.83423 0 0 0
21.87767 966.06519 0 0 0
21.88647 964.12524 0 0 0
21.89527 961.60114 0 0 0
21.90408 959.21741 0 0 0
21.91288 957.94604 0 0 0
21.92168 956.34088 0 0 0
21.93048 955.48541 0 0 0
21.93928 954.57642 0 0 0
21.94809 953.60724 0 0 0
21.95689 953.11865 0 0 0
21.96569 953.3548 0 0 0
21.97449 954.49078 0 0 0
21.98329 957.03326 0 0 0
21.99210 960.35516 0 0 0
22.00090 963.8396 0 0 0
22.00970 968.15845 0 0 0
22.01850 972.26288 0 0 0
22.02731 975.80359 0 0 0
22.03611 980.07483 0 0 0
22.04491 983.98553 0 0 0
22.05371 987.08728 0 0 0
22.06251 990.28583 0 0 0
22.07132 991.57782 0 0 0
22.08012 993.10138 0 0 0
22.08892 994.23151 0 0 0
22.09772 994.7395 0 0 0
22.10652 994.53125 0 0 0
22.11533 997.28595 0 0 0
22.12413 998.62122 0 0 0
22.13293 1001.5336 0 0 0
22.14173 1000.5323 0 0 0
22.15054 998.94763 0 0 0
22.15934 994.88519 0 0 0
22.16814 989.15326 0 0 0
22.17694 983.2951 0 0 0
22.18574 977.6109 0 0 0
22.19455 974.19635 0 0 0
22.20335 972.72424 0 0 0
22.21215 973.77039 0 0 0
22.22095 976.22736 0 0 0
22.22975 982.42798 0 0 0
22.23856 992.03259 0 0 0
22.24736 1004.2717 0 0 0
22.25616 1022.0156 0 0 0
22.26496 1038.8634 0 0 0
22.27376 1050.4878 0 0 0
22.28257 1053.719 0 0 0
22.29137 1055.4138 0 0 0
22.30017 1062.309 0 0 0
22.30897 1075.1019 0 0 0
22.31778 1087.4856 0 0 0
22.32658 1095.4497 0 0 0
22.33538 1100.4027 0 0 0
22.34418 1100.6154 0 0 0
22.35298 1096.2389 0 0 0
22.36179 1081.3036 0 0 0
22.37059 1062.0903 0 0 0
22.37939 1042.0983 0 0 0
22.38819 1025.7181 0 0 0
22.39699 1011.6133 0 0 0
22.40580 1002.5576 0 0 0
22.41460 994.65057 0 0 0
22.42340 989.54694 0 0 0
22.43220 985.9364 0 0 0
22.44100 984.62408 0 0 0
22.44981 984.62219 0 0 0
22.45861 985.49078 0 0 0
22.46741 986.19336 0 0 0
22.47621 986.1347 0 0 0
22.48502 983.69202 0 0 0
22.49382 979.01184 0 0 0
22.50262 973.76202 0 0 0
22.51142 967.99689 0 0 0
22.52022 961.23999 0 0 0
22.52903 955.73572 0 0 0
22.53783 952.06744 0 0 0
22.54663 949.13031 0 0 0
22.55543 946.85443 0 0 0
22.56423 945.22028 0 0 0
22.57304 943.81183 0 0 0
22.58184 942.64612 0 0 0
22.59064 942.06165 0 0 0
22.59944 942.20575 0 0 0
22.60825 942.77649 0 0 0
22.61705 942.45715 0 0 0
22.62585 943.21808 0 0 0
22.63465 945.91943 0 0 0
22.64345 949.66656 0 0 0
22.65226 953.82037 0 0 0
22.66106 958.46375 0 0 0
22.66986 962.78674 0 0 0
22.67866 964.82251 0 0 0
22.68746 964.95331 0 0 0
22.69627 963.45593 0 0 0
22.70507 961.88873 0 0 0
22.71387 961.50946 0 0 0
22.72267 963.20251 0 0 0
22.73147 965.54059 0 0 0
22.74028 967.58276 0 0 0
22.74908 969.35675 0 0 0
22.75788 970.67072 0 0 0
22.76668 971.40521 0 0 0
22.77549 973.22839 0 0 0
22.78429 974.71729 0 0 0
22.79309 975.42035 0 0 0
22.80189 975.84387 0 0 0
22.81069 976.11548 0 0 0
22.81950 976.14301 0 0 0
22.82830 974.8537 0 0 0
22.83710 972.14716 0 0 0
22.84590 970.55634 0 0 0
22.85470 970.55573 0 0 0
22.86351 971.13727 0 0 0
22.87231 973.53778 0 0 0
22.88111 979.19916 0 0 0
22.88991 989.7121 0 0 0
22.89871 1004.5278 0 0 0
22.90752 1023.4955 0 0 0
22.91632 1043.1212 0 0 0
22.92512 1058.9633 0 0 0
22.93392 1065.1835 0 0 0
22.94273 1061.7793 0 0 0
22.95153 1049.451 0 0 0
22.96033 1035.0554 0 0 0
22.96913 1021.0377 0 0 0
22.97793 1012.9099 0 0 0
22.98674 1011.3307 0 0 0
22.99554 1015.8055 0 0 0
23.00434 1024.585 0 0 0
23.01314 1038.6595 0 0 0
23.02194 1050.979 0 0 0
23.03075 1059.8647 0 0 0
23.03955 1063.1732 0 0 0
23.04835 1062.7311 0 0 0
23.05715 1057.557 0 0 0
23.06596 1049.9125 0 0 0
23.07476 1040.0398 0 0 0
23.08356 1029.2631 0 0 0
23.09236 1017.4618 0 0 0
23.10116 1005.8488 0 0 0
23.10997 995.86072 0 0 0
23.11877 987.78766 0 0 0
23.12757 982.28351 0 0 0
23.13637 978.40521 0 0 0
23.14517 977.06866 0 0 0
23.15398 977.21509 0 0 0
23.16278 978.74335 0 0 0
23.17158 979.00995 0 0 0
23.18038 977.26184 0 0 0
23.18918 973.82623 0 0 0
23.19799 971.09583 0 0 0
23.20679 969.43256 0 0 0
23.21559 968.00342 0 0 0
23.22439 966.1795 0 0 0
23.23320 965.34094 0 0 0
23.24200 965.64703 0 0 0
23.25080 965.31232 0 0 0
23.25960 964.20691 0 0 0
23.26840 964.02991 0 0 0
23.27721 964.93182 0 0 0
23.28601 965.58838 0 0 0
23.29481 966.01855 0 0 0
23.30361 965.49786 0 0 0
23.31241 964.1767 0 0 0
23.32122 961.70636 0 0 0
23.33002 959.26434 0 0 0
23.33882 956.60828 0 0 0
23.34762 952.93134 0 0 0
23.35642 947.77173 0 0 0
23.36523 943.55536 0 0 0
23.37403 940.31372 0 0 0
23.38283 937.71661 0 0 0
23.39163 935.14722 0 0 0
23.40044 933.51343 0 0 0
23.40924 932.31866 0 0 0
23.41804 931.89783 0 0 0
23.42684 932.41119 0 0 0
23.43564 933.93732 0 0 0
23.44445 935.57422 0 0 0
23.45325 937.54102 0 0 0
23.46205 940.69843 0 0 0
23.47085 944.27161 0 0 0
23.47965 949.29034 0 0 0
23.48846 955.94482 0 0 0
23.49726 964.01941 0 0 0
23.50606 972.34869 0 0 0
23.51486 979.56238 0 0 0
23.52367 984.81384 0 0 0
23.53247 988.52478 0 0 0
23.54127 991.10663 0 0 0
23.55007 991.99945 0 0 0
23.55887 990.78143 0 0 0
23.56768 989.97034 0 0 0
23.57648 990.41003 0 0 0
23.58528 992.55505 0 0 0
23.59408 996.43793 0 0 0
23.60288 1001.816 0 0 0
23.61169 1005.2847 0 0 0
23.62049 1006.629 0 0 0
23.62929 1005.7482 0 0 0
23.63809 1001.8088 0 0 0
23.64689 995.5658 0 0 0
23.65570 986.49091 0 0 0
23.66450 977.3855 0 0 0
23.67330 969.25629 0 0 0
23.68210 962.34686 0 0 0
23.69091 957.09784 0 0 0
23.69971 953.53748 0 0 0
23.70851 950.97296 0 0 0
23.71731 949.88953 0 0 0
23.72611 949.21582 0 0 0
23.73492 949.13623 0 0 0
23.74372 949.29517 0 0 0
23.75252 948.34241 0 0 0
23.76132 946.68787 0 0 0
23.77012 944.74786 0 0 0
23.77893 942.43561 0 0 0
23.78773 940.47815 0 0 0
23.79653 939.41913 0 0 0
23.80533 938.24915 0 0 0
23.81414 937.4892 0 0 0
23.82294 937.13074 0 0 0
23.83174 935.97284 0 0 0
23.84054 935.05731 0 0 0
23.84934 935.36908 0 0 0
23.85815 935.2373 0 0 0
23.86695 935.74786 0 0 0
23.87575 936.28723 0 0 0
23.88455 937.44006 0 0 0
23.89335 939.32379 0 0 0
23.90216 940.89807 0 0 0
23.91096 942.3385 0 0 0
23.91976 943.46667 0 0 0
23.92856 943.40106 0 0 0
23.93736 941.67999 0 0 0
23.94617 939.09271 0 0 0
23.95497 936.18915 0 0 0
23.96377 934.63837 0 0 0
23.97257 933.38721 0 0 0
23.98137 932.16345 0 0 0
23.99018 931.56964 0 0 0
23.99898 930.75922 0 0 0
24.00778 928.77106 0 0 0
24.01658 926.81812 0 0 0
24.02539 926.20508 0 0 0
24.03419 926.68146 0 0 0
24.04299 927.2395 0 0 0
24.05179 927.03326 0 0 0
24.06059 927.93774 0 0 0
24.06940 929.82977 0 0 0
24.07820 932.3609 0 0 0
24.08700 935.47931 0 0 0
24.09580 937.25372 0 0 0
24.10460 936.54846 0 0 0
24.11341 935.21332 0 0 0
24.12221 934.2348 0 0 0
24.13101 933.60229 0 0 0
24.13981 933.59406 0 0 0
24.14862 934.27075 0 0 0
24.15742 936.43231 0 0 0
24.16622 939.57471 0 0 0
24.17502 942.81018 0 0 0
24.18382 946.58881 0 0 0
24.19263 949.96417 0 0 0
24.20143 951.06567 0 0 0
24.21023 950.19635 0 0 0
24.21903 948.07587 0 0 0
24.22783 946.06958 0 0 0
24.23664 944.38123 0 0 0
24.24544 943.04108 0 0 0
24.25424 941.96051 0 0 0
24.26304 941.6405 0 0 0
24.27184 942.60852 0 0 0
24.28065 944.3858 0 0 0
24.28945 945.8681 0 0 0
24.29825 948.07001 0 0 0
24.30705 951.12341 0 0 0
24.31586 955.51318 0 0 0
24.32466 959.39423 0 0 0
24.33346 963.01501 0 0 0
24.34226 967.68134 0 0 0
24.35106 971.02637 0 0 0
24.35987 973.76062 0 0 0
24.36867 975.18378 0 0 0
24.37747 976.17023 0 0 0
24.38627 976.52539 0 0 0
24.39507 976.57397 0 0 0
24.40388 974.94403 0 0 0
24.41268 971.58075 0 0 0
24.42148 967.67865 0 0 0
24.43029 965.03552 0 0 0
24.43908 962.03564 0 0 0
24.44789 959.10211 0 0 0
24.45669 957.97992 0 0 0
24.46549 958.73389 0 0 0
24.47430 958.29706 0 0 0
24.48310 956.21686 0 0 0
24.49190 954.18298 0 0 0
24.50070 952.42816 0 0 0
24.50950 951.71649 0 0 0
24.51831 950.94305 0 0 0
24.52711 950.57916 0 0 0
24.53591 951.17096 0 0 0
24.54471 951.7309 0 0 0
24.55351 951.40314 0 0 0
24.56232 952.29016 0 0 0
24.57112 953.21271 0 0 0
24.57992 951.79608 0 0 0
24.58872 949.23669 0 0 0
24.59753 945.97614 0 0 0
24.60633 942.99554 0 0 0
24.61513 940.07581 0 0 0
24.62393 937.3512 0 0 0
24.63273 935.27319 0 0 0
24.64154 933.64539 0 0 0
24.65034 932.01727 0 0 0
24.65914 931.22925 0 0 0
24.66794 930.12189 0 0 0
24.67674 928.76154 0 0 0
24.68555 928.13885 0 0 0
24.69435 926.7594 0 0 0
24.70315 926.06268 0 0 0
24.71195 926.35638 0 0 0
24.72076 926.16278 0 0 0
24.72956 925.31177 0 0 0
24.73836 924.81311 0 0 0
24.74716 924.54486 0 0 0
24.75596 924.63983 0 0 0
24.76477 924.08868 0 0 0
24.77357 922.66827 0 0 0
24.78237 921.86047 0 0 0
24.79117 921.60419 0 0 0
24.79997 921.71198 0 0 0
24.80878 922.28485 0 0 0
24.81758 923.38007 0 0 0
24.82638 924.2865 0 0 0
24.83518 925.69037 0 0 0
24.84398 927.57373 0 0 0
24.85279 930.65143 0 0 0
24.86159 934.91223 0 0 0
24.87039 939.05579 0 0 0
24.87919 942.59619 0 0 0
24.88800 944.22412 0 0 0
24.89680 943.67609 0 0 0
24.90560 943.31561 0 0 0
24.91440 943.08026 0 0 0
24.92320 941.61713 0 0 0
24.93201 941.13177 0 0 0
24.94081 942.29926 0 0 0
24.94961 943.90436 0 0 0
24.95841 946.85809 0 0 0
24.96721 951.6087 0 0 0
24.97602 958.24054 0 0 0
24.98482 965.50867 0 0 0
24.99362 971.53064 0 0 0
25.00242 975.3056 0 0 0
25.01122 975.59271 0 0 0
25.02003 972.59656 0 0 0
25.02883 968.53265 0 0 0
25.03763 965.63702 0 0 0
25.04643 964.72449 0 0 0
25.05523 964.06262 0 0 0
25.06404 964.99652 0 0 0
25.07284 969.21973 0 0 0
25.08164 974.58093 0 0 0
25.09044 981.74542 0 0 0
25.09924 989.47589 0 0 0
25.10805 999.82928 0 0 0
25.11685 1007.5846 0 0 0
25.12565 1011.791 0 0 0
25.13445 1014.4761 0 0 0
25.14325 1014.7178 0 0 0
25.15206 1012.3597 0 0 0
25.16086 1007.2678 0 0 0
25.16966 1003.7082 0 0 0
25.17846 998.36475 0 0 0
25.18727 995.25287 0 0 0
25.19607 991.80676 0 0 0
25.20487 991.49652 0 0 0
25.21367 989.56799 0 0 0
25.22247 987.61182 0 0 0
25.23128 983.97998 0 0 0
25.24008 979.63641 0 0 0
25.24888 975.74506 0 0 0
25.25768 971.28796 0 0 0
25.26648 969.16217 0 0 0
25.27529 966.53314 0 0 0
25.28409 966.41382 0 0 0
25.29289 966.51587 0 0 0
25.30169 968.59528 0 0 0
25.31049 970.9101 0 0 0
25.31930 974.54681 0 0 0
25.32810 978.40057 0 0 0
25.33690 982.62854 0 0 0
25.34570 985.96411 0 0 0
25.35451 987.06696 0 0 0
25.36331 987.39276 0 0 0
25.37211 985.19611 0 0 0
25.38091 982.11761 0 0 0
25.38971 980.83173 0 0 0
25.39852 981.37128 0 0 0
25.40732 981.77087 0 0 0
25.41612 984.8656 0 0 0
25.42492 989.87195 0 0 0
25.43372 994.16266 0 0 0
25.44253 997.4848 0 0 0
25.45133 1001.6752 0 0 0
25.46013 1007.6812 0 0 0
25.46893 1015.0821 0 0 0
25.47774 1021.6233 0 0 0
25.48654 1026.9769 0 0 0
25.49534 1030.369 0 0 0
25.50414 1028.5533 0 0 0
25.51294 1021.6105 0 0 0
25.52175 1011.0558 0 0 0
25.53055 1000.132 0 0 0
25.53935 988.59497 0 0 0
25.54815 976.42816 0 0 0
25.55695 964.59937 0 0 0
25.56576 954.06299 0 0 0
25.57456 946.17737 0 0 0
25.58336 940.03253 0 0 0
25.59216 934.64996 0 0 0
25.60096 931.56842 0 0 0
25.60977 929.73846 0 0 0
25.61857 927.74908 0 0 0
25.62737 926.55768 0 0 0
25.63618 926.52301 0 0 0
25.64498 927.11725 0 0 0
25.65378 929.30347 0 0 0
25.66258 931.11255 0 0 0
25.67138 934.28583 0 0 0
25.68019 938.64294 0 0 0
25.68899 943.90692 0 0 0
25.69779 949.80792 0 0 0
25.70659 956.89307 0 0 0
25.71539 965.85663 0 0 0
25.72420 977.09192 0 0 0
25.73300 991.43713 0 0 0
25.74180 1006.1054 0 0 0
25.75060 1020.7708 0 0 0
25.75940 1032.8723 0 0 0
25.76821 1040.3813 0 0 0
25.77701 1036.9362 0 0 0
25.78581 1027.2211 0 0 0
25.79461 1010.3336 0 0 0
25.80342 990.3667 0 0 0
25.81222 973.68024 0 0 0
25.82102 959.74274 0 0 0
25.82982 950.91779 0 0 0
25.83862 942.54333 0 0 0
25.84743 936.05743 0 0 0
25.85623 930.37317 0 0 0
25.86503 926.28418 0 0 0
25.87383 921.69501 0 0 0
25.88263 918.99884 0 0 0
25.89144 917.53534 0 0 0
25.90024 916.23352 0 0 0
25.90904 915.49292 0 0 0
25.91784 914.66766 0 0 0
25.92664 914.39423 0 0 0
25.93545 914.27362 0 0 0
25.94425 915.54108 0 0 0
25.95305 916.84442 0 0 0
25.96185 917.93085 0 0 0
25.97066 919.96271 0 0 0
25.97946 922.41541 0 0 0
25.98826 925.21368 0 0 0
25.99706 928.74664 0 0 0
26.00586 933.12708 0 0 0
26.01467 938.89349 0 0 0
26.02347 945.20776 0 0 0
26.03227 950.46649 0 0 0
26.04107 954.0069 0 0 0
26.04987 956.72131 0 0 0
26.05868 957.09119 0 0 0
26.06748 954.73212 0 0 0
26.07628 948.84613 0 0 0
26.08508 942.03705 0 0 0
26.09388 936.41412 0 0 0
26.10269 931.25452 0 0 0
26.11149 927.42511 0 0 0
26.12029 924.89264 0 0 0
26.12909 923.66229 0 0 0
26.13790 923.63391 0 0 0
26.14670 923.60504 0 0 0
26.15550 922.99335 0 0 0
26.16430 922.6618 0 0 0
26.17310 923.34009 0 0 0
26.18191 925.03186 0 0 0
26.19071 927.63348 0 0 0
26.19951 930.32214 0 0 0
26.20831 933.18768 0 0 0
26.21711 935.61755 0 0 0
26.22592 937.96472 0 0 0
26.23472 939.90967 0 0 0
26.24352 938.8042 0 0 0
26.25232 935.35956 0 0 0
26.26113 931.05579 0 0 0
26.26993 928.18115 0 0 0
26.27873 926.39911 0 0 0
26.28753 924.15729 0 0 0
26.29633 922.71503 0 0 0
26.30514 923.8324 0 0 0
26.31394 926.42346 0 0 0
26.32274 929.14374 0 0 0
26.33154 931.84918 0 0 0
26.34034 934.52863 0 0 0
26.34915 936.01801 0 0 0
26.35795 935.27618 0 0 0
26.36675 933.79034 0 0 0
26.37555 932.22662 0 0 0
26.38435 931.38397 0 0 0
26.39316 930.71332 0 0 0
26.40196 930.35339 0 0 0
26.41076 929.74469 0 0 0
26.41956 929.53241 0 0 0
26.42837 928.60687 0 0 0
26.43717 925.39874 0 0 0
26.44597 922.12665 0 0 0
26.45477 919.32343 0 0 0
26.46357 917.43945 0 0 0
26.47238 917.03381 0 0 0
26.48118 916.03198 0 0 0
26.48998 914.64581 0 0 0
26.49878 914.13092 0 0 0
26.50758 914.57269 0 0 0
26.51639 914.62585 0 0 0
26.52519 913.92969 0 0 0
26.53399 912.65186 0 0 0
26.54279 911.21814 0 0 0
26.55159 910.57465 0 0 0
26.56040 910.70959 0 0 0
26.56920 909.8717 0 0 0
26.57800 908.69989 0 0 0
26.58680 908.43494 0 0 0
26.59561 907.89526 0 0 0
26.60441 906.87762 0 0 0
26.61321 905.74786 0 0 0
26.62201 904.52362 0 0 0
26.63081 903.11304 0 0 0
26.63962 902.36365 0 0 0
26.64842 901.84564 0 0 0
26.65722 901.09302 0 0 0
26.66602 900.64502 0 0 0
26.67482 899.78143 0 0 0
26.68363 899.18793 0 0 0
26.69243 898.48199 0 0 0
26.70123 898.90137 0 0 0
26.71003 899.94159 0 0 0
26.71884 899.54102 0 0 0
26.72764 899.21661 0 0 0
26.73644 898.79633 0 0 0
26.74524 899.11487 0 0 0
26.75404 899.71857 0 0 0
26.76285 899.90466 0 0 0
26.77165 899.4809 0 0 0
26.78045 898.16278 0 0 0
26.78925 896.79236 0 0 0
26.79805 895.06287 0 0 0
26.80686 893.61212 0 0 0
26.81566 892.8819 0 0 0
26.82446 891.91931 0 0 0
26.83326 891.74902 0 0 0
26.84206 891.12903 0 0 0
26.85087 890.04572 0 0 0
26.85967 890.22119 0 0 0
26.86847 890.34558 0 0 0
26.87727 890.25836 0 0 0
26.88608 891.54614 0 0 0
26.89488 893.57837 0 0 0
26.90368 894.39069 0 0 0
26.91248 896.37659 0 0 0
26.92128 898.54846 0 0 0
26.93009 899.51794 0 0 0
26.93889 901.60809 0 0 0
26.94769 905.82544 0 0 0
26.95649 911.12341 0 0 0
26.96529 915.59778 0 0 0
26.97410 919.47327 0 0 0
26.98290 921.79291 0 0 0
26.99170 924.29791 0 0 0
27.00050 927.55426 0 0 0
27.00930 930.38409 0 0 0
27.01811 931.05725 0 0 0
27.02691 930.25671 0 0 0
27.03571 927.46509 0 0 0
27.04451 923.7243 0 0 0
27.05332 921.00647 0 0 0
27.06212 917.92914 0 0 0
27.07092 914.07776 0 0 0
27.07972 910.00836 0 0 0
27.08852 906.89349 0 0 0
27.09733 904.65375 0 0 0
27.10613 904.00085 0 0 0
27.11493 903.1806 0 0 0
27.12373 901.75153 0 0 0
27.13253 901.05438 0 0 0
27.14134 900.63086 0 0 0
27.15014 900.83136 0 0 0
27.15894 901.20313 0 0 0
27.16774 901.82062 0 0 0
27.17655 901.76337 0 0 0
27.18535 902.09009 0 0 0
27.19415 903.36292 0 0 0
27.20295 903.66431 0 0 0
27.21175 904.41827 0 0 0
27.22056 905.42352 0 0 0
27.22936 906.65173 0 0 0
27.23816 906.76703 0 0 0
27.24696 906.41504 0 0 0
27.25576 907.6828 0 0 0
27.26457 909.6795 0 0 0
27.27337 911.50732 0 0 0
27.28217 913.46863 0 0 0
27.29097 916.86328 0 0 0
27.29977 920.82947 0 0 0
27.30858 924.77521 0 0 0
27.31738 929.07977 0 0 0
27.32618 933.98969 0 0 0
27.33498 939.75555 0 0 0
27.34379 944.96326 0 0 0
27.35259 950.36884 0 0 0
27.36139 956.6723 0 0 0
27.37019 963.22083 0 0 0
27.37899 971.36401 0 0 0
27.38780 979.07538 0 0 0
27.39660 983.33868 0 0 0
27.40540 984.69855 0 0 0
27.41420 985.72906 0 0 0
27.42300 984.25012 0 0 0
27.43181 979.18024 0 0 0
27.44061 976.61047 0 0 0
27.44941 972.83948 0 0 0
27.45821 965.17657 0 0 0
27.46701 956.0285 0 0 0
27.47582 946.026 0 0 0
27.48462 935.58209 0 0 0
27.49342 926.49402 0 0 0
27.50222 920.37866 0 0 0
27.51103 916.24768 0 0 0
27.51983 912.8894 0 0 0
27.52863 908.70044 0 0 0
27.53743 905.89996 0 0 0
27.54623 903.78345 0 0 0
27.55504 901.37549 0 0 0
27.56384 900.02954 0 0 0
27.57264 899.23602 0 0 0
27.58144 898.46332 0 0 0
27.59024 898.1236 0 0 0
27.59905 897.00269 0 0 0
27.60785 895.62543 0 0 0
27.61665 895.23108 0 0 0
27.62545 894.62262 0 0 0
27.63426 893.974 0 0 0
27.64306 893.24097 0 0 0
27.65186 892.28723 0 0 0
27.66066 891.5014 0 0 0
27.66946 890.67535 0 0 0
27.67827 891.3479 0 0 0
27.68707 891.38513 0 0 0
27.69587 890.87354 0 0 0
27.70467 892.1358 0 0 0
27.71347 892.75079 0 0 0
27.72228 893.81598 0 0 0
27.73108 896.60315 0 0 0
27.73988 897.79358 0 0 0
27.74868 897.56909 0 0 0
27.75748 898.86163 0 0 0
27.76629 900.76544 0 0 0
27.77509 902.17169 0 0 0
27.78389 902.28424 0 0 0
27.79269 901.61395 0 0 0
27.80150 900.42102 0 0 0
27.81030 899.92505 0 0 0
27.81910 900.97278 0 0 0
27.82790 901.47241 0 0 0
27.83670 901.46796 0 0 0
27.84551 900.94403 0 0 0
27.85431 900.56604 0 0 0
27.86311 901.67712 0 0 0
27.87191 902.28644 0 0 0
27.88071 903.29077 0 0 0
27.88952 904.95276 0 0 0
27.89832 906.18854 0 0 0
27.90712 907.86755 0 0 0
27.91592 909.95508 0 0 0
27.92472 911.32727 0 0 0
27.93353 913.19574 0 0 0
27.94233 915.58075 0 0 0
27.95113 918.04633 0 0 0
27.95993 920.99463 0 0 0
27.96874 923.97107 0 0 0
27.97754 926.02002 0 0 0
27.98634 927.11292 0 0 0
27.99514 929.96796 0 0 0
28.00394 932.37378 0 0 0
28.01275 932.63763 0 0 0
28.02155 933.31158 0 0 0
28.03035 933.07007 0 0 0
28.03915 930.6889 0 0 0
28.04796 928.63287 0 0 0
28.05676 928.00134 0 0 0
28.06556 927.49304 0 0 0
28.07436 926.07318 0 0 0
28.08316 925.74774 0 0 0
28.09196 927.08881 0 0 0
28.10077 926.66052 0 0 0
28.10957 925.88037 0 0 0
28.11837 925.96466 0 0 0
28.12717 926.28717 0 0 0
28.13598 927.50037 0 0 0
28.14478 927.43408 0 0 0
28.15358 925.38354 0 0 0
28.16238 923.51208 0 0 0
28.17119 920.80829 0 0 0
28.17999 916.43616 0 0 0
28.18879 913.2384 0 0 0
28.19759 910.50891 0 0 0
28.20639 907.7439 0 0 0
28.21520 905.49341 0 0 0
28.22400 903.9491 0 0 0
28.23280 902.05884 0 0 0
28.24160 899.69824 0 0 0
28.25040 898.6579 0 0 0
28.25921 897.3006 0 0 0
28.26801 896.08984 0 0 0
28.27681 894.9635 0 0 0
28.28561 893.30951 0 0 0
28.29442 892.60944 0 0 0
28.30322 892.13312 0 0 0
28.31202 892.06873 0 0 0
28.32082 892.88757 0 0 0
28.32962 887.55676 0 0 0
28.33843 869.69214 0 0 0
28.34723 865.12061 0 0 0
28.35603 873.02832 0 0 0
28.36483 874.68097 0 0 0
28.37363 876.99121 0 0 0
28.38244 879.495 0 0 0
28.39124 880.73553 0 0 0
28.40004 880.38635 0 0 0
28.40884 879.92657 0 0 0
28.41765 881.72198 0 0 0
28.42645 883.55176 0 0 0
28.43525 884.76477 0 0 0
28.44405 886.05188 0 0 0
28.45285 886.55652 0 0 0
28.46166 887.60663 0 0 0
28.47046 888.52863 0 0 0
28.47926 890.01697 0 0 0
28.48806 891.94885 0 0 0
28.49686 892.43854 0 0 0
28.50567 893.80737 0 0 0
28.51447 896.75043 0 0 0
28.52327 900.17993 0 0 0
28.53207 903.49127 0 0 0
28.54087 907.14001 0 0 0
28.54968 910.02332 0 0 0
28.55848 911.91718 0 0 0
28.56728 913.13367 0 0 0
28.57608 912.83643 0 0 0
28.58488 911.07513 0 0 0
28.59369 910.31592 0 0 0
28.60249 911.15479 0 0 0
28.61129 913.13062 0 0 0
28.62009 917.56677 0 0 0
28.62889 922.76581 0 0 0
28.63770 927.33069 0 0 0
28.64650 932.422 0 0 0
28.65530 937.75427 0 0 0
28.66410 941.88806 0 0 0
28.67291 942.47168 0 0 0
28.68171 938.49451 0 0 0
28.69051 933.48645 0 0 0
28.69931 929.1048 0 0 0
28.70811 927.42322 0 0 0
28.71692 927.04474 0 0 0
28.72572 926.07697 0 0 0
28.73452 924.49561 0 0 0
28.74332 922.65063 0 0 0
28.75212 920.45813 0 0 0
28.76093 917.43591 0 0 0
28.76973 913.47913 0 0 0
28.77853 909.82581 0 0 0
28.78733 907.19061 0 0 0
28.79613 903.64893 0 0 0
28.80494 901.2984 0 0 0
28.81374 900.505 0 0 0
28.82254 898.52045 0 0 0
28.83134 896.42749 0 0 0
28.84014 896.73639 0 0 0
28.84895 897.23669 0 0 0
28.85775 897.95105 0 0 0
28.86655 897.85297 0 0 0
28.87535 898.16162 0 0 0
28.88416 899.03558 0 0 0
28.89296 901.1297 0 0 0
28.90176 904.05267 0 0 0
28.91056 904.94269 0 0 0
28.91936 907.0719 0 0 0
28.92817 910.00317 0 0 0
28.93697 912.75153 0 0 0
28.94577 915.22327 0 0 0
28.95457 916.84692 0 0 0
28.96337 918.35132 0 0 0
28.97218 920.50439 0 0 0
28.98098 922.07953 0 0 0
28.98978 922.55432 0 0 0
28.99858 923.74207 0 0 0
29.00738 926.42084 0 0 0
29.01619 928.78473 0 0 0
29.02499 931.69263 0 0 0
29.03379 934.12561 0 0 0
29.04259 933.89948 0 0 0
29.05140 934.75549 0 0 0
29.06020 937.19495 0 0 0
29.06900 937.76794 0 0 0
29.07780 938.60339 0 0 0
29.08660 940.22736 0 0 0
29.09541 941.61841 0 0 0
29.10421 943.14282 0 0 0
29.11301 945.68719 0 0 0
29.12181 946.12158 0 0 0
29.13061 942.91888 0 0 0
29.13942 939.97424 0 0 0
29.14822 936.17664 0 0 0
29.15702 931.77264 0 0 0
29.16583 928.48712 0 0 0
29.17463 925.45483 0 0 0
29.18343 923.17981 0 0 0
29.19223 921.25336 0 0 0
29.20103 920.24738 0 0 0
29.20984 918.57538 0 0 0
29.21864 915.89862 0 0 0
29.22744 913.57721 0 0 0
29.23624 912.8252 0 0 0
29.24504 910.15387 0 0 0
29.25384 907.60944 0 0 0
29.26265 908.48187 0 0 0
29.27145 907.90845 0 0 0
29.28025 906.04694 0 0 0
29.28906 902.42554 0 0 0
29.29785 900.54608 0 0 0
29.30666 901.11121 0 0 0
29.31546 899.69464 0 0 0
29.32426 897.81866 0 0 0
29.33307 896.67224 0 0 0
29.34187 895.48462 0 0 0
29.35067 895.8512 0 0 0
29.35947 895.3446 0 0 0
29.36827 895.03442 0 0 0
29.37708 896.99689 0 0 0
29.38588 897.24896 0 0 0
29.39468 896.49084 0 0 0
29.40348 896.86798 0 0 0
29.41228 897.52234 0 0 0
29.42109 898.12415 0 0 0
29.42989 898.73242 0 0 0
29.43869 899.21948 0 0 0
29.44749 899.97943 0 0 0
29.45630 900.69867 0 0 0
29.46510 901.38043 0 0 0
29.47390 901.14966 0 0 0
29.48270 901.07086 0 0 0
29.49150 901.18134 0 0 0
29.50031 900.2644 0 0 0
29.50911 899.51489 0 0 0
29.51791 898.31122 0 0 0
29.52671 898.58899 0 0 0
29.53551 899.80664 0 0 0
29.54432 900.41162 0 0 0
29.55312 901.27374 0 0 0
29.56192 901.84723 0 0 0
29.57072 904.45654 0 0 0
29.57952 907.50464 0 0 0
29.58833 910.86224 0 0 0
29.59713 914.62036 0 0 0
29.60593 919.18451 0 0 0
29.61473 922.50452 0 0 0
29.62354 921.45624 0 0 0
29.63234 919.62994 0 0 0
29.64114 920.95099 0 0 0
29.64994 922.38586 0 0 0
29.65874 920.93597 0 0 0
29.66755 918.94318 0 0 0
29.67635 917.91602 0 0 0
29.68515 917.14606 0 0 0
29.69395 914.76636 0 0 0
29.70275 912.70697 0 0 0
29.71156 910.23621 0 0 0
29.72036 907.09662 0 0 0
29.72916 904.9516 0 0 0
29.73796 903.69226 0 0 0
29.74676 902.15155 0 0 0
29.75557 901.13483 0 0 0
29.76437 901.63947 0 0 0
29.77317 902.37396 0 0 0
29.78197 904.34027 0 0 0
29.79078 906.6474 0 0 0
29.79958 909.82098 0 0 0
29.80838 916.04041 0 0 0
29.81718 922.24652 0 0 0
29.82598 928.31183 0 0 0
29.83479 932.12701 0 0 0
29.84359 933.5119 0 0 0
29.85239 932.59845 0 0 0
29.86119 928.62988 0 0 0
29.86999 924.01794 0 0 0
29.87880 920.68182 0 0 0
29.88760 917.47119 0 0 0
29.89640 913.75262 0 0 0
29.90520 910.12109 0 0 0
29.91400 908.37183 0 0 0
29.92281 907.61096 0 0 0
29.93161 905.48767 0 0 0
29.94041 903.62769 0 0 0
29.94921 900.0766 0 0 0
29.95801 897.23236 0 0 0
29.96682 895.72168 0 0 0
29.97562 892.22809 0 0 0
29.98442 891.66345 0 0 0
29.99322 892.11536 0 0 0
30.00203 889.64514 0 0 0
30.01083 888.24731 0 0 0
30.01963 887.57513 0 0 0
30.02843 887.64349 0 0 0
30.03723 887.34552 0 0 0
30.04604 886.90417 0 0 0
30.05484 887.6499 0 0 0
30.06364 888.04803 0 0 0
30.07244 889.03046 0 0 0
30.08124 890.99017 0 0 0
30.09005 890.30237 0 0 0
30.09885 889.06921 0 0 0
30.10765 888.35004 0 0 0
30.11645 889.62384 0 0 0
30.12526 892.53259 0 0 0
30.13406 893.40253 0 0 0
30.14286 893.41028 0 0 0
30.15166 893.41998 0 0 0
30.16046 893.85474 0 0 0
30.16927 894.58722 0 0 0
30.17807 895.28668 0 0 0
30.18687 897.99994 0 0 0
30.19567 901.11261 0 0 0
30.20447 901.79449 0 0 0
30.21328 900.3598 0 0 0
30.22208 898.729 0 0 0
30.23088 897.0686 0 0 0
30.23968 896.09009 0 0 0
30.24849 896.61218 0 0 0
30.25729 895.93768 0 0 0
30.26609 896.90179 0 0 0
30.27489 899.4165 0 0 0
30.28369 900.02753 0 0 0
30.29250 899.56537 0 0 0
30.30130 900.19995 0 0 0
30.31010 901.03674 0 0 0
30.31890 902.40051 0 0 0
30.32770 902.43848 0 0 0
30.33651 900.34735 0 0 0
30.34531 900.06396 0 0 0
30.35411 902.61133 0 0 0
30.36291 904.41101 0 0 0
30.37172 907.90619 0 0 0
30.38052 911.70367 0 0 0
30.38932 911.23163 0 0 0
30.39812 912.87903 0 0 0
30.40692 915.95508 0 0 0
30.41573 917.63898 0 0 0
30.42453 917.36884 0 0 0
30.43333 914.09619 0 0 0
30.44213 911.68579 0 0 0
30.45093 908.82428 0 0 0
30.45974 905.0611 0 0 0
30.46854 900.59308 0 0 0
30.47734 897.08105 0 0 0
30.48614 894.71198 0 0 0
30.49494 893.75916 0 0 0
30.50375 892.3208 0 0 0
30.51255 890.48004 0 0 0
30.52135 888.0517 0 0 0
30.53015 887.78082 0 0 0
30.53896 888.34052 0 0 0
30.54776 888.64447 0 0 0
30.55656 887.48438 0 0 0
30.56536 884.13727 0 0 0
30.57416 884.25793 0 0 0
30.58297 885.19513 0 0 0
30.59177 884.61633 0 0 0
30.60057 884.6347 0 0 0
30.60937 885.02435 0 0 0
30.61817 885.08997 0 0 0
30.62698 885.73035 0 0 0
30.63578 884.64502 0 0 0
30.64458 883.36414 0 0 0
30.65338 881.83942 0 0 0
30.66218 882.258 0 0 0
30.67099 884.21851 0 0 0
30.67979 882.84912 0 0 0
30.68859 880.13159 0 0 0
30.69739 878.60785 0 0 0
30.70620 880.45081 0 0 0
30.71500 881.16638 0 0 0
30.72380 880.52118 0 0 0
30.73260 882.92798 0 0 0
30.74140 885.36639 0 0 0
30.75021 886.216 0 0 0
30.75901 885.70728 0 0 0
30.76781 884.21039 0 0 0
30.77661 884.74701 0 0 0
30.78541 885.81122 0 0 0
30.79422 887.56708 0 0 0
30.80302 890.22455 0 0 0
30.81182 890.64972 0 0 0
30.82062 890.047 0 0 0
30.82943 888.68988 0 0 0
30.83823 888.34662 0 0 0
30.84703 889.04584 0 0 0
30.85583 891.24268 0 0 0
30.86463 891.74884 0 0 0
30.87344 890.61896 0 0 0
30.88224 892.42847 0 0 0
30.89104 893.23834 0 0 0
30.89984 892.10608 0 0 0
30.90864 892.74976 0 0 0
30.91745 894.03381 0 0 0
30.92625 895.53058 0 0 0
30.93505 896.95599 0 0 0
30.94385 898.27563 0 0 0
30.95265 901.20886 0 0 0
30.96146 905.3537 0 0 0
30.97026 909.39642 0 0 0
30.97906 915.80609 0 0 0
30.98786 920.85162 0 0 0
30.99667 925.65057 0 0 0
31.00547 929.88062 0 0 0
31.01427 931.29047 0 0 0
31.02307 932.56982 0 0 0
31.03187 933.07849 0 0 0
31.04068 932.60297 0 0 0
31.04948 936.39758 0 0 0
31.05828 938.92419 0 0 0
31.06708 937.68512 0 0 0
31.07588 937.45416 0 0 0
31.08469 937.74066 0 0 0
31.09349 938.18524 0 0 0
31.10229 939.44861 0 0 0
31.11109 934.56012 0 0 0
31.11989 930.12476 0 0 0
31.12870 928.23895 0 0 0
31.13750 925.19141 0 0 0
31.14630 922.72241 0 0 0
31.15510 921.51642 0 0 0
31.16391 919.86084 0 0 0
31.17271 921.06104 0 0 0
31.18151 919.72113 0 0 0
31.19031 911.57574 0 0 0
31.19911 902.52728 0 0 0
31.20792 896.77466 0 0 0
31.21672 893.69409 0 0 0
31.22552 892.3634 0 0 0
31.23432 890.08734 0 0 0
31.24312 885.88782 0 0 0
31.25193 883.78699 0 0 0
31.26073 883.25922 0 0 0
31.26953 879.81104 0 0 0
31.27833 877.77893 0 0 0
31.28714 879.15399 0 0 0
31.29594 878.53241 0 0 0
31.30474 879.83276 0 0 0
31.31354 881.55475 0 0 0
31.32234 881.17786 0 0 0
31.33115 882.1861 0 0 0
31.33995 881.45374 0 0 0
31.34875 879.44232 0 0 0
31.35755 878.22473 0 0 0
31.36635 877.16266 0 0 0
31.37516 877.18677 0 0 0
31.38396 877.52716 0 0 0
31.39276 876.13525 0 0 0
31.40156 875.09033 0 0 0
31.41036 875.92688 0 0 0
31.41917 873.586 0 0 0
31.42797 869.04211 0 0 0
31.43677 868.87482 0 0 0
31.44557 870.26782 0 0 0
31.45438 871.26672 0 0 0
31.46318 871.3078 0 0 0
31.47198 870.12286 0 0 0
31.48078 870.53491 0 0 0
31.48958 874.01123 0 0 0
31.49839 874.57153 0 0 0
31.50719 873.26544 0 0 0
31.51599 872.98236 0 0 0
31.52479 872.70532 0 0 0
31.53359 871.09949 0 0 0
31.54240 872.987 0 0 0
31.55120 874.33661 0 0 0
31.56000 874.22363 0 0 0
31.56880 872.8667 0 0 0
31.57760 870.32898 0 0 0
31.58641 869.08728 0 0 0
31.59521 867.31061 0 0 0
31.60401 866.5542 0 0 0
31.61281 866.474 0 0 0
31.62162 863.53113 0 0 0
31.63042 859.95844 0 0 0
31.63922 859.27679 0 0 0
31.64802 862.34027 0 0 0
31.65682 863.94922 0 0 0
31.66563 860.05383 0 0 0
31.67443 855.52081 0 0 0
31.68323 858.36096 0 0 0
31.69203 862.53375 0 0 0
31.70083 864.20587 0 0 0
31.70964 863.45721 0 0 0
31.71844 861.21655 0 0 0
31.72724 858.71582 0 0 0
31.73604 859.39545 0 0 0
31.74485 859.52289 0 0 0
31.75365 856.25037 0 0 0
31.76245 857.71375 0 0 0
31.77125 855.27063 0 0 0
31.78005 851.24042 0 0 0
31.78886 850.91357 0 0 0
31.79766 854.49072 0 0 0
31.80646 858.24078 0 0 0
31.81526 859.1875 0 0 0
31.82406 860.03699 0 0 0
31.83287 861.39807 0 0 0
31.84167 863.63654 0 0 0
31.85047 864.28827 0 0 0
31.85927 867.45935 0 0 0
31.86807 872.35504 0 0 0
31.87688 874.60992 0 0 0
31.88568 870.97107 0 0 0
31.89448 875.43378 0 0 0
31.90328 876.31305 0 0 0
31.91209 875.53595 0 0 0
31.92089 877.28162 0 0 0
31.92969 875.98535 0 0 0
31.93849 878.08588 0 0 0
31.94729 878.52948 0 0 0
31.95610 875.24207 0 0 0
31.96490 875.26068 0 0 0
31.97370 873.31873 0 0 0
31.98250 872.34381 0 0 0
31.99130 872.59656 0 0 0
32.00011 874.29901 0 0 0
32.00891 869.17188 0 0 0
32.01771 868.37592 0 0 0
32.02651 873.31403 0 0 0
32.03532 869.77081 0 0 0
32.04412 870.11542 0 0 0
32.05292 870.30115 0 0 0
32.06172 866.88092 0 0 0
32.07052 861.91071 0 0 0
32.07933 854.20905 0 0 0
32.08813 848.9726 0 0 0
32.09693 847.79877 0 0 0
32.10573 850.75439 0 0 0
32.11454 852.63708 0 0 0
32.12334 849.67755 0 0 0
32.13214 853.17609 0 0 0
32.14094 856.1557 0 0 0
32.14974 855.33734 0 0 0
32.15855 852.87817 0 0 0
32.16735 853.92358 0 0 0
32.17615 854.27167 0 0 0
32.18495 847.62537 0 0 0
32.19375 843.34613 0 0 0
32.20256 839.25232 0 0 0
32.21136 838.38037 0 0 0
32.22016 845.02454 0 0 0
32.22896 847.12512 0 0 0
32.23776 850.00897 0 0 0
32.24657 853.16632 0 0 0
32.25537 842.14667 0 0 0
32.26417 836.28583 0 0 0
32.27297 832.80621 0 0 0
32.28178 832.20227 0 0 0
32.29058 834.46722 0 0 0
32.29938 827.65826 0 0 0
32.30818 824.14996 0 0 0
32.31698 830.81781 0 0 0
32.32579 836.04077 0 0 0
32.33459 831.15314 0 0 0
32.34339 827.88123 0 0 0
32.35219 833.98071 0 0 0
32.36099 831.7027 0 0 0
32.36980 821.49585 0 0 0
32.37860 821.53027 0 0 0
32.38740 830.61743 0 0 0
32.39620 834.53027 0 0 0
32.40500 825.62927 0 0 0
32.41381 822.37769 0 0 0
32.42261 827.45514 0 0 0
32.43141 826.78131 0 0 0
32.44021 819.66382 0 0 0
32.44902 809.78937 0 0 0
32.45782 810.90332 0 0 0
32.46662 811.57373 0 0 0
32.47542 810.20966 0 0 0
32.48422 812.45007 0 0 0
32.49303 804.44183 0 0 0
32.50183 803.26025 0 0 0
32.51063 806.04614 0 0 0
32.51943 806.578 0 0 0
32.52823 799.85107 0 0 0
32.53704 792.1532 0 0 0
32.54584 795.89532 0 0 0
32.55464 793.71637 0 0 0
32.56344 794.31213 0 0 0
32.57225 800.17041 0 0 0
32.58105 800.07025 0 0 0
32.58985 795.97253 0 0 0
32.59865 801.92432 0 0 0
32.60745 792.07373 0 0 0
32.61626 783.3197 0 0 0
32.62506 793.08344 0 0 0
32.63386 801.69098 0 0 0
32.64266 790.95697 0 0 0
32.65146 785.87604 0 0 0
32.66027 784.53448 0 0 0
32.66907 766.45251 0 0 0
32.67787 765.08392 0 0 0
32.68667 763.73682 0 0 0
32.69547 754.12274 0 0 0
32.70428 762.28619 0 0 0
32.71308 764.49457 0 0 0
32.72188 740.54169 0 0 0
32.73068 723.30151 0 0 0
32.73949 725.25952 0 0 0
32.74829 718.0434 0 0 0
32.75709 717.99756 0 0 0
32.76589 705.75653 0 0 0
32.77469 670.32397 0 0 0
32.78350 645.07825 0 0 0
32.79230 632.07123 0 0 0
32.80110 605.10101 0 0 0
32.80990 567.07581 0 0 0
32.81870 492.1496 0 0 0
32.82751 393.75891 0 0 0
32.83631 270.76328 0 0 0
32.84511 186.39447 0 0 0
32.85391 184.87747 0 0 0
32.86271 185.68333 0 0 0
32.87152 181.60245 0 0 0
32.88032 176.25516 0 0 0
32.88912 179.56244 0 0 0
32.89792 185.98639 0 0 0
32.90673 183.53439 0 0 0
32.91553 172.26413 0 0 0
32.92433 168.8497 0 0 0
32.93313 170.16264 0 0 0
32.94193 174.45401 0 0 0
32.95074 171.69829 0 0 0
32.95954 167.29834 0 0 0
32.96834 162.07814 0 0 0
32.97714 159.72725 0 0 0
32.98594 169.67093 0 0 0
32.99475 173.96761 0 0 0
33.00355 173.08038 0 0 0
33.01235 168.08534 0 0 0
33.02115 171.58055 0 0 0
33.02996 176.5636 0 0 0
33.03876 174.01929 0 0 0
33.04756 181.09235 0 0 0
33.05636 191.67671 0 0 0
33.06516 187.97549 0 0 0
33.07397 180.43127 0 0 0
33.08277 179.89384 0 0 0
33.09157 184.85237 0 0 0
33.10037 177.20898 0 0 0
33.10917 173.54489 0 0 0
33.11798 181.6153 0 0 0
33.12678 191.33203 0 0 0
33.13558 195.43806 0 0 0
33.14438 183.49298 0 0 0
33.15318 170.44853 0 0 0
33.16199 177.00511 0 0 0
33.17079 182.30502 0 0 0
33.17959 176.3428 0 0 0
33.18839 171.82814 0 0 0
33.19720 179.83522 0 0 0
33.20600 188.92896 0 0 0
33.21480 189.93625 0 0 0
33.22360 192.34766 0 0 0
33.23240 193.52721 0 0 0
33.24121 194.09863 0 0 0
33.25001 189.74158 0 0 0
33.25881 191.43675 0 0 0
33.26761 194.31378 0 0 0
33.27641 197.24042 0 0 0
33.28522 186.63911 0 0 0
33.29402 181.73804 0 0 0
33.30282 181.67075 0 0 0
33.31162 183.17206 0 0 0
33.32042 187.16167 0 0 0
33.32923 181.75294 0 0 0
33.33803 178.4505 0 0 0
33.34683 177.04268 0 0 0
33.35563 178.98395 0 0 0
33.36444 171.27173 0 0 0
33.37324 174.46133 0 0 0
33.38204 187.96559 0 0 0
33.39084 194.1756 0 0 0
33.39964 186.12027 0 0 0
33.40845 170.24219 0 0 0
33.41725 177.80034 0 0 0
33.42605 184.60983 0 0 0
33.43485 183.76155 0 0 0
33.44365 183.71852 0 0 0
33.45246 178.23735 0 0 0
33.46126 181.9295 0 0 0
33.47006 194.01854 0 0 0
33.47886 201.83199 0 0 0
33.48766 209.96429 0 0 0
33.49647 210.94458 0 0 0
33.50527 202.47455 0 0 0
33.51407 190.39465 0 0 0
33.52287 187.34784 0 0 0
33.53168 189.2655 0 0 0
33.54048 183.28569 0 0 0
33.54928 174.71098 0 0 0
33.55808 179.77959 0 0 0
33.56688 186.94 0 0 0
33.57569 190.63226 0 0 0
33.58449 191.77382 0 0 0
33.59329 188.49959 0 0 0
33.60209 186.70827 0 0 0
33.61089 188.39429 0 0 0
33.61970 184.81165 0 0 0
33.62850 184.54501 0 0 0
33.63730 193.6268 0 0 0
33.64610 199.79291 0 0 0
33.65491 198.59567 0 0 0
33.66371 189.44617 0 0 0
33.67251 186.96773 0 0 0
33.68131 177.0598 0 0 0
33.69011 174.83391 0 0 0
33.69892 181.6946 0 0 0
33.70772 174.94559 0 0 0
33.71652 182.72742 0 0 0
33.72532 190.40921 0 0 0
33.73412 194.29755 0 0 0
33.74293 193.68195 0 0 0
33.75173 200.58537 0 0 0
33.76053 200.83501 0 0 0
33.76933 195.64058 0 0 0
33.77813 182.6608 0 0 0
33.78694 170.61469 0 0 0
33.79574 175.50829 0 0 0
33.80454 182.84572 0 0 0
33.81334 186.73125 0 0 0
33.82215 190.0354 0 0 0
33.83095 187.24068 0 0 0
33.83975 187.3849 0 0 0
33.84855 181.62233 0 0 0
33.85735 175.14662 0 0 0
33.86616 172.13458 0 0 0
33.87496 186.51497 0 0 0
33.88376 195.89899 0 0 0
33.89256 203.64326 0 0 0
33.90136 199.91914 0 0 0
33.91017 183.62704 0 0 0
33.91897 184.84691 0 0 0
33.92777 196.29564 0 0 0
33.93657 205.21753 0 0 0
33.94537 199.02502 0 0 0
33.95418 193.78439 0 0 0
33.96298 191.20711 0 0 0
33.97178 196.38889 0 0 0
33.98058 204.23375 0 0 0
33.98939 198.93872 0 0 0
33.99819 195.6445 0 0 0
34.00699 202.54053 0 0 0
34.01579 207.64442 0 0 0
34.02459 205.28848 0 0 0
34.03340 200.02959 0 0 0
34.04220 202.46602 0 0 0
34.05100 214.35312 0 0 0
34.05980 211.97949 0 0 0
34.06860 200.08752 0 0 0
34.07741 194.85582 0 0 0
34.08621 187.36122 0 0 0
34.09501 184.00229 0 0 0
34.10381 191.06233 0 0 0
34.11262 186.51453 0 0 0
34.12142 181.31523 0 0 0
34.13022 180.32967 0 0 0
34.13902 187.14922 0 0 0
34.14782 193.71173 0 0 0
34.15663 191.33678 0 0 0
34.16543 193.80458 0 0 0
34.17423 195.73961 0 0 0
34.18303 191.50729 0 0 0
34.19183 193.27544 0 0 0
34.20064 198.25627 0 0 0
34.20944 203.73528 0 0 0
34.21824 211.64803 0 0 0
34.22704 216.72731 0 0 0
34.23584 219.08366 0 0 0
34.24465 212.48662 0 0 0
34.25345 207.20908 0 0 0
34.26225 196.7939 0 0 0
34.27105 195.34845 0 0 0
34.27986 199.36345 0 0 0
34.28866 199.15736 0 0 0
34.29746 208.48552 0 0 0
34.30626 217.08498 0 0 0
34.31506 214.89496 0 0 0
34.32387 205.61032 0 0 0
34.33267 197.4494 0 0 0
34.34147 192.35945 0 0 0
34.35027 191.97667 0 0 0
34.35907 188.01672 0 0 0
34.36788 190.12787 0 0 0
34.37668 196.48984 0 0 0
34.38548 196.1346 0 0 0
34.39428 198.78204 0 0 0
34.40308 200.22701 0 0 0
34.41189 206.6669 0 0 0
34.42069 213.52704 0 0 0
34.42949 216.41217 0 0 0
34.43829 212.3842 0 0 0
34.44710 209.15269 0 0 0
34.45590 210.15797 0 0 0
34.46470 199.69254 0 0 0
34.47350 187.77528 0 0 0
34.48230 182.18123 0 0 0
34.49111 188.19885 0 0 0
34.49991 208.77235 0 0 0
34.50871 219.87605 0 0 0
34.51751 210.34845 0 0 0
34.52631 204.77287 0 0 0
34.53512 203.65916 0 0 0
34.54392 203.5536 0 0 0
34.55272 204.01767 0 0 0
34.56152 200.22667 0 0 0
34.57033 197.18042 0 0 0
34.57913 190.121 0 0 0
34.58793 185.29601 0 0 0
34.59673 185.43721 0 0 0
34.60553 190.5172 0 0 0
34.61434 197.79095 0 0 0
34.62314 202.55138 0 0 0
34.63194 207.44759 0 0 0
34.64074 209.81134 0 0 0
34.64954 209.74907 0 0 0
34.65835 211.91652 0 0 0
34.66715 208.41164 0 0 0
34.67595 206.00012 0 0 0
34.68475 194.88318 0 0 0
34.69355 178.13391 0 0 0
34.70236 190.06012 0 0 0
34.71116 208.33281 0 0 0
34.71996 218.88618 0 0 0
34.72876 203.17529 0 0 0
34.73757 205.05879 0 0 0
34.74637 214.73386 0 0 0
34.75517 218.66554 0 0 0
34.76397 216.16666 0 0 0
34.77277 198.64827 0 0 0
34.78158 184.46312 0 0 0
34.79038 195.92668 0 0 0
34.79918 215.85052 0 0 0
34.80798 214.30396 0 0 0
34.81678 198.46832 0 0 0
34.82559 195.9399 0 0 0
34.83439 206.41304 0 0 0
34.84319 214.18613 0 0 0
34.85199 211.94348 0 0 0
34.86079 207.661 0 0 0
34.86960 204.39305 0 0 0
34.87840 194.16971 0 0 0
34.88720 198.81448 0 0 0
34.89600 198.89915 0 0 0
34.90481 215.24007 0 0 0
34.91361 220.36354 0 0 0
34.92241 216.99602 0 0 0
34.93121 203.84064 0 0 0
34.94001 211.04504 0 0 0
34.94882 209.32452 0 0 0
34.95762 203.2518 0 0 0
34.96642 204.77002 0 0 0
34.97522 208.65706 0 0 0
34.98402 215.37682 0 0 0
34.99283 219.10837 0 0 0
35.00163 215.57742 0 0 0
35.01043 209.71999 0 0 0
35.01923 208.17519 0 0 0
35.02804 214.45963 0 0 0
35.03684 218.08549 0 0 0
35.04564 213.56868 0 0 0
35.05444 216.67273 0 0 0
35.06324 228.61086 0 0 0
35.07205 227.27521 0 0 0
35.08085 213.19684 0 0 0
35.08965 206.8502 0 0 0
35.09845 219.20464 0 0 0
35.10725 220.38388 0 0 0
35.11606 219.79132 0 0 0
35.12486 223.24896 0 0 0
35.13366 221.51407 0 0 0
35.14246 217.05101 0 0 0
35.15126 214.11778 0 0 0
35.16007 218.72292 0 0 0
35.16887 218.8065 0 0 0
35.17767 221.35605 0 0 0
35.18647 214.03886 0 0 0
35.19528 213.23026 0 0 0
35.20408 216.88933 0 0 0
loop_
_gsas_i100_meas
0.20
21.19
3.92
3.65
3.23
0.59
25.29
16.23
6.68
100.00
15.31
13.59
0.59
0.49
14.98
50.11
0.03
26.97
6.36
8.32
4.07
0.31
1.57
4.62
-0.99
26.21
4.18
25.48
0.98
0.72
-0.30
3.22
0.05
3.76
1.13
-0.44
1.02
1.49
7.19
15.75
10.16
2.25
2.19
0.59
0.20
0.06
0.28
0.00
14.39
0.62
2.94
7.47
2.89
0.27
3.21
2.22
0.41
6.43
4.47
0.00
0.90
8.10
28.51
0.14
2.06
2.55
-0.82
4.20
-0.78
1.52
0.72
0.28
3.06
2.49
0.02
1.05
2.95
1.62
0.33
3.28
2.11
-0.60
-0.00
0.02
3.31
3.68
4.80
26.31
0.01
1.74
2.24
1.48
0.61
0.17
0.02
0.93
0.69
1.73
5.90
2.23
0.15
0.36
1.68
1.45
0.31
0.34
5.12
0.05
1.94
5.36
-0.57
15.08
4.38
3.28
3.14
1.96
0.00
0.02
0.30
0.13
0.82
0.47
0.01
2.56
0.05
1.95
8.77
0.51
4.49
0.31
0.01
0.66
0.24
0.06
3.26
0.74
-0.02
1.29
0.60
0.05
0.44
0.62
0.55
8.44
-0.25
0.08
6.04
0.26
0.28
0.01
6.54
1.22
0.40
0.50
0.17
-0.72
-0.05
2.91
0.27
3.70
2.16
0.52
0.21
0.26
3.00
1.55
0.66
0.58
0.13
0.11
1.38
0.08
1.24
0.07
1.80
0.65
0.38
0.00
0.34
0.36
0.06
0.03
0.15
