#------------------------------------------------------------------------------
#$Date: 2021-03-05 03:44:48 +0200 (Fri, 05 Mar 2021) $
#$Revision: 262565 $
#$URL: file:///home/coder/svn-repositories/cod/cif/7/24/19/7241972.cif $
#------------------------------------------------------------------------------
#
# This file is available in the Crystallography Open Database (COD),
# http://www.crystallography.net/
#
# All data on this site have been placed in the public domain by the
# contributors.
#
data_7241972
loop_
_publ_author_name
'Abe, Haruka'
'Kobayashi, Takahiro'
'Hoshino, Norihisa'
'Takeda, Takashi'
'Suzuki, Yasutaka'
'Kawamata, Jun'
'Akutagawa, Tomoyuki'
_publ_section_title
;
 Dynamic structural reconstruction of
 (guanidinium+)2(benzene-1,4-disulfonate2&#x2212;) host crystal by guest
 adsorption
;
_journal_issue                   5
_journal_name_full               CrystEngComm
_journal_page_first              1149
_journal_page_last               1157
_journal_paper_doi               10.1039/D0CE01616K
_journal_volume                  23
_journal_year                    2021
_chemical_formula_moiety         '2(C H6 N3)+, (C6 H4 O6 S2)2-, 3(C4 H5 N)'
_chemical_formula_sum            'C20 H31 N9 O6 S2'
_chemical_formula_weight         557.66
_space_group_crystal_system      monoclinic
_space_group_IT_number           14
_space_group_name_Hall           '-P 2yn'
_space_group_name_H-M_alt        'P 1 21/n 1'
_atom_sites_solution_hydrogens   geom
_atom_sites_solution_primary     direct
_atom_sites_solution_secondary   difmap
_audit_creation_method           SHELXL-2018/3
_audit_update_record
;
2020-10-29 deposited with the CCDC.	2020-12-21 downloaded from the CCDC.
;
_cell_angle_alpha                90
_cell_angle_beta                 90.093(6)
_cell_angle_gamma                90
_cell_formula_units_Z            2
_cell_length_a                   7.4854(5)
_cell_length_b                   12.0766(7)
_cell_length_c                   16.8284(10)
_cell_measurement_reflns_used    9442
_cell_measurement_temperature    100(2)
_cell_measurement_theta_max      67.99
_cell_measurement_theta_min      3.66
_cell_volume                     1521.25(16)
_computing_cell_refinement       'RAPID AUTO (Rigaku, 2011)'
_computing_data_collection       'RAPID AUTO (Rigaku, 2011)'
_computing_data_reduction        'RAPID AUTO (Rigaku, 2011)'
_computing_molecular_graphics    'Mercury (CCDC, 2016)'
_computing_publication_material  'SHELXL-2018/3 (Sheldrick, 2018)'
_computing_structure_refinement  'SHELXL-2018/3 (Sheldrick, 2018)'
_computing_structure_solution    'SHELXS-2013 (Sheldrick, 2013)'
_diffrn_ambient_temperature      100(2)
_diffrn_detector_area_resol_mean 10.000
_diffrn_measured_fraction_theta_full 1.000
_diffrn_measured_fraction_theta_max 0.999
_diffrn_measurement_device_type  'Rigaku R-AXIS RAPID'
_diffrn_measurement_method       \w
_diffrn_radiation_type           CuK\a
_diffrn_radiation_wavelength     1.54187
_diffrn_reflns_av_R_equivalents  0.0803
_diffrn_reflns_av_unetI/netI     0.0704
_diffrn_reflns_Laue_measured_fraction_full 1.000
_diffrn_reflns_Laue_measured_fraction_max 0.999
_diffrn_reflns_limit_h_max       8
_diffrn_reflns_limit_h_min       -9
_diffrn_reflns_limit_k_max       14
_diffrn_reflns_limit_k_min       -14
_diffrn_reflns_limit_l_max       20
_diffrn_reflns_limit_l_min       -20
_diffrn_reflns_number            17294
_diffrn_reflns_point_group_measured_fraction_full 1.000
_diffrn_reflns_point_group_measured_fraction_max 0.999
_diffrn_reflns_theta_full        67.687
_diffrn_reflns_theta_max         68.164
_diffrn_reflns_theta_min         3.660
_diffrn_source                   'rotating-anode X-ray tube'
_exptl_absorpt_coefficient_mu    1.990
_exptl_absorpt_correction_T_max  1.0000
_exptl_absorpt_correction_T_min  0.6345
_exptl_absorpt_correction_type   empirical
_exptl_absorpt_process_details   'ABSCOR (Rigaku, 2011)'
_exptl_crystal_colour            colorless
_exptl_crystal_density_diffrn    1.217
_exptl_crystal_description       needle
_exptl_crystal_F_000             588
_exptl_crystal_size_max          0.100
_exptl_crystal_size_mid          0.100
_exptl_crystal_size_min          0.010
_refine_diff_density_max         0.540
_refine_diff_density_min         -0.621
_refine_diff_density_rms         0.095
_refine_ls_extinction_method     none
_refine_ls_goodness_of_fit_ref   1.177
_refine_ls_hydrogen_treatment    constr
_refine_ls_matrix_type           full
_refine_ls_number_parameters     101
_refine_ls_number_reflns         2776
_refine_ls_number_restraints     0
_refine_ls_restrained_S_all      1.177
_refine_ls_R_factor_all          0.1338
_refine_ls_R_factor_gt           0.1099
_refine_ls_shift/su_max          0.000
_refine_ls_shift/su_mean         0.000
_refine_ls_structure_factor_coef Fsqd
_refine_ls_weighting_details
'w=1/[\s^2^(Fo^2^)+(0.2000P)^2^] where P=(Fo^2^+2Fc^2^)/3'
_refine_ls_weighting_scheme      calc
_refine_ls_wR_factor_gt          0.3154
_refine_ls_wR_factor_ref         0.3472
_reflns_Friedel_coverage         0.000
_reflns_number_gt                1857
_reflns_number_total             2776
_reflns_threshold_expression     'I > 2\s(I)'
_cod_data_source_file            d0ce01616k2.cif
_cod_data_source_block           p21n_sq
_cod_depositor_comments
'Adding full bibliography for 7241968--7241975.cif.'
_cod_original_sg_symbol_H-M      'P 21/n'
_cod_database_code               7241972
_shelx_shelxl_version_number     2018/3
_shelx_space_group_comment
;
The symmetry employed for this shelxl refinement is uniquely defined
by the following loop, which should always be used as a source of
symmetry information in preference to the above space-group names.
They are only intended as comments.
;
_shelx_estimated_absorpt_t_min   0.826
_shelx_estimated_absorpt_t_max   0.980
_shelx_res_file
;
TITL P21n
    p21n_sq.res
    created by SHELXL-2018/3 at 20:05:33 on 28-Oct-2020
REM  Yadorkari-X generated
CELL 1.54187 7.4854 12.0766 16.8284 90.0000 90.0930 90.0000
ZERR 2.0 0.0005 0.0007 0.0010 0.0000 0.0060 0.0000
LATT 1
SYMM 0.5-X, 0.5+Y, 0.5-Z
REM  SPGR P21/n monoclinic
SFAC C H N O S
UNIT 40 62 18 12 4
SIZE 0.10 0.10 0.01
TEMP -173.0
L.S. 10
FMAP 2
PLAN -5
ACTA
CONF
BOND$H

TWIN -1 0 0 0 -1 0 0.007 0 1
ABIN
WGHT    0.200000
BASF   0.33443
FVAR       0.25867
S1    5    0.008075    0.533126    0.314974    11.00000    0.06977    0.05900 =
         0.05694    0.00233   -0.00234    0.00260
O1    4    0.002880    0.421749    0.280109    11.00000    0.07768    0.05595 =
         0.06875   -0.00419   -0.00253   -0.00266
O2    4    0.164602    0.595532    0.295669    11.00000    0.06095    0.05757 =
         0.06235    0.00442    0.00307   -0.01358
O3    4   -0.155538    0.594208    0.296305    11.00000    0.07021    0.08075 =
         0.06391    0.00355    0.00253    0.00022
N1    3    0.503606    0.482455    0.280533    11.00000    0.06781    0.05834 =
         0.07713   -0.01123   -0.00131   -0.00100
AFIX  93
H1    2    0.401341    0.517281    0.286841    11.00000   -1.20000
H2    2    0.604952    0.517969    0.287873    11.00000   -1.20000
AFIX   0
N2    3    0.350857    0.326189    0.249529    11.00000    0.06561    0.06407 =
         0.06513   -0.01330   -0.00257    0.00738
AFIX  93
H3    2    0.249915    0.362373    0.256106    11.00000   -1.20000
H4    2    0.349145    0.255857    0.235871    11.00000   -1.20000
AFIX   0
N3    3    0.661071    0.323891    0.247614    11.00000    0.08299    0.06189 =
         0.06198   -0.00617   -0.00739    0.00607
AFIX  93
H5    2    0.763024    0.359386    0.253082    11.00000   -1.20000
H6    2    0.660686    0.253542    0.233983    11.00000   -1.20000
AFIX   0
C1    1    0.011526    0.516392    0.418935    11.00000    0.06462    0.05676 =
         0.04825    0.00394    0.00010   -0.00249
C2    1    0.117824    0.574334    0.468542    11.00000    0.10575    0.09017 =
         0.05683    0.00072    0.00165   -0.04127
AFIX  43
H7    2    0.195439    0.628575    0.446693    11.00000   -1.20000
AFIX   0
C3    1   -0.118629    0.441649    0.451155    11.00000    0.08773    0.07843 =
         0.08004   -0.01096    0.00195   -0.02062
AFIX  43
H8    2   -0.202154    0.404709    0.417871    11.00000   -1.20000
AFIX   0
C4    1    0.504977    0.377455    0.260160    11.00000    0.07629    0.06622 =
         0.04263   -0.01092    0.00728   -0.00555

HKLF 4




REM  P21n
REM wR2 = 0.3472, GooF = S = 1.177, Restrained GooF = 1.177 for all data
REM R1 = 0.1099 for 1857 Fo > 4sig(Fo) and 0.1338 for all 2776 data
REM 101 parameters refined using 0 restraints

END

WGHT      0.2000      0.0000

REM Highest difference peak  0.540,  deepest hole -0.621,  1-sigma level  0.095
Q1    1   0.1133  0.3507  0.0148  11.00000  0.05    0.54
Q2    1  -0.0123  0.5570  0.3749  11.00000  0.05    0.53
Q3    1   0.1369  0.5510  0.3783  11.00000  0.05    0.48
Q4    1   0.0369  0.5697  0.2465  11.00000  0.05    0.45
Q5    1  -0.0127  0.5099  0.3746  11.00000  0.05    0.45
;
_shelx_res_checksum              67420
_shelx_fab_file
;
    0    0    2    157.44      0.00
    0    0    4     17.69      0.00
    0    0    6     -0.79      0.00
    0    0    8    -16.72      0.00
    0    0   10     -7.44      0.00
    0    0   12     -2.80      0.00
    0    0   14      4.85      0.00
    0    0   16      5.42      0.00
    0    0   18      1.22      0.00
    0    0   20      2.17      0.00
    0    1    1    -89.14      0.00
    0    1    2     -7.39      0.00
    0    1    3    -20.11      0.00
    0    1    4     -3.92      0.00
    0    1    5     -7.40      0.00
    0    1    6      3.75      0.00
    0    1    7      0.83      0.00
    0    1    8      6.24      0.00
    0    1    9      4.19      0.00
    0    1   10      5.90      0.00
    0    1   11     -4.75      0.00
    0    1   12      2.75      0.00
    0    1   13     -4.27      0.00
    0    1   14     -3.77      0.00
    0    1   15     -6.15      0.00
    0    1   16     -1.83      0.00
    0    1   17     -1.67      0.00
    0    1   18     -0.59      0.00
    0    1   19     -0.74      0.00
    0    1   20     -0.81      0.00
    0    2    0    -45.35      0.00
    0    2    1     -4.32      0.00
    0    2    2    -19.89      0.00
    0    2    3      8.88      0.00
    0    2    4     -0.25      0.00
    0    2    5      4.48      0.00
    0    2    6      6.77      0.00
    0    2    7     -2.19      0.00
    0    2    8      6.23      0.00
    0    2    9      4.99      0.00
    0    2   10      6.04      0.00
    0    2   11      1.29      0.00
    0    2   12      4.32      0.00
    0    2   13      3.64      0.00
    0    2   14      1.38      0.00
    0    2   15      3.50      0.00
    0    2   16      2.56      0.00
    0    2   17      1.52      0.00
    0    2   18     -0.33      0.00
    0    2   19      1.58      0.00
    0    2   20      0.05      0.00
    0    3    1      5.10      0.00
    0    3    2      8.38      0.00
    0    3    3      4.52      0.00
    0    3    4     -0.67      0.00
    0    3    5      3.16      0.00
    0    3    6     -2.74      0.00
    0    3    7      6.01      0.00
    0    3    8    -12.80      0.00
    0    3    9      5.79      0.00
    0    3   10     -7.74      0.00
    0    3   11      3.70      0.00
    0    3   12     -2.90      0.00
    0    3   13      3.36      0.00
    0    3   14     -1.71      0.00
    0    3   15      0.88      0.00
    0    3   16      3.00      0.00
    0    3   17     -0.19      0.00
    0    3   18     -0.34      0.00
    0    3   19     -0.23      0.00
    0    4    0     16.45      0.00
    0    4    1      1.47      0.00
    0    4    2      5.86      0.00
    0    4    3     -2.67      0.00
    0    4    4     -1.91      0.00
    0    4    5     -2.14      0.00
    0    4    6    -13.69      0.00
    0    4    7      1.20      0.00
    0    4    8    -18.38      0.00
    0    4    9     -0.42      0.00
    0    4   10     -6.69      0.00
    0    4   11     -3.72      0.00
    0    4   12     -2.88      0.00
    0    4   13     -6.88      0.00
    0    4   14     -1.73      0.00
    0    4   15     -9.20      0.00
    0    4   16      0.14      0.00
    0    4   17     -4.89      0.00
    0    4   18      1.36      0.00
    0    4   19      1.04      0.00
    0    5    1     -1.39      0.00
    0    5    2      3.47      0.00
    0    5    3      6.21      0.00
    0    5    4      3.45      0.00
    0    5    5     15.33      0.00
    0    5    6      2.88      0.00
    0    5    7     15.13      0.00
    0    5    8      3.97      0.00
    0    5    9      7.18      0.00
    0    5   10      4.03      0.00
    0    5   11     -0.04      0.00
    0    5   12      4.75      0.00
    0    5   13      0.99      0.00
    0    5   14      4.55      0.00
    0    5   15     -1.16      0.00
    0    5   16      3.34      0.00
    0    5   17     -1.23      0.00
    0    5   18      1.63      0.00
    0    5   19     -0.08      0.00
    0    6    0     -4.74      0.00
    0    6    1     -3.00      0.00
    0    6    2     -2.47      0.00
    0    6    3     -3.00      0.00
    0    6    4     -5.27      0.00
    0    6    5     -2.28      0.00
    0    6    6     -3.78      0.00
    0    6    7     -2.19      0.00
    0    6    8     -1.56      0.00
    0    6    9     -0.07      0.00
    0    6   10      1.60      0.00
    0    6   11      0.55      0.00
    0    6   12      2.73      0.00
    0    6   13      3.35      0.00
    0    6   14      1.32      0.00
    0    6   15      1.84      0.00
    0    6   16      2.12      0.00
    0    6   17     -0.23      0.00
    0    6   18     -0.09      0.00
    0    7    1     -5.75      0.00
    0    7    2     -0.66      0.00
    0    7    3     -7.33      0.00
    0    7    4     -0.18      0.00
    0    7    5     -4.51      0.00
    0    7    6     -0.68      0.00
    0    7    7     -2.44      0.00
    0    7    8      0.61      0.00
    0    7    9      0.51      0.00
    0    7   10     -0.10      0.00
    0    7   11      1.16      0.00
    0    7   12     -1.31      0.00
    0    7   13      1.01      0.00
    0    7   14     -1.81      0.00
    0    7   15      0.64      0.00
    0    7   16     -0.69      0.00
    0    7   17      0.08      0.00
    0    8    0     -2.84      0.00
    0    8    1      2.27      0.00
    0    8    2      0.01      0.00
    0    8    3      3.77      0.00
    0    8    4      1.93      0.00
    0    8    5      5.90      0.00
    0    8    6     -0.02      0.00
    0    8    7      4.42      0.00
    0    8    8      1.38      0.00
    0    8    9      0.57      0.00
    0    8   10     -0.64      0.00
    0    8   11     -1.63      0.00
    0    8   12     -0.35      0.00
    0    8   13     -3.54      0.00
    0    8   14     -1.15      0.00
    0    8   15     -2.08      0.00
    0    8   16     -1.34      0.00
    0    9    1     -2.16      0.00
    0    9    2     -1.72      0.00
    0    9    3      2.45      0.00
    0    9    4     -2.50      0.00
    0    9    5      4.70      0.00
    0    9    6     -4.62      0.00
    0    9    7      0.71      0.00
    0    9    8     -3.44      0.00
    0    9    9     -1.40      0.00
    0    9   10     -2.46      0.00
    0    9   11     -0.78      0.00
    0    9   12     -0.34      0.00
    0    9   13     -1.11      0.00
    0    9   14      0.75      0.00
    0    9   15      0.66      0.00
    0   10    0      2.08      0.00
    0   10    1     -0.05      0.00
    0   10    2     -0.05      0.00
    0   10    3     -1.88      0.00
    0   10    4     -2.48      0.00
    0   10    5     -1.51      0.00
    0   10    6     -0.62      0.00
    0   10    7      0.17      0.00
    0   10    8     -0.21      0.00
    0   10    9      0.83      0.00
    0   10   10     -0.59      0.00
    0   10   11      1.95      0.00
    0   10   12      0.93      0.00
    0   10   13      0.54      0.00
    0   10   14      0.32      0.00
    0   11    1      0.61      0.00
    0   11    2      0.56      0.00
    0   11    3     -1.28      0.00
    0   11    4      0.21      0.00
    0   11    5     -0.27      0.00
    0   11    6      1.17      0.00
    0   11    7      0.91      0.00
    0   11    8      3.04      0.00
    0   11    9      0.63      0.00
    0   11   10      1.69      0.00
    0   11   11      0.94      0.00
    0   11   12      1.18      0.00
    0   11   13     -0.28      0.00
    0   12    0     -2.61      0.00
    0   12    1      0.31      0.00
    0   12    2     -0.36      0.00
    0   12    3      1.16      0.00
    0   12    4      1.11      0.00
    0   12    5      0.90      0.00
    0   12    6      0.29      0.00
    0   12    7     -0.79      0.00
    0   12    8      0.87      0.00
    0   12    9     -1.43      0.00
    0   12   10     -0.75      0.00
    0   12   11     -1.81      0.00
    0   13    1      0.94      0.00
    0   13    2     -2.91      0.00
    0   13    3     -0.37      0.00
    0   13    4     -0.62      0.00
    0   13    5     -1.03      0.00
    0   13    6      0.55      0.00
    0   13    7     -2.05      0.00
    0   13    8     -0.60      0.00
    0   13    9     -2.64      0.00
    0   14    0     -0.98      0.00
    0   14    1     -0.32      0.00
    0   14    2     -2.33      0.00
    0   14    3     -0.87      0.00
    0   14    4     -0.97      0.00
    0   14    5     -1.00      0.00
   -1    0   19      0.45      0.00
   -1    0   17      1.39      0.00
   -1    0   15      0.41      0.00
   -1    0   13     -1.67      0.00
   -1    0   11     -0.78      0.00
   -1    0    9     -4.58      0.00
   -1    0    7     -6.03      0.00
   -1    0    5      1.65      0.00
   -1    0    3     16.34      0.00
   -1    0    1     55.21      0.00
    1    0    1     60.93      0.00
    1    0    3     18.06      0.00
    1    0    5     -0.21      0.00
    1    0    7     -1.65      0.00
    1    0    9     -5.67      0.00
    1    0   11     -3.45      0.00
    1    0   13     -1.07      0.00
    1    0   15     -0.90      0.00
    1    0   17      0.73      0.00
    1    0   19      0.52      0.00
   -1    1   20      0.19      0.00
   -1    1   19     -2.57      0.00
   -1    1   18      0.83      0.00
   -1    1   17     -2.11      0.00
   -1    1   16     -0.22      0.00
   -1    1   15     -2.89      0.00
   -1    1   14     -0.30      0.00
   -1    1   13     -0.63      0.00
   -1    1   12     -2.96      0.00
   -1    1   11      3.08      0.00
   -1    1   10     -4.97      0.00
   -1    1    9      9.80      0.00
   -1    1    8     -6.25      0.00
   -1    1    7      4.48      0.00
   -1    1    6     -6.29      0.00
   -1    1    5      1.07      0.00
   -1    1    4      3.56      0.00
   -1    1    3    -11.13      0.00
   -1    1    2     23.06      0.00
   -1    1    1    -28.60      0.00
    1    1    0     31.49      0.00
    1    1    1     -2.67      0.00
    1    1    2      6.04      0.00
    1    1    3     -3.35      0.00
    1    1    4     -4.46      0.00
    1    1    5     -3.24      0.00
    1    1    6     -2.36      0.00
    1    1    7      0.66      0.00
    1    1    8     -4.52      0.00
    1    1    9      7.98      0.00
    1    1   10     -4.22      0.00
    1    1   11      1.47      0.00
    1    1   12     -2.93      0.00
    1    1   13     -1.47      0.00
    1    1   14      1.02      0.00
    1    1   15     -4.22      0.00
    1    1   16      1.12      0.00
    1    1   17     -3.58      0.00
    1    1   18      0.57      0.00
    1    1   19     -1.67      0.00
    1    1   20      0.34      0.00
   -1    2   19     -1.00      0.00
   -1    2   18      3.49      0.00
   -1    2   17     -1.68      0.00
   -1    2   16      3.46      0.00
   -1    2   15     -2.87      0.00
   -1    2   14      3.51      0.00
   -1    2   13     -0.72      0.00
   -1    2   12      4.57      0.00
   -1    2   11      6.89      0.00
   -1    2   10      2.29      0.00
   -1    2    9     14.99      0.00
   -1    2    8     -1.14      0.00
   -1    2    7     16.70      0.00
   -1    2    6      5.16      0.00
   -1    2    5      6.66      0.00
   -1    2    4      5.79      0.00
   -1    2    3    -17.72      0.00
   -1    2    2     -7.53      0.00
   -1    2    1    -74.84      0.00
    1    2    0     19.58      0.00
    1    2    1    -75.28      0.00
    1    2    2     14.14      0.00
    1    2    3    -17.92      0.00
    1    2    4      4.63      0.00
    1    2    5      3.01      0.00
    1    2    6      3.36      0.00
    1    2    7     16.00      0.00
    1    2    8      1.33      0.00
    1    2    9     17.34      0.00
    1    2   10      1.91      0.00
    1    2   11      6.49      0.00
    1    2   12      3.45      0.00
    1    2   13      1.45      0.00
    1    2   14      4.42      0.00
    1    2   15     -1.93      0.00
    1    2   16      5.93      0.00
    1    2   17     -1.91      0.00
    1    2   18      2.59      0.00
    1    2   19     -0.94      0.00
   -1    3   19     -0.15      0.00
   -1    3   18      1.45      0.00
   -1    3   17     -0.85      0.00
   -1    3   16      3.03      0.00
   -1    3   15     -0.43      0.00
   -1    3   14      4.04      0.00
   -1    3   13     -0.79      0.00
   -1    3   12      5.19      0.00
   -1    3   11     -2.94      0.00
   -1    3   10     -1.25      0.00
   -1    3    9     -6.60      0.00
   -1    3    8     -7.19      0.00
   -1    3    7     -5.49      0.00
   -1    3    6     -5.38      0.00
   -1    3    5     -2.63      0.00
   -1    3    4     -1.31      0.00
   -1    3    3     -6.21      0.00
   -1    3    2     23.10      0.00
   -1    3    1    -17.56      0.00
    1    3    0     40.33      0.00
    1    3    1     16.61      0.00
    1    3    2     24.46      0.00
    1    3    3     -4.03      0.00
    1    3    4      0.11      0.00
    1    3    5     -5.55      0.00
    1    3    6     -6.04      0.00
    1    3    7     -9.42      0.00
    1    3    8     -7.17      0.00
    1    3    9     -8.86      0.00
    1    3   10      0.37      0.00
    1    3   11     -4.39      0.00
    1    3   12      3.67      0.00
    1    3   13     -3.48      0.00
    1    3   14      2.48      0.00
    1    3   15     -1.57      0.00
    1    3   16      3.80      0.00
    1    3   17     -1.16      0.00
    1    3   18      1.02      0.00
    1    3   19     -0.74      0.00
   -1    4   19      0.25      0.00
   -1    4   18     -1.02      0.00
   -1    4   17     -1.53      0.00
   -1    4   16     -1.47      0.00
   -1    4   15      0.04      0.00
   -1    4   14     -4.23      0.00
   -1    4   13     -0.15      0.00
   -1    4   12     -1.91      0.00
   -1    4   11     -3.77      0.00
   -1    4   10     -2.34      0.00
   -1    4    9     -3.36      0.00
   -1    4    8     -3.68      0.00
   -1    4    7     -5.38      0.00
   -1    4    6      0.68      0.00
   -1    4    5      0.62      0.00
   -1    4    4     -3.95      0.00
   -1    4    3      1.78      0.00
   -1    4    2     17.56      0.00
   -1    4    1     -1.72      0.00
    1    4    0    -21.64      0.00
    1    4    1      1.62      0.00
    1    4    2      6.59      0.00
    1    4    3      5.39      0.00
    1    4    4      0.51      0.00
    1    4    5      2.05      0.00
    1    4    6     -0.07      0.00
    1    4    7     -5.22      0.00
    1    4    8      4.46      0.00
    1    4    9     -4.49      0.00
    1    4   10     -1.81      0.00
    1    4   11     -4.88      0.00
    1    4   12     -4.31      0.00
    1    4   13     -3.11      0.00
    1    4   14     -5.20      0.00
    1    4   15     -1.44      0.00
    1    4   16     -2.21      0.00
    1    4   17     -0.82      0.00
    1    4   18     -1.79      0.00
    1    4   19      1.05      0.00
   -1    5   18      0.31      0.00
   -1    5   17     -0.61      0.00
   -1    5   16     -1.14      0.00
   -1    5   15     -0.46      0.00
   -1    5   14     -1.29      0.00
   -1    5   13      3.35      0.00
   -1    5   12     -1.35      0.00
   -1    5   11      0.70      0.00
   -1    5   10     -2.15      0.00
   -1    5    9      6.59      0.00
   -1    5    8      1.46      0.00
   -1    5    7      2.47      0.00
   -1    5    6      5.98      0.00
   -1    5    5      0.63      0.00
   -1    5    4      3.51      0.00
   -1    5    3      2.92      0.00
   -1    5    2     -0.94      0.00
   -1    5    1     -4.29      0.00
    1    5    0     -5.88      0.00
    1    5    1     -7.73      0.00
    1    5    2     -1.28      0.00
    1    5    3     -1.20      0.00
    1    5    4      5.27      0.00
    1    5    5      7.28      0.00
    1    5    6      3.65      0.00
    1    5    7      2.71      0.00
    1    5    8      1.55      0.00
    1    5    9      4.63      0.00
    1    5   10     -1.25      0.00
    1    5   11      3.25      0.00
    1    5   12     -1.79      0.00
    1    5   13      1.85      0.00
    1    5   14     -3.04      0.00
    1    5   15     -0.01      0.00
    1    5   16     -1.67      0.00
    1    5   17     -0.22      0.00
    1    5   18      0.37      0.00
   -1    6   18      0.23      0.00
   -1    6   17     -1.41      0.00
   -1    6   16      3.84      0.00
   -1    6   15      1.03      0.00
   -1    6   14      3.45      0.00
   -1    6   13      0.32      0.00
   -1    6   12      2.63      0.00
   -1    6   11      2.78      0.00
   -1    6   10      0.29      0.00
   -1    6    9      6.50      0.00
   -1    6    8     -3.26      0.00
   -1    6    7      4.26      0.00
   -1    6    6     -3.49      0.00
   -1    6    5      4.37      0.00
   -1    6    4     -3.68      0.00
   -1    6    3      0.42      0.00
   -1    6    2     -2.89      0.00
   -1    6    1      5.53      0.00
    1    6    0      1.90      0.00
    1    6    1      9.57      0.00
    1    6    2     -1.11      0.00
    1    6    3      3.53      0.00
    1    6    4     -3.26      0.00
    1    6    5      5.52      0.00
    1    6    6     -2.82      0.00
    1    6    7      2.35      0.00
    1    6    8     -1.82      0.00
    1    6    9      2.53      0.00
    1    6   10     -0.38      0.00
    1    6   11      4.50      0.00
    1    6   12      3.06      0.00
    1    6   13      1.40      0.00
    1    6   14      2.13      0.00
    1    6   15      1.15      0.00
    1    6   16      1.72      0.00
    1    6   17     -0.69      0.00
    1    6   18      1.32      0.00
   -1    7   17     -1.53      0.00
   -1    7   16      1.48      0.00
   -1    7   15     -2.18      0.00
   -1    7   14     -1.00      0.00
   -1    7   13     -2.67      0.00
   -1    7   12      0.52      0.00
   -1    7   11     -1.70      0.00
   -1    7   10     -1.35      0.00
   -1    7    9      1.55      0.00
   -1    7    8     -2.17      0.00
   -1    7    7      2.16      0.00
   -1    7    6     -7.61      0.00
   -1    7    5      1.75      0.00
   -1    7    4    -10.77      0.00
   -1    7    3     -0.83      0.00
   -1    7    2     -8.23      0.00
   -1    7    1     -1.04      0.00
    1    7    0     -9.90      0.00
    1    7    1      3.19      0.00
    1    7    2     -9.08      0.00
    1    7    3     -0.32      0.00
    1    7    4     -9.33      0.00
    1    7    5      0.74      0.00
    1    7    6     -6.72      0.00
    1    7    7      1.41      0.00
    1    7    8     -2.65      0.00
    1    7    9      2.06      0.00
    1    7   10     -2.04      0.00
    1    7   11     -0.19      0.00
    1    7   12      0.70      0.00
    1    7   13     -2.19      0.00
    1    7   14      1.00      0.00
    1    7   15     -0.60      0.00
    1    7   16      0.95      0.00
    1    7   17     -1.52      0.00
   -1    8   16     -0.93      0.00
   -1    8   15     -0.85      0.00
   -1    8   14     -3.07      0.00
   -1    8   13     -0.12      0.00
   -1    8   12     -2.77      0.00
   -1    8   11      1.03      0.00
   -1    8   10     -2.72      0.00
   -1    8    9      0.70      0.00
   -1    8    8      0.08      0.00
   -1    8    7      3.00      0.00
   -1    8    6      2.39      0.00
   -1    8    5      6.08      0.00
   -1    8    4      3.16      0.00
   -1    8    3      4.51      0.00
   -1    8    2      1.34      0.00
   -1    8    1      0.35      0.00
    1    8    0     -1.57      0.00
    1    8    1      0.08      0.00
    1    8    2      1.57      0.00
    1    8    3      3.65      0.00
    1    8    4      2.72      0.00
    1    8    5      3.39      0.00
    1    8    6      0.54      0.00
    1    8    7      2.06      0.00
    1    8    8      0.09      0.00
    1    8    9      0.72      0.00
    1    8   10     -0.30      0.00
    1    8   11     -0.79      0.00
    1    8   12      0.81      0.00
    1    8   13     -0.30      0.00
    1    8   14     -0.55      0.00
    1    8   15     -0.94      0.00
    1    8   16     -0.09      0.00
   -1    9   15     -0.65      0.00
   -1    9   14      1.52      0.00
   -1    9   13      0.05      0.00
   -1    9   12      0.17      0.00
   -1    9   11      0.46      0.00
   -1    9   10     -0.51      0.00
   -1    9    9     -1.52      0.00
   -1    9    8      0.02      0.00
   -1    9    7     -1.19      0.00
   -1    9    6      0.45      0.00
   -1    9    5     -0.70      0.00
   -1    9    4      0.93      0.00
   -1    9    3      2.19      0.00
   -1    9    2     -1.06      0.00
   -1    9    1      2.96      0.00
    1    9    0      0.56      0.00
    1    9    1     -1.83      0.00
    1    9    2      3.57      0.00
    1    9    3     -0.95      0.00
    1    9    4      2.21      0.00
    1    9    5     -1.20      0.00
    1    9    6     -0.48      0.00
    1    9    7     -2.06      0.00
    1    9    8     -0.73      0.00
    1    9    9     -3.14      0.00
    1    9   10     -0.53      0.00
    1    9   11     -2.40      0.00
    1    9   12      0.22      0.00
    1    9   13      0.33      0.00
    1    9   14     -0.71      0.00
    1    9   15      1.15      0.00
   -1   10   14      1.32      0.00
   -1   10   13      0.70      0.00
   -1   10   12      0.39      0.00
   -1   10   11      0.03      0.00
   -1   10   10      0.94      0.00
   -1   10    9     -1.11      0.00
   -1   10    8      1.12      0.00
   -1   10    7     -1.16      0.00
   -1   10    6     -1.43      0.00
   -1   10    5     -2.39      0.00
   -1   10    4     -2.93      0.00
   -1   10    3     -1.15      0.00
   -1   10    2     -1.72      0.00
   -1   10    1      0.60      0.00
    1   10    0     -0.56      0.00
    1   10    1      0.13      0.00
    1   10    2     -2.96      0.00
    1   10    3     -0.07      0.00
    1   10    4     -3.42      0.00
    1   10    5      0.37      0.00
    1   10    6     -1.92      0.00
    1   10    7     -0.48      0.00
    1   10    8      0.90      0.00
    1   10    9     -0.06      0.00
    1   10   10      0.11      0.00
    1   10   11      0.14      0.00
    1   10   12     -1.44      0.00
    1   10   13     -0.59      0.00
    1   10   14     -2.02      0.00
   -1   11   13     -0.56      0.00
   -1   11   12      0.24      0.00
   -1   11   11     -0.44      0.00
   -1   11   10      0.07      0.00
   -1   11    9      1.27      0.00
   -1   11    8      0.79      0.00
   -1   11    7      2.15      0.00
   -1   11    6      1.35      0.00
   -1   11    5      2.23      0.00
   -1   11    4     -1.15      0.00
   -1   11    3      2.34      0.00
   -1   11    2     -3.12      0.00
   -1   11    1      2.41      0.00
    1   11    0     -1.86      0.00
    1   11    1     -0.34      0.00
    1   11    2     -3.06      0.00
    1   11    3      1.06      0.00
    1   11    4     -1.02      0.00
    1   11    5      1.66      0.00
    1   11    6      2.35      0.00
    1   11    7      1.54      0.00
    1   11    8      1.30      0.00
    1   11    9      1.94      0.00
    1   11   10      0.77      0.00
    1   11   11      1.34      0.00
    1   11   12      1.41      0.00
    1   11   13     -1.49      0.00
   -1   12   11     -0.15      0.00
   -1   12   10     -0.93      0.00
   -1   12    9      0.53      0.00
   -1   12    8     -0.44      0.00
   -1   12    7      0.61      0.00
   -1   12    6     -0.02      0.00
   -1   12    5     -0.67      0.00
   -1   12    4      0.61      0.00
   -1   12    3     -0.96      0.00
   -1   12    2      0.48      0.00
   -1   12    1     -1.65      0.00
    1   12    0      0.00      0.00
    1   12    1     -1.44      0.00
    1   12    2     -0.32      0.00
    1   12    3     -1.14      0.00
    1   12    4      0.27      0.00
    1   12    5     -2.95      0.00
    1   12    6     -0.05      0.00
    1   12    7     -0.93      0.00
    1   12    8     -1.49      0.00
    1   12    9      1.10      0.00
    1   12   10      0.16      0.00
    1   12   11      1.48      0.00
   -1   13    8     -0.82      0.00
   -1   13    7     -0.98      0.00
   -1   13    6     -0.76      0.00
   -1   13    5     -0.09      0.00
   -1   13    4     -0.49      0.00
   -1   13    3     -1.27      0.00
   -1   13    2      0.49      0.00
   -1   13    1     -1.23      0.00
    1   13    0      0.89      0.00
    1   13    1      0.14      0.00
    1   13    2     -0.01      0.00
    1   13    3      0.29      0.00
    1   13    4      0.40      0.00
    1   13    5     -0.04      0.00
    1   13    6      0.41      0.00
    1   13    7     -0.47      0.00
    1   13    8     -1.17      0.00
   -1   14    4     -1.05      0.00
   -1   14    3      2.05      0.00
   -1   14    2     -0.97      0.00
   -1   14    1      1.86      0.00
    1   14    0      0.22      0.00
    1   14    1      1.06      0.00
    1   14    2     -0.91      0.00
    1   14    3      0.56      0.00
    1   14    4     -0.22      0.00
   -2    0   18     -1.27      0.00
   -2    0   16      0.26      0.00
   -2    0   14      3.15      0.00
   -2    0   12     -3.73      0.00
   -2    0   10     -5.96      0.00
   -2    0    8    -16.14      0.00
   -2    0    6    -13.37      0.00
   -2    0    4      7.10      0.00
   -2    0    2     29.95      0.00
    2    0    0     60.42      0.00
    2    0    2     30.83      0.00
    2    0    4      0.93      0.00
    2    0    6     -0.40      0.00
    2    0    8    -14.16      0.00
    2    0   10    -12.85      0.00
    2    0   12     -3.57      0.00
    2    0   14     -1.72      0.00
    2    0   16      1.07      0.00
    2    0   18     -0.65      0.00
   -2    1   19     -0.42      0.00
   -2    1   18     -1.01      0.00
   -2    1   17     -0.37      0.00
   -2    1   16      1.68      0.00
   -2    1   15     -2.87      0.00
   -2    1   14      0.38      0.00
   -2    1   13     -1.93      0.00
   -2    1   12      3.74      0.00
   -2    1   11      3.68      0.00
   -2    1   10      5.64      0.00
   -2    1    9      5.60      0.00
   -2    1    8      4.92      0.00
   -2    1    7      8.81      0.00
   -2    1    6      4.76      0.00
   -2    1    5      5.07      0.00
   -2    1    4      3.68      0.00
   -2    1    3     -6.53      0.00
   -2    1    2      7.58      0.00
   -2    1    1    -20.50      0.00
    2    1    0    -19.14      0.00
    2    1    1    -22.06      0.00
    2    1    2    -10.25      0.00
    2    1    3     -4.50      0.00
    2    1    4      2.24      0.00
    2    1    5      3.28      0.00
    2    1    6      0.93      0.00
    2    1    7      5.95      0.00
    2    1    8      6.82      0.00
    2    1    9      7.88      0.00
    2    1   10      5.59      0.00
    2    1   11     -0.15      0.00
    2    1   12      0.17      0.00
    2    1   13      0.19      0.00
    2    1   14     -3.14      0.00
    2    1   15     -0.26      0.00
    2    1   16     -1.76      0.00
    2    1   17     -1.21      0.00
    2    1   18     -0.57      0.00
    2    1   19      0.95      0.00
   -2    2   19      0.47      0.00
   -2    2   18      2.74      0.00
   -2    2   17      0.30      0.00
   -2    2   16      0.04      0.00
   -2    2   15     -0.03      0.00
   -2    2   14     -0.47      0.00
   -2    2   13      1.44      0.00
   -2    2   12      4.22      0.00
   -2    2   11      0.25      0.00
   -2    2   10      1.23      0.00
   -2    2    9      0.13      0.00
   -2    2    8      3.50      0.00
   -2    2    7     -1.51      0.00
   -2    2    6      2.23      0.00
   -2    2    5      0.34      0.00
   -2    2    4      1.15      0.00
   -2    2    3    -17.41      0.00
   -2    2    2     -6.07      0.00
   -2    2    1    -53.92      0.00
    2    2    0    -21.16      0.00
    2    2    1     30.33      0.00
    2    2    2    -11.39      0.00
    2    2    3     -7.12      0.00
    2    2    4     -1.86      0.00
    2    2    5     -1.94      0.00
    2    2    6      3.68      0.00
    2    2    7      0.40      0.00
    2    2    8      3.82      0.00
    2    2    9     -2.35      0.00
    2    2   10      3.11      0.00
    2    2   11      0.17      0.00
    2    2   12      2.67      0.00
    2    2   13      4.42      0.00
    2    2   14     -1.53      0.00
    2    2   15      5.45      0.00
    2    2   16      0.39      0.00
    2    2   17      0.93      0.00
    2    2   18      1.06      0.00
    2    2   19     -0.23      0.00
   -2    3   19     -0.14      0.00
   -2    3   18      0.74      0.00
   -2    3   17     -2.13      0.00
   -2    3   16      0.03      0.00
   -2    3   15      3.74      0.00
   -2    3   14      1.83      0.00
   -2    3   13      3.96      0.00
   -2    3   12     -0.73      0.00
   -2    3   11      1.58      0.00
   -2    3   10     -6.43      0.00
   -2    3    9     -0.04      0.00
   -2    3    8     -7.17      0.00
   -2    3    7     -2.73      0.00
   -2    3    6     -0.67      0.00
   -2    3    5     -5.93      0.00
   -2    3    4      1.06      0.00
   -2    3    3     -3.99      0.00
   -2    3    2     16.30      0.00
   -2    3    1      1.71      0.00
    2    3    0    -16.50      0.00
    2    3    1     -0.73      0.00
    2    3    2      0.39      0.00
    2    3    3     -5.85      0.00
    2    3    4     -3.58      0.00
    2    3    5     -7.66      0.00
    2    3    6     -5.69      0.00
    2    3    7     -1.69      0.00
    2    3    8     -4.69      0.00
    2    3    9      2.16      0.00
    2    3   10     -2.56      0.00
    2    3   11      1.36      0.00
    2    3   12     -0.84      0.00
    2    3   13      1.76      0.00
    2    3   14     -2.00      0.00
    2    3   15      2.07      0.00
    2    3   16      1.05      0.00
    2    3   17     -0.79      0.00
    2    3   18      0.40      0.00
    2    3   19     -0.34      0.00
   -2    4   18      1.28      0.00
   -2    4   17     -4.02      0.00
   -2    4   16      0.49      0.00
   -2    4   15     -3.87      0.00
   -2    4   14      0.18      0.00
   -2    4   13     -4.39      0.00
   -2    4   12     -2.91      0.00
   -2    4   11     -1.26      0.00
   -2    4   10     -6.78      0.00
   -2    4    9      1.24      0.00
   -2    4    8     -8.27      0.00
   -2    4    7      1.83      0.00
   -2    4    6     -3.88      0.00
   -2    4    5     -0.16      0.00
   -2    4    4      3.32      0.00
   -2    4    3     -4.32      0.00
   -2    4    2     15.79      0.00
   -2    4    1      1.16      0.00
    2    4    0     21.26      0.00
    2    4    1     -8.63      0.00
    2    4    2     12.00      0.00
    2    4    3     -4.79      0.00
    2    4    4      4.92      0.00
    2    4    5     -2.65      0.00
    2    4    6     -4.27      0.00
    2    4    7      3.45      0.00
    2    4    8     -6.17      0.00
    2    4    9      4.68      0.00
    2    4   10     -3.92      0.00
    2    4   11     -2.63      0.00
    2    4   12     -2.87      0.00
    2    4   13     -0.82      0.00
    2    4   14     -0.86      0.00
    2    4   15     -1.35      0.00
    2    4   16      0.40      0.00
    2    4   17     -2.54      0.00
    2    4   18     -0.09      0.00
   -2    5   18      0.54      0.00
   -2    5   17     -3.03      0.00
   -2    5   16      3.23      0.00
   -2    5   15     -1.80      0.00
   -2    5   14      1.29      0.00
   -2    5   13     -3.67      0.00
   -2    5   12      1.80      0.00
   -2    5   11     -0.64      0.00
   -2    5   10      0.07      0.00
   -2    5    9      7.98      0.00
   -2    5    8      0.62      0.00
   -2    5    7      6.95      0.00
   -2    5    6     -1.10      0.00
   -2    5    5      7.10      0.00
   -2    5    4     -0.91      0.00
   -2    5    3      2.58      0.00
   -2    5    2      2.75      0.00
   -2    5    1     -5.00      0.00
    2    5    0      1.82      0.00
    2    5    1     -1.23      0.00
    2    5    2      1.02      0.00
    2    5    3      2.50      0.00
    2    5    4      0.58      0.00
    2    5    5      7.61      0.00
    2    5    6      6.59      0.00
    2    5    7      4.85      0.00
    2    5    8      2.91      0.00
    2    5    9      0.59      0.00
    2    5   10      1.69      0.00
    2    5   11     -1.03      0.00
    2    5   12      0.23      0.00
    2    5   13     -1.72      0.00
    2    5   14     -3.10      0.00
    2    5   15     -0.95      0.00
    2    5   16      0.08      0.00
    2    5   17     -1.25      0.00
    2    5   18      0.01      0.00
   -2    6   17      1.17      0.00
   -2    6   16      2.25      0.00
   -2    6   15      1.47      0.00
   -2    6   14      0.45      0.00
   -2    6   13      2.21      0.00
   -2    6   12      2.63      0.00
   -2    6   11      2.43      0.00
   -2    6   10      0.55      0.00
   -2    6    9      4.12      0.00
   -2    6    8     -0.82      0.00
   -2    6    7     -1.12      0.00
   -2    6    6     -1.32      0.00
   -2    6    5     -0.54      0.00
   -2    6    4     -3.46      0.00
   -2    6    3     -1.06      0.00
   -2    6    2      0.18      0.00
   -2    6    1      0.14      0.00
    2    6    0      2.85      0.00
    2    6    1     -2.40      0.00
    2    6    2      4.57      0.00
    2    6    3      0.97      0.00
    2    6    4     -2.19      0.00
    2    6    5     -1.51      0.00
    2    6    6     -2.96      0.00
    2    6    7     -3.61      0.00
    2    6    8     -0.14      0.00
    2    6    9      1.79      0.00
    2    6   10      1.32      0.00
    2    6   11      2.52      0.00
    2    6   12      0.51      0.00
    2    6   13      2.38      0.00
    2    6   14     -2.10      0.00
    2    6   15      1.81      0.00
    2    6   16      0.37      0.00
    2    6   17      1.39      0.00
   -2    7   17     -0.77      0.00
   -2    7   16     -0.71      0.00
   -2    7   15     -1.00      0.00
   -2    7   14     -0.38      0.00
   -2    7   13     -0.75      0.00
   -2    7   12      0.56      0.00
   -2    7   11      0.31      0.00
   -2    7   10     -0.94      0.00
   -2    7    9     -0.04      0.00
   -2    7    8      0.07      0.00
   -2    7    7     -1.00      0.00
   -2    7    6     -1.10      0.00
   -2    7    5      1.14      0.00
   -2    7    4     -2.36      0.00
   -2    7    3     -0.56      0.00
   -2    7    2     -0.94      0.00
   -2    7    1      0.83      0.00
    2    7    0      0.25      0.00
    2    7    1      0.01      0.00
    2    7    2     -0.85      0.00
    2    7    3      0.92      0.00
    2    7    4     -1.32      0.00
    2    7    5      0.89      0.00
    2    7    6     -0.24      0.00
    2    7    7     -1.46      0.00
    2    7    8      0.75      0.00
    2    7    9      0.13      0.00
    2    7   10     -0.07      0.00
    2    7   11      1.40      0.00
    2    7   12     -0.22      0.00
    2    7   13      1.77      0.00
    2    7   14      0.28      0.00
    2    7   15      0.68      0.00
    2    7   16      0.63      0.00
    2    7   17     -0.70      0.00
   -2    8   16     -0.33      0.00
   -2    8   15     -0.49      0.00
   -2    8   14     -0.30      0.00
   -2    8   13     -2.17      0.00
   -2    8   12      0.01      0.00
   -2    8   11     -1.44      0.00
   -2    8   10     -1.63      0.00
   -2    8    9     -1.80      0.00
   -2    8    8      3.07      0.00
   -2    8    7      0.89      0.00
   -2    8    6      2.73      0.00
   -2    8    5      3.24      0.00
   -2    8    4     -0.60      0.00
   -2    8    3      1.69      0.00
   -2    8    2     -2.50      0.00
   -2    8    1      0.71      0.00
    2    8    0     -3.97      0.00
    2    8    1      0.90      0.00
    2    8    2     -3.37      0.00
    2    8    3      3.48      0.00
    2    8    4     -0.42      0.00
    2    8    5      2.89      0.00
    2    8    6      0.71      0.00
    2    8    7     -0.19      0.00
    2    8    8      1.87      0.00
    2    8    9     -1.21      0.00
    2    8   10      0.49      0.00
    2    8   11     -2.69      0.00
    2    8   12      0.81      0.00
    2    8   13     -3.00      0.00
    2    8   14      0.05      0.00
    2    8   15     -1.93      0.00
    2    8   16     -0.76      0.00
   -2    9   15      0.26      0.00
   -2    9   14      1.53      0.00
   -2    9   13     -1.12      0.00
   -2    9   12      0.77      0.00
   -2    9   11     -0.67      0.00
   -2    9   10     -0.21      0.00
   -2    9    9     -0.42      0.00
   -2    9    8      0.97      0.00
   -2    9    7     -0.87      0.00
   -2    9    6     -0.93      0.00
   -2    9    5      1.29      0.00
   -2    9    4     -1.65      0.00
   -2    9    3      2.13      0.00
   -2    9    2     -0.40      0.00
   -2    9    1     -0.99      0.00
    2    9    0     -0.13      0.00
    2    9    1      2.52      0.00
    2    9    2      0.17      0.00
    2    9    3      1.89      0.00
    2    9    4     -0.07      0.00
    2    9    5     -0.25      0.00
    2    9    6     -1.75      0.00
    2    9    7     -1.47      0.00
    2    9    8     -3.67      0.00
    2    9    9     -1.82      0.00
    2    9   10     -2.09      0.00
    2    9   11     -1.11      0.00
    2    9   12      0.25      0.00
    2    9   13     -0.64      0.00
    2    9   14     -0.12      0.00
    2    9   15     -0.63      0.00
   -2   10   13     -0.56      0.00
   -2   10   12      0.55      0.00
   -2   10   11      0.23      0.00
   -2   10   10      0.36      0.00
   -2   10    9      1.22      0.00
   -2   10    8     -0.04      0.00
   -2   10    7      0.02      0.00
   -2   10    6     -0.69      0.00
   -2   10    5      0.70      0.00
   -2   10    4     -2.02      0.00
   -2   10    3      1.24      0.00
   -2   10    2      1.06      0.00
   -2   10    1     -0.44      0.00
    2   10    0      2.84      0.00
    2   10    1      1.57      0.00
    2   10    2      0.50      0.00
    2   10    3     -1.11      0.00
    2   10    4      0.17      0.00
    2   10    5     -1.13      0.00
    2   10    6     -0.02      0.00
    2   10    7      2.06      0.00
    2   10    8      0.05      0.00
    2   10    9      0.97      0.00
    2   10   10      0.13      0.00
    2   10   11      0.63      0.00
    2   10   12      0.80      0.00
    2   10   13      1.48      0.00
   -2   11   12      0.95      0.00
   -2   11   11      1.38      0.00
   -2   11   10      1.14      0.00
   -2   11    9     -0.17      0.00
   -2   11    8      0.85      0.00
   -2   11    7     -0.89      0.00
   -2   11    6     -0.31      0.00
   -2   11    5      0.39      0.00
   -2   11    4     -1.87      0.00
   -2   11    3      0.20      0.00
   -2   11    2      0.33      0.00
   -2   11    1     -0.02      0.00
    2   11    0     -1.07      0.00
    2   11    1      0.29      0.00
    2   11    2      0.32      0.00
    2   11    3     -0.25      0.00
    2   11    4      0.64      0.00
    2   11    5     -0.89      0.00
    2   11    6     -1.36      0.00
    2   11    7      0.75      0.00
    2   11    8     -0.34      0.00
    2   11    9      0.68      0.00
    2   11   10      0.01      0.00
    2   11   11     -0.33      0.00
    2   11   12     -1.72      0.00
   -2   12   10     -0.15      0.00
   -2   12    9     -1.13      0.00
   -2   12    8      1.57      0.00
   -2   12    7     -0.02      0.00
   -2   12    6      0.60      0.00
   -2   12    5      2.07      0.00
   -2   12    4     -2.02      0.00
   -2   12    3      2.77      0.00
   -2   12    2     -1.71      0.00
   -2   12    1      0.19      0.00
    2   12    0     -1.55      0.00
    2   12    1     -0.01      0.00
    2   12    2     -0.71      0.00
    2   12    3     -0.89      0.00
    2   12    4      0.62      0.00
    2   12    5     -0.24      0.00
    2   12    6      0.01      0.00
    2   12    7     -0.38      0.00
    2   12    8     -0.19      0.00
    2   12    9     -0.21      0.00
    2   12   10     -0.64      0.00
   -2   13    7     -1.24      0.00
   -2   13    6     -0.06      0.00
   -2   13    5      0.09      0.00
   -2   13    4     -0.62      0.00
   -2   13    3     -0.10      0.00
   -2   13    2     -0.42      0.00
   -2   13    1     -0.56      0.00
    2   13    0     -1.26      0.00
    2   13    1     -0.28      0.00
    2   13    2     -0.90      0.00
    2   13    3     -1.55      0.00
    2   13    4      0.42      0.00
    2   13    5     -1.28      0.00
    2   13    6     -0.17      0.00
    2   13    7     -0.54      0.00
   -2   14    3      0.35      0.00
   -2   14    2     -0.52      0.00
   -2   14    1      1.18      0.00
    2   14    0     -0.24      0.00
    2   14    1     -0.68      0.00
    2   14    2     -0.37      0.00
   -3    0   19      0.20      0.00
   -3    0   17     -3.68      0.00
   -3    0   15     -2.18      0.00
   -3    0   13      6.82      0.00
   -3    0   11      3.32      0.00
   -3    0    9     -3.88      0.00
   -3    0    7     -4.33      0.00
   -3    0    5     -2.24      0.00
   -3    0    3     -2.42      0.00
   -3    0    1     -2.34      0.00
    3    0    1     -2.63      0.00
    3    0    3     -1.14      0.00
    3    0    5      0.16      0.00
    3    0    7     -2.42      0.00
    3    0    9     -1.98      0.00
    3    0   11     -4.57      0.00
    3    0   13     -7.39      0.00
    3    0   15     -5.83      0.00
    3    0   17     -2.60      0.00
    3    0   19     -0.84      0.00
   -3    1   19      0.89      0.00
   -3    1   18      0.38      0.00
   -3    1   17     -0.68      0.00
   -3    1   16      1.47      0.00
   -3    1   15     -0.59      0.00
   -3    1   14     -2.13      0.00
   -3    1   13      1.21      0.00
   -3    1   12     -3.43      0.00
   -3    1   11     -0.18      0.00
   -3    1   10     -2.13      0.00
   -3    1    9      4.42      0.00
   -3    1    8     -3.01      0.00
   -3    1    7      6.82      0.00
   -3    1    6      1.62      0.00
   -3    1    5      1.76      0.00
   -3    1    4      4.11      0.00
   -3    1    3     -7.22      0.00
   -3    1    2     -1.73      0.00
   -3    1    1     -8.52      0.00
    3    1    0      1.12      0.00
    3    1    1     -0.92      0.00
    3    1    2      6.74      0.00
    3    1    3     -3.86      0.00
    3    1    4      3.58      0.00
    3    1    5      4.35      0.00
    3    1    6      2.32      0.00
    3    1    7      7.64      0.00
    3    1    8     -1.80      0.00
    3    1    9      6.26      0.00
    3    1   10     -3.34      0.00
    3    1   11      0.09      0.00
    3    1   12      0.59      0.00
    3    1   13     -0.40      0.00
    3    1   14      2.19      0.00
    3    1   15      1.27      0.00
    3    1   16      0.99      0.00
    3    1   17     -1.09      0.00
    3    1   18      0.85      0.00
    3    1   19      0.51      0.00
   -3    2   18     -0.95      0.00
   -3    2   17     -2.36      0.00
   -3    2   16      1.03      0.00
   -3    2   15     -1.59      0.00
   -3    2   14      1.84      0.00
   -3    2   13     -1.17      0.00
   -3    2   12     -0.82      0.00
   -3    2   11      2.43      0.00
   -3    2   10     -2.79      0.00
   -3    2    9      7.12      0.00
   -3    2    8     -4.02      0.00
   -3    2    7      9.08      0.00
   -3    2    6     -3.60      0.00
   -3    2    5      2.44      0.00
   -3    2    4      0.30      0.00
   -3    2    3     -5.84      0.00
   -3    2    2     -4.66      0.00
   -3    2    1    -13.46      0.00
    3    2    0     13.81      0.00
    3    2    1    -13.35      0.00
    3    2    2      5.77      0.00
    3    2    3     -1.77      0.00
    3    2    4     -0.24      0.00
    3    2    5      6.81      0.00
    3    2    6      0.02      0.00
    3    2    7      9.03      0.00
    3    2    8     -4.03      0.00
    3    2    9      6.99      0.00
    3    2   10     -3.45      0.00
    3    2   11      2.70      0.00
    3    2   12      0.60      0.00
    3    2   13     -0.68      0.00
    3    2   14      0.05      0.00
    3    2   15     -1.14      0.00
    3    2   16      0.20      0.00
    3    2   17      0.23      0.00
    3    2   18     -0.42      0.00
   -3    3   18      0.86      0.00
   -3    3   17      0.96      0.00
   -3    3   16      1.12      0.00
   -3    3   15      1.01      0.00
   -3    3   14      2.70      0.00
   -3    3   13      0.24      0.00
   -3    3   12      2.34      0.00
   -3    3   11     -0.65      0.00
   -3    3   10     -3.72      0.00
   -3    3    9     -6.06      0.00
   -3    3    8     -7.29      0.00
   -3    3    7     -3.96      0.00
   -3    3    6    -10.29      0.00
   -3    3    5     -2.91      0.00
   -3    3    4     -4.95      0.00
   -3    3    3     -3.21      0.00
   -3    3    2      8.89      0.00
   -3    3    1      0.06      0.00
    3    3    0      9.67      0.00
    3    3    1      2.10      0.00
    3    3    2     -1.72      0.00
    3    3    3      4.27      0.00
    3    3    4     -7.49      0.00
    3    3    5     -0.82      0.00
    3    3    6    -11.52      0.00
    3    3    7     -2.76      0.00
    3    3    8     -7.23      0.00
    3    3    9     -0.21      0.00
    3    3   10     -2.24      0.00
    3    3   11      0.63      0.00
    3    3   12      1.02      0.00
    3    3   13     -0.83      0.00
    3    3   14      2.36      0.00
    3    3   15     -0.49      0.00
    3    3   16      1.33      0.00
    3    3   17      1.18      0.00
    3    3   18     -0.73      0.00
   -3    4   18      1.19      0.00
   -3    4   17     -0.45      0.00
   -3    4   16     -0.17      0.00
   -3    4   15      0.86      0.00
   -3    4   14     -0.78      0.00
   -3    4   13      0.74      0.00
   -3    4   12     -1.28      0.00
   -3    4   11      1.05      0.00
   -3    4   10      2.51      0.00
   -3    4    9      3.07      0.00
   -3    4    8      2.69      0.00
   -3    4    7      0.36      0.00
   -3    4    6      2.13      0.00
   -3    4    5      0.54      0.00
   -3    4    4      7.65      0.00
   -3    4    3      2.57      0.00
   -3    4    2     18.48      0.00
   -3    4    1      5.36      0.00
    3    4    0    -34.26      0.00
    3    4    1      6.42      0.00
    3    4    2    -29.32      0.00
    3    4    3      4.11      0.00
    3    4    4    -12.11      0.00
    3    4    5      1.28      0.00
    3    4    6      1.09      0.00
    3    4    7      0.26      0.00
    3    4    8      5.70      0.00
    3    4    9      1.06      0.00
    3    4   10      0.36      0.00
    3    4   11     -0.51      0.00
    3    4   12      0.29      0.00
    3    4   13     -1.67      0.00
    3    4   14      1.87      0.00
    3    4   15     -0.79      0.00
    3    4   16     -0.97      0.00
    3    4   17     -1.63      0.00
    3    4   18     -0.53      0.00
   -3    5   17     -0.29      0.00
   -3    5   16      1.26      0.00
   -3    5   15     -0.63      0.00
   -3    5   14     -0.07      0.00
   -3    5   13     -1.19      0.00
   -3    5   12     -0.48      0.00
   -3    5   11     -0.37      0.00
   -3    5   10      1.62      0.00
   -3    5    9      0.25      0.00
   -3    5    8      4.84      0.00
   -3    5    7      0.08      0.00
   -3    5    6      7.19      0.00
   -3    5    5     -3.45      0.00
   -3    5    4      4.74      0.00
   -3    5    3     -7.30      0.00
   -3    5    2      0.94      0.00
   -3    5    1    -12.64      0.00
    3    5    0     -3.11      0.00
    3    5    1     10.36      0.00
    3    5    2     -2.44      0.00
    3    5    3     -0.92      0.00
    3    5    4      1.05      0.00
    3    5    5     -0.78      0.00
    3    5    6      5.99      0.00
    3    5    7      0.82      0.00
    3    5    8      1.57      0.00
    3    5    9     -2.16      0.00
    3    5   10     -1.78      0.00
    3    5   11     -0.50      0.00
    3    5   12     -1.53      0.00
    3    5   13     -2.11      0.00
    3    5   14     -1.33      0.00
    3    5   15     -0.75      0.00
    3    5   16      0.46      0.00
    3    5   17     -0.16      0.00
   -3    6   17     -2.18      0.00
   -3    6   16      0.10      0.00
   -3    6   15      1.43      0.00
   -3    6   14      1.99      0.00
   -3    6   13     -0.62      0.00
   -3    6   12      2.52      0.00
   -3    6   11      0.50      0.00
   -3    6   10      0.24      0.00
   -3    6    9      0.03      0.00
   -3    6    8      0.33      0.00
   -3    6    7     -2.95      0.00
   -3    6    6      1.83      0.00
   -3    6    5     -3.28      0.00
   -3    6    4      1.87      0.00
   -3    6    3     -3.99      0.00
   -3    6    2      0.93      0.00
   -3    6    1     -4.36      0.00
    3    6    0      1.34      0.00
    3    6    1     -3.90      0.00
    3    6    2      3.73      0.00
    3    6    3     -5.64      0.00
    3    6    4      4.88      0.00
    3    6    5     -5.09      0.00
    3    6    6      1.56      0.00
    3    6    7     -1.93      0.00
    3    6    8      2.26      0.00
    3    6    9     -1.34      0.00
    3    6   10      1.41      0.00
    3    6   11     -0.93      0.00
    3    6   12     -0.14      0.00
    3    6   13      0.10      0.00
    3    6   14      1.44      0.00
    3    6   15     -0.32      0.00
    3    6   16      0.51      0.00
    3    6   17     -1.53      0.00
   -3    7   16     -0.33      0.00
   -3    7   15     -0.30      0.00
   -3    7   14     -1.33      0.00
   -3    7   13     -0.22      0.00
   -3    7   12      1.16      0.00
   -3    7   11      0.52      0.00
   -3    7   10     -1.60      0.00
   -3    7    9      1.77      0.00
   -3    7    8     -0.80      0.00
   -3    7    7      0.99      0.00
   -3    7    6     -0.25      0.00
   -3    7    5     -1.88      0.00
   -3    7    4      0.76      0.00
   -3    7    3     -2.72      0.00
   -3    7    2      5.33      0.00
   -3    7    1     -0.06      0.00
    3    7    0      6.81      0.00
    3    7    1      1.04      0.00
    3    7    2      3.66      0.00
    3    7    3      2.23      0.00
    3    7    4      2.09      0.00
    3    7    5     -0.42      0.00
    3    7    6      0.26      0.00
    3    7    7     -1.09      0.00
    3    7    8      3.03      0.00
    3    7    9      1.72      0.00
    3    7   10      5.53      0.00
    3    7   11      0.03      0.00
    3    7   12      3.86      0.00
    3    7   13     -1.03      0.00
    3    7   14      1.14      0.00
    3    7   15     -0.35      0.00
    3    7   16      0.57      0.00
   -3    8   15     -0.02      0.00
   -3    8   14      0.33      0.00
   -3    8   13      0.07      0.00
   -3    8   12     -1.41      0.00
   -3    8   11     -0.70      0.00
   -3    8   10     -2.02      0.00
   -3    8    9      0.55      0.00
   -3    8    8     -1.96      0.00
   -3    8    7      0.00      0.00
   -3    8    6     -2.63      0.00
   -3    8    5      0.55      0.00
   -3    8    4     -0.77      0.00
   -3    8    3     -0.62      0.00
   -3    8    2      1.26      0.00
   -3    8    1     -2.92      0.00
    3    8    0     -5.26      0.00
    3    8    1     -1.53      0.00
    3    8    2     -3.38      0.00
    3    8    3     -0.22      0.00
    3    8    4     -2.34      0.00
    3    8    5      0.62      0.00
    3    8    6     -2.83      0.00
    3    8    7     -0.62      0.00
    3    8    8     -2.96      0.00
    3    8    9     -1.33      0.00
    3    8   10     -0.29      0.00
    3    8   11     -1.47      0.00
    3    8   12      0.66      0.00
    3    8   13     -1.61      0.00
    3    8   14     -0.17      0.00
    3    8   15     -0.27      0.00
   -3    9   14      0.02      0.00
   -3    9   13      0.11      0.00
   -3    9   12     -2.17      0.00
   -3    9   11      1.32      0.00
   -3    9   10     -1.17      0.00
   -3    9    9     -0.20      0.00
   -3    9    8      0.83      0.00
   -3    9    7      0.97      0.00
   -3    9    6      1.49      0.00
   -3    9    5      2.98      0.00
   -3    9    4      0.67      0.00
   -3    9    3      1.88      0.00
   -3    9    2     -0.78      0.00
   -3    9    1     -1.51      0.00
    3    9    0     -2.81      0.00
    3    9    1      1.39      0.00
    3    9    2     -0.09      0.00
    3    9    3     -1.03      0.00
    3    9    4     -0.20      0.00
    3    9    5      1.77      0.00
    3    9    6     -0.71      0.00
    3    9    7      0.94      0.00
    3    9    8      1.18      0.00
    3    9    9     -1.57      0.00
    3    9   10     -1.09      0.00
    3    9   11      0.30      0.00
    3    9   12     -0.98      0.00
    3    9   13      0.63      0.00
    3    9   14     -0.69      0.00
   -3   10   13     -0.52      0.00
   -3   10   12      0.50      0.00
   -3   10   11      1.25      0.00
   -3   10   10      1.71      0.00
   -3   10    9     -0.13      0.00
   -3   10    8      1.95      0.00
   -3   10    7     -0.90      0.00
   -3   10    6     -1.11      0.00
   -3   10    5      1.27      0.00
   -3   10    4     -1.03      0.00
   -3   10    3      1.37      0.00
   -3   10    2      1.48      0.00
   -3   10    1      2.28      0.00
    3   10    0      0.84      0.00
    3   10    1      3.02      0.00
    3   10    2      1.97      0.00
    3   10    3      0.95      0.00
    3   10    4      0.71      0.00
    3   10    5      1.31      0.00
    3   10    6     -1.26      0.00
    3   10    7     -0.07      0.00
    3   10    8      1.20      0.00
    3   10    9     -0.87      0.00
    3   10   10     -0.47      0.00
    3   10   11     -0.49      0.00
    3   10   12      0.85      0.00
    3   10   13     -0.65      0.00
   -3   11   11      1.05      0.00
   -3   11   10     -1.82      0.00
   -3   11    9     -0.05      0.00
   -3   11    8      0.11      0.00
   -3   11    7      0.24      0.00
   -3   11    6     -0.37      0.00
   -3   11    5     -0.03      0.00
   -3   11    4     -2.26      0.00
   -3   11    3     -0.99      0.00
   -3   11    2     -0.75      0.00
   -3   11    1     -0.75      0.00
    3   11    0      0.54      0.00
    3   11    1      0.50      0.00
    3   11    2     -1.04      0.00
    3   11    3      0.28      0.00
    3   11    4     -1.03      0.00
    3   11    5      0.15      0.00
    3   11    6     -1.29      0.00
    3   11    7      0.12      0.00
    3   11    8     -0.54      0.00
    3   11    9      0.14      0.00
    3   11   10      1.04      0.00
    3   11   11     -0.31      0.00
   -3   12    9     -1.01      0.00
   -3   12    8     -0.48      0.00
   -3   12    7     -0.62      0.00
   -3   12    6     -0.28      0.00
   -3   12    5      0.76      0.00
   -3   12    4      0.30      0.00
   -3   12    3      1.34      0.00
   -3   12    2     -0.79      0.00
   -3   12    1      0.78      0.00
    3   12    0      1.47      0.00
    3   12    1      1.43      0.00
    3   12    2      0.79      0.00
    3   12    3      0.92      0.00
    3   12    4     -0.99      0.00
    3   12    5     -0.69      0.00
    3   12    6     -0.72      0.00
    3   12    7      0.65      0.00
    3   12    8     -0.84      0.00
    3   12    9     -0.40      0.00
   -3   13    6     -1.36      0.00
   -3   13    5      0.16      0.00
   -3   13    4     -0.80      0.00
   -3   13    3      0.12      0.00
   -3   13    2      1.03      0.00
   -3   13    1      0.01      0.00
    3   13    0      0.84      0.00
    3   13    1     -0.79      0.00
    3   13    2     -0.09      0.00
    3   13    3      0.14      0.00
    3   13    4      0.87      0.00
    3   13    5     -0.81      0.00
    3   13    6      0.31      0.00
   -4    0   18     -0.82      0.00
   -4    0   16     -0.86      0.00
   -4    0   14      0.27      0.00
   -4    0   12     -0.56      0.00
   -4    0   10     -5.59      0.00
   -4    0    8     -8.59      0.00
   -4    0    6    -10.97      0.00
   -4    0    4    -13.83      0.00
   -4    0    2     -7.02      0.00
    4    0    0    -11.02      0.00
    4    0    2    -10.96      0.00
    4    0    4    -10.88      0.00
    4    0    6     -7.68      0.00
    4    0    8     -3.14      0.00
    4    0   10     -1.24      0.00
    4    0   12     -1.47      0.00
    4    0   14     -1.11      0.00
    4    0   16     -1.18      0.00
    4    0   18     -0.17      0.00
   -4    1   18     -0.20      0.00
   -4    1   17     -1.03      0.00
   -4    1   16      0.96      0.00
   -4    1   15      1.86      0.00
   -4    1   14      1.52      0.00
   -4    1   13      1.77      0.00
   -4    1   12      3.43      0.00
   -4    1   11      1.79      0.00
   -4    1   10      2.01      0.00
   -4    1    9      4.01      0.00
   -4    1    8      2.60      0.00
   -4    1    7      5.21      0.00
   -4    1    6      3.82      0.00
   -4    1    5      7.45      0.00
   -4    1    4      0.60      0.00
   -4    1    3      1.46      0.00
   -4    1    2     -0.48      0.00
   -4    1    1     -4.68      0.00
    4    1    0     -0.36      0.00
    4    1    1      3.30      0.00
    4    1    2     -0.97      0.00
    4    1    3      5.56      0.00
    4    1    4      2.68      0.00
    4    1    5      5.29      0.00
    4    1    6      5.87      0.00
    4    1    7      3.80      0.00
    4    1    8      3.78      0.00
    4    1    9     -0.54      0.00
    4    1   10      2.29      0.00
    4    1   11      0.27      0.00
    4    1   12     -0.11      0.00
    4    1   13     -0.06      0.00
    4    1   14      0.10      0.00
    4    1   15     -0.52      0.00
    4    1   16     -1.12      0.00
    4    1   17     -1.05      0.00
    4    1   18     -1.69      0.00
   -4    2   17      0.28      0.00
   -4    2   16     -0.84      0.00
   -4    2   15      0.47      0.00
   -4    2   14     -3.53      0.00
   -4    2   13     -0.76      0.00
   -4    2   12     -1.30      0.00
   -4    2   11     -0.90      0.00
   -4    2   10     -3.14      0.00
   -4    2    9      2.62      0.00
   -4    2    8     -2.00      0.00
   -4    2    7     -0.92      0.00
   -4    2    6      2.35      0.00
   -4    2    5     -1.89      0.00
   -4    2    4      4.71      0.00
   -4    2    3      2.97      0.00
   -4    2    2      2.63      0.00
   -4    2    1      0.07      0.00
    4    2    0      1.27      0.00
    4    2    1      6.98      0.00
    4    2    2      1.94      0.00
    4    2    3      2.06      0.00
    4    2    4      6.06      0.00
    4    2    5      1.38      0.00
    4    2    6      1.52      0.00
    4    2    7      0.20      0.00
    4    2    8      0.98      0.00
    4    2    9     -4.28      0.00
    4    2   10      0.26      0.00
    4    2   11     -3.60      0.00
    4    2   12     -0.40      0.00
    4    2   13     -1.00      0.00
    4    2   14      0.07      0.00
    4    2   15     -1.53      0.00
    4    2   16      1.22      0.00
    4    2   17      0.30      0.00
   -4    3   17      0.04      0.00
   -4    3   16      2.22      0.00
   -4    3   15      1.49      0.00
   -4    3   14      1.52      0.00
   -4    3   13      1.38      0.00
   -4    3   12     -0.14      0.00
   -4    3   11      1.77      0.00
   -4    3   10     -1.60      0.00
   -4    3    9      1.29      0.00
   -4    3    8     -4.10      0.00
   -4    3    7     -4.23      0.00
   -4    3    6     -2.10      0.00
   -4    3    5     -7.87      0.00
   -4    3    4     -0.13      0.00
   -4    3    3     -5.05      0.00
   -4    3    2      3.58      0.00
   -4    3    1      4.84      0.00
    4    3    0     -8.80      0.00
    4    3    1      2.80      0.00
    4    3    2     -5.28      0.00
    4    3    3     -2.70      0.00
    4    3    4      0.15      0.00
    4    3    5     -5.64      0.00
    4    3    6     -2.16      0.00
    4    3    7     -6.00      0.00
    4    3    8     -1.14      0.00
    4    3    9     -0.70      0.00
    4    3   10      0.25      0.00
    4    3   11     -1.36      0.00
    4    3   12      0.71      0.00
    4    3   13     -0.80      0.00
    4    3   14      1.52      0.00
    4    3   15      0.89      0.00
    4    3   16      1.61      0.00
    4    3   17     -0.51      0.00
   -4    4   17      0.52      0.00
   -4    4   16      1.62      0.00
   -4    4   15      1.52      0.00
   -4    4   14      1.41      0.00
   -4    4   13      0.21      0.00
   -4    4   12      1.66      0.00
   -4    4   11     -0.22      0.00
   -4    4   10      1.02      0.00
   -4    4    9      1.08      0.00
   -4    4    8      1.20      0.00
   -4    4    7      1.20      0.00
   -4    4    6      2.45      0.00
   -4    4    5     -1.50      0.00
   -4    4    4      3.91      0.00
   -4    4    3     -2.04      0.00
   -4    4    2      6.71      0.00
   -4    4    1      1.11      0.00
    4    4    0      6.00      0.00
    4    4    1     -7.44      0.00
    4    4    2      3.58      0.00
    4    4    3     -5.57      0.00
    4    4    4      1.38      0.00
    4    4    5     -1.92      0.00
    4    4    6      4.03      0.00
    4    4    7      1.67      0.00
    4    4    8      2.61      0.00
    4    4    9      3.05      0.00
    4    4   10      1.35      0.00
    4    4   11      3.32      0.00
    4    4   12      1.36      0.00
    4    4   13      0.34      0.00
    4    4   14     -0.94      0.00
    4    4   15      0.30      0.00
    4    4   16     -1.09      0.00
    4    4   17      0.22      0.00
   -4    5   16      0.58      0.00
   -4    5   15     -1.42      0.00
   -4    5   14     -0.85      0.00
   -4    5   13     -1.15      0.00
   -4    5   12      2.15      0.00
   -4    5   11      0.01      0.00
   -4    5   10     -1.37      0.00
   -4    5    9      5.15      0.00
   -4    5    8     -2.52      0.00
   -4    5    7      4.50      0.00
   -4    5    6     -0.05      0.00
   -4    5    5      0.41      0.00
   -4    5    4      2.35      0.00
   -4    5    3     -2.74      0.00
   -4    5    2      2.66      0.00
   -4    5    1     -9.09      0.00
    4    5    0      0.84      0.00
    4    5    1     -6.82      0.00
    4    5    2      1.63      0.00
    4    5    3     -2.24      0.00
    4    5    4     -0.75      0.00
    4    5    5      1.32      0.00
    4    5    6      0.93      0.00
    4    5    7      1.70      0.00
    4    5    8     -0.42      0.00
    4    5    9     -3.35      0.00
    4    5   10     -3.39      0.00
    4    5   11     -2.53      0.00
    4    5   12     -1.12      0.00
    4    5   13     -1.91      0.00
    4    5   14     -0.60      0.00
    4    5   15     -1.12      0.00
    4    5   16     -1.52      0.00
   -4    6   16      0.60      0.00
   -4    6   15     -0.16      0.00
   -4    6   14     -0.12      0.00
   -4    6   13     -1.35      0.00
   -4    6   12      0.26      0.00
   -4    6   11     -2.45      0.00
   -4    6   10     -1.13      0.00
   -4    6    9      1.26      0.00
   -4    6    8     -1.44      0.00
   -4    6    7      0.57      0.00
   -4    6    6     -1.76      0.00
   -4    6    5      0.67      0.00
   -4    6    4     -2.84      0.00
   -4    6    3      0.17      0.00
   -4    6    2     -1.10      0.00
   -4    6    1      0.23      0.00
    4    6    0     -2.44      0.00
    4    6    1     -0.02      0.00
    4    6    2     -5.51      0.00
    4    6    3      2.96      0.00
    4    6    4     -2.92      0.00
    4    6    5      2.27      0.00
    4    6    6     -1.07      0.00
    4    6    7     -0.58      0.00
    4    6    8      1.24      0.00
    4    6    9      0.85      0.00
    4    6   10      1.29      0.00
    4    6   11     -1.80      0.00
    4    6   12      0.56      0.00
    4    6   13     -0.62      0.00
    4    6   14      2.25      0.00
    4    6   15      0.40      0.00
    4    6   16     -0.09      0.00
   -4    7   15     -0.44      0.00
   -4    7   14     -1.12      0.00
   -4    7   13     -0.92      0.00
   -4    7   12      0.38      0.00
   -4    7   11     -0.01      0.00
   -4    7   10      0.46      0.00
   -4    7    9     -2.76      0.00
   -4    7    8     -0.55      0.00
   -4    7    7     -3.14      0.00
   -4    7    6      0.16      0.00
   -4    7    5      0.76      0.00
   -4    7    4     -1.07      0.00
   -4    7    3      1.62      0.00
   -4    7    2     -1.09      0.00
   -4    7    1      4.55      0.00
    4    7    0     -2.14      0.00
    4    7    1      2.30      0.00
    4    7    2     -4.47      0.00
    4    7    3      1.54      0.00
    4    7    4     -3.15      0.00
    4    7    5      1.86      0.00
    4    7    6      0.30      0.00
    4    7    7     -0.43      0.00
    4    7    8     -0.56      0.00
    4    7    9     -0.38      0.00
    4    7   10     -0.11      0.00
    4    7   11     -0.31      0.00
    4    7   12      0.67      0.00
    4    7   13     -1.49      0.00
    4    7   14      0.77      0.00
    4    7   15     -1.65      0.00
   -4    8   14      0.45      0.00
   -4    8   13     -1.57      0.00
   -4    8   12     -0.06      0.00
   -4    8   11     -1.82      0.00
   -4    8   10     -0.49      0.00
   -4    8    9     -2.60      0.00
   -4    8    8      1.41      0.00
   -4    8    7     -1.87      0.00
   -4    8    6      0.52      0.00
   -4    8    5     -1.92      0.00
   -4    8    4      1.33      0.00
   -4    8    3      0.36      0.00
   -4    8    2     -0.96      0.00
   -4    8    1      3.01      0.00
    4    8    0     -2.76      0.00
    4    8    1     -1.54      0.00
    4    8    2      0.83      0.00
    4    8    3     -0.17      0.00
    4    8    4     -1.00      0.00
    4    8    5     -0.90      0.00
    4    8    6      0.99      0.00
    4    8    7     -1.26      0.00
    4    8    8      1.31      0.00
    4    8    9      1.02      0.00
    4    8   10     -0.48      0.00
    4    8   11      2.95      0.00
    4    8   12      0.77      0.00
    4    8   13      0.65      0.00
    4    8   14     -0.78      0.00
   -4    9   13     -0.04      0.00
   -4    9   12      1.23      0.00
   -4    9   11     -0.33      0.00
   -4    9   10      0.90      0.00
   -4    9    9      0.30      0.00
   -4    9    8      1.59      0.00
   -4    9    7      0.51      0.00
   -4    9    6      1.09      0.00
   -4    9    5     -0.24      0.00
   -4    9    4      1.69      0.00
   -4    9    3     -1.10      0.00
   -4    9    2      0.58      0.00
   -4    9    1     -3.07      0.00
    4    9    0      0.82      0.00
    4    9    1     -1.17      0.00
    4    9    2      0.11      0.00
    4    9    3     -0.43      0.00
    4    9    4     -0.55      0.00
    4    9    5     -1.29      0.00
    4    9    6     -0.75      0.00
    4    9    7     -1.79      0.00
    4    9    8     -0.99      0.00
    4    9    9      0.69      0.00
    4    9   10     -1.53      0.00
    4    9   11     -0.89      0.00
    4    9   12      0.35      0.00
    4    9   13     -0.22      0.00
   -4   10   11      1.00      0.00
   -4   10   10      1.45      0.00
   -4   10    9      0.55      0.00
   -4   10    8      0.16      0.00
   -4   10    7      0.19      0.00
   -4   10    6     -0.48      0.00
   -4   10    5      0.33      0.00
   -4   10    4     -0.21      0.00
   -4   10    3     -0.22      0.00
   -4   10    2     -0.10      0.00
   -4   10    1      0.12      0.00
    4   10    0      1.24      0.00
    4   10    1      0.18      0.00
    4   10    2     -0.31      0.00
    4   10    3      0.33      0.00
    4   10    4      0.46      0.00
    4   10    5      0.08      0.00
    4   10    6      0.48      0.00
    4   10    7      0.07      0.00
    4   10    8      0.61      0.00
    4   10    9      0.05      0.00
    4   10   10      0.40      0.00
    4   10   11     -1.59      0.00
   -4   11    9     -2.06      0.00
   -4   11    8      0.57      0.00
   -4   11    7      0.07      0.00
   -4   11    6     -0.19      0.00
   -4   11    5      0.53      0.00
   -4   11    4     -0.17      0.00
   -4   11    3      0.50      0.00
   -4   11    2      0.08      0.00
   -4   11    1      1.89      0.00
    4   11    0      0.75      0.00
    4   11    1     -0.07      0.00
    4   11    2      0.18      0.00
    4   11    3      0.07      0.00
    4   11    4     -0.51      0.00
    4   11    5      0.35      0.00
    4   11    6     -0.33      0.00
    4   11    7      0.14      0.00
    4   11    8      0.49      0.00
    4   11    9     -0.13      0.00
   -4   12    7      0.11      0.00
   -4   12    6     -0.31      0.00
   -4   12    5      0.34      0.00
   -4   12    4     -0.07      0.00
   -4   12    3      0.03      0.00
   -4   12    2     -0.71      0.00
   -4   12    1     -0.28      0.00
    4   12    0     -1.26      0.00
    4   12    1     -0.20      0.00
    4   12    2     -1.57      0.00
    4   12    3      0.10      0.00
    4   12    4     -1.52      0.00
    4   12    5      0.95      0.00
    4   12    6      0.12      0.00
    4   12    7      0.86      0.00
   -4   13    1     -0.30      0.00
    4   13    0      0.58      0.00
    4   13    1      1.79      0.00
   -5    0   15      3.30      0.00
   -5    0   13      4.72      0.00
   -5    0   11      1.99      0.00
   -5    0    9     -3.09      0.00
   -5    0    7     -3.20      0.00
   -5    0    5     -6.85      0.00
   -5    0    3     -2.99      0.00
   -5    0    1      2.57      0.00
    5    0    1     -3.93      0.00
    5    0    3     -6.18      0.00
    5    0    5     -3.44      0.00
    5    0    7     -1.15      0.00
    5    0    9      1.56      0.00
    5    0   11      0.77      0.00
    5    0   13     -1.52      0.00
    5    0   15      0.05      0.00
   -5    1   16     -0.34      0.00
   -5    1   15      0.29      0.00
   -5    1   14     -0.06      0.00
   -5    1   13      0.57      0.00
   -5    1   12     -0.99      0.00
   -5    1   11      0.22      0.00
   -5    1   10      2.77      0.00
   -5    1    9      0.56      0.00
   -5    1    8      3.22      0.00
   -5    1    7      2.11      0.00
   -5    1    6      2.47      0.00
   -5    1    5      0.71      0.00
   -5    1    4      2.73      0.00
   -5    1    3     -2.75      0.00
   -5    1    2     -4.11      0.00
   -5    1    1     -0.21      0.00
    5    1    0     -6.12      0.00
    5    1    1      0.86      0.00
    5    1    2      1.24      0.00
    5    1    3     -3.01      0.00
    5    1    4      0.87      0.00
    5    1    5      2.21      0.00
    5    1    6      0.59      0.00
    5    1    7      3.71      0.00
    5    1    8      0.37      0.00
    5    1    9      0.14      0.00
    5    1   10     -0.63      0.00
    5    1   11      0.13      0.00
    5    1   12      0.36      0.00
    5    1   13      0.93      0.00
    5    1   14     -0.27      0.00
    5    1   15     -1.19      0.00
    5    1   16      0.77      0.00
   -5    2   16      0.23      0.00
   -5    2   15     -1.05      0.00
   -5    2   14     -2.13      0.00
   -5    2   13     -1.15      0.00
   -5    2   12     -2.11      0.00
   -5    2   11     -1.91      0.00
   -5    2   10     -0.17      0.00
   -5    2    9     -3.73      0.00
   -5    2    8     -0.77      0.00
   -5    2    7      0.71      0.00
   -5    2    6     -0.61      0.00
   -5    2    5      4.51      0.00
   -5    2    4      2.50      0.00
   -5    2    3      4.69      0.00
   -5    2    2      6.15      0.00
   -5    2    1      4.92      0.00
    5    2    0     -0.96      0.00
    5    2    1      4.39      0.00
    5    2    2      1.44      0.00
    5    2    3      3.17      0.00
    5    2    4      1.10      0.00
    5    2    5      1.57      0.00
    5    2    6     -0.65      0.00
    5    2    7     -0.89      0.00
    5    2    8     -3.31      0.00
    5    2    9     -0.24      0.00
    5    2   10     -0.58      0.00
    5    2   11     -0.89      0.00
    5    2   12     -0.24      0.00
    5    2   13      0.44      0.00
    5    2   14     -0.57      0.00
    5    2   15     -0.09      0.00
    5    2   16      0.06      0.00
   -5    3   16      0.60      0.00
   -5    3   15      0.53      0.00
   -5    3   14     -0.28      0.00
   -5    3   13      1.95      0.00
   -5    3   12     -1.74      0.00
   -5    3   11      1.75      0.00
   -5    3   10     -2.03      0.00
   -5    3    9      2.81      0.00
   -5    3    8     -2.60      0.00
   -5    3    7      0.10      0.00
   -5    3    6     -4.81      0.00
   -5    3    5     -1.15      0.00
   -5    3    4     -4.51      0.00
   -5    3    3     -0.35      0.00
   -5    3    2     -2.65      0.00
   -5    3    1      0.17      0.00
    5    3    0     -0.16      0.00
    5    3    1     -0.38      0.00
    5    3    2     -3.28      0.00
    5    3    3      2.77      0.00
    5    3    4     -2.98      0.00
    5    3    5     -2.68      0.00
    5    3    6     -1.25      0.00
    5    3    7     -2.66      0.00
    5    3    8     -1.00      0.00
    5    3    9     -0.64      0.00
    5    3   10     -1.12      0.00
    5    3   11      0.06      0.00
    5    3   12      0.18      0.00
    5    3   13      1.53      0.00
    5    3   14      0.64      0.00
    5    3   15      1.59      0.00
    5    3   16      1.42      0.00
   -5    4   15      0.94      0.00
   -5    4   14      0.67      0.00
   -5    4   13      1.86      0.00
   -5    4   12      0.43      0.00
   -5    4   11      2.89      0.00
   -5    4   10     -1.05      0.00
   -5    4    9      3.39      0.00
   -5    4    8     -2.53      0.00
   -5    4    7      1.20      0.00
   -5    4    6     -2.76      0.00
   -5    4    5     -0.16      0.00
   -5    4    4     -0.43      0.00
   -5    4    3     -1.07      0.00
   -5    4    2      1.98      0.00
   -5    4    1      1.70      0.00
    5    4    0     -5.26      0.00
    5    4    1      1.85      0.00
    5    4    2     -6.54      0.00
    5    4    3      1.50      0.00
    5    4    4     -3.68      0.00
    5    4    5      1.15      0.00
    5    4    6      1.48      0.00
    5    4    7     -0.01      0.00
    5    4    8      4.78      0.00
    5    4    9      0.56      0.00
    5    4   10      3.03      0.00
    5    4   11      0.20      0.00
    5    4   12      1.37      0.00
    5    4   13     -1.61      0.00
    5    4   14      0.32      0.00
    5    4   15     -1.11      0.00
   -5    5   15     -1.57      0.00
   -5    5   14     -1.49      0.00
   -5    5   13     -1.36      0.00
   -5    5   12     -0.36      0.00
   -5    5   11     -1.27      0.00
   -5    5   10     -0.54      0.00
   -5    5    9     -0.27      0.00
   -5    5    8      2.37      0.00
   -5    5    7      0.85      0.00
   -5    5    6      2.29      0.00
   -5    5    5     -1.23      0.00
   -5    5    4      0.02      0.00
   -5    5    3     -3.43      0.00
   -5    5    2     -1.91      0.00
   -5    5    1     -1.75      0.00
    5    5    0     -2.99      0.00
    5    5    1      1.97      0.00
    5    5    2     -1.06      0.00
    5    5    3      2.08      0.00
    5    5    4      1.05      0.00
    5    5    5     -0.10      0.00
    5    5    6      4.24      0.00
    5    5    7     -2.83      0.00
    5    5    8      2.74      0.00
    5    5    9     -2.87      0.00
    5    5   10      0.56      0.00
    5    5   11     -2.39      0.00
    5    5   12     -0.84      0.00
    5    5   13     -0.52      0.00
    5    5   14     -0.99      0.00
    5    5   15      0.93      0.00
   -5    6   14      0.03      0.00
   -5    6   13     -1.58      0.00
   -5    6   12     -0.47      0.00
   -5    6   11     -1.10      0.00
   -5    6   10     -1.81      0.00
   -5    6    9     -2.17      0.00
   -5    6    8     -0.79      0.00
   -5    6    7     -2.27      0.00
   -5    6    6     -0.03      0.00
   -5    6    5     -2.58      0.00
   -5    6    4      2.96      0.00
   -5    6    3     -1.76      0.00
   -5    6    2      2.18      0.00
   -5    6    1     -1.03      0.00
    5    6    0      3.47      0.00
    5    6    1     -2.57      0.00
    5    6    2      1.33      0.00
    5    6    3     -1.50      0.00
    5    6    4      1.44      0.00
    5    6    5     -1.96      0.00
    5    6    6      2.30      0.00
    5    6    7     -2.46      0.00
    5    6    8     -0.36      0.00
    5    6    9     -1.17      0.00
    5    6   10      0.00      0.00
    5    6   11     -0.48      0.00
    5    6   12      0.02      0.00
    5    6   13      1.95      0.00
    5    6   14      0.20      0.00
   -5    7   13     -0.65      0.00
   -5    7   12      0.92      0.00
   -5    7   11      0.35      0.00
   -5    7   10      1.10      0.00
   -5    7    9     -0.86      0.00
   -5    7    8      0.33      0.00
   -5    7    7      0.15      0.00
   -5    7    6      0.09      0.00
   -5    7    5      2.56      0.00
   -5    7    4      2.56      0.00
   -5    7    3     -1.64      0.00
   -5    7    2      3.59      0.00
   -5    7    1     -2.20      0.00
    5    7    0      4.11      0.00
    5    7    1      0.47      0.00
    5    7    2      4.87      0.00
    5    7    3      2.67      0.00
    5    7    4      2.49      0.00
    5    7    5      0.34      0.00
    5    7    6      3.16      0.00
    5    7    7     -0.42      0.00
    5    7    8      1.57      0.00
    5    7    9     -0.52      0.00
    5    7   10     -0.22      0.00
    5    7   11      0.01      0.00
    5    7   12      0.99      0.00
    5    7   13     -0.22      0.00
   -5    8   12     -0.92      0.00
   -5    8   11     -0.93      0.00
   -5    8   10     -0.48      0.00
   -5    8    9     -0.64      0.00
   -5    8    8     -0.68      0.00
   -5    8    7     -0.87      0.00
   -5    8    6     -2.34      0.00
   -5    8    5     -0.78      0.00
   -5    8    4     -1.80      0.00
   -5    8    3     -0.81      0.00
   -5    8    2      1.01      0.00
   -5    8    1     -2.62      0.00
    5    8    0     -5.16      0.00
    5    8    1     -2.86      0.00
    5    8    2     -3.81      0.00
    5    8    3     -0.72      0.00
    5    8    4     -1.74      0.00
    5    8    5     -0.57      0.00
    5    8    6     -0.30      0.00
    5    8    7     -1.53      0.00
    5    8    8      0.57      0.00
    5    8    9     -0.85      0.00
    5    8   10      0.67      0.00
    5    8   11     -1.03      0.00
    5    8   12      0.69      0.00
   -5    9   11      1.20      0.00
   -5    9   10      1.46      0.00
   -5    9    9      0.29      0.00
   -5    9    8      1.10      0.00
   -5    9    7      1.00      0.00
   -5    9    6      1.34      0.00
   -5    9    5      0.54      0.00
   -5    9    4     -0.14      0.00
   -5    9    3      0.20      0.00
   -5    9    2     -1.81      0.00
   -5    9    1     -0.54      0.00
    5    9    0     -1.02      0.00
    5    9    1      2.87      0.00
    5    9    2     -1.50      0.00
    5    9    3     -0.15      0.00
    5    9    4     -0.12      0.00
    5    9    5      0.10      0.00
    5    9    6     -0.29      0.00
    5    9    7     -1.01      0.00
    5    9    8     -0.45      0.00
    5    9    9     -0.96      0.00
    5    9   10      0.47      0.00
    5    9   11      0.21      0.00
   -5   10    9      0.23      0.00
   -5   10    8      0.19      0.00
   -5   10    7      0.20      0.00
   -5   10    6     -0.32      0.00
   -5   10    5      0.01      0.00
   -5   10    4      0.49      0.00
   -5   10    3      0.02      0.00
   -5   10    2      1.86      0.00
   -5   10    1     -0.79      0.00
    5   10    0     -0.60      0.00
    5   10    1      0.04      0.00
    5   10    2     -0.47      0.00
    5   10    3      0.77      0.00
    5   10    4      0.98      0.00
    5   10    5      0.00      0.00
    5   10    6      0.69      0.00
    5   10    7     -0.22      0.00
    5   10    8     -0.36      0.00
    5   10    9      0.20      0.00
   -5   11    7      0.97      0.00
   -5   11    6     -0.50      0.00
   -5   11    5     -0.05      0.00
   -5   11    4     -0.63      0.00
   -5   11    3      0.11      0.00
   -5   11    2      0.26      0.00
   -5   11    1      0.71      0.00
    5   11    0      0.68      0.00
    5   11    1     -0.46      0.00
    5   11    2     -0.61      0.00
    5   11    3      0.72      0.00
    5   11    4     -0.65      0.00
    5   11    5     -1.78      0.00
    5   11    6      0.40      0.00
    5   11    7     -1.22      0.00
   -5   12    2     -0.70      0.00
   -5   12    1      0.39      0.00
    5   12    0     -0.56      0.00
    5   12    1      0.88      0.00
    5   12    2     -2.19      0.00
   -6    0   14     -0.22      0.00
   -6    0   12      0.24      0.00
   -6    0   10      1.32      0.00
   -6    0    8      0.76      0.00
   -6    0    6     -2.49      0.00
   -6    0    4     -4.08      0.00
   -6    0    2      2.10      0.00
    6    0    0     -4.77      0.00
    6    0    2     -9.55      0.00
    6    0    4     -0.74      0.00
    6    0    6      2.91      0.00
    6    0    8      2.41      0.00
    6    0   10      3.03      0.00
    6    0   12      0.01      0.00
    6    0   14      1.75      0.00
   -6    1   15     -0.26      0.00
   -6    1   14     -0.40      0.00
   -6    1   13     -0.09      0.00
   -6    1   12     -1.30      0.00
   -6    1   11     -0.31      0.00
   -6    1   10     -1.16      0.00
   -6    1    9     -0.40      0.00
   -6    1    8     -0.97      0.00
   -6    1    7     -1.07      0.00
   -6    1    6     -3.01      0.00
   -6    1    5      1.01      0.00
   -6    1    4     -3.88      0.00
   -6    1    3     -1.67      0.00
   -6    1    2      0.87      0.00
   -6    1    1     -8.76      0.00
    6    1    0     -3.36      0.00
    6    1    1     -0.80      0.00
    6    1    2      0.63      0.00
    6    1    3      2.86      0.00
    6    1    4      0.77      0.00
    6    1    5     -2.08      0.00
    6    1    6     -0.58      0.00
    6    1    7     -0.83      0.00
    6    1    8     -0.41      0.00
    6    1    9     -1.98      0.00
    6    1   10      0.76      0.00
    6    1   11     -0.86      0.00
    6    1   12     -0.35      0.00
    6    1   13      0.73      0.00
    6    1   14     -1.29      0.00
    6    1   15     -0.28      0.00
   -6    2   14     -1.09      0.00
   -6    2   13     -1.45      0.00
   -6    2   12     -1.42      0.00
   -6    2   11      0.39      0.00
   -6    2   10     -2.48      0.00
   -6    2    9      0.75      0.00
   -6    2    8     -0.30      0.00
   -6    2    7      0.63      0.00
   -6    2    6      4.33      0.00
   -6    2    5      2.53      0.00
   -6    2    4      2.03      0.00
   -6    2    3      1.96      0.00
   -6    2    2      3.15      0.00
   -6    2    1      1.96      0.00
    6    2    0      5.42      0.00
    6    2    1     -1.30      0.00
    6    2    2     -0.21      0.00
    6    2    3     -0.64      0.00
    6    2    4      0.88      0.00
    6    2    5     -0.93      0.00
    6    2    6      1.10      0.00
    6    2    7     -1.37      0.00
    6    2    8     -0.38      0.00
    6    2    9     -2.65      0.00
    6    2   10     -0.76      0.00
    6    2   11     -1.73      0.00
    6    2   12     -1.18      0.00
    6    2   13      0.96      0.00
    6    2   14     -1.22      0.00
   -6    3   14      0.35      0.00
   -6    3   13     -0.43      0.00
   -6    3   12      1.22      0.00
   -6    3   11     -0.74      0.00
   -6    3   10      1.25      0.00
   -6    3    9     -0.16      0.00
   -6    3    8      0.26      0.00
   -6    3    7     -3.65      0.00
   -6    3    6     -1.37      0.00
   -6    3    5     -2.76      0.00
   -6    3    4     -2.12      0.00
   -6    3    3      2.39      0.00
   -6    3    2     -1.26      0.00
   -6    3    1      3.93      0.00
    6    3    0      3.32      0.00
    6    3    1      1.61      0.00
    6    3    2      2.08      0.00
    6    3    3      0.28      0.00
    6    3    4      1.05      0.00
    6    3    5     -1.15      0.00
    6    3    6      0.52      0.00
    6    3    7     -1.66      0.00
    6    3    8      0.49      0.00
    6    3    9      0.57      0.00
    6    3   10      2.34      0.00
    6    3   11      0.69      0.00
    6    3   12      1.63      0.00
    6    3   13      0.66      0.00
    6    3   14     -0.28      0.00
   -6    4   14      0.58      0.00
   -6    4   13      1.58      0.00
   -6    4   12      1.20      0.00
   -6    4   11     -0.60      0.00
   -6    4   10      1.21      0.00
   -6    4    9     -0.36      0.00
   -6    4    8      3.06      0.00
   -6    4    7     -0.48      0.00
   -6    4    6      2.00      0.00
   -6    4    5     -2.51      0.00
   -6    4    4     -1.67      0.00
   -6    4    3     -1.62      0.00
   -6    4    2     -2.55      0.00
   -6    4    1     -0.14      0.00
    6    4    0     -0.44      0.00
    6    4    1     -0.19      0.00
    6    4    2     -1.75      0.00
    6    4    3     -4.23      0.00
    6    4    4     -1.42      0.00
    6    4    5     -4.28      0.00
    6    4    6      2.01      0.00
    6    4    7      0.21      0.00
    6    4    8      1.33      0.00
    6    4    9      0.23      0.00
    6    4   10      1.24      0.00
    6    4   11      0.21      0.00
    6    4   12     -0.17      0.00
    6    4   13      1.40      0.00
    6    4   14     -1.33      0.00
   -6    5   13      0.23      0.00
   -6    5   12     -1.28      0.00
   -6    5   11     -0.05      0.00
   -6    5   10      0.09      0.00
   -6    5    9      0.70      0.00
   -6    5    8      0.13      0.00
   -6    5    7      0.22      0.00
   -6    5    6      0.08      0.00
   -6    5    5     -0.04      0.00
   -6    5    4      0.78      0.00
   -6    5    3     -2.12      0.00
   -6    5    2     -1.87      0.00
   -6    5    1     -5.42      0.00
    6    5    0     -0.34      0.00
    6    5    1     -2.18      0.00
    6    5    2     -0.54      0.00
    6    5    3      0.03      0.00
    6    5    4      2.08      0.00
    6    5    5     -0.60      0.00
    6    5    6     -0.80      0.00
    6    5    7      0.06      0.00
    6    5    8     -1.18      0.00
    6    5    9     -0.89      0.00
    6    5   10     -0.61      0.00
    6    5   11     -0.12      0.00
    6    5   12     -1.52      0.00
    6    5   13      1.39      0.00
   -6    6   12      0.32      0.00
   -6    6   11      0.25      0.00
   -6    6   10     -1.51      0.00
   -6    6    9     -0.88      0.00
   -6    6    8     -2.80      0.00
   -6    6    7      0.09      0.00
   -6    6    6     -0.39      0.00
   -6    6    5      1.10      0.00
   -6    6    4     -1.16      0.00
   -6    6    3      2.28      0.00
   -6    6    2     -0.05      0.00
   -6    6    1      0.55      0.00
    6    6    0      0.10      0.00
    6    6    1      1.31      0.00
    6    6    2     -1.10      0.00
    6    6    3      3.38      0.00
    6    6    4      0.07      0.00
    6    6    5      0.91      0.00
    6    6    6     -0.34      0.00
    6    6    7     -0.84      0.00
    6    6    8      1.01      0.00
    6    6    9     -0.90      0.00
    6    6   10      0.20      0.00
    6    6   11     -1.39      0.00
    6    6   12      0.11      0.00
   -6    7   11     -0.17      0.00
   -6    7   10      1.05      0.00
   -6    7    9      0.46      0.00
   -6    7    8     -0.81      0.00
   -6    7    7      0.31      0.00
   -6    7    6     -1.21      0.00
   -6    7    5      0.20      0.00
   -6    7    4     -0.24      0.00
   -6    7    3      1.57      0.00
   -6    7    2     -0.49      0.00
   -6    7    1      3.15      0.00
    6    7    0      0.16      0.00
    6    7    1      2.57      0.00
    6    7    2     -1.34      0.00
    6    7    3      1.93      0.00
    6    7    4      0.45      0.00
    6    7    5      1.44      0.00
    6    7    6      2.87      0.00
    6    7    7      0.22      0.00
    6    7    8      1.21      0.00
    6    7    9     -0.66      0.00
    6    7   10      0.64      0.00
    6    7   11      0.03      0.00
   -6    8   10      1.45      0.00
   -6    8    9     -1.57      0.00
   -6    8    8      0.71      0.00
   -6    8    7      0.91      0.00
   -6    8    6     -0.92      0.00
   -6    8    5      0.76      0.00
   -6    8    4      0.47      0.00
   -6    8    3     -1.30      0.00
   -6    8    2      1.07      0.00
   -6    8    1     -0.05      0.00
    6    8    0     -0.51      0.00
    6    8    1      1.72      0.00
    6    8    2      2.02      0.00
    6    8    3     -0.98      0.00
    6    8    4      0.46      0.00
    6    8    5     -2.03      0.00
    6    8    6     -0.22      0.00
    6    8    7     -0.55      0.00
    6    8    8      0.02      0.00
    6    8    9      0.36      0.00
    6    8   10      0.32      0.00
   -6    9    8      2.07      0.00
   -6    9    7      0.98      0.00
   -6    9    6      1.48      0.00
   -6    9    5      0.16      0.00
   -6    9    4      1.25      0.00
   -6    9    3     -0.45      0.00
   -6    9    2     -0.20      0.00
   -6    9    1      0.82      0.00
    6    9    0      1.56      0.00
    6    9    1      1.18      0.00
    6    9    2      1.34      0.00
    6    9    3      0.21      0.00
    6    9    4      1.13      0.00
    6    9    5      0.89      0.00
    6    9    6      0.07      0.00
    6    9    7      0.02      0.00
    6    9    8     -0.55      0.00
   -6   10    5     -0.12      0.00
   -6   10    4      0.84      0.00
   -6   10    3     -0.56      0.00
   -6   10    2     -0.20      0.00
   -6   10    1      0.05      0.00
    6   10    0      0.21      0.00
    6   10    1     -0.79      0.00
    6   10    2      0.45      0.00
    6   10    3      1.48      0.00
    6   10    4      0.35      0.00
    6   10    5      1.24      0.00
   -7    0   11      1.53      0.00
   -7    0    9     -0.56      0.00
   -7    0    7     -0.48      0.00
   -7    0    5      1.03      0.00
   -7    0    3     -0.87      0.00
   -7    0    1     -4.15      0.00
    7    0    1     -4.64      0.00
    7    0    3     -1.14      0.00
    7    0    5     -0.76      0.00
    7    0    7      0.48      0.00
    7    0    9      1.18      0.00
    7    0   11      1.39      0.00
   -7    1   12     -0.64      0.00
   -7    1   11      0.47      0.00
   -7    1   10      0.09      0.00
   -7    1    9      1.61      0.00
   -7    1    8      0.65      0.00
   -7    1    7      1.17      0.00
   -7    1    6     -0.53      0.00
   -7    1    5     -2.60      0.00
   -7    1    4     -2.47      0.00
   -7    1    3     -0.64      0.00
   -7    1    2     -1.90      0.00
   -7    1    1      2.53      0.00
    7    1    0     -2.50      0.00
    7    1    1     -1.01      0.00
    7    1    2     -2.48      0.00
    7    1    3      2.13      0.00
    7    1    4      0.98      0.00
    7    1    5      0.23      0.00
    7    1    6      0.41      0.00
    7    1    7     -0.13      0.00
    7    1    8     -0.14      0.00
    7    1    9      0.33      0.00
    7    1   10      0.56      0.00
    7    1   11     -0.06      0.00
    7    1   12     -0.53      0.00
   -7    2   12     -0.39      0.00
   -7    2   11     -1.29      0.00
   -7    2   10      1.50      0.00
   -7    2    9     -0.77      0.00
   -7    2    8     -0.22      0.00
   -7    2    7     -1.27      0.00
   -7    2    6     -0.19      0.00
   -7    2    5      0.07      0.00
   -7    2    4      1.48      0.00
   -7    2    3      0.66      0.00
   -7    2    2      3.02      0.00
   -7    2    1     -0.43      0.00
    7    2    0     -2.04      0.00
    7    2    1      4.00      0.00
    7    2    2      0.00      0.00
    7    2    3      2.26      0.00
    7    2    4      0.10      0.00
    7    2    5     -0.72      0.00
    7    2    6     -0.24      0.00
    7    2    7     -0.79      0.00
    7    2    8     -2.07      0.00
    7    2    9     -1.96      0.00
    7    2   10     -0.14      0.00
    7    2   11     -0.51      0.00
    7    2   12      1.88      0.00
   -7    3   12     -0.99      0.00
   -7    3   11      0.02      0.00
   -7    3   10     -0.87      0.00
   -7    3    9      0.52      0.00
   -7    3    8      0.98      0.00
   -7    3    7      1.56      0.00
   -7    3    6      0.92      0.00
   -7    3    5      1.43      0.00
   -7    3    4     -0.90      0.00
   -7    3    3      0.22      0.00
   -7    3    2      0.70      0.00
   -7    3    1      0.84      0.00
    7    3    0     -0.64      0.00
    7    3    1      0.74      0.00
    7    3    2     -1.70      0.00
    7    3    3      1.26      0.00
    7    3    4     -0.50      0.00
    7    3    5      0.07      0.00
    7    3    6      1.68      0.00
    7    3    7     -0.77      0.00
    7    3    8      2.29      0.00
    7    3    9     -0.55      0.00
    7    3   10      0.81      0.00
    7    3   11     -1.34      0.00
    7    3   12      0.92      0.00
   -7    4   11      1.11      0.00
   -7    4   10      0.92      0.00
   -7    4    9      1.03      0.00
   -7    4    8      0.09      0.00
   -7    4    7      0.26      0.00
   -7    4    6     -1.23      0.00
   -7    4    5      1.94      0.00
   -7    4    4     -1.79      0.00
   -7    4    3      0.85      0.00
   -7    4    2     -1.52      0.00
   -7    4    1     -0.10      0.00
    7    4    0      0.42      0.00
    7    4    1     -0.93      0.00
    7    4    2     -1.27      0.00
    7    4    3     -1.59      0.00
    7    4    4     -1.70      0.00
    7    4    5     -0.65      0.00
    7    4    6      0.49      0.00
    7    4    7     -1.45      0.00
    7    4    8      1.64      0.00
    7    4    9     -0.46      0.00
    7    4   10      0.64      0.00
    7    4   11      0.41      0.00
   -7    5   10     -0.23      0.00
   -7    5    9      0.48      0.00
   -7    5    8      0.21      0.00
   -7    5    7      0.49      0.00
   -7    5    6      0.32      0.00
   -7    5    5     -0.41      0.00
   -7    5    4     -0.91      0.00
   -7    5    3     -1.75      0.00
   -7    5    2     -1.38      0.00
   -7    5    1     -4.08      0.00
    7    5    0      0.93      0.00
    7    5    1      0.83      0.00
    7    5    2     -1.49      0.00
    7    5    3     -0.53      0.00
    7    5    4     -0.79      0.00
    7    5    5     -0.12      0.00
    7    5    6     -0.89      0.00
    7    5    7     -1.65      0.00
    7    5    8     -0.64      0.00
    7    5    9     -0.83      0.00
    7    5   10      0.17      0.00
   -7    6    9     -1.14      0.00
   -7    6    8     -2.27      0.00
   -7    6    7     -1.25      0.00
   -7    6    6     -0.49      0.00
   -7    6    5     -0.28      0.00
   -7    6    4      0.57      0.00
   -7    6    3      1.94      0.00
   -7    6    2      1.47      0.00
   -7    6    1      0.83      0.00
    7    6    0      0.06      0.00
    7    6    1      1.46      0.00
    7    6    2      1.85      0.00
    7    6    3      2.08      0.00
    7    6    4      1.22      0.00
    7    6    5      0.63      0.00
    7    6    6      0.33      0.00
    7    6    7      1.27      0.00
    7    6    8      0.31      0.00
    7    6    9      0.22      0.00
   -7    7    8      0.02      0.00
   -7    7    7      0.40      0.00
   -7    7    6      0.27      0.00
   -7    7    5      0.43      0.00
   -7    7    4     -0.22      0.00
   -7    7    3      0.43      0.00
   -7    7    2      1.34      0.00
   -7    7    1     -0.95      0.00
    7    7    0      0.89      0.00
    7    7    1     -0.28      0.00
    7    7    2      2.07      0.00
    7    7    3     -0.11      0.00
    7    7    4     -0.48      0.00
    7    7    5     -0.21      0.00
    7    7    6     -0.42      0.00
    7    7    7      0.33      0.00
    7    7    8      0.45      0.00
   -7    8    6     -0.07      0.00
   -7    8    5      1.70      0.00
   -7    8    4     -0.42      0.00
   -7    8    3     -0.14      0.00
   -7    8    2      1.01      0.00
   -7    8    1      1.07      0.00
    7    8    0     -1.82      0.00
    7    8    1      0.02      0.00
    7    8    2     -1.54      0.00
    7    8    3      0.00      0.00
    7    8    4     -1.67      0.00
    7    8    5      1.10      0.00
    7    8    6     -0.68      0.00
   -7    9    2      0.10      0.00
   -7    9    1      0.16      0.00
    7    9    0      0.46      0.00
    7    9    1      2.53      0.00
    7    9    2      0.51      0.00
   -8    0    8     -0.07      0.00
   -8    0    6     -0.43      0.00
   -8    0    4      1.02      0.00
   -8    0    2     -0.90      0.00
    8    0    0     -4.14      0.00
    8    0    2     -5.04      0.00
    8    0    4      0.85      0.00
    8    0    6      0.90      0.00
    8    0    8      2.09      0.00
   -8    1    9     -0.19      0.00
   -8    1    8      0.14      0.00
   -8    1    7      1.25      0.00
   -8    1    6     -0.36      0.00
   -8    1    5      0.54      0.00
   -8    1    4      0.35      0.00
   -8    1    3      0.02      0.00
   -8    1    2      1.77      0.00
   -8    1    1      0.37      0.00
    8    1    0     -1.49      0.00
    8    1    1     -0.03      0.00
    8    1    2      1.19      0.00
    8    1    3     -0.77      0.00
    8    1    4      0.42      0.00
    8    1    5     -1.42      0.00
    8    1    6     -1.08      0.00
    8    1    7     -0.88      0.00
    8    1    8      0.47      0.00
    8    1    9     -1.72      0.00
   -8    2    8      1.22      0.00
   -8    2    7      0.04      0.00
   -8    2    6      0.04      0.00
   -8    2    5      0.19      0.00
   -8    2    4     -0.77      0.00
   -8    2    3      0.41      0.00
   -8    2    2     -0.37      0.00
   -8    2    1      0.23      0.00
    8    2    0      0.70      0.00
    8    2    1      0.31      0.00
    8    2    2      2.72      0.00
    8    2    3      2.18      0.00
    8    2    4      0.29      0.00
    8    2    5      0.03      0.00
    8    2    6     -0.03      0.00
    8    2    7     -0.56      0.00
    8    2    8      0.20      0.00
   -8    3    8      0.05      0.00
   -8    3    7      0.10      0.00
   -8    3    6      0.44      0.00
   -8    3    5     -0.84      0.00
   -8    3    4      1.05      0.00
   -8    3    3     -0.66      0.00
   -8    3    2      3.85      0.00
   -8    3    1      0.81      0.00
    8    3    0     -1.65      0.00
    8    3    1      1.36      0.00
    8    3    2      0.51      0.00
    8    3    3      0.84      0.00
    8    3    4     -0.15      0.00
    8    3    5      0.23      0.00
    8    3    6      0.34      0.00
    8    3    7     -0.28      0.00
    8    3    8     -0.40      0.00
   -8    4    7      1.41      0.00
   -8    4    6      0.41      0.00
   -8    4    5      2.05      0.00
   -8    4    4      1.41      0.00
   -8    4    3      0.02      0.00
   -8    4    2     -1.44      0.00
   -8    4    1      0.26      0.00
    8    4    0     -1.84      0.00
    8    4    1     -0.89      0.00
    8    4    2     -2.47      0.00
    8    4    3     -0.20      0.00
    8    4    4     -0.84      0.00
    8    4    5      1.63      0.00
    8    4    6      0.28      0.00
    8    4    7     -0.19      0.00
   -8    5    6      0.75      0.00
   -8    5    5     -0.51      0.00
   -8    5    4      0.25      0.00
   -8    5    3     -0.31      0.00
   -8    5    2     -0.43      0.00
   -8    5    1     -1.39      0.00
    8    5    0      0.86      0.00
    8    5    1     -0.27      0.00
    8    5    2     -0.50      0.00
    8    5    3      1.19      0.00
    8    5    4     -0.46      0.00
    8    5    5      0.42      0.00
    8    5    6     -0.16      0.00
   -8    6    4     -0.82      0.00
   -8    6    3     -0.53      0.00
   -8    6    2      0.76      0.00
   -8    6    1     -0.84      0.00
    8    6    0      1.27      0.00
    8    6    1     -0.35      0.00
    8    6    2     -0.56      0.00
    8    6    3      0.46      0.00
    8    6    4     -0.81      0.00
    9    1    0      3.01      0.00
    9    2    0     -1.23      0.00
    9    3    0      1.95      0.00
    9    4    0      0.18      0.00
    9    5    0      0.65      0.00
    9    6    0     -1.21      0.00
    8    7    0      0.67      0.00
    8    8    0      3.38      0.00
    8    9    0     -0.79      0.00
    7   10    0     -0.29      0.00
    6   11    0     -3.25      0.00
    7   11    0      0.56      0.00
    6   12    0      0.92      0.00
    5   13    0     -0.46      0.00
    3   14    0      1.19      0.00
    4   14    0      0.71      0.00
    1   15    0     -0.65      0.00
    2   15    0      1.82      0.00
    3   15    0     -0.93      0.00
   -9    0    1     -0.05      0.00
    9    0    1     -4.17      0.00
   -9    1    1     -0.25      0.00
    9    1    1     -0.16      0.00
   -9    2    1     -1.27      0.00
    9    2    1     -1.50      0.00
   -9    3    1      0.10      0.00
    9    3    1      1.57      0.00
   -9    4    1     -0.58      0.00
    9    4    1     -0.49      0.00
   -9    5    1     -0.29      0.00
    9    5    1      1.60      0.00
   -9    6    1     -0.71      0.00
    9    6    1     -1.21      0.00
   -8    7    1      1.51      0.00
    8    7    1      0.07      0.00
   -8    8    1     -0.16      0.00
    8    8    1      1.84      0.00
   -8    9    1     -0.53      0.00
    8    9    1     -0.95      0.00
   -7   10    1      1.39      0.00
    7   10    1      1.80      0.00
   -7   11    1      0.51      0.00
   -6   11    1      0.81      0.00
    6   11    1      0.03      0.00
    7   11    1     -0.78      0.00
   -6   12    1     -0.14      0.00
    6   12    1      0.37      0.00
   -5   13    1      0.99      0.00
    5   13    1      0.47      0.00
   -4   14    1     -1.29      0.00
   -3   14    1     -1.06      0.00
    3   14    1     -0.64      0.00
    4   14    1      0.67      0.00
   -3   15    1     -0.39      0.00
   -2   15    1      0.45      0.00
   -1   15    1      0.49      0.00
    0   15    1      2.71      0.00
    1   15    1     -0.71      0.00
    2   15    1     -0.32      0.00
    3   15    1     -0.56      0.00
   -9    1    2      1.14      0.00
    9    1    2      0.91      0.00
   -9    2    2      1.68      0.00
    9    2    2      0.03      0.00
   -9    3    2     -0.23      0.00
    9    3    2      1.56      0.00
   -9    4    2      0.69      0.00
    9    4    2     -1.32      0.00
   -9    5    2     -0.48      0.00
    9    5    2      1.24      0.00
   -9    6    2      0.42      0.00
    9    6    2     -1.32      0.00
   -8    7    2      0.37      0.00
    8    7    2     -0.99      0.00
   -8    8    2      1.50      0.00
    8    8    2      2.62      0.00
   -7   10    2     -0.28      0.00
    7   10    2     -1.65      0.00
   -6   11    2      2.62      0.00
    6   11    2     -1.34      0.00
   -6   12    2      1.65      0.00
    6   12    2      1.60      0.00
   -5   13    2      0.07      0.00
   -4   13    2      1.17      0.00
    4   13    2      0.24      0.00
    5   13    2     -0.48      0.00
   -4   14    2      1.17      0.00
   -3   14    2     -0.21      0.00
    3   14    2      1.74      0.00
    4   14    2     -0.12      0.00
   -2   15    2     -0.92      0.00
   -1   15    2     -1.36      0.00
    0   15    2      1.58      0.00
    1   15    2     -0.04      0.00
    2   15    2      0.55      0.00
   -9    0    3      1.89      0.00
    9    0    3     -1.62      0.00
   -9    1    3     -0.28      0.00
    9    1    3      0.83      0.00
   -9    2    3      0.52      0.00
    9    2    3      0.80      0.00
   -9    3    3     -1.08      0.00
    9    3    3      1.68      0.00
   -9    4    3      0.06      0.00
    9    4    3      0.14      0.00
   -9    5    3      0.38      0.00
    9    5    3      1.79      0.00
   -8    7    3      1.95      0.00
    8    7    3      0.96      0.00
   -8    8    3     -0.51      0.00
    8    8    3      0.78      0.00
   -7    9    3      0.53      0.00
    7    9    3      2.29      0.00
   -7   10    3      0.85      0.00
    7   10    3      1.45      0.00
   -6   11    3     -0.66      0.00
    6   11    3      0.42      0.00
   -6   12    3      1.24      0.00
   -5   12    3      0.98      0.00
    5   12    3      0.51      0.00
    6   12    3     -1.33      0.00
   -5   13    3      1.70      0.00
   -4   13    3     -0.81      0.00
    4   13    3      1.59      0.00
    5   13    3      0.01      0.00
   -4   14    3     -1.50      0.00
   -3   14    3     -0.65      0.00
    2   14    3      0.64      0.00
    3   14    3     -0.51      0.00
    4   14    3      1.42      0.00
   -2   15    3      0.51      0.00
   -1   15    3      0.70      0.00
    0   15    3      2.67      0.00
    1   15    3      0.12      0.00
    2   15    3      0.50      0.00
   -9    1    4      0.01      0.00
    9    1    4     -1.41      0.00
   -9    2    4      0.98      0.00
    9    2    4     -0.07      0.00
   -9    3    4      0.33      0.00
    9    3    4     -0.75      0.00
   -9    4    4      2.48      0.00
    9    4    4     -0.49      0.00
   -9    5    4     -0.18      0.00
    9    5    4      0.63      0.00
   -8    7    4      0.31      0.00
    8    7    4      0.04      0.00
   -8    8    4      0.53      0.00
    8    8    4     -0.28      0.00
   -7    9    4     -0.14      0.00
    7    9    4      0.43      0.00
   -7   10    4      0.94      0.00
    7   10    4     -0.64      0.00
   -6   11    4     -0.01      0.00
    6   11    4     -0.57      0.00
   -6   12    4      1.43      0.00
   -5   12    4      1.56      0.00
    5   12    4     -0.43      0.00
    6   12    4     -0.13      0.00
   -5   13    4     -0.31      0.00
   -4   13    4      1.73      0.00
    4   13    4     -1.02      0.00
    5   13    4      0.50      0.00
   -4   14    4      1.32      0.00
   -3   14    4     -0.28      0.00
   -2   14    4     -1.31      0.00
    2   14    4      0.53      0.00
    3   14    4      0.88      0.00
    4   14    4      0.19      0.00
   -2   15    4     -0.24      0.00
   -1   15    4     -1.59      0.00
    0   15    4      0.34      0.00
    1   15    4      0.64      0.00
    2   15    4     -0.55      0.00
   -9    0    5      1.86      0.00
    9    0    5      0.72      0.00
   -9    1    5      0.48      0.00
    9    1    5     -0.49      0.00
   -9    2    5      0.32      0.00
    9    2    5      0.08      0.00
   -9    3    5     -0.53      0.00
    9    3    5     -0.22      0.00
   -9    4    5     -0.35      0.00
    9    4    5      1.02      0.00
   -9    5    5     -0.65      0.00
    9    5    5     -0.54      0.00
   -8    6    5     -0.99      0.00
    8    6    5     -1.74      0.00
   -8    7    5      0.64      0.00
    8    7    5     -0.33      0.00
   -8    8    5     -0.17      0.00
    8    8    5     -0.72      0.00
   -7    9    5      1.34      0.00
    7    9    5      0.96      0.00
   -7   10    5      0.58      0.00
    7   10    5      0.62      0.00
   -6   11    5      1.10      0.00
    6   11    5      1.45      0.00
   -5   12    5      1.72      0.00
    5   12    5     -0.71      0.00
   -5   13    5      1.03      0.00
   -4   13    5     -0.96      0.00
    4   13    5     -0.44      0.00
    5   13    5     -0.49      0.00
   -3   14    5      0.36      0.00
   -2   14    5      0.78      0.00
   -1   14    5      1.06      0.00
    1   14    5     -0.35      0.00
    2   14    5      0.36      0.00
    3   14    5     -0.20      0.00
   -2   15    5     -0.19      0.00
   -1   15    5      0.27      0.00
    0   15    5     -0.15      0.00
    1   15    5     -0.52      0.00
    2   15    5      0.68      0.00
   -9    1    6     -0.63      0.00
    9    1    6     -0.74      0.00
   -9    2    6     -1.85      0.00
    9    2    6      0.54      0.00
   -9    3    6      0.92      0.00
    9    3    6     -0.85      0.00
   -9    4    6      1.95      0.00
    9    4    6      0.94      0.00
   -8    6    6      0.65      0.00
    8    6    6      1.83      0.00
   -8    7    6      0.33      0.00
    8    7    6      0.88      0.00
   -8    8    6      0.09      0.00
   -7    9    6     -3.17      0.00
    7    9    6     -0.42      0.00
   -7   10    6      0.53      0.00
   -6   10    6     -1.10      0.00
    6   10    6     -1.30      0.00
    7   10    6      0.24      0.00
   -6   11    6     -1.07      0.00
    6   11    6     -0.22      0.00
   -5   12    6      1.32      0.00
    5   12    6      1.81      0.00
   -4   13    6      0.89      0.00
    4   13    6     -1.18      0.00
   -3   14    6      1.05      0.00
   -2   14    6     -1.56      0.00
   -1   14    6      0.15      0.00
    0   14    6      1.25      0.00
    1   14    6      0.25      0.00
    2   14    6      0.09      0.00
    3   14    6      0.68      0.00
   -1   15    6     -1.45      0.00
    0   15    6      0.67      0.00
    1   15    6      1.03      0.00
   -9    0    7      1.36      0.00
    9    0    7      0.23      0.00
   -9    1    7      0.90      0.00
    9    1    7     -0.55      0.00
   -9    2    7      1.37      0.00
    9    2    7      0.10      0.00
   -9    3    7      1.02      0.00
    9    3    7     -1.82      0.00
   -8    5    7     -1.04      0.00
    8    5    7     -1.81      0.00
   -8    6    7     -1.59      0.00
    8    6    7     -0.46      0.00
   -8    7    7     -0.19      0.00
    8    7    7     -0.96      0.00
   -7    8    7      3.34      0.00
    7    8    7      0.17      0.00
   -7    9    7      1.33      0.00
    7    9    7     -0.09      0.00
   -6   10    7     -0.17      0.00
    6   10    7     -1.16      0.00
   -6   11    7      1.26      0.00
    6   11    7      0.67      0.00
   -5   12    7      1.05      0.00
    5   12    7      0.25      0.00
   -4   13    7      0.69      0.00
   -3   13    7     -0.35      0.00
    3   13    7     -1.92      0.00
    4   13    7     -0.52      0.00
   -3   14    7      0.13      0.00
   -2   14    7     -0.59      0.00
   -1   14    7     -0.01      0.00
    0   14    7     -1.28      0.00
    1   14    7     -0.22      0.00
    2   14    7     -0.14      0.00
    3   14    7     -0.47      0.00
   -9    1    8     -0.26      0.00
    9    1    8     -0.71      0.00
   -9    2    8     -0.99      0.00
    9    2    8      1.12      0.00
   -8    4    8     -1.16      0.00
    8    4    8      1.06      0.00
   -8    5    8      0.68      0.00
    8    5    8      0.58      0.00
   -8    6    8      1.15      0.00
    8    6    8      2.19      0.00
   -8    7    8      0.52      0.00
    8    7    8     -0.87      0.00
   -7    8    8     -0.71      0.00
    7    8    8     -0.99      0.00
   -7    9    8     -1.80      0.00
    7    9    8     -0.68      0.00
   -6   10    8     -0.67      0.00
    6   10    8     -0.80      0.00
   -6   11    8      0.52      0.00
   -5   11    8     -0.12      0.00
    5   11    8      0.20      0.00
    6   11    8      0.73      0.00
   -5   12    8      0.30      0.00
   -4   12    8     -1.17      0.00
    4   12    8      0.60      0.00
    5   12    8      1.51      0.00
   -4   13    8      0.65      0.00
   -3   13    8     -0.81      0.00
   -2   13    8      0.63      0.00
    2   13    8     -0.15      0.00
    3   13    8      0.26      0.00
    4   13    8     -1.07      0.00
   -2   14    8     -0.55      0.00
   -1   14    8      0.54      0.00
    0   14    8      1.48      0.00
    1   14    8      0.04      0.00
    2   14    8     -0.41      0.00
   -8    2    9      1.99      0.00
    8    2    9     -0.44      0.00
   -8    3    9     -0.24      0.00
    8    3    9     -1.09      0.00
   -8    4    9      1.25      0.00
    8    4    9     -1.38      0.00
   -8    5    9     -0.59      0.00
    8    5    9     -1.14      0.00
   -8    6    9     -0.24      0.00
    8    6    9      0.02      0.00
   -7    7    9      2.26      0.00
    7    7    9     -0.01      0.00
   -7    8    9      1.53      0.00
    7    8    9      0.40      0.00
   -6    9    9      0.54      0.00
    6    9    9     -0.09      0.00
   -6   10    9     -0.78      0.00
    6   10    9     -0.96      0.00
   -5   11    9      0.91      0.00
    5   11    9     -0.28      0.00
   -4   12    9      0.32      0.00
    4   12    9      0.46      0.00
   -3   13    9      0.42      0.00
   -2   13    9     -1.08      0.00
   -1   13    9     -0.11      0.00
    1   13    9     -2.07      0.00
    2   13    9      0.08      0.00
    3   13    9     -0.98      0.00
   -2   14    9     -1.24      0.00
   -1   14    9     -0.28      0.00
    0   14    9     -1.04      0.00
    1   14    9     -0.01      0.00
    2   14    9     -1.29      0.00
   -8    0   10      2.19      0.00
    8    0   10      2.40      0.00
   -8    1   10     -0.71      0.00
    8    1   10      1.98      0.00
   -8    2   10      1.06      0.00
    8    2   10      1.97      0.00
   -8    3   10     -1.14      0.00
    8    3   10      0.79      0.00
   -8    4   10     -1.13      0.00
    8    4   10      1.19      0.00
   -8    5   10     -0.62      0.00
    8    5   10      0.62      0.00
   -7    6   10     -1.63      0.00
    7    6   10     -0.02      0.00
   -7    7   10      0.22      0.00
    7    7   10     -0.80      0.00
   -7    8   10     -0.64      0.00
    7    8   10     -0.33      0.00
   -6    9   10      1.59      0.00
    6    9   10     -0.78      0.00
   -6   10   10      0.49      0.00
   -5   10   10     -0.13      0.00
    5   10   10     -1.58      0.00
    6   10   10      0.00      0.00
   -5   11   10      0.37      0.00
   -4   11   10     -0.36      0.00
    4   11   10     -0.06      0.00
    5   11   10     -0.80      0.00
   -4   12   10     -1.15      0.00
   -3   12   10     -0.99      0.00
    3   12   10     -0.23      0.00
    4   12   10     -0.62      0.00
   -3   13   10      0.25      0.00
   -2   13   10      0.74      0.00
   -1   13   10     -0.99      0.00
    0   13   10     -1.23      0.00
    1   13   10     -2.60      0.00
    2   13   10      0.44      0.00
    3   13   10     -0.20      0.00
    0   14   10      1.52      0.00
   -8    1   11     -1.16      0.00
    8    1   11     -0.95      0.00
   -8    2   11      1.31      0.00
    8    2   11     -0.60      0.00
   -8    3   11      0.51      0.00
    8    3   11     -0.68      0.00
   -8    4   11      1.48      0.00
    8    4   11     -0.47      0.00
   -7    5   11      0.64      0.00
    7    5   11     -0.85      0.00
   -7    6   11     -0.25      0.00
    7    6   11     -0.10      0.00
   -7    7   11      0.17      0.00
    7    7   11      0.19      0.00
   -6    8   11     -1.87      0.00
    6    8   11      1.84      0.00
   -6    9   11     -0.48      0.00
    6    9   11      0.16      0.00
   -5   10   11     -0.55      0.00
    5   10   11      0.63      0.00
   -5   11   11     -0.03      0.00
   -4   11   11     -1.08      0.00
    4   11   11      1.76      0.00
    5   11   11     -0.57      0.00
   -4   12   11      1.27      0.00
   -3   12   11     -0.18      0.00
   -2   12   11     -2.32      0.00
    2   12   11      1.01      0.00
    3   12   11     -0.74      0.00
    4   12   11      0.77      0.00
   -2   13   11     -0.40      0.00
   -1   13   11      1.44      0.00
    0   13   11     -1.41      0.00
    1   13   11     -1.51      0.00
    2   13   11      0.24      0.00
   -8    0   12      1.41      0.00
    8    0   12     -0.80      0.00
   -8    1   12     -0.21      0.00
    8    1   12      2.00      0.00
   -8    2   12     -0.06      0.00
    8    2   12      1.71      0.00
   -7    4   12      0.54      0.00
    7    4   12      1.23      0.00
   -7    5   12      0.20      0.00
    7    5   12     -0.11      0.00
   -7    6   12     -0.09      0.00
    7    6   12      0.14      0.00
   -6    7   12      0.54      0.00
    6    7   12      1.27      0.00
   -6    8   12      1.07      0.00
    6    8   12     -0.30      0.00
   -6    9   12      0.35      0.00
   -5    9   12      1.59      0.00
    5    9   12     -0.74      0.00
    6    9   12     -0.50      0.00
   -5   10   12      0.13      0.00
   -4   10   12     -0.32      0.00
    4   10   12     -0.38      0.00
    5   10   12     -0.53      0.00
   -4   11   12     -0.84      0.00
   -3   11   12     -0.58      0.00
    3   11   12      0.64      0.00
    4   11   12      0.47      0.00
   -3   12   12     -1.63      0.00
   -2   12   12      0.60      0.00
   -1   12   12     -1.22      0.00
    0   12   12     -0.62      0.00
    1   12   12      1.96      0.00
    2   12   12     -0.08      0.00
    3   12   12     -0.66      0.00
   -1   13   12     -1.22      0.00
    0   13   12     -0.20      0.00
    1   13   12     -2.76      0.00
   -7    0   13      0.76      0.00
    7    0   13      3.40      0.00
   -7    1   13      1.58      0.00
    7    1   13      1.62      0.00
   -7    2   13     -0.20      0.00
    7    2   13     -0.68      0.00
   -7    3   13      1.38      0.00
    7    3   13     -1.82      0.00
   -7    4   13      0.31      0.00
    7    4   13     -0.32      0.00
   -7    5   13      0.69      0.00
    7    5   13     -0.46      0.00
   -6    6   13     -0.42      0.00
    6    6   13     -0.45      0.00
   -6    7   13      0.11      0.00
    6    7   13     -0.12      0.00
   -6    8   13     -0.29      0.00
   -5    8   13     -0.56      0.00
    5    8   13     -0.83      0.00
    6    8   13      0.19      0.00
   -5    9   13      0.98      0.00
    5    9   13     -0.25      0.00
   -4   10   13      0.31      0.00
    4   10   13     -1.29      0.00
   -3   11   13      1.06      0.00
   -2   11   13     -0.09      0.00
    2   11   13     -3.37      0.00
    3   11   13     -1.67      0.00
   -2   12   13     -2.71      0.00
   -1   12   13     -0.65      0.00
    0   12   13     -3.02      0.00
    1   12   13      0.97      0.00
    2   12   13      0.26      0.00
   -7    1   14     -0.63      0.00
    7    1   14     -0.89      0.00
   -7    2   14     -0.92      0.00
    7    2   14      0.58      0.00
   -7    3   14     -0.48      0.00
    7    3   14      1.30      0.00
   -7    4   14     -0.24      0.00
    7    4   14      1.27      0.00
   -6    5   14     -1.38      0.00
    6    5   14      0.22      0.00
   -6    6   14     -1.10      0.00
    6    6   14      0.85      0.00
   -6    7   14      0.48      0.00
   -5    7   14     -0.75      0.00
    5    7   14     -1.78      0.00
    6    7   14      0.27      0.00
   -5    8   14     -0.58      0.00
    5    8   14      0.25      0.00
   -5    9   14      1.61      0.00
   -4    9   14      0.79      0.00
    4    9   14      0.50      0.00
    5    9   14      1.38      0.00
   -4   10   14     -0.35      0.00
   -3   10   14      0.13      0.00
   -2   10   14      3.25      0.00
    2   10   14      0.94      0.00
    3   10   14      1.16      0.00
    4   10   14      0.37      0.00
   -3   11   14     -0.43      0.00
   -2   11   14      0.27      0.00
   -1   11   14      0.00      0.00
    0   11   14      1.38      0.00
    1   11   14      0.33      0.00
    2   11   14     -1.33      0.00
    3   11   14     -0.59      0.00
   -1   12   14     -0.80      0.00
    0   12   14      1.05      0.00
    1   12   14      1.76      0.00
   -7    0   15      0.08      0.00
    7    0   15      3.20      0.00
   -7    1   15      1.00      0.00
    7    1   15      0.49      0.00
   -7    2   15      0.23      0.00
   -6    2   15     -1.12      0.00
    6    2   15      1.01      0.00
    7    2   15     -0.78      0.00
   -6    3   15      0.72      0.00
    6    3   15      0.79      0.00
   -6    4   15      0.88      0.00
    6    4   15      1.82      0.00
   -6    5   15      0.48      0.00
    6    5   15      1.07      0.00
   -6    6   15     -1.11      0.00
   -5    6   15      0.88      0.00
    5    6   15      1.48      0.00
    6    6   15     -0.43      0.00
   -5    7   15      0.74      0.00
    5    7   15     -0.60      0.00
   -5    8   15      0.33      0.00
   -4    8   15      0.57      0.00
    4    8   15      0.51      0.00
    5    8   15     -0.56      0.00
   -4    9   15      0.65      0.00
   -3    9   15      0.96      0.00
    3    9   15      0.71      0.00
    4    9   15      0.28      0.00
   -3   10   15      0.17      0.00
   -2   10   15     -0.54      0.00
   -1   10   15      1.79      0.00
    0   10   15     -0.23      0.00
    1   10   15      0.63      0.00
    2   10   15      0.32      0.00
    3   10   15     -0.06      0.00
   -2   11   15     -1.09      0.00
   -1   11   15      1.40      0.00
    0   11   15     -0.45      0.00
    1   11   15     -0.35      0.00
    2   11   15     -1.94      0.00
   -6    0   16      0.96      0.00
    6    0   16      2.13      0.00
   -6    1   16     -0.75      0.00
    6    1   16     -2.09      0.00
   -6    2   16     -0.84      0.00
    6    2   16     -0.83      0.00
   -6    3   16     -0.24      0.00
    6    3   16      0.23      0.00
   -6    4   16     -0.22      0.00
   -5    4   16      2.25      0.00
    5    4   16      0.07      0.00
    6    4   16     -0.39      0.00
   -5    5   16     -2.40      0.00
    5    5   16     -0.13      0.00
   -5    6   16     -0.38      0.00
    5    6   16     -0.14      0.00
   -5    7   16     -1.65      0.00
   -4    7   16     -1.10      0.00
    4    7   16      1.13      0.00
    5    7   16     -0.80      0.00
   -4    8   16      1.06      0.00
   -3    8   16      0.58      0.00
    3    8   16      0.30      0.00
    4    8   16      0.65      0.00
   -3    9   16      1.20      0.00
   -2    9   16      1.51      0.00
   -1    9   16     -0.56      0.00
    0    9   16      1.00      0.00
    1    9   16     -1.28      0.00
    2    9   16      0.49      0.00
    3    9   16     -1.40      0.00
   -2   10   16      3.05      0.00
   -1   10   16     -0.56      0.00
    0   10   16     -0.30      0.00
    1   10   16     -0.58      0.00
    2   10   16      0.48      0.00
   -5    0   17      1.63      0.00
    5    0   17     -2.70      0.00
   -6    1   17     -0.09      0.00
   -5    1   17      0.27      0.00
    5    1   17     -2.32      0.00
    6    1   17      0.03      0.00
   -6    2   17     -0.31      0.00
   -5    2   17      0.37      0.00
    5    2   17     -0.19      0.00
    6    2   17      0.43      0.00
   -5    3   17     -1.06      0.00
    5    3   17      1.35      0.00
   -5    4   17     -0.37      0.00
    5    4   17     -1.14      0.00
   -5    5   17     -1.24      0.00
   -4    5   17     -2.14      0.00
    4    5   17      0.76      0.00
    5    5   17      0.10      0.00
   -4    6   17     -1.96      0.00
    4    6   17      0.07      0.00
   -4    7   17     -1.40      0.00
   -3    7   17     -0.12      0.00
    3    7   17      0.34      0.00
    4    7   17     -1.95      0.00
   -3    8   17     -0.50      0.00
   -2    8   17     -1.38      0.00
   -1    8   17      0.51      0.00
    0    8   17     -1.40      0.00
    1    8   17     -1.47      0.00
    2    8   17     -1.89      0.00
    3    8   17     -0.34      0.00
   -2    9   17     -0.75      0.00
   -1    9   17      0.12      0.00
    0    9   17     -0.63      0.00
    1    9   17     -0.45      0.00
    2    9   17     -0.96      0.00
    0   10   17     -0.62      0.00
   -5    1   18     -0.01      0.00
    5    1   18      1.38      0.00
   -5    2   18      0.77      0.00
   -4    2   18      1.39      0.00
    4    2   18      2.41      0.00
    5    2   18      0.39      0.00
   -5    3   18      1.18      0.00
   -4    3   18      1.32      0.00
    4    3   18      0.07      0.00
    5    3   18      0.60      0.00
   -5    4   18      0.63      0.00
   -4    4   18      0.43      0.00
    4    4   18     -1.27      0.00
    5    4   18     -0.24      0.00
   -4    5   18      1.28      0.00
   -3    5   18      3.52      0.00
    3    5   18      1.07      0.00
    4    5   18     -1.56      0.00
   -4    6   18      1.03      0.00
   -3    6   18      1.52      0.00
   -2    6   18      1.60      0.00
    2    6   18      0.88      0.00
    3    6   18     -0.12      0.00
    4    6   18      0.11      0.00
   -3    7   18      2.17      0.00
   -2    7   18      0.26      0.00
   -1    7   18      0.76      0.00
    0    7   18     -0.68      0.00
    1    7   18      0.80      0.00
    2    7   18     -0.21      0.00
    3    7   18      0.97      0.00
   -2    8   18      0.04      0.00
   -1    8   18     -1.42      0.00
    0    8   18      0.59      0.00
    1    8   18      0.09      0.00
    2    8   18     -0.23      0.00
    0    9   18      0.91      0.00
   -4    1   19     -0.57      0.00
    4    1   19     -1.22      0.00
   -4    2   19      0.88      0.00
   -3    2   19     -0.79      0.00
    3    2   19     -0.07      0.00
    4    2   19      1.07      0.00
   -4    3   19      0.30      0.00
   -3    3   19     -0.12      0.00
    3    3   19      0.82      0.00
    4    3   19      0.10      0.00
   -4    4   19      0.30      0.00
   -3    4   19     -1.05      0.00
   -2    4   19     -0.04      0.00
    2    4   19      0.89      0.00
    3    4   19      0.00      0.00
    4    4   19      0.44      0.00
   -3    5   19     -1.86      0.00
   -2    5   19     -1.72      0.00
   -1    5   19      1.55      0.00
    1    5   19      2.96      0.00
    2    5   19     -0.54      0.00
    3    5   19     -0.68      0.00
   -3    6   19     -3.20      0.00
   -2    6   19      2.08      0.00
   -1    6   19     -0.98      0.00
    0    6   19      0.71      0.00
    1    6   19     -0.88      0.00
    2    6   19      1.27      0.00
    3    6   19     -1.05      0.00
   -2    7   19      0.44      0.00
   -1    7   19      0.46      0.00
    0    7   19     -1.27      0.00
    1    7   19      0.09      0.00
    2    7   19      0.32      0.00
   -4    0   20     -0.28      0.00
   -2    0   20      0.74      0.00
    2    0   20      2.18      0.00
    4    0   20      0.40      0.00
   -4    1   20      0.03      0.00
   -3    1   20     -1.02      0.00
   -2    1   20     -1.86      0.00
    2    1   20     -0.62      0.00
    3    1   20      1.01      0.00
    4    1   20     -0.45      0.00
   -3    2   20     -0.60      0.00
   -2    2   20     -0.64      0.00
   -1    2   20      0.68      0.00
    1    2   20      0.16      0.00
    2    2   20     -1.29      0.00
    3    2   20     -0.76      0.00
   -3    3   20      1.23      0.00
   -2    3   20      1.10      0.00
   -1    3   20      0.37      0.00
    0    3   20     -2.26      0.00
    1    3   20     -0.43      0.00
    2    3   20     -0.59      0.00
    3    3   20     -1.29      0.00
   -3    4   20      1.31      0.00
   -2    4   20     -0.07      0.00
   -1    4   20      0.59      0.00
    0    4   20      1.86      0.00
    1    4   20     -1.04      0.00
    2    4   20     -0.39      0.00
    3    4   20     -0.68      0.00
   -2    5   20     -2.59      0.00
   -1    5   20      0.09      0.00
    0    5   20      0.13      0.00
    1    5   20     -0.63      0.00
    2    5   20     -0.74      0.00
   -1    6   20     -0.45      0.00
    0    6   20      0.95      0.00
    1    6   20     -1.00      0.00
   -1    0   21     -1.06      0.00
    1    0   21      0.98      0.00
   -2    1   21     -0.72      0.00
   -1    1   21     -0.08      0.00
    0    1   21     -0.76      0.00
    1    1   21     -0.64      0.00
    2    1   21     -0.59      0.00
   -2    2   21     -0.73      0.00
   -1    2   21      0.11      0.00
    0    2   21     -0.45      0.00
    1    2   21      0.46      0.00
    2    2   21     -0.62      0.00
   -2    3   21      2.37      0.00
   -1    3   21     -0.40      0.00
    0    3   21     -0.18      0.00
    1    3   21     -1.21      0.00
    2    3   21     -0.16      0.00
   -1    4   21      1.48      0.00
    0    4   21      0.72      0.00
    1    4   21      0.17      0.00
    0    0    0      0.00      0.00
# SQUEEZE RESULTS (Version =  90920)
# Note: Data are Listed for all Voids in the P1 Unit Cell
# i.e. Centre of Gravity, Solvent Accessible Volume,
# Recovered number of Electrons in the Void and
# Details about the Squeezed Material
loop_
  _platon_squeeze_void_nr
  _platon_squeeze_void_average_x
  _platon_squeeze_void_average_y
  _platon_squeeze_void_average_z
  _platon_squeeze_void_volume
  _platon_squeeze_void_count_electrons
  _platon_squeeze_void_content
   1 -0.027  0.017  0.000       459       148 '3 (C4 H5 N)'
   2 -0.055 -0.002  0.500       453       148 '3 (C4 H5 N)'
_platon_squeeze_void_probe_radius                  1.20
_platon_squeeze_details
)
TITL P21n
CELL    7.4854   12.0766   16.8284     90.00     90.09     90.00
SPGR P21/n
# Solvent Accessible Volume =       915
# Electrons Found in S.A.V. =       296
# Note: Atoms in Void are Labelled as Cxxx and Qxxx for all Others
C101 0.481 0.815 0.418 !       3.73 eA-3
C102 0.886 0.658 0.980 !       3.44 eA-3
C103 0.555 0.196 0.455 !       3.42 eA-3
C104 0.439 0.284 0.467 !       3.27 eA-3
C105 0.580 0.711 0.455 !       3.00 eA-3
C106 0.956 0.978 0.441 !       2.78 eA-3
C107 0.544 0.457 0.940 !       2.42 eA-3
C108 0.390 0.582-0.001 !       2.25 eA-3
C109 0.915 0.754 0.951 !       1.80 eA-3
C110 0.895 0.358 0.013 !       1.68 eA-3
Q111 0.122 0.453 0.450 !       1.23 eA-3
Q112 0.351 0.921 0.968 !       1.08 eA-3
C113 0.444 0.028 0.548 !       1.04 eA-3
C114 0.839 0.074 0.499 !       0.96 eA-3
C115 0.385 0.843 0.607 !       0.94 eA-3
Q116 0.869 0.446 0.621 !       0.90 eA-3
Q117 0.224 0.923 0.065 !       0.89 eA-3
C118 0.022 0.582 0.986 !       0.89 eA-3
Q119 0.442 0.894 0.340 !       0.84 eA-3
Q120 1.004 0.931 0.702 !       0.81 eA-3
C121 0.260 0.109 0.551 !       0.81 eA-3
Q122 0.344 0.041 0.701 !       0.80 eA-3
Q123 0.359 0.364 0.376 !       0.76 eA-3
C124 0.811 0.826 0.472 !       0.75 eA-3
Q125 0.463 0.428 0.860 !       0.75 eA-3
Q126 0.942 0.430 0.579 !       0.74 eA-3
Q127 0.921 0.703 0.512 !       0.74 eA-3
Q128 0.288 0.609 0.890 !       0.73 eA-3
Q129 0.780 0.819 0.411 !       0.72 eA-3
C130 0.666 0.030 0.433 !       0.72 eA-3
Q131 0.517 0.517 0.172 !       0.71 eA-3
Q132 0.501 0.935 0.878 !       0.70 eA-3
Q133 0.288 0.066 0.831 !       0.69 eA-3
Q134 0.363 0.544 0.142 !       0.69 eA-3
Q135 0.358 0.422 0.389 !       0.68 eA-3
Q136 0.286 0.439 0.495 !       0.68 eA-3
Q137 0.586 0.708 0.317 !       0.68 eA-3
Q138 0.399 0.563 0.189 !       0.68 eA-3
Q139 0.060 0.812 0.829 !       0.68 eA-3
Q140 0.417 0.271 0.657 !       0.67 eA-3
Q141 0.074 0.112 0.640 !       0.67 eA-3
Q142 0.058 0.578 0.247 !       0.65 eA-3
C143 0.427 0.603 0.141 !       0.65 eA-3
C144 0.202 0.281 0.933 !       0.64 eA-3
Q145 0.568 0.202 0.677 !       0.64 eA-3
C146 0.462 0.029 0.471 !       0.64 eA-3
C147 0.639 1.001 0.501 !       0.64 eA-3
C148 0.172 0.578 0.904 !       0.63 eA-3
Q149 0.283 0.360 0.376 !       0.62 eA-3
Q150 0.645 0.165 0.311 !       0.62 eA-3
C151 0.968 0.624 0.142 !       0.62 eA-3
Q152 0.853 0.633 0.235 !       0.61 eA-3
C153 0.319 0.956 0.436 !       0.61 eA-3
Q154 0.177 0.410 0.140 !       0.61 eA-3
C155 0.774 0.798 0.515 !       0.60 eA-3
Q156 0.175 0.269 0.893 !       0.60 eA-3
Q157 0.934 0.971 0.982 !       0.59 eA-3
Q158 0.044 0.168 0.126 !       0.59 eA-3
Q159 0.939 0.717 0.589 !       0.58 eA-3
Q160 0.083 0.067 0.934 !       0.58 eA-3
Q161 0.215 0.367 0.127 !       0.56 eA-3
Q162 0.864 0.417 0.393 !       0.56 eA-3
Q163 0.168 0.032 0.644 !       0.56 eA-3
Q164 0.712 0.279 0.502 !       0.56 eA-3
Q165 0.125 0.769 0.472 !       0.55 eA-3
C166 0.500 1.000 0.500 !       0.53 eA-3
Q167 0.215 0.102 0.671 !       0.53 eA-3
Q168 0.039 0.432 0.170 !       0.53 eA-3
Q169 1.002 0.769 0.533 !       0.51 eA-3
Q170 0.425 0.387 0.653 !       0.51 eA-3
Q171 0.368 0.747 0.957 !       0.51 eA-3
Q172 0.938 0.666 0.715 !       0.51 eA-3
Q173 0.104 0.601 0.328 !       0.51 eA-3
Q174 0.768 0.060 0.849 !       0.51 eA-3
C175 0.562 0.989 0.578 !       0.51 eA-3
Q176 0.065 0.260 0.315 !       0.50 eA-3
Q177 0.309 0.773 0.378 !       0.50 eA-3
Q178 0.661 0.189 0.265 !       0.50 eA-3
C179 0.721 0.493 0.920 !       0.50 eA-3
)
;
_shelx_fab_checksum              56333
loop_
_space_group_symop_operation_xyz
'x, y, z'
'-x+1/2, y+1/2, -z+1/2'
'-x, -y, -z'
'x-1/2, -y-1/2, z-1/2'
loop_
_atom_site_label
_atom_site_type_symbol
_atom_site_fract_x
_atom_site_fract_y
_atom_site_fract_z
_atom_site_U_iso_or_equiv
_atom_site_adp_type
_atom_site_occupancy
_atom_site_site_symmetry_order
_atom_site_calc_flag
_atom_site_refinement_flags_posn
_atom_site_refinement_flags_adp
_atom_site_refinement_flags_occupancy
_atom_site_disorder_assembly
_atom_site_disorder_group
S1 S 0.0081(3) 0.53313(11) 0.31497(9) 0.0619(5) Uani 1 1 d . . . . .
O1 O 0.0029(7) 0.4217(3) 0.2801(2) 0.0675(12) Uani 1 1 d . . . . .
O2 O 0.1646(6) 0.5955(4) 0.2957(3) 0.0603(13) Uani 1 1 d . . . . .
O3 O -0.1555(6) 0.5942(4) 0.2963(3) 0.0716(15) Uani 1 1 d . . . . .
N1 N 0.5036(10) 0.4825(4) 0.2805(3) 0.0678(14) Uani 1 1 d . . . . .
H1 H 0.401341 0.517281 0.286841 0.081 Uiso 1 1 calc R U . . .
H2 H 0.604952 0.517969 0.287873 0.081 Uiso 1 1 calc R U . . .
N2 N 0.3509(8) 0.3262(5) 0.2495(3) 0.0649(17) Uani 1 1 d . . . . .
H3 H 0.249915 0.362373 0.256106 0.078 Uiso 1 1 calc R U . . .
H4 H 0.349145 0.255857 0.235871 0.078 Uiso 1 1 calc R U . . .
N3 N 0.6611(9) 0.3239(5) 0.2476(3) 0.0690(18) Uani 1 1 d . . . . .
H5 H 0.763024 0.359386 0.253082 0.083 Uiso 1 1 calc R U . . .
H6 H 0.660686 0.253542 0.233983 0.083 Uiso 1 1 calc R U . . .
C1 C 0.0115(12) 0.5164(5) 0.4189(3) 0.0565(14) Uani 1 1 d . . . . .
C2 C 0.1178(12) 0.5743(7) 0.4685(5) 0.084(2) Uani 1 1 d . . . . .
H7 H 0.195439 0.628575 0.446693 0.101 Uiso 1 1 calc R U . . .
C3 C -0.1186(11) 0.4416(6) 0.4512(5) 0.082(2) Uani 1 1 d . . . . .
H8 H -0.202154 0.404709 0.417871 0.098 Uiso 1 1 calc R U . . .
C4 C 0.5050(12) 0.3775(5) 0.2602(3) 0.0617(15) Uani 1 1 d . . . . .
loop_
_atom_site_aniso_label
_atom_site_aniso_U_11
_atom_site_aniso_U_22
_atom_site_aniso_U_33
_atom_site_aniso_U_23
_atom_site_aniso_U_13
_atom_site_aniso_U_12
S1 0.0698(10) 0.0590(9) 0.0569(9) 0.0023(6) -0.0023(13) 0.0026(10)
O1 0.078(3) 0.056(2) 0.069(3) -0.0042(18) -0.003(3) -0.003(3)
O2 0.061(3) 0.058(3) 0.062(3) 0.004(2) 0.003(2) -0.014(2)
O3 0.070(3) 0.081(4) 0.064(3) 0.004(3) 0.003(3) 0.000(3)
N1 0.068(3) 0.058(3) 0.077(3) -0.011(2) -0.001(4) -0.001(4)
N2 0.066(4) 0.064(4) 0.065(4) -0.013(3) -0.003(3) 0.007(3)
N3 0.083(5) 0.062(4) 0.062(4) -0.006(3) -0.007(3) 0.006(3)
C1 0.065(4) 0.057(3) 0.048(3) 0.004(2) 0.000(4) -0.002(4)
C2 0.106(6) 0.090(5) 0.057(4) 0.001(4) 0.002(4) -0.041(5)
C3 0.088(6) 0.078(5) 0.080(5) -0.011(4) 0.002(5) -0.021(4)
C4 0.076(4) 0.066(3) 0.043(3) -0.011(3) 0.007(4) -0.006(5)
loop_
_atom_type_symbol
_atom_type_description
_atom_type_scat_dispersion_real
_atom_type_scat_dispersion_imag
_atom_type_scat_source
C C 0.0181 0.0091 'International Tables Vol C Tables 4.2.6.8 and 6.1.1.4'
H H 0.0000 0.0000 'International Tables Vol C Tables 4.2.6.8 and 6.1.1.4'
N N 0.0311 0.0180 'International Tables Vol C Tables 4.2.6.8 and 6.1.1.4'
O O 0.0492 0.0322 'International Tables Vol C Tables 4.2.6.8 and 6.1.1.4'
S S 0.3331 0.5567 'International Tables Vol C Tables 4.2.6.8 and 6.1.1.4'
loop_
_geom_angle_atom_site_label_1
_geom_angle_atom_site_label_2
_geom_angle_atom_site_label_3
_geom_angle
_geom_angle_site_symmetry_1
_geom_angle_site_symmetry_3
_geom_angle_publ_flag
O2 S1 O3 111.8(2) . . ?
O2 S1 O1 114.4(3) . . ?
O3 S1 O1 110.8(3) . . ?
O2 S1 C1 106.0(4) . . ?
O3 S1 C1 106.4(4) . . ?
O1 S1 C1 107.0(3) . . ?
C4 N1 H1 120.0 . . ?
C4 N1 H2 120.0 . . ?
H1 N1 H2 120.0 . . ?
C4 N2 H3 120.0 . . ?
C4 N2 H4 120.0 . . ?
H3 N2 H4 120.0 . . ?
C4 N3 H5 120.0 . . ?
C4 N3 H6 120.0 . . ?
H5 N3 H6 120.0 . . ?
C2 C1 C3 119.5(6) . . ?
C2 C1 S1 124.3(6) . . ?
C3 C1 S1 116.0(6) . . ?
C1 C2 C3 122.8(7) . 3_566 ?
C1 C2 H7 118.6 . . ?
C3 C2 H7 118.6 3_566 . ?
C2 C3 C1 117.5(7) 3_566 . ?
C2 C3 H8 121.3 3_566 . ?
C1 C3 H8 121.3 . . ?
N1 C4 N2 118.7(8) . . ?
N1 C4 N3 120.6(8) . . ?
N2 C4 N3 120.6(5) . . ?
loop_
_geom_bond_atom_site_label_1
_geom_bond_atom_site_label_2
_geom_bond_distance
_geom_bond_site_symmetry_2
_geom_bond_publ_flag
S1 O2 1.431(5) . ?
S1 O3 1.463(5) . ?
S1 O1 1.468(4) . ?
S1 C1 1.761(5) . ?
N1 C4 1.314(7) . ?
N1 H1 0.8800 . ?
N1 H2 0.8800 . ?
N2 C4 1.321(9) . ?
N2 H3 0.8800 . ?
N2 H4 0.8800 . ?
N3 C4 1.352(9) . ?
N3 H5 0.8800 . ?
N3 H6 0.8800 . ?
C1 C2 1.348(10) . ?
C1 C3 1.435(10) . ?
C2 C3 1.365(11) 3_566 ?
C2 H7 0.9500 . ?
C3 H8 0.9500 . ?
loop_
_geom_torsion_atom_site_label_1
_geom_torsion_atom_site_label_2
_geom_torsion_atom_site_label_3
_geom_torsion_atom_site_label_4
_geom_torsion
_geom_torsion_site_symmetry_1
_geom_torsion_site_symmetry_2
_geom_torsion_site_symmetry_3
_geom_torsion_site_symmetry_4
_geom_torsion_publ_flag
O2 S1 C1 C2 14.1(8) . . . . ?
O3 S1 C1 C2 -105.0(8) . . . . ?
O1 S1 C1 C2 136.6(8) . . . . ?
O2 S1 C1 C3 -170.8(5) . . . . ?
O3 S1 C1 C3 70.1(6) . . . . ?
O1 S1 C1 C3 -48.4(7) . . . . ?
C3 C1 C2 C3 5.9(15) . . . 3_566 ?
S1 C1 C2 C3 -179.2(7) . . . 3_566 ?
C2 C1 C3 C2 -5.6(14) . . . 3_566 ?
S1 C1 C3 C2 179.1(6) . . . 3_566 ?
