#------------------------------------------------------------------------------
#$Date: 2021-02-05 01:04:31 +0200 (Fri, 05 Feb 2021) $
#$Revision: 261628 $
#$URL: file:///home/coder/svn-repositories/cod/cif/7/24/18/7241836.cif $
#------------------------------------------------------------------------------
#
# This file is available in the Crystallography Open Database (COD),
# http://www.crystallography.net/
#
# All data on this site have been placed in the public domain by the
# contributors.
#
data_7241836
loop_
_publ_author_name
'Gu\'nka, Piotr A.'
'Hanfland, Michael'
'Chen, Yu-Sheng'
'Zachara, Janusz'
_publ_section_title
;
 High-pressure and low-temperature structural study of claudetite I, a
 monoclinic layered As2O3 polymorph
;
_journal_issue                   3
_journal_name_full               CrystEngComm
_journal_page_first              638
_journal_page_last               644
_journal_paper_doi               10.1039/D0CE01401J
_journal_volume                  23
_journal_year                    2021
_chemical_formula_moiety         'As2 O3'
_chemical_formula_sum            'As2 O3'
_chemical_formula_weight         197.84
_chemical_name_common            'claudetite I'
_chemical_name_systematic
;
arsenic(III) oxide
;
_space_group_IT_number           14
_space_group_name_Hall           '-P 2yn'
_space_group_name_H-M_alt        'P 1 21/n 1'
_symmetry_cell_setting           monoclinic
_symmetry_space_group_name_H-M   'P 1 21/n 1'
_audit_creation_date             2020-10-21T10:52
_audit_creation_method           'created in GSAS-II'
_audit_update_record
;
2020-10-22 deposited with the CCDC.	2020-12-10 downloaded from the CCDC.
;
_cell_angle_alpha                90
_cell_angle_beta                 94.516(4)
_cell_angle_gamma                90
_cell_formula_units_Z            4
_cell_length_a                   5.1811(4)
_cell_length_b                   12.63631(18)
_cell_length_c                   4.46609(28)
_cell_measurement_pressure       1.75e6(5)
_cell_measurement_temperature    293
_cell_volume                     291.49(3)
_computing_data_reduction        Fit2D
_computing_structure_refinement
'GSAS-II (Toby & Von Dreele, J. Appl. Cryst. 46, 544-549, 2013)'
_diffrn_ambient_pressure         1.75e6(5)
_diffrn_ambient_temperature      293
_diffrn_detector                 'Mar555 flat panel'
_diffrn_detector_type            'Mar555 flat panel'
_diffrn_measurement_device_type  'ESRF ID09A beamline'
_diffrn_radiation_monochromator  Si
_diffrn_radiation_polarisn_ratio 0.9900
_diffrn_radiation_probe          x-ray
_diffrn_radiation_wavelength     0.41421
_diffrn_source                   'ESRF ID09A'
_diffrn_source_type              synchrotron
_exptl_crystal_colour            colourless
_exptl_crystal_density_diffrn    4.5083
_exptl_crystal_description       'white powder'
_pd_block_id                     2020-10-21T10:52|clau1_005rietveld||id09a
_pd_calc_method                  'Rietveld Refinement'
_pd_meas_number_of_points        4000
_pd_phase_name                   claudetiteI
_pd_prep_pressure                100.0(1)
_pd_prep_temperature             293
_pd_proc_info_datetime           2020-10-21T10:52
_pd_proc_ls_background_function
;
Background function: "chebyschev" function with 20 terms:
    704.0(14), 366(7), -773(23), -1.76(7)e3, 1.813(9)e4, 3.287(19)e4, 
    -1.4947(7)e5, -2.7552(7)e5, 5.9993(9)e5, 1.23604(19)e6, -1.346420(28)e6, 
    -3.23637(9)e6, 1.77392(8)e6, 5.09685(11)e6, -1.35750(10)e6, 
    -4.75263(21)e6, 5.5468(4)e5, 2.41667(12)e6, -9.254(13)e4, 
    -5.1624(24)e5, 
;
_pd_proc_ls_pref_orient_corr
;
Simple spherical harmonic correction Order = 6
    Coefficients:  0:0:C(4,4) = 1.015(19); 0:0:C(6,6) = 0.533(15); 
    0:0:C(6,-2) = 0.188(19); 0:0:C(2,-2) = 0.367(10); 0:0:C(4,-4) = 0.169(15); 
    0:0:C(2,2) = 0.901(11); 0:0:C(4,0) = 0.240(15); 0:0:C(6,-6) = -0.455(21); 
    0:0:C(6,4) = -0.080(22); 0:0:C(4,2) = -0.116(16); 0:0:C(6,2) = 0.129(18); 
    0:0:C(6,-4) = -0.030(18); 0:0:C(6,0) = -0.051(20); 0:0:C(2,0) = 0.515(13); 
    0:0:C(4,-2) = -0.068(15); 
;
_pd_proc_ls_profile_function
;
Finger-Cox-Jephcoat function parameters U, V, W, X, Y, SH/L:
  peak variance(Gauss) = Utan(Th)^2^+Vtan(Th)+W:
  peak HW(Lorentz) = X/cos(Th)+Ytan(Th); SH/L = S/L+H/L
  U, V, W in (centideg)^2^, X & Y in centideg
    6.0(4)e2, -99(7), 5.5(3), 0.49(9), 1.5(23), 0.002, 
  Crystallite size in microns with "isotropic" model:
  parameters: Size, G/L mix
    1.000, 1.000, 
  Microstrain, "isotropic" model (10^6^ * delta Q/Q)
    parameters: Mustrain, G/L mix
    1000.000, 1.000, 

;
_pd_proc_ls_prof_R_factor        0.01719
_pd_proc_ls_prof_wR_expected     0.03564
_pd_proc_ls_prof_wR_factor       0.02716
_refine_ls_goodness_of_fit_all   0.782
_refine_ls_matrix_type           full
_refine_ls_number_parameters     62
_refine_ls_R_Fsqd_factor         0.26726
_refine_ls_shift/su_max          0.0057
_refine_ls_wR_factor_obs         0.02743
_reflns_d_resolution_high        1.193
_reflns_d_resolution_low         6.318
_reflns_limit_h_max              4
_reflns_limit_h_min              0
_reflns_limit_k_max              10
_reflns_limit_k_min              0
_reflns_limit_l_max              3
_reflns_limit_l_min              -3
_reflns_number_total             180
_cod_data_source_file            d0ce01401j3.cif
_cod_data_source_block           clau1_005rietveld
_cod_depositor_comments
'Adding full bibliography for 7241824--7241862.cif.'
_cod_original_cell_volume        291.485(12)
_cod_database_code               7241836
_refine_ls_r_f_factor            0.08434
_gsas_proc_ls_prof_r_b_factor    0.03090
_gsas_proc_ls_prof_wr_b_factor   0.04010
loop_
_space_group_symop_id
_space_group_symop_operation_xyz
1 x,y,z
2 1/2-x,1/2+y,1/2-z
3 -x,-y,-z
4 1/2+x,1/2-y,1/2+z
loop_
_atom_site_label
_atom_site_type_symbol
_atom_site_fract_x
_atom_site_fract_y
_atom_site_fract_z
_atom_site_occupancy
_atom_site_adp_type
_atom_site_U_iso_or_equiv
_atom_site_symmetry_multiplicity
As1 As 0.2583(10) 0.09646(18) 0.0474(5) 1.000 Uiso 0.0097(11) 4
As2 As 0.3489(8) 0.35284(20) 0.0105(5) 1.000 Uiso 0.0097 4
O3 O 0.4154(29) 0.2189(5) 0.0816(27) 1.000 Uiso 0.0097 4
O4 O 0.6585(20) 0.4010(11) 0.1508(16) 1.000 Uiso 0.0097 4
O5 O -0.0481(21) 0.1413(12) 0.1398(19) 1.000 Uiso 0.0097 4
loop_
_atom_type_symbol
_atom_type_number_in_cell
_atom_type_scat_Cromer_Mann_a1
_atom_type_scat_Cromer_Mann_a2
_atom_type_scat_Cromer_Mann_a3
_atom_type_scat_Cromer_Mann_a4
_atom_type_scat_Cromer_Mann_b1
_atom_type_scat_Cromer_Mann_b2
_atom_type_scat_Cromer_Mann_b3
_atom_type_scat_Cromer_Mann_b4
_atom_type_scat_Cromer_Mann_c
_atom_type_scat_length_neutron
_atom_type_scat_source
_atom_type_scat_dispersion_real
_atom_type_scat_dispersion_imag
_atom_type_scat_dispersion_source
As 8 16.6723 6.0701 3.4313 4.2779 2.6345 0.2647 12.9479 47.7972 2.531 0.658
https://subversion.xray.aps.anl.gov/pyGSAS/trunk/atmdata.py 0.283 0.775
https://subversion.xray.aps.anl.gov/pyGSAS/trunk/atmdata.py
O 12 3.0485 2.2868 1.5463 0.867 13.2771 5.7011 0.3239 32.9089 0.2508 0.5805
https://subversion.xray.aps.anl.gov/pyGSAS/trunk/atmdata.py 0.002 0.002
https://subversion.xray.aps.anl.gov/pyGSAS/trunk/atmdata.py
loop_
_geom_angle_atom_site_label_1
_geom_angle_atom_site_label_2
_geom_angle_atom_site_label_3
_geom_angle
_geom_angle_site_symmetry_1
_geom_angle_site_symmetry_2
_geom_angle_site_symmetry_3
_geom_angle_publ_flag
O3 As1 O4 99.5(6) 1_555 1_555 4_454 yes
O3 As1 O5 96.7(8) 1_555 1_555 1_555 yes
O4 As1 O5 91.7(5) 4_454 1_555 1_555 yes
O3 As2 O4 96.2(6) 1_555 1_555 1_555 yes
O3 As2 O5 98.0(7) 1_555 1_555 4_554 yes
O4 As2 O5 89.2(5) 1_555 1_555 4_554 yes
As1 O3 As2 139.0(8) 1_555 1_555 1_555 yes
As1 O4 As2 122.1(6) 4_555 1_555 1_555 yes
As1 O5 As2 124.9(7) 1_555 1_555 4_455 yes
loop_
_geom_bond_atom_site_label_1
_geom_bond_atom_site_label_2
_geom_bond_distance
_geom_bond_site_symmetry_1
_geom_bond_site_symmetry_2
_geom_bond_publ_flag
As1 O3 1.750(7) 1_555 1_555 yes
As1 O4 1.806(6) 1_555 4_454 yes
As1 O5 1.765(7) 1_555 1_555 yes
As2 O3 1.751(7) 1_555 1_555 yes
As2 O4 1.783(7) 1_555 1_555 yes
As2 O5 1.781(7) 1_555 4_554 yes
loop_
_pd_meas_2theta_scan
_pd_meas_intensity_total
_pd_calc_intensity_total
_pd_proc_intensity_bkg_calc
_pd_proc_ls_weight
0.00440 106.44714 0 0 0
0.01320 106.62825 0 0 0
0.02201 107.37715 0 0 0
0.03081 108.03072 0 0 0
0.03961 108.72736 0 0 0
0.04841 107.95171 0 0 0
0.05721 105.95028 0 0 0
0.06602 104.39085 0 0 0
0.07482 104.77921 0 0 0
0.08362 105.2752 0 0 0
0.09242 105.71353 0 0 0
0.10122 106.61003 0 0 0
0.11003 106.56859 0 0 0
0.11883 106.06676 0 0 0
0.12763 105.58132 0 0 0
0.13643 105.80892 0 0 0
0.14523 106.67789 0 0 0
0.15404 106.56346 0 0 0
0.16284 106.2136 0 0 0
0.17164 106.22623 0 0 0
0.18044 106.89117 0 0 0
0.18925 105.79659 0 0 0
0.19805 104.52452 0 0 0
0.20685 103.9572 0 0 0
0.21565 105.45891 0 0 0
0.22445 107.85892 0 0 0
0.23326 107.8208 0 0 0
0.24206 107.14878 0 0 0
0.25086 106.06794 0 0 0
0.25966 106.27171 0 0 0
0.26846 108.38245 0 0 0
0.27727 109.61588 0 0 0
0.28607 110.47453 0 0 0
0.29487 109.61125 0 0 0
0.30367 109.60117 0 0 0
0.31248 108.29148 0 0 0
0.32128 108.23658 0 0 0
0.33008 108.4261 0 0 0
0.33888 110.14986 0 0 0
0.34768 110.13625 0 0 0
0.35649 110.7526 0 0 0
0.36529 110.55099 0 0 0
0.37409 110.07289 0 0 0
0.38289 110.36261 0 0 0
0.39169 111.02518 0 0 0
0.40050 110.72581 0 0 0
0.40930 110.74089 0 0 0
0.41810 110.09605 0 0 0
0.42690 110.72466 0 0 0
0.43570 110.67216 0 0 0
0.44451 110.64748 0 0 0
0.45331 110.50221 0 0 0
0.46211 110.9978 0 0 0
0.47091 111.25694 0 0 0
0.47972 110.80293 0 0 0
0.48852 110.65495 0 0 0
0.49732 110.296 0 0 0
0.50612 109.8959 0 0 0
0.51492 110.07954 0 0 0
0.52373 109.83144 0 0 0
0.53253 109.74389 0 0 0
0.54133 109.3093 0 0 0
0.55013 109.38037 0 0 0
0.55893 109.7749 0 0 0
0.56774 109.88516 0 0 0
0.57654 110.38721 0 0 0
0.58534 110.04546 0 0 0
0.59414 110.26441 0 0 0
0.60295 110.3979 0 0 0
0.61175 110.33178 0 0 0
0.62055 109.66057 0 0 0
0.62935 108.99536 0 0 0
0.63815 108.91147 0 0 0
0.64696 108.64598 0 0 0
0.65576 109.25201 0 0 0
0.66456 108.7949 0 0 0
0.67336 109.21896 0 0 0
0.68216 109.66179 0 0 0
0.69097 109.88924 0 0 0
0.69977 111.14584 0 0 0
0.70857 111.49648 0 0 0
0.71737 111.02839 0 0 0
0.72617 110.41104 0 0 0
0.73498 111.00807 0 0 0
0.74378 111.86946 0 0 0
0.75258 111.98662 0 0 0
0.76138 111.17324 0 0 0
0.77019 111.50202 0 0 0
0.77899 113.18913 0 0 0
0.78779 113.21508 0 0 0
0.79659 112.56186 0 0 0
0.80539 111.80667 0 0 0
0.81420 111.77613 0 0 0
0.82300 112.32295 0 0 0
0.83180 111.7956 0 0 0
0.84060 112.38802 0 0 0
0.84940 114.29701 0 0 0
0.85821 114.92941 0 0 0
0.86701 116.18843 0 0 0
0.87581 117.0826 0 0 0
0.88461 116.87823 0 0 0
0.89342 116.80706 0 0 0
0.90222 118.41957 0 0 0
0.91102 119.41426 0 0 0
0.91982 121.45313 0 0 0
0.92862 124.5145 0 0 0
0.93743 126.83016 0 0 0
0.94623 128.13806 0 0 0
0.95503 130.04411 0 0 0
0.96383 129.922 0 0 0
0.97263 129.23125 0 0 0
0.98144 131.19354 0 0 0
0.99024 134.18796 0 0 0
0.99904 136.74854 0 0 0
1.00784 139.42142 0 0 0
1.01664 144.40425 0 0 0
1.02545 149.7939 0 0 0
1.03425 156.48891 0 0 0
1.04305 161.70221 0 0 0
1.05185 169.70773 0 0 0
1.06066 173.0484 0 0 0
1.06946 180.7998 0 0 0
1.07826 187.08994 0 0 0
1.08706 193.0269 0 0 0
1.09586 200.63594 0 0 0
1.10467 209.16142 0 0 0
1.11347 218.05815 0 0 0
1.12227 224.94353 0 0 0
1.13107 231.0177 0 0 0
1.13987 234.25853 0 0 0
1.14868 237.16916 0 0 0
1.15748 240.88985 0 0 0
1.16628 242.36705 0 0 0
1.17508 244.32452 0 0 0
1.18389 246.58522 0 0 0
1.19269 248.96956 0 0 0
1.20149 250.91388 0 0 0
1.21029 253.51474 0 0 0
1.21909 255.82968 0 0 0
1.22790 256.79105 0 0 0
1.23670 259.19995 0 0 0
1.24550 262.41736 0 0 0
1.25430 264.49243 0 0 0
1.26310 265.50745 0 0 0
1.27191 267.59195 0 0 0
1.28071 269.76968 0 0 0
1.28951 271.80988 0 0 0
1.29831 273.90442 0 0 0
1.30711 275.51425 0 0 0
1.31592 276.6142 0 0 0
1.32472 276.19263 0 0 0
1.33352 278.21387 0 0 0
1.34232 279.93631 0 0 0
1.35113 282.14114 0 0 0
1.35993 283.52875 0 0 0
1.36873 285.41113 0 0 0
1.37753 287.59738 0 0 0
1.38633 289.93314 0 0 0
1.39514 291.44376 0 0 0
1.40394 291.93509 0 0 0
1.41274 292.8121 0 0 0
1.42154 294.24863 0 0 0
1.43034 295.49274 0 0 0
1.43915 296.02359 0 0 0
1.44795 296.12885 0 0 0
1.45675 296.86734 0 0 0
1.46555 298.61075 0 0 0
1.47436 300.55939 0 0 0
1.48316 301.36783 0 0 0
1.49196 302.57236 0 0 0
1.50076 304.13623 0 0 0
1.50956 306.08987 0 0 0
1.51837 307.92972 0 0 0
1.52717 307.90671 0 0 0
1.53597 308.40402 0 0 0
1.54477 309.18524 0 0 0
1.55357 310.7894 0 0 0
1.56238 310.03299 0 0 0
1.57118 310.06552 0 0 0
1.57998 311.03455 0 0 0
1.58878 313.60095 0 0 0
1.59758 314.32806 0 0 0
1.60639 314.29596 0 0 0
1.61519 314.84863 0 0 0
1.62399 315.9838 0 0 0
1.63279 316.78769 0 0 0
1.64160 317.68839 0 0 0
1.65040 319.22034 0 0 0
1.65920 320.07446 0 0 0
1.66800 320.43686 0 0 0
1.67680 320.79953 0 0 0
1.68561 321.46707 0 0 0
1.69441 322.74771 0 0 0
1.70321 324.28903 0 0 0
1.71201 325.06036 0 0 0
1.72081 324.96213 0 0 0
1.72962 326.27649 0 0 0
1.73842 328.54712 0 0 0
1.74722 329.33359 0 0 0
1.75602 329.23007 0 0 0
1.76483 329.06894 0 0 0
1.77363 329.81351 0 0 0
1.78243 331.0834 0 0 0
1.79123 331.2081 0 0 0
1.80003 331.42706 0 0 0
1.80884 331.78238 0 0 0
1.81764 334.44003 0 0 0
1.82644 336.39056 0 0 0
1.83524 337.89346 0 0 0
1.84404 337.63574 0 0 0
1.85285 337.49646 0 0 0
1.86165 337.44904 0 0 0
1.87045 339.19928 0 0 0
1.87925 340.72998 0 0 0
1.88805 341.37823 0 0 0
1.89686 342.51831 0 0 0
1.90566 343.21402 0 0 0
1.91446 343.04849 0 0 0
1.92326 342.96579 0 0 0
1.93207 343.22137 0 0 0
1.94087 343.33942 0 0 0
1.94967 345.15384 0 0 0
1.95847 346.9144 0 0 0
1.96727 347.63498 0 0 0
1.97608 348.43488 0 0 0
1.98488 348.45834 0 0 0
1.99368 348.96918 0 0 0
2.00248 349.3179 0 0 0
2.01128 349.6207 0 0 0
2.02009 349.22351 0 0 0
2.02889 350.03397 0 0 0
2.03769 351.67538 0 0 0
2.04649 352.88428 0 0 0
2.05530 353.9393 0 0 0
2.06410 355.05807 0 0 0
2.07290 355.60901 0 0 0
2.08170 355.27036 0 0 0
2.09050 355.34305 0 0 0
2.09931 355.82062 0 0 0
2.10811 356.12546 0 0 0
2.11691 356.59949 0 0 0
2.12571 357.67377 0 0 0
2.13451 358.12146 0 0 0
2.14332 358.28024 0 0 0
2.15212 358.39511 0 0 0
2.16092 358.59116 0 0 0
2.16972 359.19913 0 0 0
2.17852 360.06503 0 0 0
2.18733 360.70044 0 0 0
2.19613 361.11615 0 0 0
2.20493 361.46423 0 0 0
2.21373 361.93564 370.26737 370.261713 0.002762922
2.22254 363.56415 369.369476 369.363754 0.002750546
2.23134 364.01874 368.601243 368.595455 0.002747111
2.24014 363.59354 367.954626 367.94877 0.002750324
2.24894 364.41373 367.422012 367.416088 0.002744134
2.25774 365.25848 366.996108 366.990114 0.002737787
2.26655 366.49115 366.66994 366.663875 0.002728579
2.27535 366.83826 366.43685 366.430713 0.002725997
2.28415 367.48929 366.290498 366.284287 0.002721168
2.29295 367.91925 366.224839 366.218553 0.002717988
2.30175 368.42334 366.234108 366.227746 0.002714269
2.31056 368.23511 366.312819 366.306379 0.002715656
2.31936 368.59369 366.455751 366.449232 0.002713014
2.32816 368.35226 366.657937 366.651337 0.002714793
2.33696 368.32025 366.914653 366.907972 0.002715029
2.34576 369.13873 367.221416 367.21465 0.002709009
2.35457 370.08008 367.57398 367.567129 0.002702118
2.36337 370.54456 367.9683 367.961363 0.002698731
2.37217 371.26315 368.415406 368.393535 0.002693507
2.38097 372.3696 368.882068 368.860005 0.002685504
2.38978 373.73969 369.379636 369.35738 0.002675659
2.39858 374.2644 369.904859 369.882405 0.002671908
2.40738 374.98959 370.454679 370.432025 0.002666741
2.41618 375.13068 371.026194 371.003337 0.002665738
2.42498 375.26233 371.616723 371.59366 0.002664803
2.43379 376.17078 372.223692 372.20042 0.002658367
2.44259 376.36987 372.844688 372.821203 0.002656961
2.45139 376.14554 373.477468 373.453768 0.002658545
2.46019 375.63943 374.119887 374.095968 0.002662127
2.46899 376.00284 374.770006 374.745865 0.002659554
2.47780 376.77658 375.425952 375.401585 0.002654093
2.48660 377.77939 376.085995 376.061398 0.002647048
2.49540 377.99951 376.748502 376.723672 0.002645506
2.50420 378.94238 377.41202 377.386954 0.002638924
2.51301 380.01767 378.075139 378.049832 0.002631457
2.52181 381.19086 378.736564 378.711013 0.002623358
2.53061 381.50403 379.395108 379.369308 0.002621204
2.53941 381.4986 380.049692 380.02364 0.002621242
2.54821 381.50479 380.699313 380.673005 0.002621199
2.55702 381.84344 381.343045 381.316475 0.002618874
2.56582 382.11832 381.980029 381.953194 0.00261699
2.57462 382.57739 382.609549 382.582445 0.00261385
2.58342 382.58545 383.230899 383.20352 0.002613795
2.59222 382.64737 383.843461 383.815803 0.002613372
2.60103 383.40405 384.446681 384.418738 0.002608214
2.60983 384.32462 385.040071 385.011839 0.002601967
2.61863 385.43307 385.623219 385.594693 0.002594484
2.62743 385.6825 386.195755 386.166929 0.002592806
2.63624 385.45374 386.757355 386.728225 0.002594345
2.64504 385.14822 387.307735 387.278294 0.002596403
2.65384 384.52481 387.846714 387.816957 0.002600612
2.66264 384.92035 388.3741 388.344021 0.00259794
2.67144 385.32098 388.889763 388.859356 0.002595239
2.68025 385.89471 389.393594 389.362853 0.00259138
2.68905 386.12198 389.885574 389.854492 0.002589855
2.69785 386.82013 390.365667 390.334238 0.002585181
2.70665 387.77127 390.833883 390.802101 0.00257884
2.71545 388.91995 391.290278 391.258134 0.002571223
2.72426 389.56732 391.734904 391.702392 0.00256695
2.73306 390.02313 392.167892 392.135006 0.002563951
2.74186 390.43835 392.589353 392.556084 0.002561224
2.75066 391.29831 392.999434 392.965774 0.002555595
2.75946 390.99615 393.398292 393.364233 0.00255757
2.76827 390.78751 393.786141 393.751675 0.002558935
2.77707 390.99127 394.163176 394.128294 0.002557602
2.78587 391.54596 394.529614 394.494308 0.002553979
2.79467 391.7959 394.885695 394.849955 0.002552349
2.80348 391.87485 395.231677 395.195495 0.002551835
2.81228 392.08252 395.567824 395.53119 0.002550484
2.82108 392.5408 395.894408 395.85731 0.002547506
2.82988 393.271 396.2117 396.17413 0.002542776
2.83868 394.27863 396.520016 396.481962 0.002536277
2.84749 394.92099 396.819645 396.781096 0.002532152
2.85629 394.21768 397.110893 397.071838 0.00253667
2.86509 393.68906 397.39407 397.354497 0.002540076
2.87389 394.78372 397.669491 397.629388 0.002533033
2.88269 395.52765 397.937484 397.896838 0.002528268
2.89150 396.12668 398.19837 398.157168 0.002524445
2.90030 397.08917 398.452472 398.410699 0.002518326
2.90910 397.7977 398.700106 398.657749 0.002513841
2.91790 397.36984 398.941616 398.89866 0.002516547
2.92670 397.8942 399.177318 399.133748 0.002513231
2.93551 398.09323 399.407538 399.363339 0.002511974
2.94431 397.7276 399.632592 399.587746 0.002514284
2.95311 397.17133 399.852817 399.807307 0.002517805
2.96191 397.2254 400.06852 400.022329 0.002517462
2.97072 397.57101 400.280024 400.233132 0.002515274
2.97952 398.46674 400.487636 400.440025 0.00250962
2.98832 399.7674 400.69166 400.643309 0.002501455
2.99712 400.58112 400.892412 400.8433 0.002496373
3.00592 401.18912 401.090184 401.04029 0.00249259
3.01473 402.14816 401.285271 401.234572 0.002486646
3.02353 403.57269 401.477954 401.426426 0.002477868
3.03233 403.05179 401.66853 401.616148 0.002481071
3.04113 402.31888 401.857269 401.804007 0.002485591
3.04993 401.94315 402.044439 401.99027 0.002487914
3.05874 402.3512 402.230306 402.1752 0.002485391
3.06754 402.78793 402.41513 402.359059 0.002482696
3.07634 402.98267 402.599162 402.542095 0.002481496
3.08514 402.4762 402.782646 402.724548 0.002484619
3.09395 403.06253 402.96581 402.906649 0.002481005
3.10275 403.21423 403.148899 403.088636 0.002480071
3.11155 403.75998 403.332127 403.270726 0.002476719
3.12035 404.37469 403.51571 403.45313 0.002472954
3.12915 405.24701 403.699853 403.636053 0.002467631
3.13796 405.66525 403.893052 403.819693 0.002465087
3.14676 405.43466 404.078973 404.004243 0.002466489
3.15556 405.94131 404.266037 404.189887 0.00246341
3.16436 407.22729 404.454421 404.376798 0.002455631
3.17316 407.22388 404.644288 404.565137 0.002455652
3.18197 407.03976 404.835815 404.755075 0.002456762
3.19077 407.11426 405.029149 404.946759 0.002456313
3.19957 407.57007 405.224439 405.140333 0.002453566
3.20837 407.2894 405.42182 405.335927 0.002455257
3.21717 407.01553 405.621439 405.533684 0.002456909
3.22598 407.37357 405.823412 405.733716 0.002454749
3.23478 408.12543 406.027864 405.936142 0.002450227
3.24358 407.70258 406.234905 406.141068 0.002452768
3.25238 407.44638 406.444634 406.348586 0.002454311
3.26119 408.479 406.657164 406.558802 0.002448106
3.26999 409.36111 406.872582 406.771796 0.002442831
3.27879 409.42285 407.090972 406.987645 0.002442463
3.28759 409.41888 407.312409 407.206415 0.002442486
3.29639 409.24008 407.536982 407.428185 0.002443553
3.30520 409.78391 407.764749 407.653003 0.002440311
3.31400 410.06128 407.995778 407.880927 0.00243866
3.32280 411.04834 408.23012 408.111995 0.002432804
3.33160 411.64432 408.467836 408.346253 0.002429282
3.34040 412.694 408.708974 408.583735 0.002423103
3.34921 412.29355 408.953576 408.824466 0.002425456
3.35801 411.95477 409.201681 409.068468 0.002427451
3.36681 412.14874 409.453318 409.315747 0.002426309
3.37561 412.77084 409.708537 409.56633 0.002422652
3.38442 413.38535 409.967357 409.820213 0.00241905
3.39322 413.61121 410.229814 410.077399 0.002417729
3.40202 414.17368 410.495924 410.337875 0.002414446
3.41082 413.90622 410.765724 410.60164 0.002416006
3.41962 413.92899 411.039239 410.868677 0.002415873
3.42843 414.5004 411.316495 411.138966 0.002412543
3.43723 415.05753 411.597511 411.412472 0.002409305
3.44603 414.98291 411.882338 411.689185 0.002409738
3.45483 414.93002 412.176088 411.969064 0.002410045
3.46363 415.15253 412.468674 412.252072 0.002408753
3.47244 415.65952 412.765187 412.538158 0.002405815
3.48124 415.62683 413.065709 412.827298 0.002406004
3.49004 415.54193 413.370306 413.119432 0.002406496
3.49884 415.52707 413.679081 413.414515 0.002406582
3.50764 415.60999 413.992148 413.712489 0.002406102
3.51645 415.72324 414.309645 414.013286 0.002405446
3.52525 416.11337 414.631776 414.316867 0.002403191
3.53405 417.06226 414.95876 414.623158 0.002397724
3.54285 418.15491 415.290882 414.932094 0.002391458
3.55166 418.72495 415.628491 415.243595 0.002388203
3.56046 418.70242 415.972062 415.557612 0.002388331
3.56926 418.72635 416.32215 415.874059 0.002388195
3.57806 418.45984 416.679491 416.192867 0.002389716
3.58686 418.94794 417.045007 416.513948 0.002386931
3.59567 418.84192 417.419909 416.837235 0.002387536
3.60447 419.51343 417.805768 417.162648 0.002383714
3.61327 419.48471 418.204638 417.490101 0.002383877
3.62207 420.25067 418.619267 417.81951 0.002379532
3.63087 419.59283 419.05334 418.15078 0.002383263
3.63968 419.45505 419.511971 418.483848 0.002384046
3.64848 419.46924 420.002253 418.818611 0.002383965
3.65728 420.52866 420.534562 419.154991 0.002377959
3.66608 421.08548 421.125507 419.492886 0.002374815
3.67489 422.71896 421.808306 419.832219 0.002365638
3.68369 423.23166 422.669345 420.1729 0.002362772
3.69249 423.66141 423.957408 420.514836 0.002360375
3.70129 424.18878 426.324254 420.857925 0.002357441
3.71009 426.34018 431.144299 421.202098 0.002345545
3.71890 430.026 440.519758 421.547253 0.002325441
3.72770 438.45135 456.286947 421.893296 0.002280755
3.73650 464.95853 477.866225 422.240136 0.002150729
3.74530 501.23193 500.11338 422.587693 0.001995084
3.75410 546.07104 513.161035 422.935865 0.001831264
3.76291 535.94666 508.629338 423.284571 0.001865857
3.77171 490.19806 490.010375 423.633715 0.002039992
3.78051 449.16843 467.850587 423.983199 0.002226336
3.78931 436.71283 449.731048 424.332955 0.002289834
3.79811 431.51871 438.18297 424.682885 0.002317397
3.80692 429.74963 432.198992 425.032902 0.002326936
3.81572 428.24606 429.596515 425.382906 0.002335106
3.82452 427.7077 428.613657 425.732837 0.002338045
3.83332 427.46213 428.293219 426.082594 0.002339389
3.84213 427.54684 428.235234 426.432101 0.002338925
3.85093 428.34421 428.29722 426.781264 0.002334571
3.85973 427.95044 428.428285 427.130013 0.002336719
3.86853 427.77954 428.606028 427.478269 0.002337653
3.87733 427.974 428.817578 427.825948 0.002336591
3.88614 428.77579 429.054335 428.172973 0.002332221
3.89494 428.96176 429.310192 428.519256 0.00233121
3.90374 429.53409 429.580719 428.864746 0.002328104
3.91254 430.05328 429.862592 429.209354 0.002325293
3.92134 431.22241 430.153311 429.553015 0.002318989
3.93015 431.4845 430.450936 429.895648 0.00231758
3.93895 431.21405 430.75397 430.237196 0.002319034
3.94775 431.37631 431.06122 430.577591 0.002318162
3.95655 430.78143 431.371727 430.916765 0.002321363
3.96535 430.79782 431.684704 431.254641 0.002321275
3.97416 431.24301 431.999536 431.591182 0.002318878
3.98296 432.0878 432.315684 431.926315 0.002314344
3.99176 432.23044 432.632704 432.259977 0.002313581
4.00056 432.00714 432.950228 432.59212 0.002314777
4.00937 432.7291 433.267929 432.922678 0.002310915
4.01817 433.03989 433.585556 433.25162 0.002309256
4.02697 433.43231 433.902839 433.57886 0.002307165
4.03577 433.0845 434.219592 433.904369 0.002309018
4.04457 432.43692 434.535654 434.22812 0.002312476
4.05338 431.97198 434.850826 434.550024 0.002314965
4.06218 433.08917 435.164987 434.87006 0.002308993
4.07098 434.16605 435.478031 435.188204 0.002303266
4.07978 434.56204 435.789815 435.504383 0.002301167
4.08858 434.03067 436.100266 435.818588 0.002303985
4.09739 434.53183 436.415988 436.13075 0.002301327
4.10619 434.15149 436.723521 436.440858 0.002303343
4.11499 434.66611 437.02948 436.748889 0.002300616
4.12379 435.14279 437.333769 437.054782 0.002298096
4.13260 435.55737 437.636348 437.35853 0.002295909
4.14140 436.12323 437.937177 437.660115 0.00229293
4.15020 436.8205 438.236177 437.959483 0.00228927
4.15900 437.40613 438.533339 438.256646 0.002286205
4.16780 437.29977 438.828597 438.551552 0.002286761
4.17661 437.18198 439.121926 438.844192 0.002287377
4.18541 437.37289 439.413319 439.13457 0.002286379
4.19421 437.27655 439.702719 439.422641 0.002286882
4.20301 437.66086 439.990133 439.708417 0.002284874
4.21181 438.1926 440.275513 439.991859 0.002282102
4.22062 438.63052 440.55886 440.272973 0.002279823
4.22942 437.63675 440.840184 440.55177 0.002285
4.23822 437.59204 441.119436 440.828207 0.002285234
4.24702 437.90485 441.396633 441.102298 0.002283601
4.25582 438.26962 441.671787 441.374057 0.0022817
4.26463 438.36127 441.944872 441.643454 0.002281223
4.27343 439.19031 442.215915 441.910516 0.002276917
4.28223 440.02008 442.484897 442.175218 0.002272624
4.29103 441.07126 442.751846 442.437583 0.002267207
4.29984 440.98407 443.016782 442.697626 0.002267656
4.30864 441.32181 443.279695 442.955328 0.00226592
4.31744 441.45013 443.540632 443.210727 0.002265262
4.32624 442.06699 443.799587 443.463808 0.002262101
4.33504 442.44357 444.056593 443.714593 0.002260175
4.34385 442.9426 444.311694 443.963112 0.002257629
4.35265 443.4028 444.565643 444.209356 0.002255286
4.36145 443.14694 444.816987 444.45335 0.002256588
4.37025 443.34232 445.066524 444.695129 0.002255593
4.37905 443.29065 445.314264 444.934685 0.002255856
4.38786 443.4165 445.560279 445.17207 0.002255216
4.39666 442.64615 445.80458 445.407273 0.002259141
4.40546 443.06442 446.047234 445.640336 0.002257008
4.41426 443.55212 446.288305 445.871295 0.002254526
4.42307 443.90402 446.527825 446.100154 0.002252739
4.43187 444.58176 446.765876 446.326962 0.002249305
4.44067 445.24979 447.002497 446.551724 0.00224593
4.44947 444.93121 447.237772 446.774486 0.002247538
4.45827 445.49341 447.471782 446.995286 0.002244702
4.46708 446.41785 447.704581 447.214134 0.002240054
4.47588 447.05695 447.936269 447.431078 0.002236851
4.48468 446.17761 448.166942 447.646161 0.00224126
4.49348 445.99548 448.396672 447.859396 0.002242175
4.50228 446.35022 448.625588 448.070843 0.002240393
4.51109 446.33963 448.853776 448.280519 0.002240446
4.51989 446.24872 449.081361 448.488468 0.002240903
4.52869 446.08447 449.308487 448.694744 0.002241728
4.53749 447.57031 449.535267 448.899366 0.002234286
4.54630 448.52026 449.76187 449.102394 0.002229554
4.55510 449.02261 449.988434 449.303849 0.002227059
4.56390 448.87341 450.215146 449.503784 0.0022278
4.57270 449.24146 450.442212 449.702256 0.002225974
4.58150 449.6969 450.669809 449.899282 0.00222372
4.59031 450.7869 450.898182 450.09492 0.002218343
4.59911 451.30859 451.127594 450.289227 0.002215779
4.60791 451.71484 451.358299 450.482228 0.002213786
4.61671 451.82767 451.590626 450.673986 0.002213233
4.62551 451.84482 451.834851 450.86453 0.002213149
4.63432 451.88705 452.071528 451.05392 0.002212942
4.64312 451.88452 452.310981 451.24221 0.002212955
4.65192 452.06592 452.553666 451.429429 0.002212067
4.66072 452.46744 452.800145 451.615639 0.002210104
4.66952 452.74759 453.051051 451.800895 0.002208736
4.67833 452.67871 453.307064 451.985227 0.002209072
4.68713 453.19611 453.569029 452.168706 0.00220655
4.69593 453.86169 453.837857 452.351365 0.002203314
4.70473 454.3761 454.114651 452.533258 0.00220082
4.71354 454.80386 454.400704 452.71445 0.00219875
4.72234 455.65475 454.697477 452.894971 0.002194644
4.73114 455.65884 455.00678 453.074894 0.002194624
4.73994 455.91824 455.330675 453.254245 0.002193376
4.74874 456.12366 455.671708 453.433089 0.002192388
4.75755 456.2587 456.032949 453.611487 0.002191739
4.76635 456.35461 456.418068 453.789471 0.002191278
4.77515 456.53262 456.83164 453.967101 0.002190424
4.78395 456.99045 457.279348 454.144439 0.00218823
4.79275 457.9476 457.768207 454.321519 0.002183656
4.80156 459.26923 458.307227 454.498408 0.002177372
4.81036 459.72702 458.907799 454.675141 0.002175204
4.81916 459.87448 459.58483 454.85178 0.002174506
4.82796 459.7218 460.357851 455.028382 0.002175229
4.83676 459.95627 461.252904 455.204981 0.00217412
4.84557 460.87183 462.305531 455.381649 0.002169801
4.85437 462.44495 463.56466 455.558417 0.00216242
4.86317 463.73602 465.099836 455.735343 0.002156399
4.87197 465.60788 467.013035 455.91249 0.00214773
4.88078 468.5094 469.465784 456.089888 0.002134429
4.88958 473.31918 472.772044 456.267595 0.002112739
4.89838 480.9216 477.767002 456.445673 0.002079341
4.90718 494.99615 486.871645 456.62415 0.002020218
4.91598 523.35101 506.795677 456.803098 0.001910763
4.92479 585.61285 551.660935 456.982541 0.001707613
4.93359 716.5365 641.489115 457.162541 0.001395602
4.94239 909.72076 788.165574 457.343155 0.001099238
4.95119 1079.4998 970.744853 457.524413 0.000926355
4.95999 1148.1755 1116.551374 457.706379 0.000870947
4.96880 1071.017 1126.337826 457.889081 0.000933692
4.97760 903.0188 992.002408 458.072577 0.001107397
4.98640 731.61926 809.282422 458.256921 0.001366831
4.99520 608.53595 656.876219 458.442139 0.001643288
5.00401 538.72278 561.054725 458.628289 0.001856242
5.01281 507.0502 512.402321 458.815421 0.001972191
5.02161 490.09433 490.847778 459.003561 0.002040424
5.03041 482.00186 481.323534 459.192773 0.002074681
5.03921 477.47501 476.420358 459.383082 0.00209435
5.04802 474.64093 473.355891 459.574536 0.002106856
5.05682 472.15106 471.203094 459.767191 0.002117966
5.06562 470.78394 469.616606 459.961065 0.002124117
5.07442 469.60049 468.423977 460.156224 0.00212947
5.08322 469.33133 467.518646 460.352682 0.002130691
5.09203 469.07172 466.828152 460.550491 0.00213187
5.10083 469.05902 466.301548 460.749701 0.002131928
5.10963 468.85666 465.90226 460.950332 0.002132848
5.11843 469.64529 465.603347 461.152426 0.002129267
5.12723 469.40033 465.384736 461.356036 0.002130378
5.13604 469.18027 465.231198 461.561177 0.002131377
5.14484 468.56934 465.131102 461.767903 0.002134156
5.15364 468.65842 465.207355 461.976228 0.00213375
5.16244 469.0751 465.189706 462.186201 0.002131855
5.17125 469.10065 465.203584 462.397863 0.002131739
5.18005 469.26868 465.244388 462.611225 0.002130975
5.18885 469.83261 465.33139 462.826332 0.002128418
5.19765 470.2648 465.415936 463.04323 0.002126462
5.20645 470.30566 465.518307 463.261921 0.002126277
5.21526 469.71509 465.636502 463.482462 0.00212895
5.22406 469.9194 465.768821 463.704861 0.002128025
5.23286 470.43289 465.913899 463.929154 0.002125702
5.24166 471.28421 466.070588 464.155384 0.002121862
5.25046 471.47833 466.237911 464.383553 0.002120988
5.25927 471.87518 466.415089 464.613716 0.002119204
5.26807 471.87842 466.601434 464.845868 0.00211919
5.27687 471.43488 466.796414 465.08005 0.002121184
5.28567 471.62939 466.999596 465.3163 0.002120309
5.29448 471.75986 467.210593 465.554618 0.002119723
5.30328 472.39505 467.429143 465.795034 0.002116872
5.31208 473.23291 467.65505 466.037588 0.002113124
5.32088 473.17529 467.888151 466.282275 0.002113382
5.32968 473.25998 468.12839 466.529141 0.002113004
5.33849 473.99722 468.375725 466.778178 0.002109717
5.34729 474.60098 468.630219 467.029424 0.002107033
5.35609 474.68649 468.891991 467.282906 0.002106654
5.36489 474.50522 469.161188 467.538615 0.002107458
5.37369 474.33316 469.43809 467.796599 0.002108223
5.38250 474.74957 469.723785 468.056846 0.002106374
5.39130 475.67456 470.017135 468.319382 0.002102278
5.40010 475.68817 470.319469 468.58424 0.002102218
5.40890 475.40823 470.649398 468.851404 0.002103455
5.41770 476.1261 470.971882 469.120904 0.002100284
5.42651 476.8222 471.305774 469.392765 0.002097218
5.43531 477.13577 471.652234 469.666968 0.00209584
5.44411 476.60068 472.012771 469.943559 0.002098193
5.45291 476.64276 472.389149 470.222518 0.002098007
5.46172 477.21686 472.783619 470.503864 0.002095483
5.47052 477.83481 473.198996 470.787628 0.002092773
5.47932 478.12253 473.638735 471.073787 0.002091514
5.48812 478.49374 474.107322 471.362376 0.002089891
5.49692 479.1351 474.610391 471.653373 0.002087094
5.50573 479.30142 475.155348 471.946803 0.00208637
5.51453 479.79385 475.751915 472.242683 0.002084228
5.52333 480.6712 476.412941 472.540988 0.002080424
5.53213 481.10928 477.155971 472.841737 0.00207853
5.54093 480.91153 478.00525 473.144957 0.002079385
5.54974 481.06085 478.994761 473.450608 0.002078739
5.55854 481.96652 480.173989 473.758732 0.002074833
5.56734 482.2612 481.617378 474.069298 0.002073565
5.57614 483.36658 483.45116 474.382318 0.002068823
5.58495 484.30133 485.95121 474.697814 0.00206483
5.59375 486.04749 489.912596 475.01575 0.002057412
5.60255 488.66217 497.736273 475.336165 0.002046404
5.61135 493.2493 515.427499 475.659014 0.002027372
5.62015 506.24796 553.653433 475.984316 0.001975317
5.62896 548.25122 622.858929 476.312088 0.001823981
5.63776 665.20612 719.703777 476.642292 0.001503293
5.64656 822.2049 811.803511 476.974937 0.001216242
5.65536 882.87604 839.200722 477.310039 0.001132662
5.66416 779.62109 777.61244 477.647561 0.001282674
5.67297 628.81183 677.982664 477.987527 0.001590301
5.68177 543.55951 591.635436 478.329896 0.001839725
5.69057 512.23071 537.110081 478.674684 0.001952245
5.69937 500.18494 509.855577 479.021896 0.001999261
5.70817 495.27435 498.14017 479.37149 0.002019083
5.71698 492.11523 493.163479 479.723475 0.002032044
5.72578 491.41312 490.722378 480.077867 0.002034948
5.73458 491.22879 489.300368 480.434609 0.002035711
5.74338 490.69565 488.40278 480.793735 0.002037923
5.75219 489.60355 487.841199 481.155194 0.002042469
5.76099 488.75577 487.518954 481.518999 0.002046012
5.76979 489.25739 487.376609 481.885151 0.002043914
5.77859 490.18945 487.375375 482.253601 0.002040028
5.78739 490.74664 487.490057 482.624378 0.002037711
5.79620 490.34753 487.705045 482.997432 0.00203937
5.80500 489.91751 488.012276 483.372762 0.00204116
5.81380 490.27332 488.410163 483.750378 0.002039679
5.82260 491.0162 488.903482 484.13023 0.002036593
5.83140 491.30145 489.504607 484.512314 0.00203541
5.84021 492.6456 490.235679 484.896641 0.002029857
5.84901 493.61786 491.133111 485.283157 0.002025859
5.85781 494.76706 492.258952 485.671881 0.002021153
5.86661 496.33038 493.738426 486.062757 0.002014787
5.87541 499.32019 495.911036 486.455789 0.002002723
5.88422 504.57068 499.831895 486.850988 0.001981883
5.89302 514.64691 508.38125 487.248282 0.00194308
5.90182 535.13477 527.394829 487.647703 0.001868688
5.91062 578.15851 564.033512 488.049191 0.001729629
5.91943 646.00891 619.589477 488.452742 0.001547966
5.92823 724.59528 679.233817 488.858363 0.001380081
5.93703 756.96753 707.827214 489.26599 0.001321061
5.94583 716.85577 680.210894 489.67563 0.001394981
5.95463 634.85382 621.365423 490.087278 0.001575166
5.96344 563.94147 566.492278 490.50087 0.001773234
5.97224 526.86145 530.508693 490.916434 0.001898032
5.98104 512.13965 512.175935 491.333905 0.001952592
5.98984 505.71814 504.33225 491.753276 0.001977386
5.99864 502.65567 501.131042 492.174555 0.001989433
6.00745 501.2226 499.675953 492.597676 0.001995122
6.01625 500.96692 498.906393 493.022656 0.00199614
6.02505 500.19147 498.479126 493.449429 0.001999234
6.03385 499.52484 498.265554 493.878001 0.002001902
6.04266 499.52805 498.200246 494.308364 0.00200189
6.05146 500.09262 498.24252 494.74045 0.00199963
6.06026 500.21918 498.364997 495.174261 0.001999124
6.06906 500.69574 498.548656 495.609803 0.001997221
6.07786 500.85715 498.779908 496.046992 0.001996577
6.08667 500.82434 499.048915 496.485859 0.001996708
6.09547 500.24689 499.348343 496.92633 0.001999013
6.10427 500.31741 499.672713 497.36841 0.001998731
6.11307 501.06799 500.017837 497.812089 0.001995737
6.12187 502.00922 500.380441 498.257298 0.001991995
6.13068 502.15411 500.758029 498.704061 0.001991421
6.13948 502.0134 501.148568 499.152308 0.001991979
6.14828 502.35831 501.550483 499.602029 0.001990611
6.15708 503.54916 501.962537 500.053228 0.001985903
6.16589 504.22305 502.383674 500.505834 0.001983249
6.17469 504.08688 502.8131 500.959837 0.001983785
6.18349 504.48245 503.250198 501.415241 0.00198223
6.19229 505.22601 503.694417 501.871973 0.001979312
6.20109 506.24515 504.145407 502.330049 0.001975328
6.20990 506.08185 504.602833 502.789395 0.001975965
6.21870 506.1022 505.06652 503.250012 0.001975886
6.22750 506.4491 505.536386 503.711903 0.001974532
6.23630 507.26834 506.012331 504.174979 0.001971343
6.24510 507.75861 506.494429 504.639245 0.00196944
6.25391 507.98959 506.982838 505.104706 0.001968544
6.26271 508.35397 507.4777 505.57127 0.001967133
6.27151 508.49539 507.979383 506.03897 0.001966586
6.28031 509.10471 508.488237 506.507724 0.001964232
6.28911 509.14029 509.00483 506.977538 0.001964095
6.29792 509.03906 509.52986 507.448401 0.001964486
6.30672 509.49829 510.064125 507.920236 0.001962715
6.31552 510.22293 510.608757 508.39307 0.001959928
6.32432 511.37079 511.165033 508.866828 0.001955528
6.33313 512.56879 511.734648 509.341497 0.001950958
6.34193 513.0285 512.319746 509.817083 0.001949209
6.35073 513.29694 512.922928 510.29351 0.00194819
6.35953 513.83264 513.547614 510.770766 0.001946159
6.36833 514.25958 514.198225 511.248855 0.001944543
6.37714 514.08502 514.880387 511.727703 0.001945204
6.38594 513.83331 515.601689 512.207324 0.001946156
6.39474 514.93964 516.372111 512.687642 0.001941975
6.40354 516.22858 517.205384 513.168656 0.001937126
6.41234 516.67255 518.120557 513.650372 0.001935462
6.42115 517.29309 519.144388 514.132696 0.00193314
6.42995 518.11353 520.316044 514.615662 0.001930079
6.43875 519.67902 521.69404 515.099186 0.001924265
6.44755 520.5437 523.373675 515.583274 0.001921068
6.45636 521.73407 525.544543 516.067915 0.001916685
6.46516 523.43683 528.721653 516.553032 0.00191045
6.47396 526.77985 534.53588 517.038631 0.001898326
6.48276 533.76855 547.363229 517.524701 0.001873471
6.49156 550.17981 575.628354 518.011164 0.001817588
6.50037 593.54974 628.624209 518.498049 0.001684779
6.50917 683.92401 704.783241 518.985279 0.001462151
6.51797 785.73798 777.035116 519.472843 0.001272689
6.52677 809.39288 793.245986 519.960747 0.001235494
6.53557 727.14532 737.944908 520.448914 0.001375241
6.54438 630.77319 659.318643 520.937362 0.001585356
6.55318 570.19226 596.846521 521.426014 0.001753794
6.56198 547.10773 560.631962 521.91487 0.001827794
6.57078 537.77002 543.952207 522.403937 0.001859531
6.57958 533.67896 537.166699 522.893122 0.001873786
6.58839 531.14093 534.293423 523.382432 0.001882739
6.59719 530.1886 532.865182 523.871868 0.001886121
6.60599 529.7113 532.071453 524.361353 0.001887821
6.61479 529.75592 531.640441 524.850906 0.001887662
6.62360 530.26398 531.452188 525.34045 0.001885853
6.63240 530.46344 531.437732 525.829993 0.001885144
6.64120 530.71478 531.553045 526.319526 0.001884251
6.65000 531.36566 531.769281 526.808972 0.001881943
6.65880 531.90302 532.067833 527.298361 0.001880042
6.66761 532.39935 532.437614 527.787617 0.001878289
6.67641 532.11847 532.873964 528.276733 0.001879281
6.68521 532.13824 533.37922 528.765715 0.001879211
6.69401 532.39142 533.967803 529.254488 0.001878317
6.70281 533.25476 534.690295 529.743045 0.001875276
6.71162 534.56049 535.716631 530.231393 0.001870696
6.72042 535.98444 537.521807 530.719457 0.001865726
6.72922 538.28326 541.047816 531.207257 0.001857758
6.73802 540.67059 547.337743 531.694719 0.001849555
6.74682 545.03845 556.228728 532.181846 0.001834733
6.75563 551.39301 564.649849 532.668646 0.001813588
6.76443 556.00287 566.688849 533.15503 0.001798552
6.77323 556.98676 560.837632 533.641006 0.001795375
6.78203 553.90466 552.665276 534.126578 0.001805365
6.79084 549.05536 546.457115 534.611673 0.00182131
6.79964 545.62634 543.180579 535.096311 0.001832756
6.80844 543.62885 542.012075 535.580419 0.00183949
6.81724 542.86334 541.889255 536.064008 0.001842084
6.82604 542.96265 542.185117 536.54707 0.001841747
6.83485 543.53461 542.651972 537.029533 0.001839809
6.84365 543.97083 543.212598 537.51143 0.001838334
6.85245 544.68207 543.843994 537.992689 0.001835933
6.86125 544.90277 544.546619 538.473303 0.00183519
6.87005 545.10419 545.307027 538.953283 0.001834512
6.87886 546.15942 546.137832 539.432558 0.001830967
6.88766 546.93793 547.049889 539.911123 0.001828361
6.89646 547.49091 548.090676 540.388989 0.001826514
6.90526 548.60437 549.224347 540.866079 0.001822807
6.91407 550.38672 550.517645 541.342433 0.001816904
6.92287 552.26111 552.023811 541.817963 0.001810738
6.93167 553.43402 553.823219 542.292683 0.0018069
6.94047 555.56519 556.043204 542.766597 0.001799969
6.94927 559.11365 558.917427 543.239637 0.001788545
6.95808 564.56512 563.027896 543.711826 0.001771275
6.96688 573.31726 570.187053 544.183095 0.001744235
6.97568 590.01019 585.672387 544.653456 0.001694886
6.98448 621.37982 620.894518 545.122906 0.001609322
6.99328 680.76874 690.600995 545.591377 0.001468928
7.00209 765.79468 797.48548 546.058882 0.001305833
7.01089 863.93457 908.590616 546.525418 0.001157495
7.01969 918.0849 946.715802 546.990918 0.001089224
7.02849 902.83582 874.017408 547.455416 0.001107621
7.03729 816.63849 758.906317 547.918846 0.001224532
7.04610 730.14679 665.374156 548.381206 0.001369588
7.05490 662.17004 610.901888 548.842509 0.001510186
7.06370 619.47742 585.926706 549.302691 0.001614264
7.07250 596.15704 575.857348 549.761774 0.00167741
7.08131 583.21948 571.650907 550.219697 0.00171462
7.09011 577.16943 569.629447 550.676466 0.001732593
7.09891 573.03082 568.605726 551.132096 0.001745107
7.10771 570.82098 568.186385 551.586509 0.001751863
7.11651 570.1969 568.201005 552.039718 0.00175378
7.12532 570.74908 568.558483 552.491734 0.001752083
7.13412 570.54498 569.209683 552.942493 0.00175271
7.14292 570.22937 570.134134 553.392022 0.00175368
7.15172 571.92596 571.334377 553.840258 0.001748478
7.16052 573.64685 572.835259 554.287218 0.001743233
7.16933 575.24042 574.686756 554.7329 0.001738404
7.17813 577.1795 576.971238 555.177244 0.001732563
7.18693 580.57208 579.818928 555.620287 0.001722439
7.19573 583.88428 583.435882 556.061968 0.001712668
7.20453 588.84717 588.182391 556.502289 0.001698234
7.21334 595.70319 594.869428 556.941265 0.001678688
7.22214 608.90332 605.909307 557.378838 0.001642297
7.23094 632.59222 628.601578 557.81501 0.001580797
7.23974 679.68738 680.194346 558.249796 0.001471265
7.24855 780.14014 786.612311 558.683136 0.001281821
7.25735 951.94446 961.017386 559.115069 0.001050481
7.26615 1172.8441 1164.179539 559.545524 0.000852628
7.27495 1293.5494 1277.480159 559.97452 0.000773067
7.28375 1236.252 1211.613121 560.402068 0.000808897
7.29256 1095.2268 1068.621744 560.828112 0.000913053
7.30136 984.4823 961.605025 561.252656 0.001015762
7.31016 907.64642 895.475682 561.675718 0.001101751
7.31896 834.26971 823.02338 562.097243 0.001198653
7.32777 748.59662 744.053077 562.517259 0.001335833
7.33657 682.64038 682.128888 562.935713 0.0014649
7.34537 643.87286 645.281415 563.352622 0.001553102
7.35417 625.64819 628.307214 563.767992 0.001598342
7.36297 617.32751 622.444119 564.181769 0.001619886
7.37178 613.4046 621.765965 564.593992 0.001630245
7.38058 613.6145 623.745488 565.004609 0.001629688
7.38938 614.92737 627.639208 565.413626 0.001626208
7.39818 620.03296 633.378073 565.821062 0.001612817
7.40698 624.54077 641.183402 566.226866 0.001601176
7.41579 633.89307 651.510194 566.631044 0.001577553
7.42459 644.91248 665.103502 567.033617 0.001550598
7.43339 663.08624 683.135661 567.43453 0.001508099
7.44219 692.61206 707.523367 567.833827 0.00144381
7.45099 732.72406 741.888158 568.231446 0.00136477
7.45980 810.09241 795.510678 568.627408 0.001234427
7.46860 924.79749 897.465282 569.021728 0.001081318
7.47740 1180.6902 1130.08206 569.41436 0.000846962
7.48620 1592.7837 1661.131772 569.805333 0.000627832
7.49501 2632.2605 2681.132958 570.194603 0.000379902
7.50381 4004.2556 4163.450153 570.58219 0.000249734
7.51261 5560.8042 5540.655297 570.968102 0.00017983
7.52141 5861.8618 5758.171486 571.352295 0.000170594
7.53021 4955.0898 4738.100478 571.734791 0.000201813
7.53902 3340.343 3513.828484 572.115598 0.00029937
7.54782 2542.8975 2604.1434 572.494673 0.000393252
7.55662 1971.2166 1935.066565 572.872056 0.000507301
7.56542 1468.5696 1429.031321 573.247704 0.000680935
7.57422 1127.6665 1087.279027 573.621628 0.000886787
7.58303 896.77747 886.331901 573.99385 0.001115104
7.59183 790.24878 781.545105 574.364324 0.001265424
7.60063 723.58606 728.005006 574.733095 0.001382006
7.60943 692.10602 697.430282 575.10011 0.001444865
7.61823 667.73364 677.22738 575.465394 0.001497603
7.62704 652.31964 662.674375 575.828964 0.001532991
7.63584 641.86615 651.843116 576.190782 0.001557957
7.64464 633.10504 643.727375 576.550861 0.001579517
7.65344 627.86371 637.719371 576.909223 0.001592702
7.66225 623.50427 633.451234 577.265832 0.001603838
7.67105 621.37018 630.734303 577.620719 0.001609347
7.67985 620.36963 629.563685 577.97385 0.001611942
7.68865 622.76031 630.223869 578.325248 0.001605754
7.69745 627.47968 633.642841 578.674926 0.001593677
7.70626 639.68494 642.269955 579.022849 0.00156327
7.71506 663.97754 662.064156 579.369059 0.001506075
7.72386 708.16595 706.047892 579.713521 0.001412098
7.73266 790.00287 795.37499 580.056248 0.001265818
7.74146 928.92322 946.290095 580.397268 0.001076515
7.75027 1124.9772 1141.12023 580.736546 0.000888907
7.75907 1250.4694 1284.638001 581.074098 0.0007997
7.76787 1193.7874 1238.934979 581.409948 0.00083767
7.77667 1005.5375 1046.070377 581.744064 0.000994493
7.78548 824.36176 852.629905 582.076489 0.00121306
7.79428 718.47778 725.435116 582.407182 0.001391831
7.80308 668.12903 661.490437 582.73617 0.001496717
7.81188 641.13965 633.869911 583.063476 0.001559723
7.82068 625.71674 621.508196 583.389071 0.001598167
7.82949 616.16443 614.738762 583.712972 0.001622943
7.83829 610.58582 610.279575 584.035205 0.001637771
7.84709 607.05188 607.070722 584.355743 0.001647306
7.85589 604.08643 604.672274 584.674621 0.001655392
7.86469 602.63232 602.839352 584.991812 0.001659387
7.87350 601.63257 601.415836 585.307346 0.001662144
7.88230 599.48682 600.297115 585.621238 0.001668093
7.89110 598.52655 599.410313 585.933463 0.00167077
7.89990 597.90607 598.703701 586.244065 0.001672504
7.90870 598.01758 598.139618 586.553019 0.001672192
7.91751 597.31604 597.690098 586.860343 0.001674156
7.92631 596.789 597.333969 587.166066 0.001675634
7.93511 596.03699 597.054889 587.470163 0.001677748
7.94391 596.70758 596.840225 587.772661 0.001675863
7.95272 596.60986 596.679929 588.07358 0.001676137
7.96152 596.28198 596.566016 588.372899 0.001677059
7.97032 595.3493 596.492032 588.67066 0.001679686
7.97912 595.33118 596.452682 588.966844 0.001679737
7.98792 595.74249 596.44373 589.261469 0.001678578
7.99673 595.8208 596.461642 589.554567 0.001678357
8.00553 595.95557 596.503519 589.846134 0.001677977
8.01433 595.47656 596.566983 590.136141 0.001679327
8.02313 595.82788 596.650137 590.424669 0.001678337
8.03193 596.66046 596.751295 590.711695 0.001675995
8.04074 597.48743 596.869581 590.997202 0.001673675
8.04954 596.90778 597.004063 591.28126 0.001675301
8.05834 596.39862 597.154265 591.563852 0.001676731
8.06714 595.83521 597.322303 591.844961 0.001678316
8.07594 595.85968 597.504109 592.124657 0.001678247
8.08475 595.91748 597.707159 592.402925 0.001678085
8.09355 596.54413 597.924223 592.679748 0.001676322
8.10235 596.78894 598.162163 592.955197 0.001675634
8.11115 597.25647 598.424728 593.229257 0.001674323
8.11996 597.49097 598.717563 593.501941 0.001673665
8.12876 597.44775 599.049159 593.773236 0.001673787
8.13756 597.64087 599.43263 594.043212 0.001673246
8.14636 597.62177 599.888939 594.311854 0.001673299
8.15516 598.13641 600.456225 594.579151 0.001671859
8.16397 599.30219 601.227229 594.845172 0.001668607
8.17277 601.82129 602.490522 595.109904 0.001661623
8.18157 605.05298 605.098861 595.373337 0.001652748
8.19037 609.91803 610.907967 595.63554 0.001639565
8.19917 618.32623 622.243132 595.8965 0.001617269
8.20798 630.71289 639.188022 596.156206 0.001585507
8.21678 642.2876 655.432081 596.414735 0.001556935
8.22558 645.84167 657.802408 596.672068 0.001548367
8.23438 637.57007 643.931827 596.928225 0.001568455
8.24319 624.1059 626.732047 597.183194 0.001602292
8.25199 612.72729 614.525634 597.437052 0.001632047
8.26079 606.3136 608.101172 597.689782 0.001649312
8.26959 603.52911 605.417873 597.941377 0.001656921
8.27839 601.78827 604.401771 598.19191 0.001661714
8.28720 600.17084 604.001601 598.441375 0.001666192
8.29600 600.13477 603.843091 598.689755 0.001666292
8.30480 600.54364 603.807789 598.937127 0.001665158
8.31360 600.99188 603.850249 599.183483 0.001663916
8.32240 600.96576 603.946587 599.428815 0.001663988
8.33121 600.69153 604.082124 599.673193 0.001664748
8.34001 599.99994 604.247204 599.916611 0.001666667
8.34881 600.55859 604.435323 600.159088 0.001665116
8.35761 601.11041 604.642323 600.400618 0.001663588
8.36641 600.99054 604.864445 600.64127 0.00166392
8.37522 600.68311 605.112715 600.88104 0.001664771
8.38402 600.83752 605.359911 601.119923 0.001664343
8.39282 601.65308 605.617837 601.357988 0.001662087
8.40162 601.92145 605.92529 601.59523 0.001661346
8.41043 601.79004 606.203143 601.831647 0.001661709
8.41923 601.4082 606.490488 602.067305 0.001662764
8.42803 601.73254 606.787334 602.302204 0.001661868
8.43683 602.16626 607.093848 602.536338 0.001660671
8.44563 602.66821 607.410426 602.769777 0.001659288
8.45444 602.64807 607.737547 603.002518 0.001659343
8.46324 603.03802 608.075858 603.234582 0.00165827
8.47204 603.12714 608.426125 603.465967 0.001658025
8.48084 603.64087 608.789368 603.696741 0.001656614
8.48964 603.93567 609.167569 603.926903 0.001655805
8.49845 603.99817 609.560332 604.156451 0.001655634
8.50725 604.60583 609.970147 604.385454 0.00165397
8.51605 605.53772 610.398806 604.613909 0.001651425
8.52485 605.3717 610.848446 604.841816 0.001651878
8.53366 606.29773 611.321634 605.069244 0.001649355
8.54246 607.23657 611.821259 605.296191 0.001646805
8.55126 607.44086 612.350739 605.522654 0.001646251
8.56006 607.66492 612.914239 605.74871 0.001645644
8.56886 608.57574 613.516517 605.974349 0.001643181
8.57767 609.27649 614.16328 606.199598 0.001641291
8.58647 608.74872 614.86139 606.424453 0.001642714
8.59527 608.97528 615.61921 606.648991 0.001642103
8.60407 609.82025 616.446682 606.873203 0.001639827
8.61287 610.74231 617.356031 607.097091 0.001637352
8.62168 611.09625 618.362514 607.320726 0.001636403
8.63048 612.07477 619.484833 607.544111 0.001633787
8.63928 613.22845 620.746377 607.767236 0.001630714
8.64808 615.10931 622.1774 607.99018 0.001625727
8.65689 616.64996 623.816067 608.212938 0.001621666
8.66569 618.15009 625.712239 608.435512 0.00161773
8.67449 619.56189 627.932058 608.657971 0.001614044
8.68329 620.88995 630.563247 608.880314 0.001610591
8.69209 622.64917 633.726667 609.102565 0.001606041
8.70090 626.75165 637.589208 609.324725 0.001595528
8.70970 632.39874 642.389526 609.546862 0.001581281
8.71850 638.17926 648.467337 609.768977 0.001566958
8.72730 645.75488 656.359913 609.99107 0.001548575
8.73610 657.74121 666.895924 610.213211 0.001520355
8.74491 677.33746 681.613432 610.435398 0.001476369
8.75371 710.18286 704.27458 610.657634 0.001408088
8.76251 770.9491 746.272184 610.879987 0.001297102
8.77131 890.89978 839.632868 611.102457 0.001122461
8.78011 1119.5458 1050.870409 611.325045 0.000893219
8.78892 1532.7434 1460.690566 611.547819 0.000652425
8.79772 2072.9011 2067.992383 611.77078 0.000482416
8.80652 2560.114 2642.395805 611.993951 0.000390608
8.81532 2647.7439 2748.115534 612.217332 0.00037768
8.82413 2268.9668 2271.601296 612.440992 0.000440729
8.83293 1688.5226 1630.58326 612.66493 0.000592234
8.84173 1229.9275 1151.001561 612.889148 0.000813056
8.85053 953.43262 887.378459 613.113713 0.001048842
8.85933 814.54962 768.476355 613.338625 0.001227672
8.86814 741.00964 717.033962 613.563885 0.00134951
8.87694 701.18817 691.202981 613.78956 0.001426151
8.88574 676.36584 675.324917 614.01565 0.00147849
8.89454 660.18274 664.341274 614.242152 0.001514732
8.90334 650.11377 656.346681 614.469143 0.001538192
8.91215 643.27997 650.372477 614.696613 0.001554533
8.92095 638.98712 645.824775 614.924588 0.001564977
8.92975 635.13397 642.314723 615.153063 0.001574471
8.93855 632.34723 639.579765 615.382115 0.00158141
8.94736 630.14435 637.43198 615.611735 0.001586938
8.95616 629.09882 635.743498 615.84192 0.001589575
8.96496 628.55237 634.419536 616.072745 0.001590957
8.97376 628.13666 633.391279 616.304208 0.00159201
8.98256 627.59857 632.607765 616.536298 0.001593375
8.99137 627.24762 632.030959 616.769091 0.001594267
9.00017 626.56433 631.633143 617.002583 0.001596005
9.00897 626.28253 631.394298 617.23677 0.001596723
9.01777 625.46552 631.300521 617.471721 0.001598809
9.02657 625.32324 631.343515 617.707433 0.001599173
9.03538 625.13336 631.519726 617.943925 0.001599659
9.04418 625.71484 631.830314 618.181195 0.001598172
9.05298 626.41943 632.281498 618.41931 0.001596374
9.06178 627.26996 632.888644 618.658266 0.00159421
9.07058 627.90082 633.66301 618.898058 0.001592608
9.07939 628.90192 634.63545 619.138755 0.001590073
9.08819 630.61993 635.844785 619.380351 0.001585741
9.09699 632.58887 637.345813 619.622841 0.001580806
9.10579 634.4126 639.216946 619.866294 0.001576261
9.11460 637.13904 641.571775 620.110703 0.001569516
9.12340 641.60736 644.579621 620.356062 0.001558586
9.13220 649.30988 648.516199 620.602438 0.001540097
9.14100 661.64478 653.92819 620.849826 0.001511385
9.14980 682.67981 662.233156 621.098217 0.001464816
9.15861 714.61115 677.300526 621.347681 0.001399362
9.16741 755.31055 707.507205 621.598208 0.001323959
9.17621 808.78943 764.309715 621.849816 0.001236416
9.18501 863.3064 852.983837 622.102497 0.001158337
9.19381 951.13104 960.147287 622.356318 0.00105138
9.20262 1070.6995 1058.06976 622.61127 0.000933969
9.21142 1224.5963 1178.231032 622.867343 0.000816596
9.22022 1410.6085 1395.067351 623.124605 0.000708914
9.22902 1589.0283 1661.582985 623.383047 0.000629315
9.23782 1650.8596 1748.32811 623.642652 0.000605745
9.24663 1535.9945 1520.114037 623.9035 0.000651044
9.25543 1282.4283 1185.783751 624.165569 0.000779771
9.26423 1042.5099 927.984535 624.428846 0.000959224
9.27303 867.80554 783.837321 624.693406 0.001152332
9.28184 773.31866 718.631568 624.959236 0.001293128
9.29064 730.302 690.958907 625.226344 0.001369297
9.29944 713.2533 677.81688 625.494715 0.001402026
9.30824 714.13696 670.603455 625.764424 0.001400292
9.31704 725.28802 666.697667 626.035457 0.001378763
9.32585 745.31482 665.418802 626.307787 0.001341715
9.33465 766.40961 667.162126 626.581494 0.001304785
9.34345 785.60034 674.574295 626.856557 0.001272912
9.35225 819.31659 695.542659 627.13296 0.001220529
9.36105 841.06061 745.230256 627.410771 0.001188975
9.36986 874.16138 838.076449 627.689973 0.001143954
9.37866 911.67731 963.790586 627.970547 0.001096879
9.38746 968.6095 1057.17874 628.252562 0.001032408
9.39626 982.01099 1027.157791 628.535998 0.001018319
9.40507 957.82068 906.404588 628.820865 0.001044037
9.41387 883.54248 789.199798 629.107144 0.001131807
9.42267 809.29163 714.095089 629.394902 0.001235649
9.43147 744.54218 676.985683 629.684118 0.001343107
9.44027 707.18384 660.944189 629.974771 0.001414059
9.44908 682.42987 653.591108 630.266928 0.001465352
9.45788 666.90192 649.474715 630.560568 0.001499471
9.46668 658.60809 646.765135 630.855667 0.001518354
9.47548 652.88501 644.848096 631.152293 0.001531663
9.48428 648.93787 643.452011 631.450422 0.00154098
9.49309 645.60437 642.434078 631.75003 0.001548936
9.50189 643.33295 641.668064 632.051184 0.001554405
9.51069 641.35291 641.101715 632.353859 0.001559204
9.51949 640.38446 640.681127 632.65806 0.001561562
9.52829 640.09839 640.380215 632.96376 0.00156226
9.53710 640.09161 640.172238 633.271028 0.001562276
9.54590 640.06067 640.039138 633.579835 0.001562352
9.55470 639.56305 639.967307 633.890153 0.001563568
9.56350 639.63397 639.946283 634.20205 0.001563394
9.57231 638.94183 639.967874 634.515496 0.001565088
9.58111 638.3501 640.02564 634.830459 0.001566538
9.58991 638.62274 640.114677 635.147015 0.00156587
9.59871 639.06635 640.230413 635.465125 0.001564783
9.60751 640.11011 640.369646 635.784756 0.001562231
9.61632 640.94 640.52967 636.105983 0.001560208
9.62512 641.24744 640.708169 636.428773 0.00155946
9.63392 640.94006 640.903272 636.753119 0.001560208
9.64272 640.77264 641.113364 637.078989 0.001560616
9.65152 641.0769 641.3372 637.406456 0.001559875
9.66033 641.25909 641.573657 637.735486 0.001559432
9.66913 641.39606 641.821797 638.066032 0.001559099
9.67793 641.37958 642.080942 638.398173 0.001559139
9.68673 641.7439 642.350466 638.731868 0.001558254
9.69553 641.8786 642.629859 639.067082 0.001557927
9.70434 642.20276 642.918834 639.40388 0.001557141
9.71314 643.05969 643.21713 639.742224 0.001555066
9.72194 644.01306 643.52459 640.082077 0.001552764
9.73074 644.37561 643.841639 640.423505 0.00155189
9.73955 644.31427 644.167672 640.766469 0.001552038
9.74835 644.97809 644.503329 641.110963 0.00155044
9.75715 645.57965 644.849032 641.456949 0.001548996
9.76595 645.05463 645.205532 641.80449 0.001550256
9.77475 645.17456 645.573741 642.153547 0.001549968
9.78356 646.22913 645.954912 642.504078 0.001547439
9.79236 647.09979 646.350865 642.856147 0.001545357
9.80116 647.4502 646.763947 643.209712 0.00154452
9.80996 647.42706 647.197342 643.564731 0.001544576
9.81876 647.40302 647.655565 643.921267 0.001544633
9.82757 647.39758 648.144801 644.279276 0.001544646
9.83637 648.4942 648.673855 644.638715 0.001542034
9.84517 649.70697 649.255588 644.999647 0.001539155
9.85397 651.86749 649.90917 645.362027 0.001534054
9.86278 654.70697 650.664683 645.725845 0.001527401
9.87158 658.33063 651.57456 646.091056 0.001518994
9.88038 662.36127 652.759298 646.457722 0.00150975
9.88918 668.5155 654.565973 646.825797 0.001495852
9.89798 674.57709 658.029755 647.195231 0.00148241
9.90679 679.89343 665.48864 647.56609 0.001470819
9.91559 685.60876 680.179531 647.938324 0.001458558
9.92439 692.64117 703.078763 648.311879 0.001443749
9.93319 700.89648 727.322833 648.686832 0.001426744
9.94199 705.81622 735.091034 649.063119 0.001416799
9.95080 704.39185 718.360652 649.440689 0.001419664
9.95960 694.36182 693.956221 649.819615 0.001440171
9.96840 681.71021 675.311168 650.199844 0.001466899
9.97720 671.44067 665.052614 650.581354 0.001489335
9.98600 665.70709 660.613096 650.964091 0.001502162
9.99481 661.104 658.959363 651.348129 0.001512621
10.00361 658.22565 658.392887 651.733426 0.001519236
10.01241 657.13507 658.267518 652.11987 0.001521757
10.02121 657.23608 658.379275 652.507613 0.001521523
10.03002 656.44885 658.658074 652.896508 0.001523348
10.03882 656.74365 659.08963 653.286537 0.001522664
10.04762 657.71759 659.67961 653.677818 0.001520409
10.05642 658.85321 660.481685 654.0702 0.001517789
10.06522 659.76379 661.686397 654.463712 0.001515694
10.07403 662.45416 663.888328 654.858335 0.001509538
10.08283 666.97473 668.518461 655.254097 0.001499307
10.09163 673.51941 677.776689 655.650891 0.001484738
10.10043 685.06256 692.840061 656.048697 0.001459721
10.10923 697.0069 710.28135 656.447634 0.001434706
10.11804 702.83356 718.913166 656.847546 0.001422812
10.12684 697.56506 710.123877 657.24846 0.001433558
10.13564 685.69818 693.450482 657.650356 0.001458368
10.14444 674.40173 679.606709 658.053262 0.001482796
10.15325 667.78412 671.585386 658.457019 0.00149749
10.16205 664.7702 668.034119 658.861745 0.001504279
10.17085 663.30737 666.770048 659.26742 0.001507597
10.17965 663.02905 666.423565 659.673885 0.00150823
10.18845 663.11511 666.432934 660.081305 0.001508034
10.19726 663.04071 666.612154 660.489519 0.001508203
10.20606 662.88525 666.895607 660.898598 0.001508557
10.21486 662.52521 667.2523 661.308383 0.001509377
10.22366 662.78363 667.664418 661.71899 0.001508788
10.23246 663.41376 668.120706 662.130399 0.001507355
10.24127 664.18591 668.613467 662.542446 0.001505603
10.25007 664.55536 669.139096 662.955297 0.001504766
10.25887 664.57776 669.694432 663.368788 0.001504715
10.26767 664.64484 670.278142 663.782944 0.001504563
10.27647 665.02692 670.889989 664.197742 0.001503699
10.28528 665.53418 671.530526 664.613158 0.001502552
10.29408 666.88153 672.201131 665.02917 0.001499517
10.30288 668.41479 672.904051 665.445754 0.001496077
10.31168 669.37854 673.642375 665.862934 0.001493923
10.32048 670.30823 674.448011 666.280544 0.001491851
10.32929 671.03607 675.270575 666.698749 0.001490233
10.33809 671.33685 676.144501 667.117384 0.001489565
10.34689 672.31677 677.078589 667.536471 0.001487394
10.35569 673.97754 678.084159 667.955987 0.001483729
10.36450 675.29773 679.176155 668.375906 0.001480828
10.37330 676.73456 680.373728 668.796252 0.001477684
10.38210 679.20227 681.698076 669.216857 0.001472315
10.39090 681.63184 683.162398 669.637887 0.001467068
10.39971 684.56421 684.753832 670.059175 0.001460783
10.40851 688.56952 686.420236 670.480694 0.001452286
10.41731 694.30035 688.360236 670.902563 0.001440299
10.42611 702.36407 691.697505 671.324614 0.001423763
10.43491 714.6665 699.515837 671.746869 0.001399254
10.44371 730.72198 716.761698 672.169303 0.00136851
10.45252 753.55157 746.559223 672.591939 0.001327049
10.46132 779.93835 786.389066 673.014654 0.001282153
10.47012 806.4278 825.528637 673.437423 0.001240037
10.47892 827.091 855.759237 673.860366 0.001209057
10.48773 838.27917 877.458748 674.283311 0.00119292
10.49653 831.22626 871.465147 674.706282 0.001203042
10.50533 804.59583 830.076452 675.129253 0.00124286
10.51413 770.70728 782.45228 675.552198 0.001297509
10.52293 741.57019 748.81196 675.975092 0.00134849
10.53174 722.59271 731.835047 676.397908 0.001383905
10.54054 713.31445 726.356842 676.820669 0.001401906
10.54934 709.5072 726.916077 677.243205 0.001409429
10.55814 708.23486 730.580441 677.665683 0.001411961
10.56695 709.61646 736.418536 678.087933 0.001409212
10.57575 713.28516 744.453244 678.509977 0.001401964
10.58455 718.2511 755.171736 678.931789 0.001392271
10.59335 724.9165 769.48196 679.353345 0.001379469
10.60215 735.88007 788.940184 679.774665 0.001358917
10.61096 755.00507 816.653373 680.195582 0.001324494
10.61976 789.99146 860.814729 680.616261 0.001265836
10.62856 867.60291 945.968789 681.036534 0.001152601
10.63736 1040.9111 1135.796681 681.456422 0.000960697
10.64616 1441.2976 1546.32941 681.875901 0.000693819
10.65497 2197.7903 2287.75482 682.294945 0.000455002
10.66377 3381.5999 3296.296012 682.71353 0.000295718
10.67257 4330.5024 4115.922611 683.13163 0.00023092
10.68137 4228.0161 4021.974703 683.549269 0.000236518
10.69017 3024.9832 3117.691824 683.966326 0.00033058
10.69898 2101.1921 2140.701538 684.382824 0.00047592
10.70778 1456.6115 1465.049956 684.79874 0.000686525
10.71658 1083.0115 1107.774046 685.214048 0.000923351
10.72538 915.64423 948.729624 685.628725 0.001092127
10.73419 837.92676 880.112502 686.042746 0.001193422
10.74299 805.45807 847.549032 686.456134 0.00124153
10.75179 792.17108 831.749631 686.868726 0.001262354
10.76059 794.56592 828.291051 687.280684 0.001258549
10.76939 811.53955 840.33781 687.691846 0.001232226
10.77820 857.69324 879.018132 688.102188 0.001165918
10.78700 953.52124 963.32263 688.511826 0.001048744
10.79580 1115.9441 1112.317106 688.920599 0.000896102
10.80460 1327.1603 1331.457065 689.328577 0.000753488
10.81340 1549.8248 1591.828427 689.735598 0.000645234
10.82221 1826.5844 1855.698698 690.141779 0.00054747
10.83101 2125.8928 2124.578088 690.547097 0.000470391
10.83981 2263.2542 2255.240361 690.951394 0.000441842
10.84861 2066.9248 2034.619988 691.354831 0.000483811
10.85741 1653.0201 1607.59615 691.757249 0.000604953
10.86622 1241.6387 1227.471152 692.158673 0.000805387
10.87502 990.39612 985.081366 692.559083 0.001009697
10.88382 863.9613 861.45825 692.958457 0.001157459
10.89262 806.21832 805.633762 693.356776 0.001240359
10.90142 774.64673 780.305847 693.75402 0.001290911
10.91023 756.72632 768.817657 694.150214 0.001321482
10.91903 747.2804 765.279582 694.545248 0.001338186
10.92783 743.53143 765.99914 694.939148 0.001344933
10.93663 742.54535 764.699444 695.331896 0.001346719
10.94544 739.91345 756.153757 695.723472 0.001351509
10.95424 734.88751 743.939918 696.113859 0.001360752
10.96304 728.30676 733.377508 696.503039 0.001373048
10.97184 721.29865 726.196618 696.891038 0.001386388
10.98064 715.79883 721.859185 697.277707 0.001397041
10.98945 712.06781 719.207056 697.663204 0.001404361
10.99825 709.44397 717.403768 698.047381 0.001409555
11.00705 707.60553 716.045796 698.430266 0.001413217
11.01585 706.75037 714.968663 698.811843 0.001414927
11.02465 706.26373 714.097126 699.192096 0.001415902
11.03346 706.10144 713.392412 699.571053 0.001416227
11.04226 705.65106 712.812224 699.94857 0.001417131
11.05106 705.04858 712.344816 700.324803 0.001418342
11.05986 704.37244 711.9566 700.699612 0.001419703
11.06867 704.85382 711.637978 701.073023 0.001418734
11.07747 704.33319 711.373987 701.445024 0.001419783
11.08627 704.05469 711.148545 701.815603 0.001420344
11.09507 703.84692 710.939166 702.184745 0.001420763
11.10387 704.08533 710.69658 702.552439 0.001420282
11.11268 703.65881 710.292528 702.918715 0.001421143
11.12148 703.7146 709.444795 703.283435 0.001421031
11.13028 704.77087 707.735386 703.646715 0.001418901
11.13908 706.46588 704.930096 704.008542 0.001415497
11.14789 707.79498 701.584981 704.368824 0.001412839
11.15669 707.15411 699.68456 704.727593 0.001414119
11.16549 706.46875 701.186686 705.084838 0.001415491
11.17429 706.90692 704.754237 705.440591 0.001414613
11.18309 707.91821 708.132174 705.794723 0.001412593
11.19190 708.0611 710.469685 706.147346 0.001412307
11.20070 708.36969 711.855495 706.498452 0.001411692
11.20950 709.03442 712.726912 706.847915 0.001410369
11.21830 708.83759 713.432218 707.195885 0.00141076
11.22710 709.52209 714.189752 707.542238 0.001409399
11.23591 711.39038 715.241111 707.887008 0.001405698
11.24471 714.29437 717.09417 708.230188 0.001399983
11.25351 718.64929 720.741216 708.571773 0.001391499
11.26231 725.54065 727.284438 708.911799 0.001378283
11.27111 737.77466 736.874105 709.250143 0.001355427
11.27992 748.66101 746.847785 709.586958 0.001335718
11.28872 752.51294 751.018827 709.922123 0.001328881
11.29752 748.84833 746.94783 710.255675 0.001335384
11.30632 743.72498 740.571406 710.587611 0.001344583
11.31513 738.89935 736.008605 710.917929 0.001353364
11.32393 733.55157 732.435408 711.246628 0.001363231
11.33273 728.35541 728.360832 711.573707 0.001372956
11.34153 723.23944 724.649267 711.899201 0.001382668
11.35033 719.48846 722.1622 712.223001 0.001389876
11.35914 718.11658 720.983909 712.545253 0.001392532
11.36794 718.36487 720.780692 712.865849 0.00139205
11.37674 718.89459 721.206756 713.184826 0.001391025
11.38554 720.62848 722.156824 713.502187 0.001387678
11.39434 726.02899 723.943772 713.817933 0.001377355
11.40315 733.36902 727.655961 714.132102 0.00136357
11.41195 748.71552 735.534978 714.444592 0.001335621
11.42075 777.43817 750.357412 714.755547 0.001286276
11.42955 801.26837 772.623532 715.064866 0.001248021
11.43835 836.89026 796.197268 715.372554 0.0011949
11.44716 847.68964 805.706803 715.67872 0.001179677
11.45596 832.77069 792.076059 715.983266 0.001200811
11.46476 814.9696 768.512773 716.286232 0.00122704
11.47356 780.04468 748.57138 716.587625 0.001281978
11.48237 757.20056 736.407163 716.887485 0.001320654
11.49117 743.63654 730.638403 717.185719 0.001344743
11.49997 732.72388 728.471053 717.482435 0.001364771
11.50877 729.4809 727.962189 717.777643 0.001370838
11.51757 727.88733 728.278376 718.071283 0.001373839
11.52638 727.49725 729.270436 718.363399 0.001374576
11.53518 729.86407 731.333624 718.654 0.001370118
11.54398 734.18695 735.819696 718.943129 0.001362051
11.55278 742.35974 745.678653 719.230699 0.001347056
11.56158 757.74768 765.053673 719.516819 0.001319701
11.57039 779.62549 795.89935 719.801501 0.001282667
11.57919 804.0379 831.950337 720.084659 0.001243722
11.58799 814.37036 853.234192 720.366435 0.001227943
11.59679 804.74884 840.337163 720.646745 0.001242624
11.60559 784.88623 806.439456 720.925635 0.00127407
11.61440 767.37616 774.233539 721.203119 0.001303142
11.62320 756.95526 752.801206 721.479211 0.001321082
11.63200 750.53394 741.321162 721.753957 0.001332385
11.64080 744.64545 735.851812 722.027279 0.001342921
11.64961 739.00867 733.281788 722.299317 0.001353164
11.65841 735.42212 732.011142 722.569994 0.001359763
11.66721 732.71942 731.390239 722.839356 0.001364779
11.67601 730.43408 731.162332 723.107422 0.001369049
11.68481 729.13019 731.231155 723.374209 0.001371497
11.69362 729.10577 731.580529 723.639734 0.001371543
11.70242 729.11475 732.187583 723.904015 0.001371526
11.71122 729.57416 732.948754 724.167101 0.001370663
11.72002 729.84985 733.599607 724.428922 0.001370145
11.72883 730.56628 733.915396 724.689615 0.001368801
11.73763 731.2583 734.084398 724.949112 0.001367506
11.74643 732.48163 734.381528 725.207462 0.001365222
11.75523 733.74701 734.933552 725.464686 0.001362868
11.76403 734.39685 735.753243 725.720806 0.001361662
11.77284 735.02301 736.82235 725.97587 0.001360502
11.78164 736.16504 738.144245 726.229815 0.001358391
11.79044 738.10718 739.762222 726.482777 0.001354817
11.79924 741.60638 741.760658 726.734694 0.001348424
11.80804 746.21619 744.27568 726.985587 0.001340094
11.81685 752.74725 747.539068 727.235566 0.001328467
11.82565 761.29822 752.015699 727.484568 0.001313546
11.83445 774.62006 758.909784 727.732646 0.001290955
11.84325 797.0824 771.430764 727.979825 0.001254575
11.85206 831.90491 796.732128 728.226156 0.00120206
11.86086 882.82452 846.209798 728.471609 0.001132728
11.86966 952.12427 930.003395 728.716209 0.001050283
11.87846 1036.4235 1045.007775 728.960065 0.000964857
11.88726 1126.9259 1159.684035 729.203119 0.00088737
11.89607 1199.1654 1223.422438 729.445425 0.000833913
11.90487 1234.8625 1239.026951 729.68701 0.000809807
11.91367 1215.1021 1233.002028 729.927928 0.000822976
11.92247 1148.5563 1178.37793 730.168123 0.000870658
11.93127 1049.8396 1066.194155 730.407705 0.000952526
11.94008 955.94879 948.144712 730.646702 0.001046081
11.94888 879.81067 860.320118 730.885059 0.001136608
11.95768 830.61865 808.202355 731.122913 0.001203922
11.96648 799.1615 782.173261 731.360212 0.001251312
11.97528 780.29443 770.359267 731.597037 0.001281568
11.98409 769.01019 765.071246 731.833337 0.001300373
11.99289 763.15771 762.856749 732.069222 0.001310345
12.00169 759.4931 762.563284 732.30472 0.001316668
12.01049 758.96497 764.043813 732.539781 0.001317584
12.01929 761.9007 767.966714 732.774542 0.001312507
12.02810 770.37836 776.729242 733.008951 0.001298063
12.03690 788.77325 796.582965 733.243067 0.001267791
12.04570 826.40149 839.353839 733.476918 0.001210066
12.05450 901.20068 918.892131 733.710536 0.001109631
12.06330 1028.4006 1037.830312 733.943951 0.000972384
12.07211 1163.2054 1167.751371 734.177194 0.000859693
12.08091 1220.7797 1236.475356 734.410321 0.000819149
12.08971 1155.3899 1193.687133 734.643312 0.000865509
12.09851 1028.6901 1091.277827 734.876223 0.00097211
12.10732 918.88885 986.209379 735.109087 0.001088271
12.11612 848.74854 898.09741 735.341934 0.001178205
12.12492 808.42883 835.713733 735.574795 0.001236967
12.13372 785.30762 797.461297 735.807703 0.001273386
12.14252 770.08527 776.14801 736.040716 0.001298557
12.15133 761.32318 765.099063 736.273786 0.001313503
12.16013 756.03546 759.734404 736.50705 0.001322689
12.16893 752.60571 757.499282 736.740462 0.001328717
12.17773 751.3205 757.001626 736.974052 0.00133099
12.18653 751.39679 757.022756 737.207934 0.001330855
12.19534 750.9657 756.02146 737.442058 0.001331619
12.20414 750.02637 753.565775 737.676511 0.001333286
12.21294 749.0509 750.775383 737.911244 0.001335023
12.22174 748.27777 748.536171 738.146397 0.001336402
12.23055 747.37421 747.068187 738.381921 0.001338018
12.23935 746.54559 746.216382 738.617849 0.001339503
12.24815 746.84393 745.739474 738.854292 0.001338968
12.25695 747.04871 745.466864 739.091204 0.001338601
12.26575 746.59015 745.311213 739.328641 0.001339423
12.27456 746.73755 745.239436 739.566637 0.001339159
12.28336 747.60266 745.235393 739.805251 0.001337609
12.29216 747.82611 745.297648 740.044433 0.001337209
12.30096 748.23993 745.436906 740.284296 0.00133647
12.30977 748.84503 745.697347 740.524872 0.00133539
12.31857 749.85748 746.203781 740.766139 0.001333587
12.32737 750.82452 747.218584 741.008155 0.001331869
12.33617 752.96539 749.106721 741.250951 0.001328082
12.34497 755.9906 752.072468 741.494587 0.001322768
12.35378 758.99847 755.682943 741.739011 0.001317526
12.36258 761.27295 758.383734 741.984337 0.001313589
12.37138 762.04791 758.154512 742.230596 0.001312253
12.38018 761.29565 755.399593 742.477736 0.00131355
12.38898 758.92126 752.251137 742.725898 0.00131766
12.39779 756.76947 749.950969 742.975029 0.001321406
12.40659 755.32898 748.718554 743.225188 0.001323926
12.41539 754.44214 748.270664 743.476404 0.001325483
12.42419 754.06366 748.260998 743.728708 0.001326148
12.43299 754.20471 748.46794 743.98213 0.0013259
12.44180 754.16815 748.813007 744.236698 0.001325964
12.45060 754.31061 749.297524 744.492471 0.001325714
12.45940 755.30005 749.968226 744.74942 0.001323977
12.46820 756.51971 750.912997 745.007603 0.001321843
12.47701 758.39795 752.181504 745.267049 0.001318569
12.48581 760.68256 754.004866 745.527785 0.001314609
12.49461 762.4101 756.990142 745.78984 0.00131163
12.50341 764.30737 762.5612 746.053242 0.001308374
12.51221 767.17688 772.439548 746.318048 0.00130348
12.52102 771.17816 786.777027 746.584194 0.001296717
12.52982 774.95343 801.910312 746.851829 0.0012904
12.53862 776.45886 809.164575 747.120889 0.001287898
12.54742 774.74243 802.421995 747.391398 0.001290752
12.55622 771.74121 788.022161 747.663476 0.001295771
12.56503 769.37488 774.620931 747.937055 0.001299756
12.57383 769.55292 766.059248 748.212224 0.001299456
12.58263 774.79718 762.864516 748.488912 0.00129066
12.59143 783.6507 764.547453 748.76727 0.001276079
12.60023 798.44031 770.813891 749.047227 0.001252442
12.60904 819.94373 780.920601 749.328808 0.001219596
12.61784 833.5293 791.983129 749.61213 0.001199718
12.62664 840.83337 797.627978 749.897122 0.001189296
12.63544 833.61206 792.955025 750.183838 0.001199599
12.64424 817.26636 782.168768 750.4723 0.001223591
12.65305 800.99335 771.71154 750.762563 0.00124845
12.66185 786.58746 764.475208 751.054548 0.001271314
12.67065 778.07471 760.557944 751.348377 0.001285224
12.67945 773.01044 758.903477 751.64407 0.001293644
12.68826 770.49414 758.531362 751.94158 0.001297868
12.69706 770.2417 759.008978 752.240961 0.001298294
12.70586 772.66187 760.355348 752.54223 0.001294227
12.71466 775.18628 762.679505 752.845442 0.001290013
12.72346 779.22656 765.724713 753.150511 0.001283324
12.73227 782.48303 768.436384 753.457558 0.001277983
12.74107 785.49426 769.090552 753.766602 0.001273084
12.74987 784.76038 767.34467 754.077552 0.001274274
12.75867 782.60364 764.798664 754.390568 0.001277786
12.76747 777.85474 762.738508 754.705557 0.001285587
12.77628 774.55078 761.576208 755.022571 0.001291071
12.78508 772.13892 761.171707 755.341625 0.001295104
12.79388 770.73352 761.229236 755.662733 0.001297465
12.80268 770.26624 761.519229 755.985944 0.001298252
12.81148 770.56653 761.923527 756.311162 0.001297746
12.82029 771.2735 762.396166 756.638547 0.001296557
12.82909 771.52637 762.922796 756.967999 0.001296132
12.83789 771.35333 763.498036 757.299568 0.001296423
12.84669 771.22516 764.123171 757.633264 0.001296638
12.85550 771.46838 764.80108 757.969097 0.001296229
12.86430 772.0871 765.537137 758.307078 0.001295191
12.87310 773.48633 766.337554 758.647214 0.001292848
12.88190 773.82855 767.2121 758.989555 0.001292276
12.89070 774.57422 768.172608 759.33399 0.001291032
12.89951 774.88696 769.234877 759.680685 0.001290511
12.90831 775.72717 770.418716 760.029527 0.001289113
12.91711 776.68127 771.749544 760.380562 0.001287529
12.92591 778.45831 773.260796 760.733796 0.00128459
12.93472 780.60138 774.996868 761.089235 0.001281064
12.94352 782.97406 777.016719 761.446922 0.001277182
12.95232 784.61292 779.400143 761.80674 0.001274514
12.96112 786.88245 782.259091 762.168856 0.001270838
12.96992 789.82947 785.751022 762.533148 0.001266096
12.97873 794.48157 790.10814 762.899619 0.001258682
12.98753 802.22723 795.707735 763.268395 0.00124653
12.99633 813.68622 803.29018 763.63935 0.001228975
13.00513 831.27039 814.656596 764.012528 0.001202978
13.01393 859.49896 834.648064 764.387927 0.001163469
13.02274 909.93463 874.740457 764.76559 0.00109898
13.03154 1005.4725 955.975234 765.145428 0.000994557
13.04034 1181.2595 1103.837581 765.527439 0.000846554
13.04914 1434.0649 1328.031317 765.911749 0.000697319
13.05795 1727.3483 1590.968331 766.298226 0.000578922
13.06675 1882.0465 1779.213054 766.686907 0.000531336
13.07555 1784.7185 1753.439967 767.077788 0.000560312
13.08435 1514.26 1537.649966 767.470908 0.000660389
13.09315 1231.373 1280.069825 767.866126 0.000812102
13.10196 1055.0012 1076.418192 768.263569 0.000947866
13.11076 961.70068 951.970611 768.663232 0.001039825
13.11956 919.18854 893.924919 769.064968 0.001087916
13.12836 909.28363 882.10025 769.468952 0.001099767
13.13716 924.51611 904.600657 769.875037 0.001081647
13.14597 963.12378 955.205248 770.283305 0.001038288
13.15477 1011.8663 1021.599417 770.693605 0.000988273
13.16357 1050.8918 1074.129449 771.106066 0.000951573
13.17237 1059.2623 1073.366283 771.520675 0.000944053
13.18117 1024.6346 1019.617293 771.93728 0.000975958
13.18998 971.28357 953.72258 772.356055 0.001029565
13.19878 927.77258 906.566119 772.776845 0.00107785
13.20758 901.99335 887.614558 773.199682 0.001108656
13.21638 892.8548 890.109449 773.62455 0.001120003
13.22518 885.04871 896.838229 774.051434 0.001129881
13.23399 872.89941 889.575875 774.480317 0.001145607
13.24279 854.88776 867.072072 774.911182 0.001169744
13.25159 837.41119 841.410242 775.344061 0.001194156
13.26039 823.18921 821.100446 775.778836 0.001214788
13.26920 814.6897 808.566185 776.215537 0.001227461
13.27800 811.40521 802.86182 776.654146 0.00123243
13.28680 812.81653 802.617466 777.09464 0.00123029
13.29560 817.12421 807.824012 777.537 0.001223804
13.30440 827.67285 819.656449 777.981204 0.001208207
13.31321 841.62872 838.475923 778.42728 0.001188172
13.32201 857.38251 860.921655 778.875054 0.001166341
13.33081 870.62109 877.480195 779.324705 0.001148605
13.33961 873.98895 876.099541 779.776057 0.001144179
13.34841 865.13824 857.792087 780.229084 0.001155885
13.35722 850.00964 834.923797 780.683916 0.001176457
13.36602 832.98553 816.178203 781.140372 0.001200501
13.37482 818.80841 804.115155 781.598531 0.001221287
13.38362 809.64502 797.680482 782.058207 0.001235109
13.39243 803.71552 794.689538 782.519584 0.001244221
13.40123 800.21851 793.418561 782.982476 0.001249659
13.41003 797.76013 792.932847 783.446854 0.00125351
13.41883 796.25507 792.869603 783.912848 0.001255879
13.42763 795.68762 793.12545 784.380268 0.001256775
13.43644 795.77814 793.66057 784.849138 0.001256632
13.44524 795.95813 794.437655 785.319428 0.001256347
13.45404 796.86359 795.288522 785.791159 0.00125492
13.46284 797.60089 795.999976 786.264138 0.00125376
13.47164 797.66193 796.506825 786.738495 0.001253664
13.48045 797.98206 797.059869 787.214197 0.001253161
13.48925 799.23456 797.998082 787.691049 0.001251197
13.49805 801.21899 799.714332 788.169233 0.001248098
13.50685 803.71118 802.799768 788.648552 0.001244228
13.51566 807.24597 808.163032 789.129081 0.00123878
13.52446 812.70178 817.025885 789.61062 0.001230464
13.53326 821.40131 830.74701 790.093299 0.001217432
13.54206 833.28815 850.208132 790.57708 0.001200065
13.55086 851.77252 874.828976 791.061762 0.001174022
13.55967 875.46002 903.123723 791.547529 0.001142257
13.56847 894.37183 929.720128 792.034178 0.001118103
13.57727 900.30212 940.297291 792.521726 0.001110738
13.58607 890.20142 923.88977 793.010135 0.001123341
13.59487 868.44531 891.042975 793.499367 0.001151483
13.60368 847.68274 858.362755 793.989381 0.001179687
13.61248 832.77454 834.231648 794.48014 0.001200805
13.62128 822.3501 819.852842 794.971659 0.001216027
13.63008 816.30682 812.877016 795.463785 0.00122503
13.63889 812.98273 810.459542 795.956536 0.001230038
13.64769 812.2757 810.735217 796.449869 0.001231109
13.65649 813.71429 812.704985 796.943743 0.001228933
13.66529 816.12628 815.483079 797.438118 0.001225301
13.67409 818.42053 817.667616 797.932951 0.001221866
13.68290 819.31177 817.652607 798.428257 0.001220537
13.69170 818.2146 815.489587 798.923823 0.001222173
13.70050 815.56018 812.722419 799.419834 0.001226151
13.70930 812.41656 810.500457 799.916076 0.001230896
13.71810 810.45227 809.201793 800.412508 0.001233879
13.72691 809.18256 808.720425 800.909253 0.001235815
13.73571 807.78778 808.777516 801.406101 0.001237949
13.74451 806.65997 809.133797 801.903119 0.00123968
13.75331 806.06726 809.649051 802.400094 0.001240591
13.76211 805.77185 810.264857 802.897207 0.001241046
13.77092 806.19818 810.96079 803.394246 0.00124039
13.77972 807.11285 811.733141 803.891164 0.001238984
13.78852 806.9032 812.586072 804.388088 0.001239306
13.79732 806.91968 813.528258 804.884801 0.001239281
13.80612 807.64471 814.573807 805.381317 0.001238168
13.81493 808.79938 815.74284 805.877588 0.001236401
13.82373 810.39063 817.063846 806.373627 0.001233973
13.83253 812.3894 818.575899 806.869219 0.001230937
13.84133 815.12256 820.336155 807.364488 0.001226809
13.85014 817.10022 822.430096 807.859387 0.00122384
13.85894 819.60815 825.004576 808.353758 0.001220095
13.86774 824.46124 828.364423 808.847612 0.001212913
13.87654 832.44269 833.234815 809.340903 0.001201284
13.88534 843.69025 841.30605 809.833641 0.001185269
13.89415 859.96692 855.976573 810.325612 0.001162835
13.90295 884.42865 882.715877 810.816939 0.001130673
13.91175 920.91364 927.866264 811.307575 0.001085878
13.92055 972.37927 995.110957 811.797307 0.001028405
13.92935 1038.6238 1079.494506 812.286313 0.000962813
13.93816 1111.3492 1161.071831 812.774378 0.000899807
13.94696 1167.7482 1214.014922 813.261514 0.000856349
13.95576 1181.7305 1224.789871 813.747675 0.000846217
13.96456 1144.5498 1184.191378 814.232815 0.000873706
13.97337 1076.2036 1102.457905 814.716943 0.000929192
13.98217 1005.2209 1013.89488 815.199849 0.000994806
13.99097 948.90656 942.872382 815.681709 0.001053845
13.99977 910.55768 896.042684 816.162311 0.001098228
14.00857 886.31189 869.700185 816.641666 0.001128271
14.01738 869.9126 856.698205 817.119729 0.001149541
14.02618 859.46637 850.933717 817.596456 0.001163513
14.03498 852.53046 848.754041 818.071801 0.001172979
14.04378 849.95605 848.471845 818.545722 0.001176531
14.05259 849.91364 849.508703 819.018226 0.00117659
14.06139 853.90472 851.854424 819.489111 0.001171091
14.07019 862.86011 856.065207 819.958546 0.001158936
14.07899 878.755 863.779567 820.426327 0.001137974
14.08779 903.69849 878.757376 820.892465 0.001106564
14.09660 945.13733 907.668633 821.356918 0.001058047
14.10540 1011.0373 958.809116 821.819642 0.000989083
14.11420 1104.2694 1036.93194 822.280648 0.000905576
14.12300 1212.3636 1134.808882 822.739737 0.000824835
14.13180 1301.9803 1225.066904 823.197076 0.000768061
14.14061 1323.2025 1261.358282 823.652468 0.000755742
14.14941 1274.1877 1221.266079 824.105873 0.000784814
14.15821 1193.6781 1141.347778 824.557404 0.000837747
14.16701 1128.0787 1071.675841 825.006868 0.000886463
14.17581 1100.66 1045.96041 825.454275 0.000908546
14.18462 1128.6281 1084.605499 825.899587 0.000886031
14.19342 1233.2849 1196.010532 826.342814 0.000810843
14.20222 1423.5964 1369.597853 826.783818 0.000702446
14.21102 1641.8201 1562.413213 827.222561 0.00060908
14.21983 1751.7091 1688.259298 827.659156 0.000570871
14.22863 1656.2095 1660.360129 828.093415 0.000603788
14.23743 1448.097 1499.198374 828.525352 0.000690561
14.24623 1250.6079 1299.880913 828.95493 0.000799611
14.25503 1118.9585 1130.209926 829.382114 0.000893688
14.26384 1036.4052 1015.292082 829.80687 0.000964874
14.27264 986.63281 952.322102 830.229161 0.001013548
14.28144 955.02222 928.042837 830.649002 0.001047096
14.29024 936.25305 930.76271 831.066217 0.001068087
14.29904 926.7522 952.778809 831.480961 0.001079037
14.30785 925.04852 986.209337 831.893062 0.001081024
14.31665 928.77057 1017.557222 832.302534 0.001076692
14.32545 934.86292 1027.050728 832.709346 0.001069676
14.33425 937.69714 1005.004289 833.113467 0.001066442
14.34305 933.76819 965.001523 833.514914 0.00107093
14.35186 920.43719 924.910701 833.913519 0.00108644
14.36066 904.13983 893.953696 834.309436 0.001106024
14.36946 887.59528 873.783445 834.702501 0.00112664
14.37826 875.09027 861.712622 835.092731 0.001142739
14.38706 865.97247 854.049589 835.4801 0.001154771
14.39587 860.24213 848.125098 835.864581 0.001162463
14.40467 858.19232 842.962337 836.24615 0.00116524
14.41347 858.54926 839.25328 836.62478 0.001164756
14.42227 860.96399 838.903005 837.000491 0.001161489
14.43108 863.84906 843.238837 837.373174 0.00115761
14.43988 867.13 852.094742 837.742849 0.00115323
14.44868 872.12146 865.612721 838.109493 0.001146629
14.45748 881.12201 884.47253 838.473087 0.001134917
14.46628 894.47424 908.093869 838.833608 0.001117975
14.47509 908.47467 932.367797 839.191038 0.001100746
14.48389 920.20074 948.207178 839.545398 0.001086719
14.49269 921.78156 946.114425 839.896548 0.001084856
14.50149 914.37396 928.193261 840.244632 0.001093644
14.51029 901.09009 905.371052 840.589512 0.001109767
14.51910 887.56268 886.15573 840.931176 0.001126681
14.52790 877.46271 874.720847 841.269722 0.00113965
14.53670 875.7052 872.76603 841.605021 0.001141937
14.54550 881.35577 880.936742 841.937099 0.001134616
14.55430 894.01184 898.535442 842.265941 0.001118553
14.56311 910.71716 921.999932 842.591538 0.001098036
14.57191 926.52979 943.743614 842.913912 0.001079296
14.58071 933.50781 952.728042 843.232946 0.001071228
14.58951 926.74133 943.374015 843.548775 0.00107905
14.59832 909.742 923.21174 843.861282 0.001099213
14.60712 892.07001 903.044658 844.170495 0.001120988
14.61592 878.96979 889.223581 844.476407 0.001137696
14.62472 870.9389 883.595728 844.779012 0.001148186
14.63352 867.82599 884.799256 845.078306 0.001152305
14.64233 866.90521 889.548836 845.374283 0.001153529
14.65113 866.76862 893.727098 845.666974 0.00115371
14.65993 866.90076 894.767127 845.956275 0.001153535
14.66873 868.39709 894.725379 846.242318 0.001151547
14.67754 872.09546 897.762056 846.525003 0.001146663
14.68634 879.58093 906.173266 846.804363 0.001136905
14.69514 889.40625 919.024065 847.080399 0.001124346
14.70394 899.19684 931.673581 847.353112 0.001112104
14.71274 902.46051 936.973663 847.622535 0.001108082
14.72155 897.39368 932.544669 847.888581 0.001114338
14.73035 890.245 925.35616 848.151374 0.001123286
14.73915 888.53235 924.1203 848.410831 0.001125451
14.74795 892.46893 933.418813 848.666986 0.001120487
14.75675 901.79956 952.2669 848.919848 0.001108894
14.76556 913.98071 973.88911 849.169423 0.001094115
14.77436 926.81018 987.67301 849.415721 0.00107897
14.78316 936.48682 989.107001 849.658752 0.001067821
14.79196 945.80664 987.065868 849.898552 0.001057299
14.80077 960.20081 991.895826 850.135079 0.001041449
14.80957 977.69971 1004.705644 850.368346 0.001022809
14.81837 985.87732 1015.6409 850.598445 0.001014325
14.82717 973.92792 1009.7446 850.825312 0.00102677
14.83597 945.78528 984.03935 851.048986 0.001057322
14.84478 916.19519 950.166123 851.269485 0.00109147
14.85358 894.3739 919.389993 851.48685 0.001118101
14.86238 881.22296 897.036902 851.701023 0.001134787
14.87118 872.73792 883.829562 851.912097 0.001145819
14.87998 867.64276 878.299369 852.120091 0.001152548
14.88879 865.92065 878.9308 852.324953 0.00115484
14.89759 866.92902 885.067465 852.526799 0.001153497
14.90639 869.57013 896.319034 852.725579 0.001149994
14.91519 873.12573 911.18316 852.921363 0.00114531
14.92399 879.28528 925.640828 853.114107 0.001137287
14.93280 885.73682 932.934532 853.303901 0.001129004
14.94160 891.27582 928.152507 853.49077 0.001121987
14.95040 891.71466 914.517624 853.674676 0.001121435
14.95920 888.58551 898.936396 853.85573 0.001125384
14.96800 882.6936 885.992998 854.033897 0.001132896
14.97681 876.96912 877.318509 854.209225 0.001140291
14.98561 872.75806 872.633839 854.381745 0.001145793
14.99441 871.95465 870.933393 854.551485 0.001146849
15.00321 874.00275 871.477207 854.718476 0.001144161
15.01201 877.52899 874.36784 854.882751 0.001139563
15.02082 885.28735 880.755836 855.044358 0.001129577
15.02962 898.87152 892.684639 855.203295 0.001112506
15.03842 924.28784 912.297127 855.359613 0.001081914
15.04722 965.73846 940.277053 855.513347 0.001035477
15.05603 1022.972 973.686009 855.664532 0.000977544
15.06483 1072.0138 1004.115286 855.813204 0.000932824
15.07363 1091.7039 1020.208628 855.959399 0.000915999
15.08243 1070.0189 1016.037738 856.10317 0.000934563
15.09123 1030.3855 994.152082 856.244507 0.000970511
15.10004 984.13708 964.326923 856.383513 0.001016119
15.10884 947.26764 937.178445 856.52018 0.001055668
15.11764 921.23431 917.753664 856.654547 0.0010855
15.12644 905.13287 905.612997 856.786701 0.00110481
15.13524 894.49768 897.556293 856.916637 0.001117946
15.14405 887.0545 891.219928 857.044428 0.001127326
15.15285 882.67566 886.561456 857.170071 0.001132919
15.16165 881.21552 884.56498 857.293667 0.001134796
15.17045 883.39026 886.476697 857.415218 0.001132003
15.17925 889.87695 893.627804 857.534767 0.001123751
15.18806 901.09259 907.11269 857.652401 0.001109764
15.19686 919.77295 927.01599 857.768123 0.001087225
15.20566 948.30316 951.147726 857.881994 0.001054515
15.21446 982.46576 974.640164 857.994059 0.001017847
15.22327 1012.6011 991.85183 858.104377 0.000987556
15.23207 1020.0043 996.872133 858.212959 0.000980388
15.24087 1001.4623 987.351036 858.319889 0.00099854
15.24967 975.3855 970.509423 858.425215 0.001025236
15.25848 952.98175 955.838608 858.528962 0.001049338
15.26728 941.57562 947.127642 858.631191 0.00106205
15.27608 935.1051 941.747045 858.731951 0.001069399
15.28488 928.28876 933.786858 858.831303 0.001077251
15.29368 915.7005 920.87751 858.929264 0.00109206
15.30249 901.62958 906.003927 859.025919 0.001109103
15.31129 888.5556 892.651249 859.121317 0.001125422
15.32009 879.08923 882.585497 859.215478 0.001137541
15.32889 871.8183 875.997815 859.308496 0.001147028
15.33769 867.98175 872.158837 859.400391 0.001152098
15.34650 865.42963 870.084447 859.491225 0.001155495
15.35530 864.36023 868.988619 859.581052 0.001156925
15.36410 863.47675 868.401268 859.669924 0.001158109
15.37290 863.48944 868.091258 859.757904 0.001158092
15.38170 863.80933 867.960214 859.845015 0.001157663
15.39051 864.67877 867.970433 859.931351 0.001156499
15.39931 864.41589 868.113591 860.016934 0.001156851
15.40811 865.66022 868.403754 860.101829 0.001155188
15.41691 867.61804 868.893457 860.186089 0.001152581
15.42572 870.18085 869.716809 860.269769 0.001149186
15.43452 872.69843 871.171141 860.352923 0.001145871
15.44332 878.03815 873.819398 860.435604 0.001138903
15.45212 883.75403 878.531026 860.517877 0.001131537
15.46092 892.45001 886.323346 860.599767 0.001120511
15.46973 903.80219 897.887641 860.681366 0.001106437
15.47853 921.19116 912.790611 860.762701 0.001085551
15.48733 941.23248 928.572712 860.843835 0.001062437
15.49613 961.10706 940.699836 860.924823 0.001040467
15.50493 973.29761 944.89559 861.005719 0.001027435
15.51374 976.18103 939.419362 861.086586 0.0010244
15.52254 966.59711 926.328897 861.167451 0.001034557
15.53134 952.34564 910.802453 861.248405 0.001050039
15.54014 935.41547 897.165001 861.329474 0.001069044
15.54894 920.40271 887.280891 861.410712 0.001086481
15.55775 907.3584 881.185609 861.492201 0.0011021
15.56655 899.04724 878.010234 861.573965 0.001112289
15.57535 892.75458 876.720671 861.656069 0.001120129
15.58415 888.6087 876.526884 861.738564 0.001125355
15.59296 886.60699 876.96799 861.821513 0.001127895
15.60176 884.87555 877.834903 861.904941 0.001130102
15.61056 884.849 879.082122 861.988928 0.001130136
15.61936 886.10492 880.740298 862.073526 0.001128535
15.62816 888.85632 882.933193 862.158769 0.001125041
15.63697 893.20587 885.93304 862.244716 0.001119563
15.64577 900.74548 890.320031 862.33142 0.001110192
15.65457 911.93164 897.138362 862.418941 0.001096573
15.66337 927.83691 908.00442 862.507299 0.001077776
15.67217 949.1225 924.909641 862.596574 0.001053605
15.68098 976.06171 949.665781 862.686817 0.001024525
15.68978 1010.397 983.42146 862.778045 0.00098971
15.69858 1047.6858 1026.762822 862.870349 0.000954485
15.70738 1094.821 1080.583873 862.963746 0.000913391
15.71618 1152.1108 1149.93709 863.058293 0.000867972
15.72499 1244.1581 1248.052149 863.154038 0.000803756
15.73379 1383.613 1385.984015 863.251028 0.000722745
15.74259 1583.1794 1553.882226 863.34932 0.00063164
15.75139 1752.1686 1710.303428 863.448925 0.000570721
15.76020 1828.3694 1786.919769 863.549935 0.000546935
15.76900 1730.1387 1735.232488 863.65236 0.000577988
15.77780 1543.1854 1582.8025 863.756254 0.00064801
15.78660 1350.0493 1396.123713 863.861661 0.000740714
15.79540 1219.894 1225.179341 863.968624 0.000819743
15.80421 1115.2789 1094.510244 864.077183 0.000896637
15.81301 1054.0742 1007.682263 864.187381 0.0009487
15.82181 1003.8055 955.78962 864.299271 0.000996209
15.83061 972.28204 926.737598 864.412853 0.001028508
15.83942 947.18158 910.631918 864.52822 0.001055764
15.84822 930.35999 901.246188 864.645369 0.001074853
15.85702 917.23456 895.253823 864.764352 0.001090234
15.86582 907.46259 891.070834 864.885205 0.001101974
15.87462 900.45392 887.967097 865.007964 0.001110551
15.88343 895.20184 885.594444 865.132678 0.001117067
15.89223 891.52966 883.773918 865.25934 0.001121668
15.90103 888.79004 882.409679 865.38804 0.001125125
15.90983 887.21509 881.479558 865.518767 0.001127122
15.91863 885.81824 881.059756 865.651552 0.0011289
15.92744 885.21735 881.390418 865.786472 0.001129666
15.93624 885.28113 882.940443 865.923511 0.001129585
15.94504 887.15625 886.388173 866.062713 0.001127197
15.95384 890.83746 892.394582 866.204107 0.001122539
15.96265 896.83722 901.138711 866.347736 0.00111503
15.97145 904.4032 911.723302 866.493593 0.001105702
15.98025 912.40906 921.691653 866.641704 0.001096
15.98905 915.10071 927.092421 866.792144 0.001092776
15.99785 912.11908 924.848261 866.944884 0.001096348
16.00665 903.50653 916.187446 867.099965 0.001106799
16.01546 895.77905 905.121419 867.257407 0.001116347
16.02426 890.28412 894.921964 867.41725 0.001123237
16.03306 886.72992 887.212025 867.579476 0.001127739
16.04186 883.73871 882.292223 867.744121 0.001131556
16.05066 882.27673 879.711344 867.911184 0.001133431
16.05947 881.12494 878.777026 868.080719 0.001134913
16.06827 879.58569 878.856692 868.252742 0.001136899
16.07707 878.90002 879.431625 868.427227 0.001137786
16.08588 878.34241 880.021553 868.604228 0.001138508
16.09468 878.29877 880.179376 868.783716 0.001138565
16.10348 877.68011 879.740979 868.96568 0.001139367
16.11228 877.63843 878.957691 869.150233 0.001139421
16.12108 878.07861 878.184188 869.337302 0.00113885
16.12989 878.43665 877.645642 869.526936 0.001138386
16.13869 878.28119 877.421254 869.719099 0.001138588
16.14749 878.22284 877.490558 869.913839 0.001138663
16.15629 878.84387 877.810874 870.111116 0.001137859
16.16509 879.40662 878.429842 870.310909 0.00113713
16.17390 880.09918 879.567813 870.513335 0.001136236
16.18270 881.26251 881.598047 870.718303 0.001134736
16.19150 882.41937 884.945698 870.925859 0.001133248
16.20030 885.26447 889.875962 871.135954 0.001129606
16.20911 888.03723 896.220875 871.348633 0.001126079
16.21790 891.54987 903.108971 871.563795 0.001121642
16.22671 894.50684 908.8526 871.781557 0.001117934
16.23551 896.93738 911.52529 872.001889 0.001114905
16.24431 899.03302 910.846732 872.224734 0.001112306
16.25312 900.87274 908.627458 872.450133 0.001110035
16.26192 903.34027 906.661973 872.678026 0.001107003
16.27072 907.14185 905.423325 872.908454 0.001102363
16.27952 911.22034 904.132652 873.1413 0.001097429
16.28832 913.55078 901.824806 873.376681 0.00109463
16.29713 912.45392 898.689846 873.61456 0.001095946
16.30593 908.58179 895.717263 873.854865 0.001100616
16.31473 903.37463 893.677817 874.097636 0.00110696
16.32353 898.57373 892.829663 874.342799 0.001112875
16.33233 895.00452 892.95014 874.590335 0.001117313
16.34114 893.26575 893.49879 874.840281 0.001119488
16.34994 893.02325 894.027566 875.092586 0.001119792
16.35874 893.414 894.603176 875.347259 0.001119302
16.36754 893.7016 895.723393 875.604219 0.001118942
16.37635 894.91718 898.143796 875.863498 0.001117422
16.38515 898.23206 903.032751 876.125013 0.001113298
16.39395 904.25311 912.250558 876.388738 0.001105885
16.40275 913.68359 928.459738 876.654703 0.001094471
16.41155 928.39905 954.662164 876.922851 0.001077123
16.42036 950.11212 993.049209 877.193182 0.001052507
16.42916 982.27533 1043.360443 877.465606 0.001018045
16.43796 1023.6139 1101.090075 877.740151 0.000976931
16.44676 1073.8195 1156.144799 878.01666 0.000931255
16.45556 1126.2704 1196.613505 878.295287 0.000887886
16.46437 1173.9196 1219.073093 878.575872 0.000851847
16.47317 1208.567 1227.41095 878.85841 0.000827426
16.48197 1217.2968 1220.552069 879.142897 0.000821492
16.49077 1197.0444 1194.047786 879.429231 0.000835391
16.49958 1155.1637 1151.821707 879.717438 0.000865678
16.50838 1102.5593 1104.023272 880.007348 0.000906981
16.51718 1056.5188 1057.197893 880.299116 0.000946505
16.52598 1017.069 1014.52109 880.59257 0.000983217
16.53478 983.54443 978.614769 880.8877 0.001016731
16.54359 957.02203 950.791815 881.184497 0.001044908
16.55239 937.1048 930.738307 881.48285 0.001067117
16.56119 922.91394 917.190304 881.782713 0.001083525
16.56999 913.33838 908.538258 882.084109 0.001094884
16.57879 906.90784 903.258079 882.386991 0.001102648
16.58760 903.30853 900.127166 882.691244 0.001107041
16.59640 900.45306 898.28765 882.996853 0.001110552
16.60520 897.99774 897.210525 883.303806 0.001113589
16.61400 896.40698 896.603204 883.611982 0.001115565
16.62280 896.62085 896.320323 883.921331 0.001115299
16.63161 896.96161 896.302165 884.231872 0.001114875
16.64041 897.07916 896.551285 884.543555 0.001114729
16.64921 897.77173 897.146576 884.856255 0.001113869
16.65801 899.19489 898.29889 885.169956 0.001112106
16.66681 900.10785 900.439236 885.48464 0.001110978
16.67562 901.75897 904.289524 885.80011 0.001108944
16.68442 904.7876 910.816975 886.116525 0.001105232
16.69322 909.58936 920.924143 886.433688 0.001099397
16.70202 917.5036 934.903552 886.751615 0.001089914
16.71082 928.93243 951.751313 887.070178 0.001076505
16.71963 941.30579 968.631126 887.389355 0.001062354
16.72843 952.76434 980.777183 887.709127 0.001049577
16.73723 958.95898 983.701412 888.02929 0.001042797
16.74603 958.03424 977.542564 888.350005 0.001043804
16.75483 950.78339 966.571577 888.671068 0.001051764
16.76364 943.94592 954.566069 888.992494 0.001059383
16.77244 935.96851 943.144358 889.31415 0.001068412
16.78124 928.39539 932.797188 889.636015 0.001077127
16.79004 921.46802 924.015072 889.957992 0.001085225
16.79885 916.06171 917.196151 890.280094 0.00109163
16.80765 911.68274 912.371697 890.602263 0.001096873
16.81645 908.68005 909.317482 890.924364 0.001100497
16.82525 907.2467 907.692741 891.246411 0.001102236
16.83405 906.83325 907.140235 891.568271 0.001102739
16.84286 906.9679 907.357084 891.88992 0.001102575
16.85166 907.55731 908.148166 892.21126 0.001101859
16.86046 907.88721 909.436431 892.532305 0.001101458
16.86926 908.89063 911.236384 892.852995 0.001100242
16.87806 910.79633 913.607786 893.173194 0.00109794
16.88687 913.52087 916.612471 893.492918 0.001094666
16.89567 917.35663 920.299793 893.812031 0.001090089
16.90447 922.09497 924.764161 894.130439 0.001084487
16.91327 928.22278 930.335847 894.448261 0.001077328
16.92207 937.00226 938.009064 894.765295 0.001067233
16.93088 948.84991 949.9079 895.081551 0.001053907
16.93968 966.13513 969.101684 895.396899 0.001035052
16.94848 991.63934 998.787963 895.711351 0.001008431
16.95728 1030.4847 1041.1957 896.024777 0.000970417
16.96608 1082.6145 1096.402506 896.337084 0.00092369
16.97489 1152.4585 1161.277902 896.648389 0.00086771
16.98369 1232.6992 1229.05978 896.958495 0.000811228
16.99249 1312.6913 1293.657746 897.267413 0.000761794
17.00129 1407.3146 1356.724078 897.575017 0.000710573
17.01010 1502.9329 1422.920773 897.881321 0.000665366
17.01890 1608.5055 1488.819275 898.186128 0.000621695
17.02770 1688.1537 1544.144144 898.489558 0.000592363
17.03650 1742.1823 1574.330953 898.79152 0.000573993
17.04530 1716.075 1558.535274 899.091891 0.000582725
17.05411 1601.1711 1486.347074 899.390686 0.000624543
17.06291 1432.5276 1376.532274 899.687783 0.000698067
17.07171 1291.1863 1260.583613 899.983165 0.000774482
17.08051 1183.276 1162.12218 900.276747 0.000845111
17.08931 1121.1639 1093.513584 900.568543 0.00089193
17.09812 1090.3671 1058.708557 900.858504 0.000917122
17.10692 1104.0736 1056.215443 901.146513 0.000905737
17.11572 1133.1108 1081.212529 901.432588 0.000882526
17.12452 1188.2654 1125.896114 901.716617 0.000841563
17.13333 1232.7662 1178.622104 901.998551 0.000811184
17.14213 1272.9929 1222.743261 902.27841 0.00078555
17.15093 1265.1998 1239.570497 902.556117 0.000790389
17.15973 1236.2904 1221.123628 902.831658 0.000808871
17.16853 1163.4673 1177.9507 903.104927 0.0008595
17.17734 1111.1461 1127.006838 903.375945 0.000899972
17.18614 1060.0679 1079.820822 903.644608 0.000943336
17.19494 1029.4912 1040.732197 903.910877 0.000971354
17.20374 1000.3584 1010.029258 904.174774 0.000999642
17.21254 981.64343 987.056454 904.436229 0.0010187
17.22135 964.78925 970.753361 904.695236 0.001036496
17.23015 956.37646 959.819904 904.9517 0.001045613
17.23895 950.02075 953.428184 905.205645 0.001052609
17.24775 948.11414 951.621193 905.456921 0.001054725
17.25656 948.59088 954.820143 905.70567 0.001054195
17.26536 953.8064 963.05725 905.951745 0.001048431
17.27416 962.63776 975.336198 906.195145 0.001038812
17.28296 974.39929 989.130104 906.435869 0.001026273
17.29177 983.08362 1000.154679 906.673835 0.001017207
17.30057 984.49719 1003.396506 906.909018 0.001015747
17.30937 977.15094 996.671913 907.141447 0.001023383
17.31817 963.42285 982.838106 907.371098 0.001037966
17.32697 949.35565 966.741193 907.597895 0.001053346
17.33578 939.01898 952.067564 907.821846 0.001064941
17.34458 932.30908 940.732652 908.042956 0.001072606
17.35338 929.36328 933.231072 908.261157 0.001076005
17.36218 928.28314 929.176266 908.476433 0.001077258
17.37098 927.8681 927.923074 908.688818 0.001077739
17.37979 928.19287 929.00273 908.898298 0.001077362
17.38859 929.73779 932.28295 909.104813 0.001075572
17.39739 931.85095 937.85096 909.308377 0.001073133
17.40619 935.42133 945.620743 909.509002 0.001069037
17.41499 941.45502 954.8354 909.706592 0.001062186
17.42380 948.30328 963.739411 909.901273 0.001054515
17.43260 953.745 969.564135 910.092953 0.001048498
17.44140 955.96985 969.714229 910.281672 0.001046058
17.45020 953.44812 964.058468 910.467384 0.001048825
17.45901 948.05493 955.020583 910.650111 0.001054791
17.46781 941.20911 945.337536 910.829875 0.001062463
17.47661 934.64825 936.859725 911.006598 0.001069921
17.48541 928.64337 930.443809 911.180404 0.00107684
17.49421 923.93103 926.183926 911.35122 0.001082332
17.50302 920.66046 923.730626 911.519091 0.001086177
17.51182 918.79083 922.630633 911.683988 0.001088387
17.52062 918.21838 922.553682 911.845941 0.001089066
17.52942 918.94519 923.369922 912.004943 0.001088204
17.53822 919.87689 925.102786 912.161044 0.001087102
17.54703 920.83759 927.796982 912.314258 0.001085968
17.55583 923.02509 931.353558 912.464567 0.001083394
17.56463 927.20062 935.382599 912.612021 0.001078515
17.57343 932.11035 939.107658 912.756607 0.001072834
17.58224 934.95508 941.428784 912.898363 0.00106957
17.59104 934.93634 941.488338 913.037295 0.001069592
17.59984 933.39539 939.499094 913.173459 0.001071357
17.60864 930.69745 936.56088 913.306878 0.001074463
17.61744 929.60547 933.791103 913.437548 0.001075725
17.62625 929.19843 931.928471 913.565514 0.001076196
17.63505 930.3866 931.306242 913.690817 0.001074822
17.64385 932.13123 931.921724 913.813433 0.00107281
17.65265 933.95172 933.539984 913.933478 0.001070719
17.66145 937.64069 935.825581 914.050928 0.001066507
17.67026 942.68127 938.535501 914.165847 0.001060804
17.67906 947.38409 941.769868 914.278242 0.001055538
17.68786 951.52533 946.079434 914.388166 0.001050944
17.69666 957.43481 952.297842 914.495668 0.001044458
17.70546 967.98621 961.159734 914.60074 0.001033073
17.71427 985.09937 972.946375 914.703494 0.001015126
17.72307 1004.7654 987.305299 914.803926 0.000995257
17.73187 1023.0644 1003.375331 914.902101 0.000977456
17.74067 1037.6083 1020.473088 914.998041 0.000963755
17.74948 1052.3314 1039.802136 915.091802 0.000950271
17.75828 1074.5883 1064.83648 915.183422 0.000930589
17.76708 1121.1095 1098.618155 915.272969 0.000891974
17.77588 1191.0522 1140.82163 915.36049 0.000839594
17.78468 1265.9235 1186.169532 915.446014 0.000789937
17.79349 1310.1498 1225.052385 915.529612 0.000763271
17.80229 1308.5978 1248.96273 915.611317 0.000764177
17.81109 1281.0182 1256.742489 915.691189 0.000780629
17.81989 1255.5038 1250.590668 915.769272 0.000796493
17.82869 1226.5706 1230.038919 915.84564 0.000815281
17.83750 1182.2749 1195.498672 915.920344 0.000845827
17.84630 1136.717 1153.659505 915.993424 0.000879726
17.85510 1098.0424 1113.369635 916.064952 0.000910712
17.86390 1068.7318 1079.878069 916.134969 0.000935688
17.87270 1051.7661 1053.904615 916.20353 0.000950782
17.88151 1038.5681 1033.901989 916.270711 0.000962864
17.89031 1027.2123 1019.206865 916.336561 0.000973509
17.89911 1017.7451 1011.174595 916.401145 0.000982564
17.90791 1010.1033 1012.172405 916.464508 0.000989998
17.91672 1009.0172 1024.702227 916.526724 0.000991063
17.92552 1015.6987 1050.59802 916.587838 0.000984544
17.93432 1033.0142 1089.457485 916.647909 0.000968041
17.94312 1057.0375 1136.943576 916.707012 0.00094604
17.95192 1082.8411 1183.679305 916.7652 0.000923497
17.96073 1097.6013 1215.51343 916.822539 0.000911078
17.96953 1099.0551 1218.743844 916.879076 0.000909872
17.97833 1082.1412 1190.890371 916.934885 0.000924094
17.98713 1055.6846 1142.957668 916.990001 0.000947253
17.99593 1025.5193 1089.255226 917.04452 0.000975116
18.00474 1000.3326 1040.248525 917.098479 0.000999668
18.01354 978.0296 1001.287939 917.151942 0.001022464
18.02234 961.78705 973.57906 917.204975 0.001039731
18.03114 949.52637 955.609106 917.257625 0.001053157
18.03995 941.25952 944.733711 917.309963 0.001062406
18.04875 935.45282 938.382258 917.362023 0.001069001
18.05755 932.38196 934.632019 917.413898 0.001072522
18.06635 929.89923 932.289725 917.465621 0.001075385
18.07515 927.71478 930.7014 917.517255 0.001077918
18.08396 926.0105 929.542303 917.568862 0.001079901
18.09276 925.46344 928.656503 917.620484 0.00108054
18.10156 925.40741 927.966658 917.672175 0.001080605
18.11036 926.10773 927.430475 917.724002 0.001079788
18.11916 926.52209 927.022466 917.776016 0.001079305
18.12797 926.15967 926.726872 917.828257 0.001079727
18.13677 926.27783 926.534354 917.880782 0.00107959
18.14557 926.24951 926.442165 917.933645 0.001079623
18.15437 926.38873 926.456108 917.986883 0.00107946
18.16317 927.42767 926.597285 918.040543 0.001078251
18.17198 929.3421 926.915776 918.094682 0.00107603
18.18078 931.74231 927.529709 918.149345 0.001073258
18.18958 934.78888 928.660786 918.204564 0.00106976
18.19838 938.57867 930.693976 918.260385 0.001065441
18.20719 944.09247 934.216755 918.316855 0.001059218
18.21599 952.96222 939.937429 918.373987 0.00104936
18.22479 964.87341 948.50335 918.431856 0.001036405
18.23359 981.46021 960.133803 918.490473 0.00101889
18.24239 1001.9651 974.233952 918.549877 0.000998039
18.25120 1026.6411 989.039114 918.610107 0.00097405
18.26000 1048.109 1001.486287 918.67118 0.000954099
18.26880 1061.8558 1007.839976 918.733137 0.000941747
18.27760 1060.3654 1005.863534 918.795977 0.000943071
18.28640 1046.9088 996.815306 918.859766 0.000955193
18.29521 1029.9396 984.4105 918.924498 0.000970931
18.30401 1013.6584 972.320718 918.990202 0.000986526
18.31281 1001.1284 962.924738 919.056902 0.000998873
18.32161 990.57062 957.109074 919.1246 0.001009519
18.33041 981.4704 954.46377 919.193309 0.001018879
18.33922 974.17657 953.637005 919.263057 0.001026508
18.34802 967.77478 952.864374 919.333853 0.001033298
18.35682 962.41986 950.841469 919.405688 0.001039048
18.36562 957.54816 947.450765 919.478576 0.001044334
18.37443 952.83087 943.443794 919.552528 0.001049504
18.38323 947.77136 939.663064 919.627525 0.001055107
18.39203 944.11548 936.688092 919.703567 0.001059192
18.40083 941.40625 934.784396 919.780665 0.001062241
18.40963 939.83759 933.96035 919.858812 0.001064014
18.41844 939.61389 934.065578 919.937981 0.001064267
18.42724 940.54041 934.910425 920.018168 0.001063219
18.43604 942.16028 936.41045 920.099368 0.001061391
18.44484 945.50171 938.682352 920.181527 0.00105764
18.45364 950.39532 942.084945 920.264679 0.001052194
18.46245 957.13635 946.998658 920.348765 0.001044783
18.47125 967.72156 953.537252 920.433779 0.001033355
18.48005 981.87701 961.319752 920.519674 0.001018457
18.48885 996.77844 969.31585 920.606429 0.001003232
18.49766 1009.2904 975.883647 920.694021 0.000990795
18.50646 1008.0624 979.371985 920.782374 0.000992002
18.51526 1001.5163 979.193909 920.87151 0.000998486
18.52406 993.32288 975.951806 920.961349 0.001006722
18.53286 986.83398 970.639257 921.051866 0.001013342
18.54167 983.1629 964.62321 921.142995 0.001017125
18.55047 980.22046 959.816969 921.234698 0.001020179
18.55927 978.82068 958.05336 921.326913 0.001021638
18.56807 979.78674 960.708683 921.419608 0.00102063
18.57687 984.19623 969.141238 921.512726 0.001016058
18.58568 994.78522 984.947995 921.606187 0.001005242
18.59448 1012.8935 1009.764059 921.699952 0.000987271
18.60328 1039.552 1044.686713 921.793935 0.000961953
18.61208 1070.9723 1089.33095 921.888082 0.000933731
18.62088 1103.9154 1140.872177 921.982313 0.000905867
18.62969 1131.3468 1193.893606 922.07658 0.000883902
18.63849 1153.6019 1241.275617 922.170809 0.00086685
18.64729 1167.9926 1274.7882 922.264904 0.00085617
18.65609 1171.2687 1287.403317 922.35881 0.000853775
18.66490 1166.0946 1279.065869 922.452426 0.000857563
18.67370 1157.6949 1256.648844 922.545672 0.000863785
18.68250 1147.3398 1226.478953 922.638485 0.000871581
18.69130 1135.42 1190.462015 922.730771 0.000880731
18.70010 1112.8512 1149.012556 922.822452 0.000898593
18.70891 1081.8374 1105.188403 922.91342 0.000924353
18.71771 1048.1709 1063.790732 923.003606 0.000954043
18.72651 1018.6802 1028.402478 923.092899 0.000981662
18.73531 997.091 1000.619578 923.181205 0.001002917
18.74411 982.69086 980.498152 923.268451 0.001017614
18.75292 973.19312 967.157338 923.354532 0.001027545
18.76172 967.01996 959.280869 923.43936 0.001034105
18.77052 963.83484 955.651014 923.52282 0.001037522
18.77932 963.13464 955.578207 923.604833 0.001038276
18.78812 965.46844 959.172535 923.685263 0.001035767
18.79693 970.98846 967.450782 923.764056 0.001029878
18.80573 981.39709 982.211662 923.841103 0.001018956
18.81453 999.36108 1005.590222 923.916286 0.001000639
18.82333 1030.479 1039.20067 923.989522 0.000970422
18.83214 1082.5527 1082.940351 924.060694 0.000923743
18.84094 1160.4113 1133.810856 924.129718 0.000861763
18.84974 1247.9948 1185.139685 924.196462 0.000801285
18.85854 1312.3322 1226.607884 924.260867 0.000762002
18.86734 1324.2534 1246.217202 924.322823 0.000755142
18.87615 1277.9891 1236.922506 924.38222 0.000782479
18.88495 1204.0045 1202.450338 924.438972 0.000830562
18.89375 1133.9375 1153.870666 924.49297 0.000881883
18.90255 1081.8851 1102.738839 924.54412 0.000924313
18.91135 1047.7878 1057.46518 924.592341 0.000954392
18.92016 1026.2343 1022.321265 924.637534 0.000974436
18.92896 1011.9584 997.742349 924.679613 0.000988183
18.93776 1000.7358 981.654837 924.71848 0.000999265
18.94656 990.88147 971.124035 924.754059 0.001009202
18.95537 981.53607 963.759896 924.786257 0.001018811
18.96417 972.67902 958.154297 924.814995 0.001028088
18.97297 964.33386 953.55262 924.8402 0.001036985
18.98177 958.50421 949.537087 924.861794 0.001043292
18.99057 953.86279 945.941228 924.879707 0.001048369
18.99938 950.2901 942.795849 924.893865 0.00105231
19.00818 948.19263 940.18426 924.904207 0.001054638
19.01698 947.16608 938.147087 924.910668 0.001055781
19.02578 946.01996 936.665522 924.913195 0.00105706
19.03458 944.19519 935.694785 924.911734 0.001059103
19.04339 942.46039 935.189491 924.906235 0.001061053
19.05219 941.65704 935.14422 924.896654 0.001061958
19.06099 941.901 935.62849 924.882955 0.001061683
19.06979 942.1828 936.801827 924.865101 0.001061365
19.07859 942.10852 938.893812 924.843073 0.001061449
19.08740 943.32361 942.137053 924.816834 0.001060082
19.09620 946.21118 946.644928 924.786377 0.001056847
19.10500 950.17731 952.273923 924.751689 0.001052435
19.11380 954.88513 958.499851 924.712761 0.001047246
19.12261 960.18658 964.348403 924.669605 0.001041464
19.13141 965.61871 968.458098 924.62223 0.001035605
19.14021 970.13092 969.574822 924.570641 0.001030789
19.14901 971.14069 967.468597 924.514861 0.001029717
19.15781 968.20355 963.203496 924.454932 0.001032841
19.16662 963.67499 958.34556 924.390886 0.001037694
19.17542 959.94763 954.273371 924.322761 0.001041723
19.18422 957.79749 952.032392 924.250626 0.001044062
19.19302 957.83118 952.416795 924.174545 0.001044025
19.20182 959.70313 956.117154 924.09457 0.001041989
19.21063 964.64014 963.849765 924.010779 0.001036656
19.21943 972.67194 976.340009 923.923278 0.001028096
19.22823 984.26355 994.104229 923.832155 0.001015988
19.23703 999.28534 1017.047042 923.737504 0.001000715
19.24583 1019.8395 1044.091157 923.639484 0.000980546
19.25464 1046.7938 1073.160883 923.538152 0.000955298
19.26344 1075.5529 1100.896796 923.433687 0.000929754
19.27224 1100.3785 1122.296496 923.326208 0.000908778
19.28104 1111.8602 1131.907197 923.215892 0.000899394
19.28985 1098.9144 1127.547828 923.10289 0.000909989
19.29865 1078.9529 1112.370089 922.987362 0.000926825
19.30745 1059.1383 1091.933626 922.869543 0.000944164
19.31625 1043.6885 1070.466698 922.749544 0.00095814
19.32505 1033.8436 1049.731918 922.627624 0.000967264
19.33386 1023.6238 1029.761397 922.503966 0.000976921
19.34266 1009.3663 1010.503492 922.378822 0.000990721
19.35146 993.98627 992.70408 922.25241 0.00100605
19.36026 979.77954 977.335507 922.124988 0.001020638
19.36906 968.49365 965.009043 921.99678 0.001032531
19.37787 961.28711 955.918393 921.868048 0.001040272
19.38667 957.62628 949.92399 921.739095 0.001044249
19.39547 954.78076 946.617417 921.610174 0.001047361
19.40427 953.06183 945.445322 921.481605 0.00104925
19.41307 954.05396 945.841969 921.353705 0.001048159
19.42188 954.90491 947.384102 921.226712 0.001047225
19.43068 956.04462 949.970336 921.101003 0.001045976
19.43948 957.52814 954.001309 920.976878 0.001044356
19.44828 960.79297 960.268156 920.854701 0.001040807
19.45709 966.37903 969.501638 920.73479 0.001034791
19.46589 975.7218 981.855614 920.617524 0.001024882
19.47469 987.43396 996.570346 920.503276 0.001012726
19.48349 999.79321 1011.75594 920.392347 0.001000207
19.49229 1010.5242 1024.415012 920.285162 0.000989585
19.50110 1015.8691 1031.314779 920.182075 0.000984379
19.50990 1015.4682 1030.819765 920.083495 0.000984767
19.51870 1010.1516 1023.915014 919.989789 0.00098995
19.52750 1003.9744 1013.194553 919.901389 0.000996041
19.53630 997.76654 1001.580295 919.818642 0.001002238
19.54511 993.07404 991.518953 919.74196 0.001006974
19.55391 989.88159 984.319092 919.67176 0.001010222
19.56271 988.48438 979.916341 919.608429 0.00101165
19.57151 989.72638 977.091785 919.552383 0.00101038
19.58032 991.01068 974.0709 919.504012 0.001009071
19.58912 989.18811 969.581243 919.463733 0.00101093
19.59792 984.05701 963.629132 919.431919 0.001016201
19.60672 977.95703 957.131292 919.40897 0.00102254
19.61552 970.06714 951.104693 919.395277 0.001030856
19.62433 964.72925 946.259243 919.391218 0.00103656
19.63313 961.06042 942.939932 919.397166 0.001040517
19.64193 959.99762 941.151987 919.41348 0.001041669
19.65073 959.78046 940.671581 919.440513 0.001041905
19.65953 959.85669 941.23537 919.478605 0.001041822
19.66834 959.99524 942.728896 919.528086 0.001041672
19.67714 959.02826 945.230853 919.589252 0.001042722
19.68594 957.36121 948.843917 919.662407 0.001044538
19.69474 957.07745 953.488952 919.747806 0.001044848
19.70354 957.95313 958.724733 919.845693 0.001043892
19.71235 959.28455 963.663389 919.956312 0.001042444
19.72115 961.59491 967.114615 920.079853 0.001039939
19.72995 964.42139 968.15216 920.216499 0.001036891
19.73875 966.02264 966.677712 920.366358 0.001035172
19.74756 965.99652 963.22128 920.529567 0.0010352
19.75636 964.10077 958.434777 920.706114 0.001037236
19.76516 960.40643 953.027894 920.896148 0.001041226
19.77396 956.95789 947.828977 921.099572 0.001044978
19.78276 953.67145 943.597227 921.316347 0.001048579
19.79157 949.89325 940.892255 921.546391 0.00105275
19.80037 947.02856 940.111745 921.789492 0.001055934
19.80917 945.82281 941.568112 922.045488 0.00105728
19.81797 946.19177 945.520973 922.313984 0.001056868
19.82678 948.65033 952.140764 922.594826 0.001054129
19.83558 953.09192 961.398399 922.887484 0.001049217
19.84438 961.02576 972.942154 923.191516 0.001040555
19.85318 972.28339 985.915373 923.506406 0.001028507
19.86198 985.1521 998.853099 923.831453 0.001015072
19.87079 997.01941 1009.944941 924.165939 0.00100299
19.87959 1005.4955 1017.806616 924.509138 0.000994535
19.88839 1009.3561 1021.844927 924.860156 0.000990731
19.89719 1008.078 1021.622596 925.217916 0.000991987
19.90599 1000.2162 1016.56958 925.581359 0.000999784
19.91480 988.99066 1006.875116 925.949316 0.001011132
19.92360 975.1875 994.137293 926.320379 0.001025444
19.93240 962.86816 980.571446 926.693099 0.001038564
19.94120 953.47119 967.969299 927.065988 0.001048799
19.95001 946.68311 957.37664 927.437336 0.00105632
19.95881 942.12091 949.194818 927.80521 0.001061435
19.96761 939.6546 943.336391 928.167655 0.001064221
19.97641 937.39362 939.42893 928.522561 0.001066788
19.98521 935.77606 936.984896 928.867456 0.001068632
19.99402 935.03851 935.535098 929.200094 0.001069475
20.00282 935.68176 934.708154 929.517659 0.001068739
20.01162 936.15125 934.244779 929.817377 0.001068203
20.02042 936.72113 933.983858 930.096142 0.001067554
20.02922 938.30603 933.831436 930.350747 0.00106575
20.03803 941.61267 933.734867 930.577763 0.001062008
20.04683 946.88104 933.663746 930.773425 0.001056099
20.05563 951.88409 933.598936 930.933962 0.001050548
20.06443 954.2746 933.526905 931.055145 0
20.07324 954.68011 0 0 0
20.08204 952.18811 0 0 0
20.09084 948.37933 0 0 0
20.09964 944.52979 0 0 0
20.10844 942.19696 0 0 0
20.11725 941.45331 0 0 0
20.12605 941.02759 0 0 0
20.13485 940.88995 0 0 0
20.14365 941.95471 0 0 0
20.15245 944.2168 0 0 0
20.16126 947.13947 0 0 0
20.17006 950.42877 0 0 0
20.17886 953.13971 0 0 0
20.18766 954.96198 0 0 0
20.19646 956.6037 0 0 0
20.20527 957.99274 0 0 0
20.21407 959.53058 0 0 0
20.22287 961.79779 0 0 0
20.23167 964.30328 0 0 0
20.24047 966.74554 0 0 0
20.24928 967.99878 0 0 0
20.25808 967.74286 0 0 0
20.26688 966.61761 0 0 0
20.27568 964.54431 0 0 0
20.28449 962.03589 0 0 0
20.29329 959.58331 0 0 0
20.30209 958.11646 0 0 0
20.31089 956.40863 0 0 0
20.31969 953.85144 0 0 0
20.32850 950.46515 0 0 0
20.33730 947.68329 0 0 0
20.34610 945.34729 0 0 0
20.35490 943.73175 0 0 0
20.36370 942.66785 0 0 0
20.37251 942.13025 0 0 0
20.38131 941.46606 0 0 0
20.39011 941.83698 0 0 0
20.39891 942.99213 0 0 0
20.40771 944.52936 0 0 0
20.41652 946.3512 0 0 0
20.42532 948.7948 0 0 0
20.43412 951.66022 0 0 0
20.44292 954.87744 0 0 0
20.45172 958.41095 0 0 0
20.46053 961.75916 0 0 0
20.46933 963.70447 0 0 0
20.47813 965.38306 0 0 0
20.48693 966.289 0 0 0
20.49574 966.21747 0 0 0
20.50454 965.16278 0 0 0
20.51334 964.11597 0 0 0
20.52214 962.5929 0 0 0
20.53094 962.86359 0 0 0
20.53975 964.79175 0 0 0
20.54855 969.79297 0 0 0
20.55735 976.84766 0 0 0
20.56615 986.6026 0 0 0
20.57495 999.0946 0 0 0
20.58376 1012.1946 0 0 0
20.59256 1023.8395 0 0 0
20.60136 1029.1327 0 0 0
20.61016 1024.2776 0 0 0
20.61896 1012.083 0 0 0
20.62777 996.52087 0 0 0
20.63657 983.48901 0 0 0
20.64537 972.29791 0 0 0
20.65417 962.84424 0 0 0
20.66298 955.66663 0 0 0
20.67178 950.3996 0 0 0
20.68058 947.68982 0 0 0
20.68938 947.40332 0 0 0
20.69818 948.45642 0 0 0
20.70699 949.96375 0 0 0
20.71579 951.53857 0 0 0
20.72459 954.79236 0 0 0
20.73339 960.00549 0 0 0
20.74219 967.75403 0 0 0
20.75100 979.8363 0 0 0
20.75980 997.53082 0 0 0
20.76860 1022.4017 0 0 0
20.77741 1059.0034 0 0 0
20.78620 1110.1199 0 0 0
20.79501 1169.7976 0 0 0
20.80381 1214.8021 0 0 0
20.81261 1222.978 0 0 0
20.82141 1189.5103 0 0 0
20.83022 1132.6036 0 0 0
20.83902 1077.8528 0 0 0
20.84782 1036.082 0 0 0
20.85662 1006.5753 0 0 0
20.86542 987.64465 0 0 0
20.87423 974.76862 0 0 0
20.88303 965.94836 0 0 0
20.89183 960.88739 0 0 0
20.90063 957.63928 0 0 0
20.90943 955.25775 0 0 0
20.91824 953.97754 0 0 0
20.92704 953.47974 0 0 0
20.93584 952.39886 0 0 0
20.94465 951.12286 0 0 0
20.95345 950.64929 0 0 0
20.96225 950.99133 0 0 0
20.97105 952.6189 0 0 0
20.97985 955.61011 0 0 0
20.98866 960.57092 0 0 0
20.99746 968.19543 0 0 0
21.00626 977.00244 0 0 0
21.01506 987.99823 0 0 0
21.02386 998.72827 0 0 0
21.03267 1006.1777 0 0 0
21.04147 1007.5039 0 0 0
21.05027 1003.9244 0 0 0
21.05907 997.63544 0 0 0
21.06788 989.87402 0 0 0
21.07668 981.80872 0 0 0
21.08548 975.91559 0 0 0
21.09428 970.6026 0 0 0
21.10308 965.84497 0 0 0
21.11189 960.98798 0 0 0
21.12069 956.85413 0 0 0
21.12949 954.3443 0 0 0
21.13829 953.21722 0 0 0
21.14709 952.37128 0 0 0
21.15590 953.68701 0 0 0
21.16470 956.05792 0 0 0
21.17350 958.72864 0 0 0
21.18230 960.51624 0 0 0
21.19110 960.99933 0 0 0
21.19991 959.70679 0 0 0
21.20871 956.82727 0 0 0
21.21751 952.82373 0 0 0
21.22631 949.55261 0 0 0
21.23512 947.44818 0 0 0
21.24392 946.04834 0 0 0
21.25272 944.47144 0 0 0
21.26152 944.2149 0 0 0
21.27032 945.44202 0 0 0
21.27913 946.75397 0 0 0
21.28793 947.40869 0 0 0
21.29673 947.711 0 0 0
21.30553 947.71997 0 0 0
21.31433 947.61816 0 0 0
21.32314 949.63037 0 0 0
21.33194 953.1236 0 0 0
21.34074 957.87585 0 0 0
21.34954 962.7807 0 0 0
21.35834 968.92212 0 0 0
21.36715 975.50482 0 0 0
21.37595 982.35309 0 0 0
21.38475 989.69336 0 0 0
21.39355 998.76508 0 0 0
21.40236 1010.1451 0 0 0
21.41116 1028.3425 0 0 0
21.41996 1048.0574 0 0 0
21.42876 1074.4408 0 0 0
21.43756 1099.0206 0 0 0
21.44637 1120.49 0 0 0
21.45517 1128.1794 0 0 0
21.46397 1117.222 0 0 0
21.47277 1092.955 0 0 0
21.48157 1068.2528 0 0 0
21.49038 1051.6411 0 0 0
21.49918 1043.8477 0 0 0
21.50798 1041.3756 0 0 0
21.51678 1043.0677 0 0 0
21.52558 1038.8876 0 0 0
21.53439 1028.7352 0 0 0
21.54319 1013.7671 0 0 0
21.55199 996.50452 0 0 0
21.56079 983.81738 0 0 0
21.56959 974.117 0 0 0
21.57840 969.28979 0 0 0
21.58720 966.49005 0 0 0
21.59600 965.18958 0 0 0
21.60480 964.05334 0 0 0
21.61360 964.5965 0 0 0
21.62241 966.45319 0 0 0
21.63121 969.10736 0 0 0
21.64001 972.6178 0 0 0
21.64881 977.33905 0 0 0
21.65762 981.94031 0 0 0
21.66642 985.4588 0 0 0
21.67522 987.86487 0 0 0
21.68402 988.5152 0 0 0
21.69282 988.61224 0 0 0
21.70163 988.08032 0 0 0
21.71043 985.30298 0 0 0
21.71923 980.6228 0 0 0
21.72803 975.20349 0 0 0
21.73683 972.28473 0 0 0
21.74564 972.57813 0 0 0
21.75444 974.74109 0 0 0
21.76324 977.36505 0 0 0
21.77204 978.02008 0 0 0
21.78085 974.57355 0 0 0
21.78965 967.58356 0 0 0
21.79845 960.07623 0 0 0
21.80725 953.76233 0 0 0
21.81605 949.08936 0 0 0
21.82486 945.33405 0 0 0
21.83366 942.4743 0 0 0
21.84246 939.42188 0 0 0
21.85126 937.4812 0 0 0
21.86006 936.55841 0 0 0
21.86887 936.69293 0 0 0
21.87767 937.33514 0 0 0
21.88647 937.94946 0 0 0
21.89527 938.02698 0 0 0
21.90408 937.84912 0 0 0
21.91288 937.48438 0 0 0
21.92168 937.50146 0 0 0
21.93048 938.27979 0 0 0
21.93928 937.8288 0 0 0
21.94809 937.66309 0 0 0
21.95689 937.43433 0 0 0
21.96569 937.20599 0 0 0
21.97449 936.72858 0 0 0
21.98329 936.78296 0 0 0
21.99210 937.92859 0 0 0
22.00090 940.0351 0 0 0
22.00970 942.60846 0 0 0
22.01850 947.04919 0 0 0
22.02731 954.13495 0 0 0
22.03611 964.7843 0 0 0
22.04491 980.5611 0 0 0
22.05371 1000.0651 0 0 0
22.06251 1017.5449 0 0 0
22.07132 1024.3074 0 0 0
22.08012 1018.8662 0 0 0
22.08892 1004.4484 0 0 0
22.09772 987.66681 0 0 0
22.10652 975.44659 0 0 0
22.11533 968.45404 0 0 0
22.12413 965.20056 0 0 0
22.13293 966.72461 0 0 0
22.14173 972.36078 0 0 0
22.15054 984.65125 0 0 0
22.15934 1002.3049 0 0 0
22.16814 1024.8777 0 0 0
22.17694 1044.9601 0 0 0
22.18574 1057.3969 0 0 0
22.19455 1053.4799 0 0 0
22.20335 1035.2358 0 0 0
22.21215 1014.4763 0 0 0
22.22095 994.35364 0 0 0
22.22975 978.47516 0 0 0
22.23856 967.24402 0 0 0
22.24736 960.30652 0 0 0
22.25616 956.89337 0 0 0
22.26496 956.21136 0 0 0
22.27376 956.68933 0 0 0
22.28257 957.81073 0 0 0
22.29137 958.49487 0 0 0
22.30017 959.65417 0 0 0
22.30897 960.49915 0 0 0
22.31778 960.34808 0 0 0
22.32658 959.81836 0 0 0
22.33538 958.8266 0 0 0
22.34418 956.27637 0 0 0
22.35298 953.74225 0 0 0
22.36179 951.63776 0 0 0
22.37059 950.56244 0 0 0
22.37939 949.93121 0 0 0
22.38819 948.97034 0 0 0
22.39699 947.84912 0 0 0
22.40580 946.06818 0 0 0
22.41460 943.67139 0 0 0
22.42340 942.60193 0 0 0
22.43220 940.89728 0 0 0
22.44100 938.89734 0 0 0
22.44981 939.0733 0 0 0
22.45861 941.16949 0 0 0
22.46741 943.14386 0 0 0
22.47621 945.24731 0 0 0
22.48502 947.24103 0 0 0
22.49382 948.54169 0 0 0
22.50262 948.86688 0 0 0
22.51142 948.2865 0 0 0
22.52022 946.36682 0 0 0
22.52903 942.93689 0 0 0
22.53783 939.95251 0 0 0
22.54663 937.91656 0 0 0
22.55543 935.80988 0 0 0
22.56423 934.37274 0 0 0
22.57304 933.79126 0 0 0
22.58184 933.80035 0 0 0
22.59064 934.52325 0 0 0
22.59944 937.19238 0 0 0
22.60825 940.65375 0 0 0
22.61705 943.12543 0 0 0
22.62585 946.3006 0 0 0
22.63465 949.73895 0 0 0
22.64345 952.37543 0 0 0
22.65226 956.13745 0 0 0
22.66106 960.74054 0 0 0
22.66986 965.66943 0 0 0
22.67866 972.00635 0 0 0
22.68746 979.95422 0 0 0
22.69627 988.8999 0 0 0
22.70507 1000.0976 0 0 0
22.71387 1014.6738 0 0 0
22.72267 1033.4979 0 0 0
22.73147 1052.2367 0 0 0
22.74028 1067.0142 0 0 0
22.74908 1072.0222 0 0 0
22.75788 1063.8871 0 0 0
22.76668 1044.9116 0 0 0
22.77549 1023.1974 0 0 0
22.78429 1004.0841 0 0 0
22.79309 990.33948 0 0 0
22.80189 980.94263 0 0 0
22.81069 975.63434 0 0 0
22.81950 972.41821 0 0 0
22.82830 970.73645 0 0 0
22.83710 969.6142 0 0 0
22.84590 969.43359 0 0 0
22.85470 969.11169 0 0 0
22.86351 968.18555 0 0 0
22.87231 965.9325 0 0 0
22.88111 961.78174 0 0 0
22.88991 956.0611 0 0 0
22.89871 950.05969 0 0 0
22.90752 944.36523 0 0 0
22.91632 939.58484 0 0 0
22.92512 936.02686 0 0 0
22.93392 933.01599 0 0 0
22.94273 930.73755 0 0 0
22.95153 929.92157 0 0 0
22.96033 928.90955 0 0 0
22.96913 927.54132 0 0 0
22.97793 927.30255 0 0 0
22.98674 927.87445 0 0 0
22.99554 928.2063 0 0 0
23.00434 928.91321 0 0 0
23.01314 929.25024 0 0 0
23.02194 929.25385 0 0 0
23.03075 929.03754 0 0 0
23.03955 928.42627 0 0 0
23.04835 927.92969 0 0 0
23.05715 927.55829 0 0 0
23.06596 928.37445 0 0 0
23.07476 929.34631 0 0 0
23.08356 929.82788 0 0 0
23.09236 930.44135 0 0 0
23.10116 931.23151 0 0 0
23.10997 932.67584 0 0 0
23.11877 935.01038 0 0 0
23.12757 937.1037 0 0 0
23.13637 938.84619 0 0 0
23.14517 941.60712 0 0 0
23.15398 943.52374 0 0 0
23.16278 944.13959 0 0 0
23.17158 943.83826 0 0 0
23.18038 943.50885 0 0 0
23.18918 943.21674 0 0 0
23.19799 944.55994 0 0 0
23.20679 946.31421 0 0 0
23.21559 948.25916 0 0 0
23.22439 948.88733 0 0 0
23.23320 947.84155 0 0 0
23.24200 946.16956 0 0 0
23.25080 945.04895 0 0 0
23.25960 944.75073 0 0 0
23.26840 945.198 0 0 0
23.27721 947.65436 0 0 0
23.28601 952.61658 0 0 0
23.29481 958.80103 0 0 0
23.30361 965.83331 0 0 0
23.31241 972.47412 0 0 0
23.32122 978.46796 0 0 0
23.33002 983.44397 0 0 0
23.33882 987.45959 0 0 0
23.34762 990.62817 0 0 0
23.35642 990.66626 0 0 0
23.36523 989.95087 0 0 0
23.37403 988.64203 0 0 0
23.38283 988.50409 0 0 0
23.39163 991.75885 0 0 0
23.40044 998.8786 0 0 0
23.40924 1008.7542 0 0 0
23.41804 1015.7051 0 0 0
23.42684 1014.0743 0 0 0
23.43564 1004.6662 0 0 0
23.44445 991.49896 0 0 0
23.45325 978.81268 0 0 0
23.46205 968.48737 0 0 0
23.47085 960.83777 0 0 0
23.47965 955.18939 0 0 0
23.48846 950.86255 0 0 0
23.49726 948.99207 0 0 0
23.50606 948.9812 0 0 0
23.51486 950.28528 0 0 0
23.52367 954.85205 0 0 0
23.53247 963.32709 0 0 0
23.54127 974.0827 0 0 0
23.55007 985.76007 0 0 0
23.55887 996.3205 0 0 0
23.56768 1001.3523 0 0 0
23.57648 998.64899 0 0 0
23.58528 990.43597 0 0 0
23.59408 979.15759 0 0 0
23.60288 967.32788 0 0 0
23.61169 957.42535 0 0 0
23.62049 949.55347 0 0 0
23.62929 943.98407 0 0 0
23.63809 940.09399 0 0 0
23.64689 937.40558 0 0 0
23.65570 936.00275 0 0 0
23.66450 935.45856 0 0 0
23.67330 934.18146 0 0 0
23.68210 933.38831 0 0 0
23.69091 932.35284 0 0 0
23.69971 931.08008 0 0 0
23.70851 929.39978 0 0 0
23.71731 927.88019 0 0 0
23.72611 927.28339 0 0 0
23.73492 926.75714 0 0 0
23.74372 926.01764 0 0 0
23.75252 925.20972 0 0 0
23.76132 924.07697 0 0 0
23.77012 923.12201 0 0 0
23.77893 923.23932 0 0 0
23.78773 923.57117 0 0 0
23.79653 924.34296 0 0 0
23.80533 925.23279 0 0 0
23.81414 926.14734 0 0 0
23.82294 927.07709 0 0 0
23.83174 928.38556 0 0 0
23.84054 929.41888 0 0 0
23.84934 929.28235 0 0 0
23.85815 928.82037 0 0 0
23.86695 929.51141 0 0 0
23.87575 930.12183 0 0 0
23.88455 931.72345 0 0 0
23.89335 934.88824 0 0 0
23.90216 938.85272 0 0 0
23.91096 942.2287 0 0 0
23.91976 944.89764 0 0 0
23.92856 948.25983 0 0 0
23.93736 952.34033 0 0 0
23.94617 955.53503 0 0 0
23.95497 958.7099 0 0 0
23.96377 960.97302 0 0 0
23.97257 961.93036 0 0 0
23.98137 962.34186 0 0 0
23.99018 962.8941 0 0 0
23.99898 963.68427 0 0 0
24.00778 966.49396 0 0 0
24.01658 970.79419 0 0 0
24.02539 976.4826 0 0 0
24.03419 981.89026 0 0 0
24.04299 985.65759 0 0 0
24.05179 988.79962 0 0 0
24.06059 992.35236 0 0 0
24.06940 999.07404 0 0 0
24.07820 1006.7496 0 0 0
24.08700 1019.8447 0 0 0
24.09580 1033.8362 0 0 0
24.10460 1052.1149 0 0 0
24.11341 1065.2407 0 0 0
24.12221 1081.2325 0 0 0
24.13101 1086.2932 0 0 0
24.13981 1084.834 0 0 0
24.14862 1073.5609 0 0 0
24.15742 1059.26 0 0 0
24.16622 1044.9492 0 0 0
24.17502 1025.6165 0 0 0
24.18382 1013.5187 0 0 0
24.19263 999.12097 0 0 0
24.20143 989.44714 0 0 0
24.21023 980.53241 0 0 0
24.21903 974.91321 0 0 0
24.22783 970.78033 0 0 0
24.23664 970.18597 0 0 0
24.24544 970.89813 0 0 0
24.25424 970.76184 0 0 0
24.26304 967.81238 0 0 0
24.27184 963.78217 0 0 0
24.28065 960.05829 0 0 0
24.28945 956.76459 0 0 0
24.29825 953.7641 0 0 0
24.30705 950.24756 0 0 0
24.31586 947.39398 0 0 0
24.32466 945.77545 0 0 0
24.33346 944.82635 0 0 0
24.34226 944.40607 0 0 0
24.35106 946.19427 0 0 0
24.35987 949.53253 0 0 0
24.36867 954.36658 0 0 0
24.37747 961.74927 0 0 0
24.38627 970.64746 0 0 0
24.39507 982.93268 0 0 0
24.40388 998.12494 0 0 0
24.41268 1015.8632 0 0 0
24.42148 1035.8318 0 0 0
24.43029 1060.4692 0 0 0
24.43908 1084.2831 0 0 0
24.44789 1099.8707 0 0 0
24.45669 1102.2264 0 0 0
24.46549 1092.0663 0 0 0
24.47430 1072.0503 0 0 0
24.48310 1045.5585 0 0 0
24.49190 1018.9597 0 0 0
24.50070 997.02411 0 0 0
24.50950 980.13361 0 0 0
24.51831 966.98138 0 0 0
24.52711 957.09753 0 0 0
24.53591 949.54822 0 0 0
24.54471 943.44678 0 0 0
24.55351 938.97675 0 0 0
24.56232 936.77625 0 0 0
24.57112 934.65637 0 0 0
24.57992 933.03546 0 0 0
24.58872 933.62946 0 0 0
24.59753 935.27167 0 0 0
24.60633 935.80511 0 0 0
24.61513 937.21503 0 0 0
24.62393 939.26801 0 0 0
24.63273 941.9978 0 0 0
24.64154 947.64264 0 0 0
24.65034 955.77283 0 0 0
24.65914 965.54419 0 0 0
24.66794 977.97931 0 0 0
24.67674 993.59772 0 0 0
24.68555 1013.967 0 0 0
24.69435 1038.958 0 0 0
24.70315 1067.5532 0 0 0
24.71195 1096.1184 0 0 0
24.72076 1121.6543 0 0 0
24.72956 1137.0916 0 0 0
24.73836 1134.3413 0 0 0
24.74716 1117.0812 0 0 0
24.75596 1087.8492 0 0 0
24.76477 1055.0015 0 0 0
24.77357 1024.0732 0 0 0
24.78237 999.34998 0 0 0
24.79117 980.56238 0 0 0
24.79997 967.28058 0 0 0
24.80878 958.68311 0 0 0
24.81758 953.47064 0 0 0
24.82638 950.51166 0 0 0
24.83518 949.61871 0 0 0
24.84398 949.83716 0 0 0
24.85279 950.33661 0 0 0
24.86159 951.7821 0 0 0
24.87039 952.06781 0 0 0
24.87919 951.34357 0 0 0
24.88800 949.67041 0 0 0
24.89680 947.8913 0 0 0
24.90560 946.31244 0 0 0
24.91440 943.66486 0 0 0
24.92320 941.69006 0 0 0
24.93201 940.80188 0 0 0
24.94081 939.91614 0 0 0
24.94961 938.95978 0 0 0
24.95841 937.84808 0 0 0
24.96721 937.33673 0 0 0
24.97602 935.45166 0 0 0
24.98482 933.09344 0 0 0
24.99362 932.39496 0 0 0
25.00242 933.92694 0 0 0
25.01122 937.66266 0 0 0
25.02003 943.51984 0 0 0
25.02883 950.79492 0 0 0
25.03763 959.70453 0 0 0
25.04643 968.61316 0 0 0
25.05523 971.60901 0 0 0
25.06404 968.98218 0 0 0
25.07284 961.78693 0 0 0
25.08164 951.55963 0 0 0
25.09044 941.80566 0 0 0
25.09924 935.37854 0 0 0
25.10805 931.02362 0 0 0
25.11685 927.92041 0 0 0
25.12565 925.65405 0 0 0
25.13445 924.21478 0 0 0
25.14325 923.18689 0 0 0
25.15206 922.11389 0 0 0
25.16086 922.03589 0 0 0
25.16966 922.80676 0 0 0
25.17846 925.45117 0 0 0
25.18727 928.27979 0 0 0
25.19607 931.50378 0 0 0
25.20487 936.26038 0 0 0
25.21367 943.92468 0 0 0
25.22247 951.92981 0 0 0
25.23128 958.4151 0 0 0
25.24008 963.15442 0 0 0
25.24888 965.02277 0 0 0
25.25768 963.4303 0 0 0
25.26648 958.68701 0 0 0
25.27529 953.27991 0 0 0
25.28409 947.3194 0 0 0
25.29289 942.37372 0 0 0
25.30169 938.84186 0 0 0
25.31049 935.76239 0 0 0
25.31930 932.0932 0 0 0
25.32810 929.48291 0 0 0
25.33690 927.28625 0 0 0
25.34570 925.59003 0 0 0
25.35451 924.78247 0 0 0
25.36331 924.69556 0 0 0
25.37211 925.58295 0 0 0
25.38091 925.19202 0 0 0
25.38971 924.58984 0 0 0
25.39852 924.96216 0 0 0
25.40732 925.4765 0 0 0
25.41612 923.79272 0 0 0
25.42492 920.73328 0 0 0
25.43372 917.97888 0 0 0
25.44253 916.06738 0 0 0
25.45133 913.96375 0 0 0
25.46013 912.56299 0 0 0
25.46893 910.64551 0 0 0
25.47774 908.31152 0 0 0
25.48654 907.00995 0 0 0
25.49534 906.38837 0 0 0
25.50414 906.45441 0 0 0
25.51294 906.54504 0 0 0
25.52175 906.59613 0 0 0
25.53055 906.30585 0 0 0
25.53935 905.7583 0 0 0
25.54815 905.4726 0 0 0
25.55695 905.7724 0 0 0
25.56576 906.47211 0 0 0
25.57456 906.58478 0 0 0
25.58336 906.08075 0 0 0
25.59216 905.6059 0 0 0
25.60096 905.60114 0 0 0
25.60977 905.5672 0 0 0
25.61857 906.35712 0 0 0
25.62737 906.62183 0 0 0
25.63618 907.12726 0 0 0
25.64498 908.69836 0 0 0
25.65378 909.85107 0 0 0
25.66258 911.1933 0 0 0
25.67138 912.91949 0 0 0
25.68019 914.81757 0 0 0
25.68899 917.79315 0 0 0
25.69779 921.1134 0 0 0
25.70659 924.4068 0 0 0
25.71539 927.22919 0 0 0
25.72420 926.25769 0 0 0
25.73300 923.91559 0 0 0
25.74180 921.58105 0 0 0
25.75060 918.42566 0 0 0
25.75940 916.90955 0 0 0
25.76821 915.74908 0 0 0
25.77701 915.07556 0 0 0
25.78581 915.92249 0 0 0
25.79461 917.58923 0 0 0
25.80342 918.89398 0 0 0
25.81222 920.1087 0 0 0
25.82102 922.84625 0 0 0
25.82982 925.85297 0 0 0
25.83862 929.77344 0 0 0
25.84743 935.79669 0 0 0
25.85623 943.18414 0 0 0
25.86503 949.0965 0 0 0
25.87383 952.48199 0 0 0
25.88263 951.91498 0 0 0
25.89144 948.32709 0 0 0
25.90024 942.60901 0 0 0
25.90904 936.3988 0 0 0
25.91784 930.5813 0 0 0
25.92664 926.74103 0 0 0
25.93545 924.7348 0 0 0
25.94425 924.03412 0 0 0
25.95305 925.2301 0 0 0
25.96185 926.45935 0 0 0
25.97066 928.35718 0 0 0
25.97946 930.00085 0 0 0
25.98826 929.78339 0 0 0
25.99706 928.21313 0 0 0
26.00586 923.92706 0 0 0
26.01467 918.35645 0 0 0
26.02347 914.54413 0 0 0
26.03227 910.58496 0 0 0
26.04107 907.65765 0 0 0
26.04987 906.32843 0 0 0
26.05868 904.789 0 0 0
26.06748 902.92328 0 0 0
26.07628 902.53314 0 0 0
26.08508 901.64252 0 0 0
26.09388 900.87146 0 0 0
26.10269 900.32922 0 0 0
26.11149 899.35931 0 0 0
26.12029 899.72919 0 0 0
26.12909 900.01007 0 0 0
26.13790 900.00024 0 0 0
26.14670 899.75079 0 0 0
26.15550 899.54901 0 0 0
26.16430 899.71198 0 0 0
26.17310 900.84021 0 0 0
26.18191 900.73328 0 0 0
26.19071 900.22809 0 0 0
26.19951 900.2868 0 0 0
26.20831 899.75446 0 0 0
26.21711 899.05267 0 0 0
26.22592 898.72754 0 0 0
26.23472 900.2746 0 0 0
26.24352 901.86304 0 0 0
26.25232 902.97583 0 0 0
26.26113 904.9458 0 0 0
26.26993 907.74243 0 0 0
26.27873 912.11414 0 0 0
26.28753 917.40466 0 0 0
26.29633 922.42542 0 0 0
26.30514 927.92072 0 0 0
26.31394 935.23236 0 0 0
26.32274 942.81732 0 0 0
26.33154 951.49432 0 0 0
26.34034 959.14294 0 0 0
26.34915 963.03564 0 0 0
26.35795 961.80731 0 0 0
26.36675 957.828 0 0 0
26.37555 955.61945 0 0 0
26.38435 957.53741 0 0 0
26.39316 965.87378 0 0 0
26.40196 978.56531 0 0 0
26.41076 991.28345 0 0 0
26.41956 998.19629 0 0 0
26.42837 993.69611 0 0 0
26.43717 980.27057 0 0 0
26.44597 962.60516 0 0 0
26.45477 946.25201 0 0 0
26.46357 933.83191 0 0 0
26.47238 925.40344 0 0 0
26.48118 920.51508 0 0 0
26.48998 917.17114 0 0 0
26.49878 915.11456 0 0 0
26.50758 914.3562 0 0 0
26.51639 914.70483 0 0 0
26.52519 915.59534 0 0 0
26.53399 915.59625 0 0 0
26.54279 914.19275 0 0 0
26.55159 911.53595 0 0 0
26.56040 910.21423 0 0 0
26.56920 910.25 0 0 0
26.57800 909.23755 0 0 0
26.58680 909.45508 0 0 0
26.59561 909.83875 0 0 0
26.60441 909.53766 0 0 0
26.61321 910.36169 0 0 0
26.62201 910.72272 0 0 0
26.63081 910.07904 0 0 0
26.63962 909.08087 0 0 0
26.64842 908.04272 0 0 0
26.65722 906.84259 0 0 0
26.66602 905.35156 0 0 0
26.67482 904.66034 0 0 0
26.68363 903.58618 0 0 0
26.69243 902.23065 0 0 0
26.70123 901.91693 0 0 0
26.71003 901.4043 0 0 0
26.71884 900.83514 0 0 0
26.72764 901.26715 0 0 0
26.73644 901.46362 0 0 0
26.74524 901.28839 0 0 0
26.75404 902.74487 0 0 0
26.76285 903.73773 0 0 0
26.77165 904.82416 0 0 0
26.78045 907.23615 0 0 0
26.78925 908.88812 0 0 0
26.79805 909.52429 0 0 0
26.80686 910.43103 0 0 0
26.81566 912.31207 0 0 0
26.82446 912.94122 0 0 0
26.83326 912.15833 0 0 0
26.84206 911.28516 0 0 0
26.85087 911.44092 0 0 0
26.85967 910.19739 0 0 0
26.86847 909.29175 0 0 0
26.87727 911.0434 0 0 0
26.88608 913.59216 0 0 0
26.89488 917.38367 0 0 0
26.90368 922.33704 0 0 0
26.91248 928.06976 0 0 0
26.92128 932.49182 0 0 0
26.93009 934.79462 0 0 0
26.93889 937.29596 0 0 0
26.94769 940.51831 0 0 0
26.95649 945.57922 0 0 0
26.96529 954.93005 0 0 0
26.97410 966.30811 0 0 0
26.98290 976.36285 0 0 0
26.99170 983.22534 0 0 0
27.00050 984.46155 0 0 0
27.00930 977.91168 0 0 0
27.01811 965.7583 0 0 0
27.02691 952.80878 0 0 0
27.03571 941.82739 0 0 0
27.04451 931.79578 0 0 0
27.05332 922.77997 0 0 0
27.06212 917.04956 0 0 0
27.07092 912.51996 0 0 0
27.07972 909.37219 0 0 0
27.08852 908.25452 0 0 0
27.09733 907.51825 0 0 0
27.10613 908.61682 0 0 0
27.11493 911.17053 0 0 0
27.12373 912.98535 0 0 0
27.13253 914.51013 0 0 0
27.14134 916.98633 0 0 0
27.15014 919.11737 0 0 0
27.15894 919.60052 0 0 0
27.16774 919.75043 0 0 0
27.17655 920.20673 0 0 0
27.18535 919.68298 0 0 0
27.19415 918.26489 0 0 0
27.20295 915.78595 0 0 0
27.21175 911.34924 0 0 0
27.22056 906.92108 0 0 0
27.22936 904.46698 0 0 0
27.23816 902.39166 0 0 0
27.24696 900.86157 0 0 0
27.25576 899.57953 0 0 0
27.26457 898.61371 0 0 0
27.27337 898.80768 0 0 0
27.28217 898.89679 0 0 0
27.29097 898.4729 0 0 0
27.29977 898.1861 0 0 0
27.30858 898.19177 0 0 0
27.31738 898.27966 0 0 0
27.32618 898.65002 0 0 0
27.33498 898.09796 0 0 0
27.34379 897.84906 0 0 0
27.35259 898.0097 0 0 0
27.36139 897.46112 0 0 0
27.37019 898.12152 0 0 0
27.37899 899.79053 0 0 0
27.38780 900.29449 0 0 0
27.39660 900.30725 0 0 0
27.40540 900.70227 0 0 0
27.41420 901.83026 0 0 0
27.42300 904.3681 0 0 0
27.43181 907.21338 0 0 0
27.44061 910.26709 0 0 0
27.44941 914.49261 0 0 0
27.45821 918.48596 0 0 0
27.46701 922.95264 0 0 0
27.47582 929.33826 0 0 0
27.48462 935.04852 0 0 0
27.49342 942.65662 0 0 0
27.50222 950.23883 0 0 0
27.51103 955.58337 0 0 0
27.51983 962.23688 0 0 0
27.52863 966.64471 0 0 0
27.53743 966.27924 0 0 0
27.54623 963.39557 0 0 0
27.55504 957.79004 0 0 0
27.56384 948.63159 0 0 0
27.57264 940.35071 0 0 0
27.58144 933.2196 0 0 0
27.59024 926.34668 0 0 0
27.59905 921.77808 0 0 0
27.60785 918.6814 0 0 0
27.61665 916.53162 0 0 0
27.62545 915.37616 0 0 0
27.63426 916.48584 0 0 0
27.64306 919.49896 0 0 0
27.65186 921.50342 0 0 0
27.66066 922.26843 0 0 0
27.66946 921.90454 0 0 0
27.67827 919.5542 0 0 0
27.68707 917.65741 0 0 0
27.69587 917.27539 0 0 0
27.70467 916.73303 0 0 0
27.71347 916.17993 0 0 0
27.72228 914.57599 0 0 0
27.73108 912.60541 0 0 0
27.73988 911.03961 0 0 0
27.74868 909.39447 0 0 0
27.75748 907.82697 0 0 0
27.76629 906.81934 0 0 0
27.77509 905.89703 0 0 0
27.78389 904.78101 0 0 0
27.79269 903.29413 0 0 0
27.80150 902.29218 0 0 0
27.81030 902.3667 0 0 0
27.81910 903.36243 0 0 0
27.82790 903.61969 0 0 0
27.83670 902.25104 0 0 0
27.84551 903.20966 0 0 0
27.85431 906.33099 0 0 0
27.86311 908.53955 0 0 0
27.87191 911.10333 0 0 0
27.88071 913.91254 0 0 0
27.88952 916.51453 0 0 0
27.89832 921.0708 0 0 0
27.90712 926.63513 0 0 0
27.91592 931.44281 0 0 0
27.92472 936.70148 0 0 0
27.93353 943.4212 0 0 0
27.94233 950.31329 0 0 0
27.95113 957.95166 0 0 0
27.95993 966.91418 0 0 0
27.96874 975.86499 0 0 0
27.97754 986.2135 0 0 0
27.98634 997.83801 0 0 0
27.99514 1008.6686 0 0 0
28.00394 1018.1948 0 0 0
28.01275 1025.6559 0 0 0
28.02155 1031.2709 0 0 0
28.03035 1031.8962 0 0 0
28.03915 1026.9922 0 0 0
28.04796 1019.7075 0 0 0
28.05676 1010.2286 0 0 0
28.06556 999.54938 0 0 0
28.07436 989.2475 0 0 0
28.08316 979.9054 0 0 0
28.09196 971.19049 0 0 0
28.10077 962.66956 0 0 0
28.10957 955.71454 0 0 0
28.11837 951.87091 0 0 0
28.12717 949.6391 0 0 0
28.13598 947.03241 0 0 0
28.14478 945.66437 0 0 0
28.15358 945.43347 0 0 0
28.16238 945.20618 0 0 0
28.17119 945.27911 0 0 0
28.17999 944.31934 0 0 0
28.18879 942.65997 0 0 0
28.19759 940.87787 0 0 0
28.20639 938.6438 0 0 0
28.21520 936.07465 0 0 0
28.22400 932.26306 0 0 0
28.23280 928.86743 0 0 0
28.24160 925.08014 0 0 0
28.25040 921.06128 0 0 0
28.25921 918.44214 0 0 0
28.26801 915.7536 0 0 0
28.27681 914.11475 0 0 0
28.28561 911.94653 0 0 0
28.29442 910.24622 0 0 0
28.30322 910.39465 0 0 0
28.31202 909.94116 0 0 0
28.32082 908.91443 0 0 0
28.32962 903.90094 0 0 0
28.33843 887.94769 0 0 0
28.34723 884.27112 0 0 0
28.35603 894.38593 0 0 0
28.36483 898.65454 0 0 0
28.37363 900.70068 0 0 0
28.38244 901.53156 0 0 0
28.39124 902.64441 0 0 0
28.40004 904.82318 0 0 0
28.40884 906.97443 0 0 0
28.41765 907.75848 0 0 0
28.42645 907.77637 0 0 0
28.43525 907.94147 0 0 0
28.44405 909.58319 0 0 0
28.45285 912.46692 0 0 0
28.46166 914.30634 0 0 0
28.47046 913.98535 0 0 0
28.47926 913.30371 0 0 0
28.48806 912.79889 0 0 0
28.49686 913.02039 0 0 0
28.50567 911.43707 0 0 0
28.51447 909.7085 0 0 0
28.52327 911.16321 0 0 0
28.53207 913.04279 0 0 0
28.54087 914.74658 0 0 0
28.54968 918.37659 0 0 0
28.55848 922.68591 0 0 0
28.56728 924.13861 0 0 0
28.57608 924.35352 0 0 0
28.58488 924.25317 0 0 0
28.59369 921.9527 0 0 0
28.60249 918.3952 0 0 0
28.61129 916.38879 0 0 0
28.62009 914.35095 0 0 0
28.62889 913.50446 0 0 0
28.63770 914.18103 0 0 0
28.64650 915.85498 0 0 0
28.65530 917.09723 0 0 0
28.66410 918.6579 0 0 0
28.67291 922.9162 0 0 0
28.68171 926.63116 0 0 0
28.69051 929.87097 0 0 0
28.69931 931.25934 0 0 0
28.70811 931.24872 0 0 0
28.71692 930.09009 0 0 0
28.72572 926.00513 0 0 0
28.73452 922.23547 0 0 0
28.74332 918.07556 0 0 0
28.75212 914.43866 0 0 0
28.76093 911.76288 0 0 0
28.76973 909.26709 0 0 0
28.77853 907.7691 0 0 0
28.78733 908.40143 0 0 0
28.79613 909.151 0 0 0
28.80494 907.44391 0 0 0
28.81374 906.75073 0 0 0
28.82254 905.52045 0 0 0
28.83134 904.30597 0 0 0
28.84014 904.13739 0 0 0
28.84895 903.83905 0 0 0
28.85775 903.44684 0 0 0
28.86655 903.3454 0 0 0
28.87535 903.02496 0 0 0
28.88416 901.49988 0 0 0
28.89296 901.4433 0 0 0
28.90176 901.68188 0 0 0
28.91056 900.84088 0 0 0
28.91936 900.31232 0 0 0
28.92817 900.65503 0 0 0
28.93697 902.13464 0 0 0
28.94577 902.77771 0 0 0
28.95457 902.4469 0 0 0
28.96337 901.30902 0 0 0
28.97218 900.52698 0 0 0
28.98098 900.03625 0 0 0
28.98978 899.1861 0 0 0
28.99858 899.14148 0 0 0
29.00738 899.18353 0 0 0
29.01619 899.16364 0 0 0
29.02499 899.30164 0 0 0
29.03379 899.03821 0 0 0
29.04259 898.10443 0 0 0
29.05140 898.39435 0 0 0
29.06020 899.37933 0 0 0
29.06900 898.67914 0 0 0
29.07780 897.34045 0 0 0
29.08660 895.92908 0 0 0
29.09541 895.40192 0 0 0
29.10421 895.06689 0 0 0
29.11301 894.05304 0 0 0
29.12181 892.32251 0 0 0
29.13061 891.39819 0 0 0
29.13942 892.01282 0 0 0
29.14822 893.80359 0 0 0
29.15702 896.17834 0 0 0
29.16583 896.67065 0 0 0
29.17463 896.1908 0 0 0
29.18343 898.71216 0 0 0
29.19223 902.7561 0 0 0
29.20103 905.13452 0 0 0
29.20984 906.96936 0 0 0
29.21864 911.09369 0 0 0
29.22744 916.09857 0 0 0
29.23624 921.2088 0 0 0
29.24504 925.8548 0 0 0
29.25384 931.45746 0 0 0
29.26265 937.95129 0 0 0
29.27145 942.83533 0 0 0
29.28025 945.27191 0 0 0
29.28906 943.84979 0 0 0
29.29785 937.73029 0 0 0
29.30666 928.71442 0 0 0
29.31546 922.95325 0 0 0
29.32426 917.60278 0 0 0
29.33307 911.1557 0 0 0
29.34187 909.18536 0 0 0
29.35067 907.09528 0 0 0
29.35947 903.01166 0 0 0
29.36827 901.28381 0 0 0
29.37708 900.35077 0 0 0
29.38588 899.20166 0 0 0
29.39468 898.8949 0 0 0
29.40348 898.23022 0 0 0
29.41228 896.83868 0 0 0
29.42109 895.41931 0 0 0
29.42989 896.62 0 0 0
29.43869 898.67139 0 0 0
29.44749 899.49823 0 0 0
29.45630 899.62671 0 0 0
29.46510 898.42712 0 0 0
29.47390 897.78845 0 0 0
29.48270 897.13696 0 0 0
29.49150 897.7262 0 0 0
29.50031 898.71869 0 0 0
29.50911 898.43243 0 0 0
29.51791 899.45044 0 0 0
29.52671 899.92609 0 0 0
29.53551 899.78125 0 0 0
29.54432 900.23505 0 0 0
29.55312 900.51477 0 0 0
29.56192 902.27313 0 0 0
29.57072 903.17963 0 0 0
29.57952 903.2912 0 0 0
29.58833 904.54352 0 0 0
29.59713 906.52386 0 0 0
29.60593 909.4928 0 0 0
29.61473 912.49579 0 0 0
29.62354 913.76813 0 0 0
29.63234 915.67017 0 0 0
29.64114 918.90192 0 0 0
29.64994 921.60272 0 0 0
29.65874 924.29065 0 0 0
29.66755 926.61353 0 0 0
29.67635 930.86963 0 0 0
29.68515 936.01593 0 0 0
29.69395 939.15192 0 0 0
29.70275 942.38446 0 0 0
29.71156 946.896 0 0 0
29.72036 951.10529 0 0 0
29.72916 954.1521 0 0 0
29.73796 956.08514 0 0 0
29.74676 955.54932 0 0 0
29.75557 953.81458 0 0 0
29.76437 951.29175 0 0 0
29.77317 949.30475 0 0 0
29.78197 945.54309 0 0 0
29.79078 941.90302 0 0 0
29.79958 939.93445 0 0 0
29.80838 935.52771 0 0 0
29.81718 930.44037 0 0 0
29.82598 927.18201 0 0 0
29.83479 925.30066 0 0 0
29.84359 922.92627 0 0 0
29.85239 921.08331 0 0 0
29.86119 918.68018 0 0 0
29.86999 917.54199 0 0 0
29.87880 916.28839 0 0 0
29.88760 911.90741 0 0 0
29.89640 909.47772 0 0 0
29.90520 908.33722 0 0 0
29.91400 906.71759 0 0 0
29.92281 906.83777 0 0 0
29.93161 907.91968 0 0 0
29.94041 906.5036 0 0 0
29.94921 905.0033 0 0 0
29.95801 903.91321 0 0 0
29.96682 904.33063 0 0 0
29.97562 904.42902 0 0 0
29.98442 905.63501 0 0 0
29.99322 909.25629 0 0 0
30.00203 911.97681 0 0 0
30.01083 915.80432 0 0 0
30.01963 922.04565 0 0 0
30.02843 929.51331 0 0 0
30.03723 938.28467 0 0 0
30.04604 943.78625 0 0 0
30.05484 945.38068 0 0 0
30.06364 943.93597 0 0 0
30.07244 940.34467 0 0 0
30.08124 936.50916 0 0 0
30.09005 932.23035 0 0 0
30.09885 927.69043 0 0 0
30.10765 923.78131 0 0 0
30.11645 922.0072 0 0 0
30.12526 923.10175 0 0 0
30.13406 923.37616 0 0 0
30.14286 921.70782 0 0 0
30.15166 922.27075 0 0 0
30.16046 921.20172 0 0 0
30.16927 918.1507 0 0 0
30.17807 916.01971 0 0 0
30.18687 914.27612 0 0 0
30.19567 914.01965 0 0 0
30.20447 914.17511 0 0 0
30.21328 912.27283 0 0 0
30.22208 908.71594 0 0 0
30.23088 904.9342 0 0 0
30.23968 901.85626 0 0 0
30.24849 900.96631 0 0 0
30.25729 899.64575 0 0 0
30.26609 898.59827 0 0 0
30.27489 899.7536 0 0 0
30.28369 899.01416 0 0 0
30.29250 898.1582 0 0 0
30.30130 897.25244 0 0 0
30.31010 897.70227 0 0 0
30.31890 898.98895 0 0 0
30.32770 898.16516 0 0 0
30.33651 897.76294 0 0 0
30.34531 898.2796 0 0 0
30.35411 898.66882 0 0 0
30.36291 897.35339 0 0 0
30.37172 896.98364 0 0 0
30.38052 898.03076 0 0 0
30.38932 897.29297 0 0 0
30.39812 897.01678 0 0 0
30.40692 896.90405 0 0 0
30.41573 897.26086 0 0 0
30.42453 898.57294 0 0 0
30.43333 897.20587 0 0 0
30.44213 897.58063 0 0 0
30.45093 897.54352 0 0 0
30.45974 898.01233 0 0 0
30.46854 898.96222 0 0 0
30.47734 898.7038 0 0 0
30.48614 898.23956 0 0 0
30.49494 897.6676 0 0 0
30.50375 896.50775 0 0 0
30.51255 896.39502 0 0 0
30.52135 898.03162 0 0 0
30.53015 901.25488 0 0 0
30.53896 900.62677 0 0 0
30.54776 900.38403 0 0 0
30.55656 900.62897 0 0 0
30.56536 900.48547 0 0 0
30.57416 900.86975 0 0 0
30.58297 902.59106 0 0 0
30.59177 902.41876 0 0 0
30.60057 900.6236 0 0 0
30.60937 901.03247 0 0 0
30.61817 902.3703 0 0 0
30.62698 904.66901 0 0 0
30.63578 903.87695 0 0 0
30.64458 903.46576 0 0 0
30.65338 902.39972 0 0 0
30.66218 904.41498 0 0 0
30.67099 907.13275 0 0 0
30.67979 905.68152 0 0 0
30.68859 903.46167 0 0 0
30.69739 902.41827 0 0 0
30.70620 900.24731 0 0 0
30.71500 897.06616 0 0 0
30.72380 896.97772 0 0 0
30.73260 898.82196 0 0 0
30.74140 898.5498 0 0 0
30.75021 897.42865 0 0 0
30.75901 896.34601 0 0 0
30.76781 897.89154 0 0 0
30.77661 899.45276 0 0 0
30.78541 899.61218 0 0 0
30.79422 901.86829 0 0 0
30.80302 905.27789 0 0 0
30.81182 906.60638 0 0 0
30.82062 907.08081 0 0 0
30.82943 909.85272 0 0 0
30.83823 913.94269 0 0 0
30.84703 915.05164 0 0 0
30.85583 915.49939 0 0 0
30.86463 914.83191 0 0 0
30.87344 912.72357 0 0 0
30.88224 912.09039 0 0 0
30.89104 911.36792 0 0 0
30.89984 912.80219 0 0 0
30.90864 915.08258 0 0 0
30.91745 917.57843 0 0 0
30.92625 921.9361 0 0 0
30.93505 930.5293 0 0 0
30.94385 941.74335 0 0 0
30.95265 949.78265 0 0 0
30.96146 952.81378 0 0 0
30.97026 949.36523 0 0 0
30.97906 939.90308 0 0 0
30.98786 929.34515 0 0 0
30.99667 918.64642 0 0 0
31.00547 909.95715 0 0 0
31.01427 904.25928 0 0 0
31.02307 898.75769 0 0 0
31.03187 895.10065 0 0 0
31.04068 893.35028 0 0 0
31.04948 891.28723 0 0 0
31.05828 889.97705 0 0 0
31.06708 891.57227 0 0 0
31.07588 889.52332 0 0 0
31.08469 884.84589 0 0 0
31.09349 884.16028 0 0 0
31.10229 884.50037 0 0 0
31.11109 882.25598 0 0 0
31.11989 881.77515 0 0 0
31.12870 882.46552 0 0 0
31.13750 882.14557 0 0 0
31.14630 884.35034 0 0 0
31.15510 884.84064 0 0 0
31.16391 883.86713 0 0 0
31.17271 882.49854 0 0 0
31.18151 881.11035 0 0 0
31.19031 881.46643 0 0 0
31.19911 881.11511 0 0 0
31.20792 882.6449 0 0 0
31.21672 883.11273 0 0 0
31.22552 879.83527 0 0 0
31.23432 879.75897 0 0 0
31.24312 881.53149 0 0 0
31.25193 883.12238 0 0 0
31.26073 885.40479 0 0 0
31.26953 886.54169 0 0 0
31.27833 883.37891 0 0 0
31.28714 881.28064 0 0 0
31.29594 877.78412 0 0 0
31.30474 876.60742 0 0 0
31.31354 879.0708 0 0 0
31.32234 878.78534 0 0 0
31.33115 880.59235 0 0 0
31.33995 880.58368 0 0 0
31.34875 879.19415 0 0 0
31.35755 881.18439 0 0 0
31.36635 882.80518 0 0 0
31.37516 882.77069 0 0 0
31.38396 884.88593 0 0 0
31.39276 885.06598 0 0 0
31.40156 885.6521 0 0 0
31.41036 886.10632 0 0 0
31.41917 886.19586 0 0 0
31.42797 887.5387 0 0 0
31.43677 889.52795 0 0 0
31.44557 890.88629 0 0 0
31.45438 890.24469 0 0 0
31.46318 891.47156 0 0 0
31.47198 894.84943 0 0 0
31.48078 896.79108 0 0 0
31.48958 901.52527 0 0 0
31.49839 905.04736 0 0 0
31.50719 910.30859 0 0 0
31.51599 914.67529 0 0 0
31.52479 916.44794 0 0 0
31.53359 917.89764 0 0 0
31.54240 917.78784 0 0 0
31.55120 917.97491 0 0 0
31.56000 913.98541 0 0 0
31.56880 909.11969 0 0 0
31.57760 907.22363 0 0 0
31.58641 906.57861 0 0 0
31.59521 908.9668 0 0 0
31.60401 905.65002 0 0 0
31.61281 901.63458 0 0 0
31.62162 904.26233 0 0 0
31.63042 904.81586 0 0 0
31.63922 902.53839 0 0 0
31.64802 903.56812 0 0 0
31.65682 905.54718 0 0 0
31.66563 905.63623 0 0 0
31.67443 903.36517 0 0 0
31.68323 901.48425 0 0 0
31.69203 899.06415 0 0 0
31.70083 896.18481 0 0 0
31.70964 892.7807 0 0 0
31.71844 890.54285 0 0 0
31.72724 891.8457 0 0 0
31.73604 890.79486 0 0 0
31.74485 887.34039 0 0 0
31.75365 883.5672 0 0 0
31.76245 880.45587 0 0 0
31.77125 878.06702 0 0 0
31.78005 876.55603 0 0 0
31.78886 874.91071 0 0 0
31.79766 873.8905 0 0 0
31.80646 870.89594 0 0 0
31.81526 869.75702 0 0 0
31.82406 870.4624 0 0 0
31.83287 869.89929 0 0 0
31.84167 868.72375 0 0 0
31.85047 867.84985 0 0 0
31.85927 865.00464 0 0 0
31.86807 866.67224 0 0 0
31.87688 867.96313 0 0 0
31.88568 867.69415 0 0 0
31.89448 867.26074 0 0 0
31.90328 866.27789 0 0 0
31.91209 866.04413 0 0 0
31.92089 867.12927 0 0 0
31.92969 866.9469 0 0 0
31.93849 866.90674 0 0 0
31.94729 868.85333 0 0 0
31.95610 870.58734 0 0 0
31.96490 875.69141 0 0 0
31.97370 878.6543 0 0 0
31.98250 874.78162 0 0 0
31.99130 871.0094 0 0 0
32.00011 869.18158 0 0 0
32.00891 872.25128 0 0 0
32.01771 869.82709 0 0 0
32.02651 871.74512 0 0 0
32.03532 873.10327 0 0 0
32.04412 864.9718 0 0 0
32.05292 867.15582 0 0 0
32.06172 873.94537 0 0 0
32.07052 866.6983 0 0 0
32.07933 860.40875 0 0 0
32.08813 862.26447 0 0 0
32.09693 863.76575 0 0 0
32.10573 856.94537 0 0 0
32.11454 853.64142 0 0 0
32.12334 857.06146 0 0 0
32.13214 855.43188 0 0 0
32.14094 853.7074 0 0 0
32.14974 853.50867 0 0 0
32.15855 853.52795 0 0 0
32.16735 854.92578 0 0 0
32.17615 851.50092 0 0 0
32.18495 846.28455 0 0 0
32.19375 838.63165 0 0 0
32.20256 841.53015 0 0 0
32.21136 849.11084 0 0 0
32.22016 843.29987 0 0 0
32.22896 844.65802 0 0 0
32.23776 849.98706 0 0 0
32.24657 846.05682 0 0 0
32.25537 846.76892 0 0 0
32.26417 844.74207 0 0 0
32.27297 842.36542 0 0 0
32.28178 837.58606 0 0 0
32.29058 833.88806 0 0 0
32.29938 831.4209 0 0 0
32.30818 835.52411 0 0 0
32.31698 832.18018 0 0 0
32.32579 829.78882 0 0 0
32.33459 838.64423 0 0 0
32.34339 839.28479 0 0 0
32.35219 835.47174 0 0 0
32.36099 834.52667 0 0 0
32.36980 839.27625 0 0 0
32.37860 844.7663 0 0 0
32.38740 846 0 0 0
32.39620 837.78192 0 0 0
32.40500 834.91705 0 0 0
32.41381 834.70056 0 0 0
32.42261 831.53656 0 0 0
32.43141 835.07648 0 0 0
32.44021 842.01422 0 0 0
32.44902 843.44653 0 0 0
32.45782 846.38531 0 0 0
32.46662 836.99274 0 0 0
32.47542 829.85815 0 0 0
32.48422 832.37732 0 0 0
32.49303 830.18604 0 0 0
32.50183 829.28857 0 0 0
32.51063 830.91144 0 0 0
32.51943 825.14569 0 0 0
32.52823 823.47888 0 0 0
32.53704 831.05591 0 0 0
32.54584 824.32397 0 0 0
32.55464 819.34662 0 0 0
32.56344 817.81659 0 0 0
32.57225 813.16791 0 0 0
32.58105 815.03662 0 0 0
32.58985 812.52625 0 0 0
32.59865 806.24347 0 0 0
32.60745 805.38947 0 0 0
32.61626 803.80121 0 0 0
32.62506 799.93488 0 0 0
32.63386 793.91986 0 0 0
32.64266 794.87842 0 0 0
32.65146 794.54431 0 0 0
32.66027 789.46613 0 0 0
32.66907 784.78888 0 0 0
32.67787 776.13165 0 0 0
32.68667 767.26758 0 0 0
32.69547 767.08051 0 0 0
32.70428 777.461 0 0 0
32.71308 776.70026 0 0 0
32.72188 782.10156 0 0 0
32.73068 775.00696 0 0 0
32.73949 744.91418 0 0 0
32.74829 721.98706 0 0 0
32.75709 718.90894 0 0 0
32.76589 709.91357 0 0 0
32.77469 675.1778 0 0 0
32.78350 659.39307 0 0 0
32.79230 626.74225 0 0 0
32.80110 585.15503 0 0 0
32.80990 560.28253 0 0 0
32.81870 493.66531 0 0 0
32.82751 407.99606 0 0 0
32.83631 273.93311 0 0 0
32.84511 183.63116 0 0 0
32.85391 181.17621 0 0 0
32.86271 185.28017 0 0 0
32.87152 194.69733 0 0 0
32.88032 194.28046 0 0 0
32.88912 193.69464 0 0 0
32.89792 192.91364 0 0 0
32.90673 185.10828 0 0 0
32.91553 184.09119 0 0 0
32.92433 190.19211 0 0 0
32.93313 193.31207 0 0 0
32.94193 199.12794 0 0 0
32.95074 195.00819 0 0 0
32.95954 185.2867 0 0 0
32.96834 178.70163 0 0 0
32.97714 175.77158 0 0 0
32.98594 178.98654 0 0 0
32.99475 182.20764 0 0 0
33.00355 186.60899 0 0 0
33.01235 188.37819 0 0 0
33.02115 178.42737 0 0 0
33.02996 172.51778 0 0 0
33.03876 185.84283 0 0 0
33.04756 192.22038 0 0 0
33.05636 187.326 0 0 0
33.06516 186.86867 0 0 0
33.07397 193.48824 0 0 0
33.08277 196.20067 0 0 0
33.09157 193.08427 0 0 0
33.10037 196.84999 0 0 0
33.10917 194.30925 0 0 0
33.11798 192.32043 0 0 0
33.12678 189.42079 0 0 0
33.13558 186.24799 0 0 0
33.14438 188.84305 0 0 0
33.15318 190.70667 0 0 0
33.16199 192.58522 0 0 0
33.17079 201.09804 0 0 0
33.17959 212.02251 0 0 0
33.18839 210.12587 0 0 0
33.19720 202.68773 0 0 0
33.20600 199.66772 0 0 0
33.21480 186.21254 0 0 0
33.22360 182.52991 0 0 0
33.23240 183.13414 0 0 0
33.24121 187.47308 0 0 0
33.25001 187.69923 0 0 0
33.25881 185.80074 0 0 0
33.26761 179.33527 0 0 0
33.27641 180.56956 0 0 0
33.28522 199.44299 0 0 0
33.29402 214.85379 0 0 0
33.30282 199.38205 0 0 0
33.31162 181.0697 0 0 0
33.32042 173.62718 0 0 0
33.32923 177.86447 0 0 0
33.33803 191.95706 0 0 0
33.34683 194.42146 0 0 0
33.35563 186.08481 0 0 0
33.36444 191.19862 0 0 0
33.37324 200.69724 0 0 0
33.38204 193.79532 0 0 0
33.39084 188.27721 0 0 0
33.39964 186.19002 0 0 0
33.40845 195.93082 0 0 0
33.41725 202.92386 0 0 0
33.42605 209.08548 0 0 0
33.43485 201.94432 0 0 0
33.44365 192.78094 0 0 0
33.45246 197.58759 0 0 0
33.46126 199.80064 0 0 0
33.47006 191.65076 0 0 0
33.47886 187.91696 0 0 0
33.48766 194.64694 0 0 0
33.49647 202.91763 0 0 0
33.50527 206.93576 0 0 0
33.51407 202.9304 0 0 0
33.52287 198.57227 0 0 0
33.53168 200.85027 0 0 0
33.54048 206.24873 0 0 0
33.54928 215.58633 0 0 0
33.55808 215.80685 0 0 0
33.56688 193.84323 0 0 0
33.57569 183.99568 0 0 0
33.58449 194.03381 0 0 0
33.59329 194.96005 0 0 0
33.60209 192.3838 0 0 0
33.61089 192.04538 0 0 0
33.61970 190.26173 0 0 0
33.62850 190.54587 0 0 0
33.63730 191.15814 0 0 0
33.64610 191.96077 0 0 0
33.65491 190.94189 0 0 0
33.66371 194.38696 0 0 0
33.67251 193.77339 0 0 0
33.68131 201.07108 0 0 0
33.69011 204.85957 0 0 0
33.69892 190.28082 0 0 0
33.70772 182.99397 0 0 0
33.71652 182.17117 0 0 0
33.72532 188.64412 0 0 0
33.73412 188.55374 0 0 0
33.74293 188.60394 0 0 0
33.75173 188.07758 0 0 0
33.76053 184.04968 0 0 0
33.76933 174.69011 0 0 0
33.77813 184.1102 0 0 0
33.78694 208.74794 0 0 0
33.79574 224.83966 0 0 0
33.80454 222.73499 0 0 0
33.81334 217.55861 0 0 0
33.82215 202.32649 0 0 0
33.83095 192.90225 0 0 0
33.83975 191.35023 0 0 0
33.84855 196.33424 0 0 0
33.85735 202.52318 0 0 0
33.86616 196.0631 0 0 0
33.87496 181.07921 0 0 0
33.88376 182.67125 0 0 0
33.89256 185.121 0 0 0
33.90136 176.9928 0 0 0
33.91017 176.98708 0 0 0
33.91897 180.88077 0 0 0
33.92777 190.72147 0 0 0
33.93657 194.91269 0 0 0
33.94537 197.13947 0 0 0
33.95418 201.73875 0 0 0
33.96298 194.79968 0 0 0
33.97178 186.54596 0 0 0
33.98058 177.36844 0 0 0
33.98939 172.2587 0 0 0
33.99819 177.89842 0 0 0
34.00699 192.49501 0 0 0
34.01579 194.93306 0 0 0
34.02459 195.52049 0 0 0
34.03340 203.36682 0 0 0
34.04220 206.50575 0 0 0
34.05100 208.25145 0 0 0
34.05980 208.2365 0 0 0
34.06860 204.0381 0 0 0
34.07741 206.27037 0 0 0
34.08621 204.65034 0 0 0
34.09501 203.13838 0 0 0
34.10381 208.29189 0 0 0
34.11262 208.96838 0 0 0
34.12142 211.56693 0 0 0
34.13022 207.44749 0 0 0
34.13902 208.74147 0 0 0
34.14782 212.608 0 0 0
34.15663 215.30508 0 0 0
34.16543 211.03694 0 0 0
34.17423 203.12189 0 0 0
34.18303 199.9368 0 0 0
34.19183 211.2352 0 0 0
34.20064 211.25829 0 0 0
34.20944 207.16861 0 0 0
34.21824 204.37561 0 0 0
34.22704 206.82164 0 0 0
34.23584 205.96025 0 0 0
34.24465 201.8819 0 0 0
34.25345 206.69485 0 0 0
34.26225 203.81596 0 0 0
34.27105 190.93929 0 0 0
34.27986 192.89958 0 0 0
34.28866 199.36597 0 0 0
34.29746 202.26329 0 0 0
34.30626 214.57805 0 0 0
34.31506 227.84785 0 0 0
34.32387 223.10829 0 0 0
34.33267 220.33783 0 0 0
34.34147 213.72655 0 0 0
34.35027 214.99461 0 0 0
34.35907 221.03384 0 0 0
34.36788 217.60777 0 0 0
34.37668 213.01593 0 0 0
34.38548 210.49982 0 0 0
34.39428 207.71828 0 0 0
34.40308 202.82227 0 0 0
34.41189 197.02116 0 0 0
34.42069 194.37729 0 0 0
34.42949 192.64758 0 0 0
34.43829 194.25676 0 0 0
34.44710 199.24277 0 0 0
34.45590 198.00002 0 0 0
34.46470 204.2856 0 0 0
34.47350 213.13142 0 0 0
34.48230 211.79987 0 0 0
34.49111 207.87511 0 0 0
34.49991 208.82117 0 0 0
34.50871 209.87912 0 0 0
34.51751 219.99806 0 0 0
34.52631 221.11003 0 0 0
34.53512 218.84956 0 0 0
34.54392 218.54384 0 0 0
34.55272 210.94594 0 0 0
34.56152 200.17581 0 0 0
34.57033 200.9225 0 0 0
34.57913 201.55884 0 0 0
34.58793 203.27345 0 0 0
34.59673 195.53023 0 0 0
34.60553 183.00977 0 0 0
34.61434 183.74434 0 0 0
34.62314 190.22461 0 0 0
34.63194 192.70456 0 0 0
34.64074 206.37653 0 0 0
34.64954 212.68767 0 0 0
34.65835 221.08556 0 0 0
34.66715 214.46709 0 0 0
34.67595 190.37753 0 0 0
34.68475 180.10452 0 0 0
34.69355 181.93414 0 0 0
34.70236 193.17015 0 0 0
34.71116 205.0961 0 0 0
34.71996 204.59058 0 0 0
34.72876 203.47453 0 0 0
34.73757 200.05054 0 0 0
34.74637 199.22501 0 0 0
34.75517 205.02516 0 0 0
34.76397 208.4425 0 0 0
34.77277 221.18179 0 0 0
34.78158 227.64285 0 0 0
34.79038 217.99344 0 0 0
34.79918 212.43832 0 0 0
34.80798 217.60709 0 0 0
34.81678 217.345 0 0 0
34.82559 218.93205 0 0 0
34.83439 218.9176 0 0 0
34.84319 232.20586 0 0 0
34.85199 234.09937 0 0 0
34.86079 214.98363 0 0 0
34.86960 199.55379 0 0 0
34.87840 188.84981 0 0 0
34.88720 194.407 0 0 0
34.89600 214.63393 0 0 0
34.90481 218.24455 0 0 0
34.91361 218.31316 0 0 0
34.92241 216.24561 0 0 0
34.93121 208.85915 0 0 0
34.94001 210.83122 0 0 0
34.94882 213.21355 0 0 0
34.95762 210.26663 0 0 0
34.96642 208.30916 0 0 0
34.97522 207.86444 0 0 0
34.98402 209.91731 0 0 0
34.99283 208.26775 0 0 0
35.00163 207.74315 0 0 0
35.01043 202.72427 0 0 0
35.01923 192.91272 0 0 0
35.02804 188.00227 0 0 0
35.03684 185.77599 0 0 0
35.04564 193.46899 0 0 0
35.05444 201.71207 0 0 0
35.06324 207.11346 0 0 0
35.07205 208.82008 0 0 0
35.08085 207.03986 0 0 0
35.08965 218.62125 0 0 0
35.09845 235.50603 0 0 0
35.10725 238.97787 0 0 0
35.11606 221.31941 0 0 0
35.12486 215.39888 0 0 0
35.13366 215.48703 0 0 0
35.14246 218.62671 0 0 0
35.15126 220.31255 0 0 0
35.16007 213.29976 0 0 0
35.16887 203.93985 0 0 0
35.17767 206.71848 0 0 0
35.18647 201.85304 0 0 0
35.19528 190.60054 0 0 0
35.20408 187.12019 0 0 0
loop_
_gsas_i100_meas
2.42
15.76
6.98
5.35
4.92
0.47
8.40
13.58
4.27
100.00
17.39
0.57
12.78
0.93
13.95
29.85
5.44
0.01
23.42
10.45
1.60
0.88
-0.14
1.50
2.66
69.41
0.24
8.97
28.17
0.47
-0.11
0.71
0.23
2.76
2.29
0.04
0.03
7.56
0.26
7.80
9.30
1.54
0.14
0.41
0.04
1.10
2.01
0.57
26.27
5.41
1.42
2.24
2.41
0.05
0.46
2.64
0.32
3.86
0.64
6.23
0.00
12.11
22.56
0.22
3.77
-1.91
2.76
-0.14
2.26
0.46
0.03
1.11
1.80
2.76
-0.00
1.08
2.96
2.69
0.48
0.91
2.92
1.45
0.00
1.25
1.97
0.00
0.00
3.28
0.85
25.25
1.27
1.05
0.28
0.13
0.02
0.70
0.60
0.17
4.77
0.08
3.82
2.21
1.67
0.23
1.86
0.01
0.22
0.33
0.16
3.52
2.53
6.42
18.26
9.98
1.20
0.22
0.02
2.12
0.05
1.29
0.03
0.50
0.16
0.14
1.43
0.56
7.40
6.40
1.56
0.20
6.57
0.06
0.01
-0.01
2.73
1.56
0.09
1.15
0.17
0.00
0.16
1.62
1.27
-0.74
0.11
1.74
7.24
4.25
0.00
0.38
0.01
10.74
1.21
-0.24
0.73
0.25
-0.02
1.35
0.03
0.66
5.37
0.22
0.12
1.89
0.01
0.38
2.83
0.87
1.81
0.02
0.25
0.10
0.11
1.33
0.58
1.53
1.94
0.01
0.00
0.00
