#------------------------------------------------------------------------------
#$Date: 2023-12-12 23:40:08 +0200 (Tue, 12 Dec 2023) $
#$Revision: 288267 $
#$URL: file:///home/coder/svn-repositories/cod/cif/7/24/18/7241829.cif $
#------------------------------------------------------------------------------
#
# This file is available in the Crystallography Open Database (COD),
# http://www.crystallography.net/
#
# All data on this site have been placed in the public domain by the
# contributors.
#
data_7241829
loop_
_publ_author_name
'Gu\'nka, Piotr A.'
'Hanfland, Michael'
'Chen, Yu-Sheng'
'Zachara, Janusz'
_publ_section_title
;
 High-pressure and low-temperature structural study of claudetite I, a
 monoclinic layered As2O3 polymorph
;
_journal_issue                   3
_journal_name_full               CrystEngComm
_journal_page_first              638
_journal_page_last               644
_journal_paper_doi               10.1039/D0CE01401J
_journal_volume                  23
_journal_year                    2021
_chemical_formula_moiety         'As2 O3'
_chemical_formula_sum            'As2 O3'
_chemical_formula_weight         197.84
_chemical_name_common            'claudetite I'
_chemical_name_systematic        'arsenic(III) oxide'
_space_group_IT_number           14
_space_group_name_Hall           '-P 2yn'
_space_group_name_H-M_alt        'P 1 21/n 1'
_symmetry_cell_setting           monoclinic
_symmetry_space_group_name_H-M   'P 1 21/n 1'
_audit_creation_date             2020-10-21T11:22
_audit_creation_method           'created in GSAS-II'
_audit_update_record
;
2020-10-22 deposited with the CCDC.	2020-12-10 downloaded from the CCDC.
;
_cell_angle_alpha                90
_cell_angle_beta                 94.581(8)
_cell_angle_gamma                90
_cell_formula_units_Z            4
_cell_length_a                   4.9826(8)
_cell_length_b                   12.26098(24)
_cell_length_c                   4.3436(5)
_cell_measurement_pressure       5.93e6(5)
_cell_measurement_temperature    293
_cell_volume                     264.51(5)
_computing_data_reduction        Fit2D
_computing_structure_refinement
'GSAS-II (Toby & Von Dreele, J. Appl. Cryst. 46, 544-549, 2013)'
_diffrn_ambient_pressure         5.93e6(5)
_diffrn_ambient_temperature      293
_diffrn_detector                 'Mar555 flat panel'
_diffrn_detector_type            'Mar555 flat panel'
_diffrn_measurement_device_type  'ESRF ID09A beamline'
_diffrn_radiation_monochromator  Si
_diffrn_radiation_polarisn_ratio 0.9900
_diffrn_radiation_probe          x-ray
_diffrn_radiation_wavelength     0.41421
_diffrn_source                   'ESRF ID09A'
_diffrn_source_type              synchrotron
_exptl_crystal_colour            colourless
_exptl_crystal_density_diffrn    4.9679
_exptl_crystal_description       'white powder'
_pd_block_id                     2020-10-21T11:22|clau1_010rietveld||id09a
_pd_calc_method                  'Rietveld Refinement'
_pd_meas_number_of_points        4000
_pd_phase_name                   claudetiteI
_pd_prep_pressure                100.0(1)
_pd_prep_temperature             293
_pd_proc_info_datetime           2020-10-21T11:22
_pd_proc_ls_background_function
;
Background function: "chebyschev" function with 15 terms:
    715.9(23), 362(10), 1.3(5)e2, -3.4(8)e2, 1.17(23)e3, 2.54(17)e3, 
    -1.671(31)e4, -9.39(4)e3, 5.893(14)e4, 1.588(15)e4, -9.366(27)e4, 
    -1.258(12)e4, 7.066(31)e4, 3.81(16)e3, -2.06(3)e4, 
;
_pd_proc_ls_pref_orient_corr
;
Simple spherical harmonic correction Order = 6
    Coefficients:  0:0:C(6,6) = 0.02(3); 0:0:C(4,4) = 0.78(4); 
    0:0:C(6,-2) = 0.12(4); 0:0:C(2,-2) = 0.351(22); 0:0:C(4,-4) = 0.220(31); 
    0:0:C(2,2) = 0.696(23); 0:0:C(4,0) = 0.405(31); 0:0:C(6,-6) = -0.41(4); 
    0:0:C(6,4) = 0.36(4); 0:0:C(4,2) = -0.089(29); 0:0:C(6,2) = 0.11(3); 
    0:0:C(6,-4) = 0.01(3); 0:0:C(6,0) = 0.14(4); 0:0:C(2,0) = 0.984(25); 
    0:0:C(4,-2) = -0.132(27); 
;
_pd_proc_ls_profile_function
;
Finger-Cox-Jephcoat function parameters U, V, W, X, Y, SH/L:
  peak variance(Gauss) = Utan(Th)^2^+Vtan(Th)+W:
  peak HW(Lorentz) = X/cos(Th)+Ytan(Th); SH/L = S/L+H/L
  U, V, W in (centideg)^2^, X & Y in centideg
    4.3(8)e2, -89(15), 5.8(7), 0.58(15), 33(4), 0.002, 
  Crystallite size in microns with "isotropic" model:
  parameters: Size, G/L mix
    1.000, 1.000, 
  Microstrain, "isotropic" model (10^6^ * delta Q/Q)
    parameters: Mustrain, G/L mix
    1000.000, 1.000, 

;
_pd_proc_ls_prof_R_factor        0.02270
_pd_proc_ls_prof_wR_expected     0.03457
_pd_proc_ls_prof_wR_factor       0.03979
_refine_ls_goodness_of_fit_all   1.174
_refine_ls_matrix_type           full
_refine_ls_number_parameters     57
_refine_ls_R_Fsqd_factor         0.27540
_refine_ls_shift/su_max          0.0013
_refine_ls_wR_factor_obs         0.04000
_reflns_d_resolution_high        1.148
_reflns_d_resolution_low         6.130
_reflns_limit_h_max              4
_reflns_limit_h_min              0
_reflns_limit_k_max              10
_reflns_limit_k_min              0
_reflns_limit_l_max              3
_reflns_limit_l_min              -3
_reflns_number_total             182
_cod_data_source_file            d0ce01401j3.cif
_cod_data_source_block           clau1_010rietveld
_cod_depositor_comments
'Adding full bibliography for 7241824--7241862.cif.'
_cod_original_cell_volume        264.515(21)
_cod_database_code               7241829
_refine_ls_r_f_factor            0.11724
_gsas_proc_ls_prof_r_b_factor    0.05436
_gsas_proc_ls_prof_wr_b_factor   0.08590
loop_
_space_group_symop_id
_space_group_symop_operation_xyz
1 x,y,z
2 1/2-x,1/2+y,1/2-z
3 -x,-y,-z
4 1/2+x,1/2-y,1/2+z
loop_
_atom_site_label
_atom_site_type_symbol
_atom_site_fract_x
_atom_site_fract_y
_atom_site_fract_z
_atom_site_occupancy
_atom_site_adp_type
_atom_site_U_iso_or_equiv
_atom_site_symmetry_multiplicity
As1 As 0.2638(16) 0.09274(29) 0.0516(10) 1.000 Uiso 0.0044(14) 4
As2 As 0.3362(12) 0.3536(3) 0.0198(11) 1.000 Uiso 0.0044 4
O3 O 0.433(5) 0.2180(8) 0.128(7) 1.000 Uiso 0.0044 4
O4 O 0.641(4) 0.4155(18) 0.1596(30) 1.000 Uiso 0.0044 4
O5 O -0.054(4) 0.1268(25) 0.154(4) 1.000 Uiso 0.0044 4
loop_
_atom_type_symbol
_atom_type_number_in_cell
_atom_type_scat_Cromer_Mann_a1
_atom_type_scat_Cromer_Mann_a2
_atom_type_scat_Cromer_Mann_a3
_atom_type_scat_Cromer_Mann_a4
_atom_type_scat_Cromer_Mann_b1
_atom_type_scat_Cromer_Mann_b2
_atom_type_scat_Cromer_Mann_b3
_atom_type_scat_Cromer_Mann_b4
_atom_type_scat_Cromer_Mann_c
_atom_type_scat_length_neutron
_atom_type_scat_source
_atom_type_scat_dispersion_real
_atom_type_scat_dispersion_imag
_atom_type_scat_dispersion_source
As 8 16.6723 6.0701 3.4313 4.2779 2.6345 0.2647 12.9479 47.7972 2.531 0.658
https://subversion.xray.aps.anl.gov/pyGSAS/trunk/atmdata.py 0.283 0.775
https://subversion.xray.aps.anl.gov/pyGSAS/trunk/atmdata.py
O 12 3.0485 2.2868 1.5463 0.867 13.2771 5.7011 0.3239 32.9089 0.2508 0.5805
https://subversion.xray.aps.anl.gov/pyGSAS/trunk/atmdata.py 0.002 0.002
https://subversion.xray.aps.anl.gov/pyGSAS/trunk/atmdata.py
loop_
_geom_angle_atom_site_label_1
_geom_angle_atom_site_label_2
_geom_angle_atom_site_label_3
_geom_angle
_geom_angle_site_symmetry_1
_geom_angle_site_symmetry_2
_geom_angle_site_symmetry_3
_geom_angle_publ_flag
O3 As1 O4 110.6(13) 1_555 1_555 4_454 yes
O3 As1 O5 100.1(13) 1_555 1_555 1_555 yes
O4 As1 O5 90.5(9) 4_454 1_555 1_555 yes
O3 As2 O4 95.9(10) 1_555 1_555 1_555 yes
O3 As2 O5 105.7(17) 1_555 1_555 4_554 yes
O4 As2 O5 86.0(8) 1_555 1_555 4_554 yes
As1 O3 As2 130.2(10) 1_555 1_555 1_555 yes
As1 O4 As2 122.0(10) 4_555 1_555 1_555 yes
As1 O5 As2 129.0(12) 1_555 1_555 4_455 yes
loop_
_geom_bond_atom_site_label_1
_geom_bond_atom_site_label_2
_geom_bond_distance
_geom_bond_site_symmetry_1
_geom_bond_site_symmetry_2
_geom_bond_publ_flag
As1 O3 1.771(11) 1_555 1_555 yes
As1 O4 1.765(10) 1_555 4_454 yes
As1 O5 1.730(11) 1_555 1_555 yes
As2 O3 1.783(10) 1_555 1_555 yes
As2 O4 1.763(11) 1_555 1_555 yes
As2 O5 1.738(10) 1_555 4_554 yes
loop_
_pd_meas_2theta_scan
_pd_meas_intensity_total
_pd_calc_intensity_total
_pd_proc_intensity_bkg_calc
_pd_proc_ls_weight
0.00440 110.75584 0 0 0
0.01320 110.32315 0 0 0
0.02201 109.88393 0 0 0
0.03081 107.51666 0 0 0
0.03961 105.81811 0 0 0
0.04841 106.01559 0 0 0
0.05721 107.47549 0 0 0
0.06602 109.3335 0 0 0
0.07482 109.3471 0 0 0
0.08362 109.30418 0 0 0
0.09242 108.0928 0 0 0
0.10122 107.31122 0 0 0
0.11003 106.80559 0 0 0
0.11883 105.72868 0 0 0
0.12763 105.26582 0 0 0
0.13643 105.11524 0 0 0
0.14523 104.19435 0 0 0
0.15404 104.95631 0 0 0
0.16284 104.98563 0 0 0
0.17164 107.91893 0 0 0
0.18044 107.08419 0 0 0
0.18925 105.63608 0 0 0
0.19805 102.87541 0 0 0
0.20685 104.13964 0 0 0
0.21565 106.59881 0 0 0
0.22445 106.19571 0 0 0
0.23326 104.01379 0 0 0
0.24206 102.70795 0 0 0
0.25086 104.79604 0 0 0
0.25966 107.04382 0 0 0
0.26846 108.61835 0 0 0
0.27727 108.32475 0 0 0
0.28607 107.32107 0 0 0
0.29487 107.31123 0 0 0
0.30367 107.41403 0 0 0
0.31248 107.12898 0 0 0
0.32128 107.74784 0 0 0
0.33008 108.92906 0 0 0
0.33888 109.91171 0 0 0
0.34768 110.05775 0 0 0
0.35649 110.14246 0 0 0
0.36529 110.49467 0 0 0
0.37409 112.42619 0 0 0
0.38289 112.32404 0 0 0
0.39169 111.65748 0 0 0
0.40050 112.0725 0 0 0
0.40930 112.6371 0 0 0
0.41810 112.34454 0 0 0
0.42690 111.35736 0 0 0
0.43570 110.02982 0 0 0
0.44451 108.79756 0 0 0
0.45331 108.99625 0 0 0
0.46211 109.66488 0 0 0
0.47091 109.52814 0 0 0
0.47972 109.56171 0 0 0
0.48852 108.81589 0 0 0
0.49732 108.6708 0 0 0
0.50612 108.55972 0 0 0
0.51492 109.45374 0 0 0
0.52373 109.04382 0 0 0
0.53253 107.86065 0 0 0
0.54133 108.25037 0 0 0
0.55013 109.18684 0 0 0
0.55893 109.37835 0 0 0
0.56774 108.21503 0 0 0
0.57654 108.813 0 0 0
0.58534 108.98121 0 0 0
0.59414 108.51373 0 0 0
0.60295 108.27293 0 0 0
0.61175 107.74726 0 0 0
0.62055 107.71539 0 0 0
0.62935 107.74386 0 0 0
0.63815 108.80279 0 0 0
0.64696 109.04639 0 0 0
0.65576 109.06817 0 0 0
0.66456 108.82885 0 0 0
0.67336 108.53963 0 0 0
0.68216 108.4696 0 0 0
0.69097 108.99617 0 0 0
0.69977 109.4323 0 0 0
0.70857 109.58044 0 0 0
0.71737 109.80797 0 0 0
0.72617 109.88168 0 0 0
0.73498 109.9529 0 0 0
0.74378 109.64891 0 0 0
0.75258 109.57871 0 0 0
0.76138 109.4927 0 0 0
0.77019 108.6642 0 0 0
0.77899 108.82017 0 0 0
0.78779 108.88211 0 0 0
0.79659 109.37405 0 0 0
0.80539 110.54654 0 0 0
0.81420 111.0512 0 0 0
0.82300 111.21957 0 0 0
0.83180 111.56834 0 0 0
0.84060 112.70991 0 0 0
0.84940 113.05238 0 0 0
0.85821 114.63634 0 0 0
0.86701 115.8379 0 0 0
0.87581 115.51273 0 0 0
0.88461 115.43925 0 0 0
0.89342 116.49252 0 0 0
0.90222 118.47474 0 0 0
0.91102 119.20838 0 0 0
0.91982 118.98859 0 0 0
0.92862 120.17892 0 0 0
0.93743 121.6433 0 0 0
0.94623 124.69553 0 0 0
0.95503 127.6048 0 0 0
0.96383 129.53479 0 0 0
0.97263 128.88806 0 0 0
0.98144 130.45572 0 0 0
0.99024 133.51543 0 0 0
0.99904 137.22398 0 0 0
1.00784 140.16061 0 0 0
1.01664 144.2392 0 0 0
1.02545 149.55133 0 0 0
1.03425 158.61876 0 0 0
1.04305 167.97261 0 0 0
1.05185 174.74931 0 0 0
1.06066 178.24411 0 0 0
1.06946 186.6673 0 0 0
1.07826 191.80449 0 0 0
1.08706 197.37927 0 0 0
1.09586 201.40523 0 0 0
1.10467 206.85716 0 0 0
1.11347 212.21915 0 0 0
1.12227 217.44592 0 0 0
1.13107 223.70911 0 0 0
1.13987 229.55862 0 0 0
1.14868 233.44565 0 0 0
1.15748 236.267 0 0 0
1.16628 238.97989 0 0 0
1.17508 241.5791 0 0 0
1.18389 244.14607 0 0 0
1.19269 246.09244 0 0 0
1.20149 247.80624 0 0 0
1.21029 249.82553 0 0 0
1.21909 253.07376 0 0 0
1.22790 254.70404 0 0 0
1.23670 257.19073 0 0 0
1.24550 258.5972 0 0 0
1.25430 261.32089 0 0 0
1.26310 263.48654 0 0 0
1.27191 265.89835 0 0 0
1.28071 267.25272 0 0 0
1.28951 268.56461 0 0 0
1.29831 269.48492 0 0 0
1.30711 270.96948 0 0 0
1.31592 273.02335 0 0 0
1.32472 275.95938 0 0 0
1.33352 278.41092 0 0 0
1.34232 279.08298 0 0 0
1.35113 279.92328 0 0 0
1.35993 282.03659 0 0 0
1.36873 283.7482 0 0 0
1.37753 283.50079 0 0 0
1.38633 283.84702 0 0 0
1.39514 285.58615 0 0 0
1.40394 288.04929 0 0 0
1.41274 290.63779 0 0 0
1.42154 292.01126 0 0 0
1.43034 291.69397 0 0 0
1.43915 292.48898 0 0 0
1.44795 294.04529 0 0 0
1.45675 295.19455 0 0 0
1.46555 296.04819 0 0 0
1.47436 297.97461 0 0 0
1.48316 299.06656 0 0 0
1.49196 299.62421 0 0 0
1.50076 300.47226 0 0 0
1.50956 301.64282 0 0 0
1.51837 302.38321 0 0 0
1.52717 302.85046 0 0 0
1.53597 303.4032 0 0 0
1.54477 304.08926 0 0 0
1.55357 305.38019 0 0 0
1.56238 307.56888 0 0 0
1.57118 309.07635 0 0 0
1.57998 310.25787 0 0 0
1.58878 310.53961 0 0 0
1.59758 310.40408 0 0 0
1.60639 309.92868 0 0 0
1.61519 310.81647 0 0 0
1.62399 312.98022 0 0 0
1.63279 315.03036 0 0 0
1.64160 315.61392 0 0 0
1.65040 315.03333 0 0 0
1.65920 316.00833 0 0 0
1.66800 316.42291 0 0 0
1.67680 317.89969 0 0 0
1.68561 318.39822 0 0 0
1.69441 319.16068 0 0 0
1.70321 319.47379 0 0 0
1.71201 321.12711 0 0 0
1.72081 321.50485 0 0 0
1.72962 321.83713 0 0 0
1.73842 321.93869 0 0 0
1.74722 323.20245 0 0 0
1.75602 324.56039 0 0 0
1.76483 326.23398 0 0 0
1.77363 326.69315 0 0 0
1.78243 326.22021 0 0 0
1.79123 326.31274 0 0 0
1.80003 327.991 0 0 0
1.80884 328.22256 0 0 0
1.81764 328.7048 0 0 0
1.82644 328.83249 0 0 0
1.83524 329.30862 0 0 0
1.84404 330.38025 0 0 0
1.85285 331.41333 0 0 0
1.86165 332.32565 0 0 0
1.87045 333.30609 0 0 0
1.87925 335.42612 0 0 0
1.88805 336.63467 0 0 0
1.89686 337.0098 0 0 0
1.90566 337.65482 0 0 0
1.91446 338.18701 0 0 0
1.92326 338.47183 0 0 0
1.93207 339.04288 0 0 0
1.94087 339.98233 0 0 0
1.94967 340.62659 0 0 0
1.95847 340.50851 0 0 0
1.96727 340.61267 0 0 0
1.97608 342.13654 0 0 0
1.98488 342.48291 0 0 0
1.99368 342.98752 0 0 0
2.00248 342.74557 0 0 0
2.01128 343.42496 0 0 0
2.02009 344.34671 0 0 0
2.02889 345.01633 0 0 0
2.03769 345.35922 0 0 0
2.04649 346.57864 0 0 0
2.05530 347.65079 0 0 0
2.06410 348.54755 0 0 0
2.07290 349.08563 0 0 0
2.08170 348.91046 0 0 0
2.09050 349.20395 0 0 0
2.09931 350.17383 0 0 0
2.10811 352.16541 0 0 0
2.11691 352.83826 0 0 0
2.12571 351.83801 0 0 0
2.13451 351.46021 0 0 0
2.14332 352.7088 0 0 0
2.15212 353.85852 0 0 0
2.16092 354.92825 0 0 0
2.16972 355.66357 0 0 0
2.17852 355.52054 0 0 0
2.18733 355.93631 0 0 0
2.19613 356.496 0 0 0
2.20493 356.88608 0 0 0
2.21373 356.8887 0 0 0
2.22254 357.5871 0 0 0
2.23134 357.64706 0 0 0
2.24014 358.03302 0 0 0
2.24894 359.17267 0 0 0
2.25774 360.11029 0 0 0
2.26655 360.51056 0 0 0
2.27535 361.27399 0 0 0
2.28415 362.05914 0 0 0
2.29295 362.13449 0 0 0
2.30175 362.01767 0 0 0
2.31056 362.53317 0 0 0
2.31936 363.77908 0 0 0
2.32816 364.87384 0 0 0
2.33696 364.45203 0 0 0
2.34576 364.63861 0 0 0
2.35457 365.14557 0 0 0
2.36337 365.06735 0 0 0
2.37217 365.40747 0 0 0
2.38097 366.44281 0 0 0
2.38978 366.41934 0 0 0
2.39858 367.2616 0 0 0
2.40738 367.61365 0 0 0
2.41618 368.10019 0 0 0
2.42498 368.91086 0 0 0
2.43379 369.16342 0 0 0
2.44259 369.89212 0 0 0
2.45139 370.40613 0 0 0
2.46019 370.991 0 0 0
2.46899 371.47464 0 0 0
2.47780 371.59756 0 0 0
2.48660 371.59445 0 0 0
2.49540 371.93173 0 0 0
2.50420 373.36069 0 0 0
2.51301 373.36581 0 0 0
2.52181 373.23825 0 0 0
2.53061 373.46002 0 0 0
2.53941 374.32434 0 0 0
2.54821 374.81125 0 0 0
2.55702 374.95822 0 0 0
2.56582 374.90073 0 0 0
2.57462 375.15601 0 0 0
2.58342 375.43356 0 0 0
2.59222 375.73462 0 0 0
2.60103 376.39999 0 0 0
2.60983 377.21326 0 0 0
2.61863 377.81 0 0 0
2.62743 378.08163 0 0 0
2.63624 378.14938 0 0 0
2.64504 378.89777 0 0 0
2.65384 378.91599 0 0 0
2.66264 379.18719 0 0 0
2.67144 380.13974 0 0 0
2.68025 381.11929 0 0 0
2.68905 381.16275 0 0 0
2.69785 380.80701 375.456759 375.438232 0.002626002
2.70665 380.71506 376.464373 376.44571 0.002626636
2.71545 380.94968 377.432709 377.413908 0.002625019
2.72426 381.94226 378.363095 378.344155 0.002618197
2.73306 382.98773 379.256931 379.237851 0.00261105
2.74186 383.83469 380.115488 380.096266 0.002605288
2.75066 383.96173 380.940037 380.920671 0.002604426
2.75946 384.17694 381.731788 381.712277 0.002602967
2.76827 384.69791 382.492002 382.472344 0.002599442
2.77707 385.07642 383.221824 383.202018 0.002596887
2.78587 385.09702 383.922392 383.902435 0.002596748
2.79467 384.60529 384.59482 384.574711 0.002600068
2.80348 384.42163 385.240208 385.219945 0.00260131
2.81228 384.78445 385.85961 385.839191 0.002598858
2.82108 385.64038 386.454045 386.433469 0.002593089
2.82988 385.88196 387.024495 387.003759 0.002591466
2.83868 385.478 387.57197 387.551073 0.002594182
2.84749 386.17105 388.097396 388.076335 0.002589526
2.85629 387.07269 388.601692 388.580466 0.002583494
2.86509 387.42563 389.085747 389.064354 0.002581141
2.87389 387.25455 389.55043 389.528867 0.002582281
2.88269 387.67789 389.996597 389.974862 0.002579461
2.89150 388.09177 390.425065 390.403157 0.00257671
2.90030 388.75363 390.836628 390.814544 0.002572323
2.90910 389.23474 391.232045 391.209783 0.002569144
2.91790 389.35144 391.612094 391.589652 0.002568374
2.92670 389.96234 391.97749 391.954866 0.00256435
2.93551 389.95728 392.328941 392.306131 0.002564383
2.94431 389.49179 392.66712 392.644124 0.002567448
2.95311 389.47531 392.992718 392.969531 0.002567557
2.96191 389.92523 393.306362 393.282984 0.002564594
2.97072 389.75687 393.608685 393.585112 0.002565702
2.97952 389.93716 393.90029 393.87652 0.002564516
2.98832 390.57944 394.181753 394.157784 0.002560299
2.99712 391.4884 394.453662 394.42949 0.002554354
3.00592 391.56549 394.716556 394.69218 0.002553851
3.01473 391.76892 394.970969 394.946385 0.002552525
3.02353 391.55652 395.217405 395.192611 0.00255391
3.03233 392.15732 395.456381 395.431373 0.002549997
3.04113 392.78818 395.688368 395.663144 0.002545901
3.04993 393.80814 395.913828 395.888385 0.002539308
3.05874 394.79666 396.133211 396.107545 0.002532949
3.06754 395.46481 396.346955 396.321064 0.00252867
3.07634 395.39832 396.555478 396.529359 0.002529095
3.08514 395.27997 396.759182 396.732831 0.002529852
3.09395 395.12122 396.958448 396.931862 0.002530869
3.10275 395.65295 397.153665 397.126841 0.002527468
3.11155 396.34317 397.345188 397.318122 0.002523066
3.12035 396.65649 397.533363 397.506052 0.002521073
3.12915 396.65607 397.718524 397.690964 0.002521076
3.13796 396.64694 397.900993 397.87318 0.002521134
3.14676 396.98563 398.081082 398.053013 0.002518983
3.15556 397.40775 398.259089 398.23076 0.002516307
3.16436 397.98349 398.441374 398.406704 0.002512667
3.17316 398.34393 398.61609 398.581112 0.002510393
3.18197 398.41287 398.78955 398.754258 0.002509959
3.19077 398.82974 398.961998 398.926389 0.002507336
3.19957 398.28513 399.133676 399.097743 0.002510764
3.20837 398.02927 399.304806 399.268546 0.002512378
3.21717 398.26996 399.47562 399.439028 0.00251086
3.22598 398.3938 399.646322 399.609392 0.002510079
3.23478 398.68011 399.817114 399.779842 0.002508277
3.24358 399.42197 399.988186 399.950566 0.002503618
3.25238 400.24207 400.159714 400.12174 0.002498488
3.26119 400.75693 400.331882 400.293548 0.002495278
3.26999 401.17697 400.504848 400.466149 0.002492666
3.27879 401.03589 400.678767 400.639697 0.002493542
3.28759 401.30685 400.853783 400.814335 0.002491859
3.29639 401.82535 401.030045 400.990213 0.002488643
3.30520 402.66043 401.207677 401.167456 0.002483482
3.31400 403.65735 401.386808 401.34619 0.002477349
3.32280 403.30789 401.567549 401.526527 0.002479495
3.33160 403.41806 401.750015 401.708582 0.002478818
3.34040 403.92429 401.93431 401.892458 0.002475711
3.34921 404.46024 402.120527 402.078249 0.002472431
3.35801 404.47177 402.308757 402.266044 0.00247236
3.36681 404.87122 402.499075 402.45592 0.002469921
3.37561 404.60104 402.691573 402.647967 0.002471571
3.38442 404.79547 402.886313 402.842247 0.002470383
3.39322 404.49796 403.083366 403.038831 0.0024722
3.40202 404.30389 403.282784 403.237771 0.002473387
3.41082 404.84332 403.48463 403.439128 0.002470091
3.41962 405.20523 403.688953 403.642952 0.002467885
3.42843 406.13742 403.895796 403.849284 0.002462221
3.43723 406.47397 404.10519 404.058158 0.002460182
3.44603 406.26651 404.317186 404.26962 0.002461438
3.45483 406.79782 404.531807 404.483696 0.002458224
3.46363 407.32944 404.74908 404.700409 0.002455015
3.47244 407.74579 404.969018 404.919775 0.002452508
3.48124 407.21927 405.191655 405.141825 0.002455679
3.49004 406.74493 405.416996 405.366562 0.002458543
3.49884 406.73956 405.648324 405.594002 0.002458576
3.50764 407.2048 405.879128 405.824148 0.002455767
3.51645 407.67371 406.112651 406.056993 0.002452942
3.52525 408.68359 406.348909 406.292554 0.002446881
3.53405 409.99039 406.587892 406.530817 0.002439082
3.54285 410.19348 406.829593 406.771776 0.002437874
3.55166 409.96692 407.073995 407.015411 0.002439221
3.56046 409.86087 407.321105 407.261726 0.002439852
3.56926 410.55054 407.570897 407.510694 0.002435754
3.57806 411.07416 407.82336 407.762301 0.002432651
3.58686 411.23572 408.078469 408.016518 0.002431695
3.59567 411.53281 408.33621 408.27333 0.00242994
3.60447 411.94861 408.596564 408.532711 0.002427487
3.61327 411.76752 408.859503 408.79463 0.002428555
3.62207 411.65466 409.125002 409.059056 0.002429221
3.63087 412.00934 409.393027 409.325948 0.002427129
3.63968 412.34433 409.66357 409.595291 0.002425158
3.64848 412.53284 409.936591 409.867035 0.002424049
3.65728 412.6796 410.212071 410.14115 0.002423187
3.66608 412.96344 410.489973 410.417587 0.002421522
3.67489 413.45981 410.770283 410.696315 0.002418615
3.68369 413.83496 411.052979 410.977291 0.002416422
3.69249 413.74863 411.338039 411.260468 0.002416926
3.70129 413.79956 411.625439 411.545793 0.002416629
3.71009 414.16913 411.915193 411.833238 0.002414473
3.71890 414.40158 412.207295 412.122746 0.002413118
3.72770 414.78931 412.501758 412.414267 0.002410863
3.73650 414.81354 412.798621 412.707751 0.002410722
3.74530 414.93008 413.09796 413.003157 0.002410045
3.75410 415.43225 413.399872 413.300426 0.002407131
3.76291 415.6868 413.704533 413.599512 0.002405657
3.77171 415.41257 414.012209 413.90036 0.002407245
3.78051 416.02054 414.323364 414.202907 0.002403727
3.78931 417.19388 414.639125 414.507119 0.002396967
3.79811 417.38351 414.962839 414.812933 0.002395878
3.80692 417.39804 415.305368 415.120295 0.002395795
3.81572 417.75311 415.697443 415.429139 0.002393758
3.82452 418.11035 416.207776 415.739432 0.002391713
3.83332 418.03973 416.946867 416.051103 0.002392117
3.84213 418.21613 418.017266 416.364106 0.002391108
3.85093 418.37271 419.395816 416.678374 0.002390213
3.85973 419.37076 420.820653 416.993861 0.002384525
3.86853 419.77228 421.810004 417.310513 0.002382244
3.87733 419.25342 421.956351 417.628269 0.002385192
3.88614 419.27652 421.373989 417.947076 0.002385061
3.89494 419.7731 420.556073 418.266865 0.002382239
3.90374 419.93765 419.915963 418.587603 0.002381306
3.91254 420.29654 419.616137 418.909221 0.002379273
3.92134 420.8298 419.615073 419.231671 0.002376258
3.93015 421.04404 419.79632 419.554887 0.002375048
3.93895 421.06143 420.063265 419.878826 0.00237495
3.94775 421.60483 420.363649 420.203433 0.002371889
3.95655 422.06036 420.676249 420.528652 0.002369329
3.96535 422.79584 420.993968 420.854418 0.002365208
3.97416 423.14828 421.314577 421.180699 0.002363238
3.98296 422.95676 421.637192 421.507433 0.002364308
3.99176 422.35736 421.961331 421.834564 0.002367663
4.00056 422.64612 422.286676 422.162047 0.002366046
4.00937 422.77759 422.612973 422.489821 0.00236531
4.01817 422.8132 422.940055 422.817857 0.002365111
4.02697 423.48724 423.267735 423.146072 0.002361346
4.03577 424.00873 423.595908 423.474437 0.002358442
4.04457 424.37421 423.931472 423.802923 0.002356411
4.05338 424.09341 424.260368 424.13144 0.002357971
4.06218 423.90329 424.589475 424.459961 0.002359029
4.07098 424.02429 424.918739 424.78846 0.002358355
4.07978 424.96466 425.248057 425.116857 0.002353137
4.08858 425.28058 425.577399 425.445137 0.002351389
4.09739 426.0358 425.906673 425.773221 0.002347221
4.10619 426.6987 426.235847 426.10109 0.002343574
4.11499 426.90552 426.564881 426.42871 0.002342439
4.12379 426.99765 426.893692 426.756008 0.002341933
4.13260 427.01492 427.222257 427.082964 0.002341839
4.14140 427.40152 427.550542 427.409549 0.00233972
4.15020 427.36743 427.87847 427.73569 0.002339907
4.15900 427.70676 428.206039 428.061386 0.00233805
4.16780 428.45862 428.533174 428.386566 0.002333948
4.17661 429.61475 428.85985 428.711204 0.002327667
4.18541 429.20212 429.186052 429.035286 0.002329905
4.19421 428.40527 429.511711 429.358744 0.002334238
4.20301 427.7673 429.836822 429.681574 0.00233772
4.21181 427.95291 430.161321 430.003709 0.002336706
4.22062 428.50275 430.485193 430.325134 0.002333707
4.22942 429.08011 430.808431 430.645842 0.002330567
4.23822 429.43301 431.130962 430.965756 0.002328652
4.24702 429.31012 431.452779 431.28487 0.002329318
4.25582 429.40204 431.773875 431.603174 0.00232882
4.26463 429.65738 432.09419 431.920606 0.002327436
4.27343 429.94275 432.41373 432.237168 0.002325891
4.28223 429.88297 432.732439 432.552804 0.002326215
4.29103 429.9949 433.050317 432.867508 0.002325609
4.29984 430.80365 433.367353 433.181269 0.002321243
4.30864 431.24072 433.684629 433.494031 0.00231889
4.31744 430.86105 433.999903 433.805806 0.002320934
4.32624 430.53598 434.314252 434.116543 0.002322686
4.33504 431.21765 434.62767 434.426232 0.002319015
4.34385 431.89801 434.940164 434.734874 0.002315361
4.35265 432.00403 435.251688 435.042419 0.002314793
4.36145 432.43921 435.562241 435.348861 0.002312464
4.37025 433.0665 435.871832 435.654204 0.002309114
4.37905 433.33545 436.180417 435.958398 0.002307681
4.38786 433.65594 436.488025 436.261465 0.002305976
4.39666 433.26901 436.794608 436.563351 0.002308035
4.40546 433.11804 437.100179 436.864064 0.002308839
4.41426 433.55408 437.404753 437.163608 0.002306517
4.42307 434.28198 437.708294 437.461943 0.002302651
4.43187 434.1716 438.010827 437.759084 0.002303237
4.44067 434.05838 438.312322 438.054992 0.002303838
4.44947 434.53857 438.612801 438.34968 0.002301292
4.45827 434.82941 438.912274 438.643149 0.002299752
4.46708 435.32947 439.210717 438.935363 0.002297111
4.47588 435.73682 439.508155 439.226336 0.002294963
4.48468 436.23822 439.804604 439.516073 0.002292326
4.49348 436.90372 440.100043 439.80454 0.002288834
4.50228 437.09613 440.394517 440.091767 0.002287826
4.51109 436.87729 440.688007 440.377721 0.002288972
4.51989 436.82898 440.980537 440.662412 0.002289225
4.52869 437.23865 441.272143 440.945857 0.002287081
4.53749 437.54819 441.562813 441.228028 0.002285463
4.54630 437.1673 441.852594 441.50895 0.002287454
4.55510 437.03717 442.141478 441.788598 0.002288135
4.56390 437.2973 442.442745 442.066988 0.002286774
4.57270 437.58853 442.730051 442.344144 0.002285252
4.58150 437.79608 443.016538 442.620031 0.002284168
4.59031 438.66812 443.302259 442.894672 0.002279628
4.59911 439.04626 443.587265 443.168089 0.002277664
4.60791 439.15787 443.871565 443.440259 0.002277085
4.61671 439.63812 444.155227 443.711214 0.002274598
4.62551 440.18869 444.438266 443.980933 0.002271753
4.63432 441.17065 444.720751 444.249444 0.002266697
4.64312 441.8392 445.002745 444.516764 0.002263267
4.65192 442.06277 445.284277 444.782875 0.002262122
4.66072 441.41284 445.565428 445.047806 0.002265453
4.66952 441.58005 445.846278 445.311576 0.002264595
4.67833 442.20572 446.12687 445.57417 0.002261391
4.68713 443.55637 446.407318 445.83563 0.002254505
4.69593 443.52417 446.687679 446.095941 0.002254669
4.70473 443.53812 446.968061 446.355125 0.002254598
4.71354 443.71689 447.248586 446.613215 0.002253689
4.72234 443.8804 447.529336 446.870195 0.002252859
4.73114 443.35803 447.810473 447.126112 0.002255513
4.73994 443.60843 448.092093 447.380946 0.00225424
4.74874 443.98508 448.374369 447.634732 0.002252328
4.75755 444.13895 448.657483 447.8875 0.002251548
4.76635 444.03583 448.941588 448.139242 0.002252071
4.77515 443.98721 449.2269 448.389983 0.002252317
4.78395 443.9046 449.513664 448.639759 0.002252736
4.79275 443.73889 449.802101 448.888563 0.002253578
4.80156 444.3598 450.09252 449.136435 0.002250429
4.81036 444.94086 450.385207 449.383372 0.00224749
4.81916 445.66974 450.680534 449.629408 0.002243814
4.82796 445.56546 450.994664 449.874573 0.002244339
4.83676 446.35666 451.296621 450.118863 0.002240361
4.84557 446.97427 451.602601 450.362327 0.002237265
4.85437 447.74045 451.913157 450.60496 0.002233437
4.86317 447.66547 452.239644 450.846793 0.002233811
4.87197 447.58609 452.561587 451.087866 0.002234207
4.88078 448.14307 452.890447 451.328176 0.00223143
4.88958 448.61392 453.227267 451.567753 0.002229088
4.89838 449.181 453.573281 451.806639 0.002226274
4.90718 449.82391 453.929875 452.044829 0.002223092
4.91598 449.92972 454.298767 452.282377 0.002222569
4.92479 450.06357 454.681896 452.519274 0.002221908
4.93359 450.31284 455.081671 452.755563 0.002220678
4.94239 451.03989 455.50096 452.99128 0.002217099
4.95119 451.86481 455.943205 453.226426 0.002213051
4.95999 452.92355 456.412661 453.461049 0.002207878
4.96880 453.20633 456.91451 453.69515 0.002206501
4.97760 453.3089 457.45527 453.92877 0.002206001
4.98640 453.43903 458.043078 454.161944 0.002205368
4.99520 454.77844 458.688236 454.394674 0.002198873
5.00401 456.33841 459.404 454.627002 0.002191356
5.01281 457.88477 460.207673 454.858962 0.002183956
5.02161 459.05173 461.121883 455.090558 0.002178404
5.03041 460.09521 462.177173 455.321842 0.002173463
5.03921 461.353 463.595881 455.552819 0.002167538
5.04802 464.42157 465.075039 455.783522 0.002153216
5.05682 469.1131 466.876875 456.013996 0.002131682
5.06562 476.25897 469.125372 456.24424 0.002099698
5.07442 486.86896 472.037786 456.474313 0.002053941
5.08322 507.36182 476.1142 456.704208 0.00197098
5.09203 545.00549 482.81247 456.933971 0.001834844
5.10083 618.94983 496.415948 457.163642 0.00161564
5.10963 738.84363 527.263576 457.393225 0.001353466
5.11843 919.65881 594.188804 457.622755 0.00108736
5.12723 1097.9054 718.439191 457.852277 0.000910825
5.13604 1223.65 903.713911 458.081794 0.000817227
5.14484 1238.8657 1110.614322 458.311356 0.00080719
5.15364 1176.806 1246.946219 458.540967 0.000849758
5.16244 1051.1033 1218.965847 458.770671 0.000951381
5.17125 902.40851 1048.662934 459.000502 0.001108146
5.18005 737.06427 841.4319 459.230467 0.001356734
5.18885 620.50598 674.052364 459.460605 0.001611588
5.19765 548.88629 570.050815 459.69096 0.001821871
5.20645 511.06204 517.381488 459.921529 0.00195671
5.21526 491.065 494.06945 460.152368 0.00203639
5.22406 479.75986 483.879161 460.383481 0.002084376
5.23286 473.51245 478.749611 460.614903 0.002111877
5.24166 470.15985 475.601059 460.846679 0.002126936
5.25046 467.30267 473.404608 461.078809 0.002139941
5.25927 465.46097 471.787739 461.311349 0.002148408
5.26807 464.29034 470.573291 461.544295 0.002153825
5.27687 463.73511 469.679111 461.77769 0.002156403
5.28567 463.54123 468.979656 462.011574 0.002157305
5.29448 463.2117 468.449331 462.245951 0.00215884
5.30328 463.72995 468.050582 462.480854 0.002156427
5.31208 463.09311 467.755738 462.716327 0.002159393
5.32088 463.38782 467.544125 462.952371 0.00215802
5.32968 463.33105 467.399929 463.189035 0.002158284
5.33849 463.1517 467.31102 463.42632 0.00215912
5.34729 463.1702 467.267899 463.664269 0.002159034
5.35609 463.43771 467.263076 463.902915 0.002157787
5.36489 463.98462 467.290599 464.14226 0.002155244
5.37369 464.10501 467.345676 464.382356 0.002154685
5.38250 464.2933 467.424431 464.623203 0.002153811
5.39130 464.21167 467.523692 464.864835 0.00215419
5.40010 465.19302 467.640875 465.107293 0.002149645
5.40890 464.98203 467.773828 465.350574 0.002150621
5.41770 464.83658 467.920787 465.594719 0.002151294
5.42651 465.11844 468.08028 465.83976 0.00214999
5.43531 465.80728 468.251072 466.085696 0.002146811
5.44411 466.38071 468.43216 466.332578 0.002144171
5.45291 466.55157 468.622681 466.580404 0.002143386
5.46172 466.79755 468.821941 466.829207 0.002142256
5.47052 467.25369 469.02938 467.079025 0.002140165
5.47932 467.77087 469.244518 467.329856 0.002137799
5.48812 467.79529 469.467008 467.581745 0.002137687
5.49692 467.79446 469.696555 467.834688 0.002137691
5.50573 467.7699 469.932983 468.088723 0.002137803
5.51453 468.25522 470.176185 468.343882 0.002135588
5.52333 468.24216 470.426101 468.600158 0.002135647
5.53213 468.18906 470.682786 468.857588 0.002135889
5.54093 468.48276 470.946379 469.116209 0.00213455
5.54974 469.30872 471.217051 469.376007 0.002130794
5.55854 469.55762 471.495137 469.637033 0.002129664
5.56734 469.16629 471.781015 469.899281 0.00213144
5.57614 469.13504 472.075223 470.162779 0.002131582
5.58495 469.55664 472.378453 470.427563 0.002129669
5.59375 470.27994 472.691514 470.693623 0.002126393
5.60255 470.35281 473.015499 470.96101 0.002126064
5.61135 470.21524 473.351674 471.229705 0.002126686
5.62015 470.46118 473.701696 471.499745 0.002125574
5.62896 470.93903 474.067632 471.771162 0.002123417
5.63776 471.85605 474.452016 472.043945 0.00211929
5.64656 472.26086 474.858124 472.31812 0.002117474
5.65536 472.7244 475.290158 472.593722 0.002115397
5.66416 472.698 475.753461 472.870739 0.002115516
5.67297 473.13 476.255133 473.149212 0.002113584
5.68177 473.91202 476.804463 473.429128 0.002110096
5.69057 474.4711 477.414069 473.71052 0.00210761
5.69937 474.88583 478.101225 473.993412 0.002105769
5.70817 474.34695 478.889935 474.277791 0.002108162
5.71698 474.15875 479.814789 474.563685 0.002108998
5.72578 475.19034 480.928007 474.851127 0.00210442
5.73458 476.9845 482.319049 475.140093 0.002096504
5.74338 478.01147 484.187164 475.43063 0.002092
5.75219 479.89017 487.090689 475.722718 0.00208381
5.76099 482.75244 492.610551 476.016388 0.002071455
5.76979 487.05246 504.513557 476.311663 0.002053167
5.77859 496.97479 529.377146 476.608523 0.002012175
5.78739 525.54382 574.116707 476.907013 0.001902791
5.79620 599.74115 638.718729 477.207113 0.001667386
5.80500 698.12268 707.349733 477.508844 0.001432413
5.81380 756.00098 745.124927 477.812235 0.00132275
5.82260 710.65948 723.014612 478.117265 0.001407144
5.83140 626.16644 659.35336 478.423954 0.001597019
5.84021 560.23926 591.869388 478.73233 0.001784952
5.84901 528.49518 541.831224 479.042372 0.001892165
5.85781 511.96918 512.741023 479.354114 0.001953243
5.86661 502.31146 498.688727 479.667533 0.001990797
5.87541 495.34338 492.555993 479.982653 0.002018802
5.88422 489.88486 489.799321 480.299502 0.002041296
5.89302 486.12418 488.366717 480.618044 0.002057088
5.90182 484.09958 487.511112 480.938325 0.002065691
5.91062 483.21725 486.973504 481.260318 0.002069463
5.91943 482.63199 486.646052 481.584038 0.002071972
5.92823 482.39557 486.469903 481.909512 0.002072988
5.93703 482.75983 486.407291 482.236709 0.002071423
5.94583 483.23547 486.432412 482.565655 0.002069385
5.95463 483.73892 486.527277 482.896364 0.002067231
5.96344 483.83514 486.679254 483.228806 0.00206682
5.97224 483.87442 486.879538 483.563022 0.002066652
5.98104 484.42944 487.122151 483.898981 0.002064284
5.98984 485.03644 487.403382 484.236696 0.002061701
5.99864 485.59125 487.721453 484.576192 0.002059345
6.00745 486.44571 488.076323 484.917436 0.002055728
6.01625 487.11499 488.469866 485.26046 0.002052903
6.02505 487.04813 488.906008 485.60523 0.002053185
6.03385 487.3822 489.391409 485.951771 0.002051778
6.04266 487.92166 489.936344 486.300092 0.002049509
6.05146 488.79324 490.556178 486.65016 0.002045855
6.06026 490.75854 491.274442 487.001993 0.002037662
6.06906 493.03397 492.129634 487.355615 0.002028258
6.07786 495.74069 493.197748 487.710975 0.002017184
6.08667 499.3555 494.674343 488.068116 0.002002581
6.09547 505.5994 497.118349 488.426997 0.00197785
6.10427 515.97815 501.963463 488.787638 0.001938067
6.11307 534.11609 512.045885 489.15005 0.001872252
6.12187 564.70764 531.078443 489.514193 0.001770828
6.13068 608.58612 560.819202 489.880104 0.001643153
6.13948 654.24152 596.48216 490.247743 0.001528488
6.14828 688.66107 623.100951 490.617117 0.001452093
6.15708 686.92328 621.673917 490.988248 0.001455767
6.16589 650.56042 593.75213 491.361093 0.001537136
6.17469 594.68176 558.933626 491.735659 0.001681572
6.18349 545.45929 531.030164 492.111968 0.001833317
6.19229 518.75348 513.871022 492.489974 0.001927698
6.20109 505.95239 505.274541 492.869706 0.001976471
6.20990 500.64099 501.529686 493.251118 0.001997439
6.21870 498.40216 499.962283 493.634227 0.002006412
6.22750 497.16403 499.266531 494.019051 0.002011409
6.23630 496.10757 498.943062 494.405529 0.002015692
6.24510 495.88104 498.816842 494.793682 0.002016613
6.25391 496.51218 498.817514 495.183528 0.002014049
6.26271 496.76718 498.908073 495.575005 0.002013015
6.27151 496.76633 499.065138 495.968153 0.002013019
6.28031 496.44534 499.27268 496.36292 0.00201432
6.28911 496.68253 499.519488 496.759324 0.002013359
6.29792 496.78595 499.809699 497.157367 0.002012939
6.30672 496.66479 500.112863 497.557001 0.00201343
6.31552 497.41397 500.436763 497.958261 0.002010398
6.32432 498.5686 500.85425 498.361095 0.002005742
6.33313 499.02808 501.210749 498.765506 0.002003895
6.34193 498.70746 501.580083 499.171513 0.002005184
6.35073 498.89737 501.960683 499.579061 0.00200442
6.35953 499.50977 502.351371 499.988154 0.002001963
6.36833 499.78403 502.751256 500.398808 0.002000864
6.37714 500.05457 503.159589 500.81097 0.001999782
6.38594 500.30139 503.575876 501.224664 0.001998795
6.39474 501.22449 503.999689 501.639837 0.001995114
6.40354 501.67065 504.430791 502.056499 0.00199334
6.41234 501.69901 504.869063 502.474666 0.001993227
6.42115 501.47589 505.3144 502.894268 0.001994114
6.42995 501.84192 505.766911 503.315345 0.001992659
6.43875 502.60352 506.226695 503.737834 0.00198964
6.44755 503.69604 506.694035 504.161752 0.001985324
6.45636 504.90765 507.169312 504.587098 0.00198056
6.46516 505.21613 507.65296 505.013816 0.001979351
6.47396 505.58099 508.145635 505.441919 0.001977922
6.48276 505.81815 508.648141 505.871408 0.001976995
6.49156 506.20035 509.161406 506.302225 0.001975502
6.50037 506.46298 509.686707 506.734403 0.001974478
6.50917 506.62204 510.225496 507.167882 0.001973858
6.51797 507.11536 510.779667 507.602664 0.001971938
6.52677 507.94595 511.351598 508.03876 0.001968713
6.53557 509.27029 511.944159 508.476112 0.001963594
6.54438 509.81601 512.561124 508.914744 0.001961492
6.55318 509.57886 513.20716 509.354593 0.001962405
6.56198 509.97845 513.888409 509.795669 0.001960867
6.57078 510.71146 514.612899 510.237986 0.001958053
6.57958 511.5213 515.391082 510.681466 0.001954953
6.58839 512.29834 516.237187 511.126123 0.001951988
6.59719 513.33508 517.170661 511.571966 0.001948045
6.60599 514.06677 518.218413 512.018932 0.001945273
6.61479 515.18518 519.419125 512.467044 0.00194105
6.62360 516.3988 520.8297 512.916239 0.001936488
6.63240 517.5152 522.542032 513.36653 0.00193231
6.64120 518.82068 524.734231 513.817915 0.001927448
6.65000 521.31805 527.851572 514.27033 0.001918215
6.65880 524.32532 533.128287 514.723809 0.001907213
6.66761 529.31543 543.618941 515.178286 0.001889233
6.67641 542.22748 565.115708 515.63376 0.001844244
6.68521 575.66278 604.723364 516.090243 0.001737128
6.69401 658.13879 664.846877 516.54767 0.001519436
6.70281 801.41748 733.927363 517.006037 0.001247789
6.71162 868.50385 778.938602 517.465359 0.001151405
6.72042 842.77142 764.113576 517.925569 0.001186561
6.72922 707.15588 703.244004 518.38669 0.001414115
6.73802 624.49249 636.745585 518.848656 0.0016013
6.74682 577.72595 587.056981 519.311474 0.001730924
6.75563 558.13538 557.879727 519.775156 0.00179168
6.76443 546.78674 543.532543 520.239621 0.001828867
6.77323 538.44183 537.0917 520.704881 0.001857211
6.78203 533.39801 534.105256 521.170942 0.001874773
6.79084 530.9007 532.539877 521.637739 0.001883591
6.79964 528.7547 531.63583 522.105293 0.001891236
6.80844 527.25696 531.113216 522.573537 0.001896608
6.81724 526.80603 530.847186 523.042484 0.001898232
6.82604 526.70142 530.76668 523.51213 0.001898609
6.83485 526.58856 530.82599 523.982407 0.001899016
6.84365 526.76697 530.994368 524.45335 0.001898373
6.85245 527.78802 531.250921 524.924889 0.0018947
6.86125 528.6673 531.581975 525.397022 0.001891549
6.87005 529.21594 531.979224 525.86976 0.001889588
6.87886 529.33569 532.438963 526.343035 0.00188916
6.88766 530.37579 532.962175 526.816845 0.001885456
6.89646 531.78259 533.555543 527.2912 0.001880468
6.90526 533.05164 534.235552 527.766027 0.001875991
6.91407 534.33142 535.043921 528.241365 0.001871498
6.92287 535.9881 536.109442 528.71713 0.001865713
6.93167 538.45734 537.720655 529.193334 0.001857157
6.94047 540.21332 540.574977 529.669983 0.001851121
6.94927 542.26367 545.73732 530.14701 0.001844121
6.95808 545.18256 554.084821 530.624438 0.001834248
6.96688 549.34937 565.054305 531.102197 0.001820335
6.97568 553.80536 575.121815 531.580301 0.001805689
6.98448 557.61188 577.882229 532.058745 0.001793362
6.99328 560.62195 571.354855 532.53746 0.001783733
7.00209 560.37671 561.329644 533.01646 0.001784514
7.01089 559.49414 552.870809 533.49574 0.001787329
7.01969 557.65027 547.62729 533.975232 0.001793239
7.02849 556.42871 545.155946 534.454971 0.001797175
7.03729 554.8277 544.35965 534.934886 0.001802361
7.04610 553.9939 544.370736 535.414976 0.001805074
7.05490 552.27173 544.740103 535.895252 0.001810703
7.06370 550.10736 545.290457 536.375646 0.001817827
7.07250 548.63135 545.96159 536.856182 0.001822718
7.08131 547.82269 546.734154 537.336791 0.001825408
7.09011 547.35504 547.60426 537.817481 0.001826968
7.09891 548.30157 548.576613 538.298264 0.001823814
7.10771 549.90497 549.662966 538.779057 0.001818496
7.11651 551.62848 550.883129 539.259871 0.001812814
7.12532 553.63879 552.266662 539.740716 0.001806232
7.13412 554.8913 553.856068 540.221523 0.001802155
7.14292 557.69043 555.713147 540.702315 0.001793109
7.15172 560.7547 557.928018 541.183026 0.001783311
7.16052 565.6344 560.639172 541.663668 0.001767926
7.16933 572.02472 564.084324 542.144238 0.001748176
7.17813 583.16876 568.770913 542.62467 0.001714769
7.18693 599.33527 576.025986 543.104998 0.001668515
7.19573 621.03302 589.327204 543.585154 0.00161022
7.20453 647.24487 616.250488 544.065137 0.00154501
7.21334 686.50336 668.622362 544.54496 0.001456657
7.22214 740.18951 756.37286 545.024557 0.001351005
7.23094 812.31464 873.694747 545.503924 0.00123105
7.23974 886.42572 981.278108 545.983076 0.001128126
7.24855 945.01605 1005.903201 546.46194 0.001058183
7.25735 954.34888 925.318893 546.94056 0.001047835
7.26615 914.94342 806.386422 547.41885 0.001092964
7.27495 849.59717 705.830939 547.896826 0.001177028
7.28375 778.9245 641.150527 548.374497 0.001283821
7.29256 712.22955 606.927288 548.851798 0.001404042
7.30136 665.81824 590.891777 549.328726 0.001501911
7.31016 634.63055 583.477261 549.805296 0.00157572
7.31896 616.05951 579.738369 550.281443 0.00162322
7.32777 601.31781 577.681111 550.757193 0.001663014
7.33657 591.77991 576.570255 551.23248 0.001689817
7.34537 586.33893 576.100617 551.70732 0.001705498
7.35417 583.59277 576.115136 552.181712 0.001713524
7.36297 581.89679 576.522125 552.655591 0.001718518
7.37178 580.88849 577.268454 553.128994 0.001721501
7.38058 581.64783 578.327956 553.601857 0.001719253
7.38938 582.04144 579.696198 554.074179 0.001718091
7.39818 583.41138 581.388606 554.545977 0.001714056
7.40698 585.35577 583.441019 555.017186 0.001708363
7.41579 588.38397 585.914442 555.487807 0.00169957
7.42459 591.77051 588.906488 555.957856 0.001689844
7.43339 596.19476 592.551529 556.427264 0.001677304
7.44219 601.96027 597.074019 556.896075 0.001661239
7.45099 610.40015 602.857074 557.36421 0.00163827
7.45980 622.27985 610.72481 557.831685 0.001606994
7.46860 639.68127 622.766609 558.298512 0.001563279
7.47740 666.14746 644.130201 558.764629 0.001501169
7.48620 707.92065 685.149603 559.230063 0.001412588
7.49501 777.85004 760.337522 559.694752 0.001285595
7.50381 894.19263 879.721507 560.158715 0.001118327
7.51261 1071.6121 1032.574983 560.621952 0.000933173
7.52141 1254.4598 1167.575164 561.084403 0.000797156
7.53021 1346.7777 1210.864756 561.546086 0.000742513
7.53902 1289.5865 1176.519732 562.007001 0.000775442
7.54782 1159.2101 1136.66926 562.46709 0.000862656
7.55662 1039.5935 1097.371605 562.92639 0.000961914
7.56542 951.62994 1016.556426 563.384843 0.001050829
7.57422 875.69373 904.424303 563.842451 0.001141952
7.58303 801.40747 804.6225 564.299231 0.001247805
7.59183 743.8255 736.884621 564.755121 0.001344401
7.60063 703.91772 700.341395 565.210164 0.001420621
7.60943 683.07843 685.626291 565.664286 0.001463961
7.61823 674.68097 683.519891 566.117507 0.001482182
7.62704 674.04816 688.583452 566.56984 0.001483574
7.63584 682.17725 698.716219 567.021227 0.001465895
7.64464 692.13654 713.705522 567.471673 0.001444802
7.65344 712.64197 734.357839 567.921196 0.001403229
7.66225 734.74518 762.35699 568.36974 0.001361016
7.67105 778.19318 800.754487 568.817335 0.001285028
7.67985 828.28632 855.96774 569.263924 0.001207312
7.68865 917.28247 944.174742 569.709527 0.001090177
7.69745 1047.7825 1107.081723 570.154149 0.000954397
7.70626 1276.6321 1435.96248 570.597735 0.000783311
7.71506 1839.3204 2076.523267 571.040324 0.000543679
7.72386 2854.4749 3160.918804 571.481862 0.000350327
7.73266 5221.8101 4640.746751 571.922355 0.000191504
7.74146 6707.6353 6048.142668 572.361823 0.000149084
7.75027 6796.6313 6430.888612 572.800211 0.000147132
7.75907 5040.543 5448.804821 573.237526 0.000198391
7.76787 3750.0479 3987.122715 573.673789 0.000266663
7.77667 2662.9312 2812.78803 574.108942 0.000375526
7.78548 2276.7761 2151.18112 574.543031 0.000439218
7.79428 1969.1306 1892.000014 574.975987 0.000507838
7.80308 1781.0028 1769.131064 575.407834 0.000561481
7.81188 1558.08 1568.41218 575.838587 0.000641816
7.82068 1318.0131 1306.829374 576.268194 0.000758718
7.82949 1095.2539 1076.658341 576.696664 0.00091303
7.83829 919.14148 915.449913 577.124018 0.001087972
7.84709 815.90643 818.025994 577.550204 0.001225631
7.85589 745.04846 762.914623 577.975256 0.001342195
7.86469 705.20959 730.719237 578.399123 0.001418018
7.87350 678.80151 710.056279 578.821827 0.001473185
7.88230 663.19238 695.759881 579.243376 0.001507858
7.89110 652.75757 685.706162 579.663722 0.001531962
7.89990 646.77466 678.999156 580.082906 0.001546134
7.90870 643.86267 675.310148 580.500879 0.001553126
7.91751 642.72717 674.770896 580.917651 0.00155587
7.92631 646.41797 678.321541 581.333244 0.001546987
7.93511 654.02618 688.934138 581.747606 0.001528991
7.94391 672.56525 714.296999 582.160761 0.001486845
7.95272 709.60651 769.857461 582.572718 0.001409232
7.96152 788.93481 876.837092 582.983429 0.001267532
7.97032 953.20227 1048.128607 583.392938 0.001049095
7.97912 1181.4487 1260.877632 583.801199 0.000846418
7.98792 1338.2189 1420.698026 584.208221 0.000747262
7.99673 1308.0967 1394.963609 584.614028 0.000764469
8.00553 1119.5712 1207.095242 585.018599 0.000893199
8.01433 949.78192 995.055431 585.421875 0.001052873
8.02313 836.78943 834.419139 585.823948 0.001195044
8.03193 765.8111 736.857781 586.224771 0.001305805
8.04074 723.14703 685.520287 586.624299 0.001382845
8.04954 692.38885 659.619378 587.022611 0.001444275
8.05834 670.66669 645.452131 587.419665 0.001491054
8.06714 654.57397 636.503391 587.815417 0.001527711
8.07594 641.30939 630.178099 588.209947 0.00155931
8.08475 631.30817 625.435623 588.603212 0.001584012
8.09355 624.46973 621.770699 588.995169 0.001601359
8.10235 619.00354 618.882208 589.385899 0.0016155
8.11115 614.72137 616.572334 589.77536 0.001626753
8.11996 613.03906 614.703503 590.163549 0.001631217
8.12876 611.58521 613.196774 590.550428 0.001635095
8.13756 610.30896 611.981115 590.936074 0.001638514
8.14636 609.55853 610.944878 591.320447 0.001640532
8.15516 608.30347 610.086476 591.703507 0.001643916
8.16397 607.61694 609.374601 592.085333 0.001645774
8.17277 606.83746 608.78515 592.465885 0.001647888
8.18157 606.32983 608.300501 592.845125 0.001649267
8.19037 606.05341 607.902157 593.22313 0.00165002
8.19917 606.28455 607.579261 593.599863 0.001649391
8.20798 606.62976 607.321696 593.97528 0.001648452
8.21678 606.75854 607.121002 594.349474 0.001648102
8.22558 607.13373 606.970266 594.722392 0.001647084
8.23438 606.30957 606.863679 595.094042 0.001649322
8.24319 605.37091 606.796372 595.464381 0.00165188
8.25199 605.69019 606.764183 595.833501 0.001651009
8.26079 606.13409 606.763634 596.201351 0.0016498
8.26959 605.95587 606.791771 596.567897 0.001650285
8.27839 605.82489 606.846082 596.933224 0.001650642
8.28720 605.78101 606.924472 597.297296 0.001650762
8.29600 606.32117 607.024964 597.660066 0.001649291
8.30480 606.86121 607.146577 598.021623 0.001647823
8.31360 606.28851 607.287981 598.381929 0.00164938
8.32240 605.35315 607.448355 598.74095 0.001651928
8.33121 605.41089 607.627246 599.098762 0.001651771
8.34001 605.96326 607.824504 599.455332 0.001650265
8.34881 606.57227 608.040414 599.810662 0.001648608
8.35761 607.24438 608.275742 600.16472 0.001646783
8.36641 607.40717 608.531966 600.517583 0.001646342
8.37522 607.28174 608.811379 600.869216 0.001646682
8.38402 606.6394 609.117495 601.21959 0.001648426
8.39282 606.91901 609.455685 601.568778 0.001647666
8.40162 606.93872 609.833964 601.91675 0.001647613
8.41043 607.66052 610.264765 602.263475 0.001645656
8.41923 607.75879 610.769309 602.609027 0.00164539
8.42803 608.21606 611.390265 602.953376 0.001644153
8.43683 609.34985 612.230764 603.296492 0.001641093
8.44563 610.80249 613.54544 603.638449 0.00163719
8.45444 612.67004 615.868699 603.979217 0.0016322
8.46324 615.29572 620.02515 604.318803 0.001625235
8.47204 618.38153 626.733207 604.657175 0.001617125
8.48084 622.15631 635.661161 604.99441 0.001607313
8.48964 627.43213 643.897505 605.330477 0.001593798
8.49845 631.11273 645.631492 605.665349 0.001584503
8.50725 630.29211 639.431638 605.999099 0.001586566
8.51605 625.70837 630.829275 606.3317 0.001598189
8.52485 620.60919 623.878742 606.663123 0.00161132
8.53366 617.03094 619.54777 606.993442 0.001620664
8.54246 614.28076 617.326778 607.322631 0.00162792
8.55126 612.50879 616.361075 607.650657 0.00163263
8.56006 611.90955 615.99943 607.977606 0.001634228
8.56886 611.62939 615.915621 608.303439 0.001634977
8.57767 610.97058 615.970505 608.628168 0.00163674
8.58647 611.08881 616.107936 608.951762 0.001636423
8.59527 611.50482 616.301833 609.274305 0.00163531
8.60407 611.1983 616.537374 609.595761 0.00163613
8.61287 611.35651 616.805099 609.916103 0.001635707
8.62168 611.65314 617.098754 610.235413 0.001634914
8.63048 612.28967 617.413998 610.553664 0.001633214
8.63928 611.95013 617.747824 610.870822 0.00163412
8.64808 612.1991 618.098293 611.186968 0.001633456
8.65689 612.62878 618.464025 611.502076 0.00163231
8.66569 613.61188 618.844138 611.81612 0.001629695
8.67449 614.06561 619.244037 612.129173 0.00162849
8.68329 613.9939 619.651985 612.44121 0.001628681
8.69209 613.63916 620.073847 612.752241 0.001629622
8.70090 614.48206 620.509905 613.06224 0.001627387
8.70970 615.51788 620.960791 613.371281 0.001624648
8.71850 616.25824 621.427195 613.679339 0.001622696
8.72730 615.93005 621.909988 613.986391 0.001623561
8.73610 615.51807 622.410366 614.29251 0.001624648
8.74491 615.21423 622.929655 614.597672 0.00162545
8.75371 616.18201 623.469347 614.901855 0.001622897
8.76251 617.16223 624.031355 615.205129 0.00162032
8.77131 617.74615 624.617709 615.507474 0.001618788
8.78011 618.46594 625.23082 615.808865 0.001616904
8.78892 618.61969 625.873563 616.109376 0.001616502
8.79772 618.66113 626.54908 616.408982 0.001616394
8.80652 618.76221 627.261154 616.707695 0.00161613
8.81532 618.99628 628.017545 617.005492 0.001615519
8.82413 619.4425 628.816307 617.302444 0.001614355
8.83293 620.12994 629.666795 617.598529 0.001612565
8.84173 621.14795 630.575765 617.893727 0.001609922
8.85053 621.6554 631.551406 618.188108 0.001608608
8.85933 622.06879 632.603108 618.48165 0.001607539
8.86814 622.31128 633.742189 618.774334 0.001606913
8.87694 623.04791 634.982285 619.06623 0.001605013
8.88574 625.1311 636.339562 619.357316 0.001599664
8.89454 626.39655 637.832741 619.64757 0.001596433
8.90334 627.42407 639.487726 619.937071 0.001593818
8.91215 629.25909 641.333111 620.225788 0.001589171
8.92095 631.38165 643.405429 620.513736 0.001583828
8.92975 633.67786 645.750575 620.800892 0.001578089
8.93855 636.6676 648.42696 621.087333 0.001570678
8.94736 639.0943 651.508786 621.373031 0.001564714
8.95616 642.99213 655.092013 621.657967 0.001555229
8.96496 648.17926 659.304975 621.942216 0.001542783
8.97376 655.16602 664.315564 622.225758 0.001526331
8.98256 662.67041 670.345975 622.508566 0.001509046
8.99137 671.02582 677.731806 622.790716 0.001490256
9.00017 682.0603 686.917749 623.072188 0.001466146
9.00897 697.93701 698.571395 623.352962 0.001432794
9.01777 720.50763 713.762139 623.633106 0.00138791
9.02657 751.10919 734.413204 623.912602 0.001331364
9.03538 798.80096 764.469912 624.191461 0.001251876
9.04418 871.45343 812.394598 624.469663 0.001147508
9.05298 987.3418 895.2364 624.747278 0.00101282
9.06178 1173.5106 1042.744005 625.024285 0.000852144
9.07058 1431.7192 1295.604984 625.300668 0.000698461
9.07939 1753.7324 1683.708066 625.576494 0.000570212
9.08819 2091.5315 2177.072466 625.851744 0.000478119
9.09699 2418.0354 2667.404903 626.126402 0.000413559
9.10579 2636.0642 2925.337943 626.400533 0.000379353
9.11460 2623.0266 2686.599975 626.67412 0.000381239
9.12340 2336.8303 2127.5973 626.947147 0.00042793
9.13220 1909.6366 1590.2174 627.219678 0.00052366
9.14100 1493.5137 1209.766864 627.491697 0.000669562
9.14980 1186.9398 983.402302 627.763186 0.000842503
9.15861 982.28534 861.625281 628.034212 0.001018034
9.16741 854.13135 796.554127 628.304757 0.00117078
9.17621 778.7677 758.595705 628.574832 0.00128408
9.18501 733.20123 733.704285 628.844419 0.001363882
9.19381 703.2439 715.953611 629.113585 0.001421982
9.20262 684.04297 702.72952 629.382312 0.001461896
9.21142 669.82703 692.594414 629.650583 0.001492923
9.22022 661.37787 684.697612 629.918464 0.001511995
9.22902 655.3819 678.461002 630.185938 0.001525828
9.23782 650.43427 673.48263 630.452984 0.001537434
9.24663 646.28528 669.477804 630.719677 0.001547304
9.25543 643.84882 666.233596 630.985992 0.00155316
9.26423 642.24023 663.600339 631.25191 0.00155705
9.27303 641.33228 661.463021 631.517504 0.001559254
9.28184 640.34668 659.735825 631.782756 0.001561654
9.29064 639.71234 658.353271 632.04767 0.001563203
9.29944 639.55505 657.2657 632.31223 0.001563587
9.30824 639.2077 656.435111 632.576507 0.001564437
9.31704 638.69592 655.833643 632.840483 0.00156569
9.32585 639.37238 655.44494 633.104133 0.001564034
9.33465 639.38574 655.248168 633.36753 0.001564001
9.34345 640.06616 655.239924 633.630654 0.001562338
9.35225 640.85138 655.418893 633.893489 0.001560424
9.36105 642.63416 655.789826 634.156098 0.001556095
9.36986 643.7937 656.364013 634.418464 0.001553293
9.37866 644.72241 657.160239 634.680572 0.001551055
9.38746 646.07782 658.206936 634.942484 0.001547801
9.39626 648.18182 659.544163 635.204184 0.001542777
9.40507 651.0575 661.227906 635.465682 0.001535963
9.41387 653.85846 663.335567 635.72696 0.001529383
9.42267 656.41986 665.976155 635.988083 0.001523415
9.43147 660.45361 669.302812 636.249034 0.001514111
9.44027 665.9718 673.53651 636.509795 0.001501565
9.44908 674.52106 679.008649 636.77043 0.001482533
9.45788 685.01868 686.237893 637.030921 0.001459814
9.46668 700.09558 696.129973 637.291252 0.001428376
9.47548 720.21613 710.548531 637.551486 0.001388472
9.48428 752.23926 733.735261 637.811605 0.001329364
9.49309 797.46405 774.846051 638.071593 0.001253975
9.50189 865.24091 850.063049 638.331512 0.001155747
9.51069 969.93689 979.556253 638.591345 0.001030995
9.51949 1113.4752 1173.784801 638.851102 0.000898089
9.52829 1285.1989 1404.463922 639.110765 0.00077809
9.53710 1436.1838 1561.250873 639.370396 0.00069629
9.54590 1482.7104 1523.004424 639.629979 0.000674441
9.55470 1413.4608 1358.929886 639.889495 0.000707483
9.56350 1282.8809 1189.858011 640.149008 0.000779496
9.57231 1131.3513 1041.421388 640.408499 0.000883899
9.58111 1012.8424 916.207881 640.667948 0.00098732
9.58991 918.93768 825.410045 640.927425 0.001088213
9.59871 849.01727 766.844952 641.186906 0.001177832
9.60751 795.69879 731.356774 641.44637 0.001256757
9.61632 756.65607 710.365635 641.705887 0.001321604
9.62512 731.00281 697.690012 641.965439 0.001367984
9.63392 715.00934 689.609412 642.225028 0.001398583
9.64272 708.4281 684.210284 642.484636 0.001411576
9.65152 708.95013 680.580683 642.74433 0.001410536
9.66033 715.19916 678.296973 643.004093 0.001398212
9.66913 725.38489 677.15693 643.263898 0.001378578
9.67793 741.41785 677.115687 643.523814 0.001348767
9.68673 761.48456 678.288271 643.783821 0.001313224
9.69553 780.00952 681.068678 644.043899 0.001282036
9.70434 800.51202 686.496859 644.304111 0.0012492
9.71314 815.10791 697.02481 644.564437 0.001226831
9.72194 827.42523 717.432269 644.82486 0.001208568
9.73074 830.67499 754.604488 645.085439 0.00120384
9.73955 832.16113 814.16266 645.346156 0.00120169
9.74835 828.47638 892.46761 645.60702 0.001207035
9.75715 829.06573 961.297787 645.86801 0.001206177
9.76595 830.05469 966.916401 646.129188 0.00120474
9.77475 828.42175 903.274116 646.390534 0.001207115
9.78356 815.51868 823.150991 646.65203 0.001226213
9.79236 788.9649 759.612844 646.913735 0.001267484
9.80116 752.57947 718.695621 647.175631 0.001328763
9.80996 722.53235 695.458421 647.437699 0.001384021
9.81876 700.91254 682.860897 647.699997 0.001426712
9.82757 685.98566 675.710365 647.962508 0.001457756
9.83637 676.22906 671.212778 648.22521 0.001478789
9.84517 668.74969 668.109254 648.488165 0.001495328
9.85397 663.77875 665.847536 648.751352 0.001506526
9.86278 660.29596 664.151647 649.014779 0.001514472
9.87158 657.35162 662.859412 649.278424 0.001521256
9.88038 655.16315 661.864482 649.542348 0.001526337
9.88918 653.63519 661.094169 649.806532 0.001529905
9.89798 652.78583 660.496959 650.070953 0.001531896
9.90679 651.83386 660.035339 650.335673 0.001534133
9.91559 651.41779 659.681839 650.60067 0.001535113
9.92439 650.84192 659.415767 650.865921 0.001536471
9.93319 650.54645 659.221261 651.131495 0.001537169
9.94199 651.10168 659.086139 651.397361 0.001535858
9.95080 651.43396 659.000833 651.663499 0.001535075
9.95960 651.63068 658.957734 651.929975 0.001534612
9.96840 651.45197 658.950795 652.196767 0.001535033
9.97720 651.54871 658.975114 652.463875 0.001534805
9.98600 650.7041 659.026701 652.731276 0.001536797
9.99481 650.46204 659.100752 652.999038 0.001537369
10.00361 651.3656 659.197711 653.267147 0.001535236
10.01241 652.40424 659.347325 653.535542 0.001532792
10.02121 652.60724 659.480916 653.804343 0.001532315
10.03002 653.16412 659.630313 654.073465 0.001531009
10.03882 653.40619 659.794292 654.342911 0.001530442
10.04762 653.85797 659.971922 654.61278 0.001529384
10.05642 653.77155 660.162371 654.882984 0.001529586
10.06522 653.56134 660.365067 655.153558 0.001530078
10.07403 653.7464 660.579595 655.424508 0.001529645
10.08283 654.27179 660.805746 655.695867 0.001528417
10.09163 654.97748 661.043389 655.967581 0.00152677
10.10043 656.23724 661.292632 656.239652 0.001523839
10.10923 655.81415 661.555279 656.512178 0.001524822
10.11804 655.71216 661.828914 656.78507 0.001525059
10.12684 656.54016 662.115748 657.058364 0.001523136
10.13564 658.0271 662.416843 657.332063 0.001519694
10.14444 659.23346 662.733673 657.606204 0.001516913
10.15325 659.03491 663.08456 657.880695 0.00151737
10.16205 658.90588 663.439118 658.155635 0.001517667
10.17085 659.67999 663.817096 658.431028 0.001515887
10.17965 660.37164 664.22269 658.706782 0.001514299
10.18845 661.9491 664.661872 658.983028 0.00151069
10.19726 664.07135 665.142263 659.259674 0.001505862
10.20606 667.09576 665.674606 659.536788 0.001499035
10.21486 670.5788 666.273454 659.814277 0.001491249
10.22366 674.73212 666.959885 660.092239 0.00148207
10.23246 679.99951 667.764456 660.370678 0.001470589
10.24127 687.72473 668.733618 660.649502 0.00145407
10.25007 699.18323 669.947392 660.928841 0.00143024
10.25887 712.15973 671.561876 661.208602 0.001404179
10.26767 726.88776 673.922873 661.488821 0.001375728
10.27647 740.73083 677.76938 661.769499 0.001350018
10.28528 752.19025 684.441017 662.050639 0.001329451
10.29408 756.1651 695.723877 662.332245 0.001322463
10.30288 752.20483 712.919625 662.614318 0.001329425
10.31168 744.90186 734.641217 662.896893 0.001342459
10.32048 736.0686 752.467386 663.179877 0.001358569
10.32929 728.85046 752.241797 663.463399 0.001372024
10.33809 720.98907 734.57729 663.747366 0.001386984
10.34689 712.53094 713.750248 664.031812 0.001403448
10.35569 703.30359 697.681093 664.316739 0.001421861
10.36450 694.20953 687.542715 664.602149 0.001440487
10.37330 687.41876 681.994972 664.888077 0.001454717
10.38210 683.65308 679.337443 665.174426 0.00146273
10.39090 681.41418 678.421537 665.461328 0.001467536
10.39971 680.67462 678.802671 665.748688 0.001469131
10.40851 682.14093 680.472371 666.036507 0.001465973
10.41731 687.27069 683.457496 666.324885 0.001455031
10.42611 694.09015 687.2256 666.613724 0.001440735
10.43491 698.08716 689.848784 666.903059 0.001432486
10.44371 696.96875 688.955462 667.192892 0.001434785
10.45252 691.76575 685.474527 667.483255 0.001445576
10.46132 685.73169 681.920735 667.774086 0.001458296
10.47012 680.25787 679.377012 668.065384 0.001470031
10.47892 677.40729 677.897732 668.357249 0.001476217
10.48773 675.68036 677.194469 668.649584 0.00147999
10.49653 674.44397 676.954621 668.942422 0.001482703
10.50533 673.88251 676.96433 669.235765 0.001483938
10.51413 673.92688 677.11075 669.529612 0.001483841
10.52293 674.07623 677.342053 669.823965 0.001483512
10.53174 674.41302 677.632744 670.118823 0.001482771
10.54054 674.83032 677.970583 670.414222 0.001481854
10.54934 674.77283 678.347847 670.71006 0.00148198
10.55814 674.50031 678.760159 671.006473 0.001482579
10.56695 674.81171 679.204615 671.30336 0.001481895
10.57575 675.8797 679.676553 671.600754 0.001479553
10.58455 676.73993 680.1824 671.898657 0.001477673
10.59335 677.15533 680.719288 672.197067 0.001476766
10.60215 677.15955 681.288691 672.49602 0.001476757
10.61096 677.85583 681.892409 672.795413 0.00147524
10.61976 678.53448 682.533716 673.095382 0.001473764
10.62856 679.24768 683.21606 673.395824 0.001472217
10.63736 679.98834 683.944433 673.696774 0.001470613
10.64616 680.99518 684.724859 673.998232 0.001468439
10.65497 681.677 685.564911 674.300197 0.00146697
10.66377 682.14154 686.474415 674.602668 0.001465971
10.67257 683.54828 687.465575 674.905645 0.001462954
10.68137 684.86066 688.554449 675.209163 0.001460151
10.69017 685.37134 689.761755 675.513151 0.001459063
10.69898 685.65228 691.115276 675.817644 0.001458465
10.70778 687.61646 692.653178 676.12264 0.001454299
10.71658 690.37201 694.42843 676.42814 0.001448494
10.72538 692.82141 696.519996 676.734142 0.001443373
10.73419 695.04822 699.064649 677.040645 0.001438749
10.74299 697.3194 702.286754 677.347684 0.001434063
10.75179 700.81299 706.663833 677.655152 0.001426914
10.76059 706.16034 713.166833 677.96319 0.001416109
10.76939 713.01068 723.438966 678.271689 0.001402504
10.77820 723.40833 739.634522 678.580651 0.001382345
10.78700 739.11285 763.551748 678.890178 0.001352973
10.79580 762.258 794.371546 679.200164 0.001311892
10.80460 789.21893 823.605704 679.510678 0.001267076
10.81340 819.1217 837.08635 679.821613 0.00122082
10.82221 844.44653 841.041018 680.133074 0.001184208
10.83101 861.88763 845.184161 680.44506 0.001160244
10.83981 862.23175 833.514217 680.757462 0.001159781
10.84861 844.73376 807.830207 681.070421 0.001183805
10.85741 818.53717 784.127289 681.383829 0.001221692
10.86622 792.98059 769.072769 681.697721 0.001261065
10.87502 774.02631 762.916552 682.012094 0.001291946
10.88382 763.21185 764.059964 682.326946 0.001310252
10.89262 758.65863 771.057904 682.642278 0.001318116
10.90142 761.72498 783.551701 682.958085 0.00131281
10.91023 773.25732 802.867064 683.274403 0.001293231
10.91903 798.28229 833.165538 683.591159 0.00125269
10.92783 845.9281 883.647325 683.908385 0.001182134
10.93663 933.35858 971.73949 684.226081 0.0010714
10.94544 1097.0493 1122.561814 684.544245 0.000911536
10.95424 1383.3279 1359.744979 684.862874 0.000722894
10.96304 1738.05 1680.559695 685.181967 0.000575357
10.97184 1993.4602 2000.192438 685.501557 0.00050164
10.98064 2002.9669 2108.555351 685.821535 0.000499259
10.98945 1773.7112 1902.337529 686.142043 0.00056379
10.99825 1475.1776 1567.99741 686.462971 0.000677884
11.00705 1212.5814 1277.52084 686.784351 0.000824687
11.01585 1020.0315 1077.548822 687.106183 0.000980362
11.02465 906.42969 957.338059 687.428465 0.00110323
11.03346 842.37738 891.08218 687.75123 0.001187116
11.04226 806.20599 856.1915 688.074366 0.001240378
11.05106 785.09357 838.775377 688.398019 0.001273734
11.05986 774.33417 832.236708 688.722075 0.001291432
11.06867 771.43488 834.369034 689.046569 0.001296286
11.07747 778.51971 845.839198 689.371499 0.001284489
11.08627 796.33801 870.565289 689.696862 0.001255748
11.09507 833.80133 917.686868 690.022657 0.001199326
11.10387 911.40582 1003.647231 690.34888 0.001097206
11.11268 1071.0245 1150.93969 690.675567 0.000933685
11.12148 1359.8502 1378.216698 691.002604 0.000735375
11.13028 1745.0514 1674.16669 691.330099 0.000573049
11.13908 2119.5479 1949.776908 691.658051 0.000471799
11.14789 2230.4863 2040.626406 691.986383 0.000448333
11.15669 2036.0089 1868.495169 692.315128 0.000491157
11.16549 1670.5127 1564.497715 692.644286 0.000598619
11.17429 1352.7816 1288.253033 692.97389 0.000739218
11.18309 1147.8795 1094.58777 693.303826 0.000871172
11.19190 1026.5854 976.077487 693.634204 0.000974103
11.20070 950.57739 905.048625 693.965021 0.001051992
11.20950 903.74243 856.812111 694.296163 0.00110651
11.21830 867.64221 821.168036 694.627776 0.001152549
11.22710 838.24518 795.062071 694.959746 0.001192968
11.23591 812.67401 776.225017 695.292108 0.001230506
11.24471 790.16248 762.668964 695.624859 0.001265562
11.25351 773.30292 752.777339 695.957996 0.001293154
11.26231 759.70581 745.334926 696.291555 0.001316299
11.27111 749.49323 739.527164 696.625419 0.001334235
11.27992 740.78027 734.82477 696.959739 0.001349928
11.28872 734.745 730.854422 697.294396 0.001361016
11.29752 730.74438 727.330641 697.629427 0.001368468
11.30632 728.17462 724.029212 697.964829 0.001373297
11.31513 726.73419 720.852331 698.300599 0.001376019
11.32393 726.11438 718.00172 698.636735 0.001377193
11.33273 725.43518 716.137968 698.973235 0.001378483
11.34153 724.71686 715.622071 699.310133 0.001379849
11.35033 723.72729 715.802159 699.647312 0.001381736
11.35914 722.67084 716.021854 699.984924 0.001383756
11.36794 721.41492 716.075927 700.32285 0.001386165
11.37674 719.40131 715.969883 700.661126 0.001390045
11.38554 718.07904 715.772154 700.99975 0.001392604
11.39434 717.16199 715.554505 701.338719 0.001394385
11.40315 716.45978 715.35964 701.678069 0.001395752
11.41195 715.64374 715.207207 702.017682 0.001397343
11.42075 715.0824 715.104005 702.357709 0.00139844
11.42955 714.89978 715.043729 702.698032 0.001398797
11.43835 714.81677 715.041113 703.038649 0.00139896
11.44716 714.80542 715.087925 703.379673 0.001398982
11.45596 714.74768 715.18371 703.720986 0.001399095
11.46476 715.14661 715.323665 704.062623 0.001398315
11.47356 715.66553 715.518738 704.404582 0.001397301
11.48237 716.15619 715.765735 704.746899 0.001396343
11.49117 716.10437 716.066763 705.089456 0.001396444
11.49997 716.71698 716.424233 705.432367 0.001395251
11.50877 717.51727 716.837329 705.775629 0.001393695
11.51757 718.35278 717.29626 706.119161 0.001392074
11.52638 719.15027 717.774078 706.463001 0.00139053
11.53518 720.17133 718.225206 706.807145 0.001388558
11.54398 721.94751 718.615011 707.151631 0.001385142
11.55278 723.73615 718.981863 707.496339 0.001381719
11.56158 726.48444 719.634693 707.841383 0.001376492
11.57039 729.4577 721.503734 708.186762 0.001370881
11.57919 734.38092 726.012474 708.532356 0.001361691
11.58799 742.20892 734.155936 708.878319 0.00134733
11.59679 755.90857 746.951924 709.22453 0.001322911
11.60559 790.40405 765.990141 709.571028 0.001265176
11.61440 845.6839 791.897353 709.917809 0.001182475
11.62320 889.98743 820.653466 710.264872 0.001123611
11.63200 901.52124 838.209415 710.612253 0.001109236
11.64080 873.39435 830.035129 710.959832 0.001144958
11.64961 819.84448 804.545007 711.307765 0.001219744
11.65841 785.22595 778.61966 711.655931 0.001273519
11.66721 767.25745 759.250167 712.004368 0.001303343
11.67601 756.67786 747.073323 712.353072 0.001321566
11.68481 749.8634 740.278597 712.702043 0.001333576
11.69362 746.76794 736.958585 713.051278 0.001339104
11.70242 742.96033 735.763561 713.400775 0.001345967
11.71122 742.09619 736.029952 713.750571 0.001347534
11.72002 741.39331 737.672482 714.100546 0.001348812
11.72883 744.13928 741.147829 714.450856 0.001343834
11.73763 748.6347 747.621478 714.80138 0.001335765
11.74643 759.87195 758.928476 715.152156 0.001316011
11.75523 771.96185 777.2025 715.503182 0.001295401
11.76403 788.65283 803.460777 715.854456 0.001267985
11.77284 798.85614 834.299349 716.206017 0.00125179
11.78164 801.25989 855.943981 716.557741 0.001248035
11.79044 795.43616 850.718578 716.909788 0.001257172
11.79924 785.3147 823.799935 717.262036 0.001273375
11.80804 773.34521 794.172671 717.614482 0.001293084
11.81685 766.01123 771.201887 717.967246 0.001305464
11.82565 757.43604 756.073212 718.320204 0.001320243
11.83445 751.29681 747.080523 718.673397 0.001331032
11.84325 745.64227 742.065837 719.026821 0.001341126
11.85206 742.74463 739.365785 719.380516 0.001346358
11.86086 740.83038 738.002068 719.7344 0.001349837
11.86966 739.04712 737.507487 720.08847 0.001353094
11.87846 737.61194 737.719914 720.442846 0.001355726
11.88726 736.97723 738.692835 720.797406 0.001356894
11.89607 737.91418 740.718796 721.152188 0.001355171
11.90487 739.92297 744.44765 721.507191 0.001351492
11.91367 743.06989 750.93541 721.862454 0.001345768
11.92247 747.67719 761.435307 722.217854 0.001337476
11.93127 754.54504 776.676787 722.573512 0.001325302
11.94008 762.61096 795.135461 722.929424 0.001311285
11.94888 767.51294 809.531908 723.28547 0.00130291
11.95768 767.06177 808.828746 723.641809 0.001303676
11.96648 761.2262 793.832412 723.998319 0.00131367
11.97528 755.021 775.758786 724.35508 0.001324466
11.98409 749.5379 761.135406 724.711968 0.001334155
11.99289 745.34204 751.062657 725.069104 0.001341666
12.00169 742.73846 744.555143 725.426487 0.001346369
12.01049 742.1048 740.122203 725.783995 0.001347519
12.01929 742.35345 736.44182 726.141787 0.001347067
12.02810 743.10876 732.643328 726.499742 0.001345698
12.03690 744.05237 728.508081 726.857898 0.001343991
12.04570 745.4444 724.980565 727.216255 0.001341482
12.05450 747.10486 724.322565 727.574813 0.0013385
12.06330 748.23077 727.36057 727.933568 0.001336486
12.07211 749.18213 731.916119 728.292522 0.001334789
12.08091 748.90137 736.273356 728.651714 0.001335289
12.08971 748.95703 740.045045 729.01106 0.00133519
12.09851 749.35461 743.500676 729.370602 0.001334482
12.10732 750.11475 747.083486 729.730338 0.001333129
12.11612 751.09332 751.097131 730.090268 0.001331392
12.12492 753.47522 755.337042 730.45039 0.001327184
12.13372 756.56586 758.606421 730.810704 0.001321762
12.14252 759.76392 759.596821 731.171251 0.001316198
12.15133 761.21173 759.063311 731.531905 0.001313695
12.16013 760.81732 758.66253 731.892832 0.001314376
12.16893 761.16864 759.192268 732.253907 0.001313769
12.17773 762.88654 760.8299 732.615129 0.001310811
12.18653 764.76831 763.58791 732.976621 0.001307586
12.19534 768.71381 767.540401 733.338259 0.001300874
12.20414 775.10583 772.970214 733.700125 0.001290146
12.21294 782.6557 780.448309 734.062095 0.001277701
12.22174 794.18494 790.848966 734.424333 0.001259153
12.23055 809.62549 805.268792 734.786714 0.001235139
12.23935 829.02539 824.805561 735.14924 0.001206236
12.24815 854.88275 849.891445 735.512032 0.001169751
12.25695 887.54767 880.172382 735.874967 0.0011267
12.26575 930.19714 919.660517 736.238085 0.001075041
12.27456 994.72137 979.434825 736.601387 0.001005307
12.28336 1073.5093 1068.131608 736.964912 0.000931524
12.29216 1156.9886 1179.254283 737.328538 0.000864313
12.30096 1234.3091 1281.26601 737.692387 0.00081017
12.30977 1266.2036 1343.74445 738.056459 0.000789762
12.31857 1276.1276 1358.075098 738.420672 0.000783621
12.32737 1254.5963 1301.743138 738.785066 0.000797069
12.33617 1207.1233 1186.901717 739.149641 0.000828416
12.34497 1132.3685 1069.024352 739.514438 0.000883105
12.35378 1049.0906 979.864221 739.879334 0.000953207
12.36258 976.28955 923.617248 740.244452 0.001024286
12.37138 928.02808 895.513815 740.609792 0.001077554
12.38018 904.67444 890.938979 740.97523 0.00110537
12.38898 907.18396 908.801918 741.340931 0.001102312
12.39779 941.86542 951.330016 741.70677 0.001061723
12.40659 1006.1843 1020.520924 742.072791 0.000993854
12.41539 1091.4183 1109.907276 742.438991 0.000916239
12.42419 1148.4177 1188.021401 742.805371 0.000870763
12.43299 1142.3605 1199.524008 743.171932 0.00087538
12.44180 1077.0605 1135.312606 743.538673 0.000928453
12.45060 997.04596 1048.922993 743.905636 0.001002963
12.45940 940.60828 979.945688 744.272738 0.001063142
12.46820 908.89691 936.260581 744.64002 0.001100235
12.47701 891.84924 908.13149 745.007483 0.001121266
12.48581 875.00122 881.698019 745.375126 0.001142856
12.49461 857.8064 854.41591 745.74295 0.001165764
12.50341 839.19452 831.23451 746.110954 0.001191619
12.51221 823.90814 814.402167 746.479182 0.001213728
12.52102 811.50012 803.658438 746.847506 0.001232286
12.52982 802.04755 798.165374 747.216096 0.001246809
12.53862 796.11792 797.467817 747.584825 0.001256095
12.54742 793.96423 801.693424 747.953693 0.001259503
12.55622 797.18848 811.247498 748.322827 0.001254408
12.56503 803.30518 825.776458 748.692101 0.001244857
12.57383 810.69971 841.733464 749.061599 0.001233502
12.58263 815.09552 849.64486 749.431196 0.00122685
12.59143 813.50079 841.56199 749.801059 0.001229255
12.60023 807.21991 823.456696 750.171062 0.00123882
12.60904 799.93628 805.347942 750.541207 0.0012501
12.61784 792.50751 791.408032 750.911618 0.001261818
12.62664 786.93652 781.927469 751.282171 0.001270751
12.63544 782.55652 775.906824 751.652908 0.001277863
12.64424 779.26385 772.166167 752.023828 0.001283262
12.65305 775.21014 769.787022 752.394975 0.001289973
12.66185 771.49414 768.195226 752.766222 0.001296186
12.67065 768.98364 767.076955 753.137695 0.001300418
12.67945 768.29327 766.268494 753.509395 0.001301586
12.68826 767.74432 765.679357 753.881239 0.001302517
12.69706 767.39874 765.254375 754.253267 0.001303104
12.70586 767.10675 764.956307 754.625482 0.0013036
12.71466 766.56445 764.758998 754.997924 0.001304522
12.72346 766.2356 764.643022 755.370468 0.001305082
12.73227 765.96057 764.593603 755.74324 0.00130555
12.74107 766.65759 764.598927 756.116241 0.001304363
12.74987 767.74792 764.648691 756.489345 0.001302511
12.75867 769.05695 764.731622 756.86272 0.001300294
12.76747 770.38916 764.84307 757.236239 0.001298045
12.77628 771.80261 764.956342 757.609947 0.001295668
12.78508 774.44849 765.06823 757.983841 0.001291241
12.79388 777.77673 765.181432 758.357924 0.001285716
12.80268 780.32739 765.333446 758.732237 0.001281513
12.81148 784.33014 765.618443 759.106654 0.001274973
12.82029 787.80792 766.113545 759.481344 0.001269345
12.82909 787.98706 766.779669 759.856179 0.001269056
12.83789 786.45001 767.556665 760.231204 0.001271537
12.84669 782.67444 768.435787 760.606417 0.00127767
12.85550 780.18182 769.42421 760.981819 0.001281753
12.86430 777.74689 770.491006 761.357411 0.001285765
12.87310 775.97241 771.598708 761.733191 0.001288706
12.88190 774.81366 772.918667 762.109203 0.001290633
12.89070 774.40082 774.825795 762.48532 0.001291321
12.89951 774.44379 777.608532 762.861711 0.001291249
12.90831 775.42126 781.232072 763.238248 0.001289622
12.91711 776.40015 784.908294 763.614976 0.001287996
12.92591 776.9408 786.782585 763.991892 0.001287099
12.93472 777.31726 785.754968 764.368998 0.001286476
12.94352 777.94904 783.281545 764.746336 0.001285431
12.95232 779.05505 781.244517 765.123778 0.001283606
12.96112 782.11383 780.468822 765.501495 0.001278586
12.96992 786.03168 781.211046 765.879358 0.001272213
12.97873 790.08887 783.44066 766.257367 0.00126568
12.98753 794.97925 786.784322 766.635651 0.001257894
12.99633 797.88647 790.050678 767.01408 0.001253311
13.00513 797.46442 791.104594 767.392698 0.001253974
13.01393 795.05908 789.121064 767.771505 0.001257768
13.02274 790.36774 785.81905 768.150542 0.001265234
13.03154 786.58191 782.853747 768.529724 0.001271323
13.04034 784.26318 780.772713 768.90905 0.001275082
13.04914 782.76337 779.541623 769.28865 0.001277525
13.05795 781.75116 778.953418 769.668393 0.001279179
13.06675 780.66101 778.792719 770.048323 0.001280966
13.07555 779.32495 778.899245 770.428439 0.001283162
13.08435 778.82294 779.177591 770.808783 0.001283989
13.09315 779.14075 779.582262 771.189226 0.001283465
13.10196 779.16101 780.094782 771.569897 0.001283432
13.11076 780.50732 780.726534 771.950795 0.001281218
13.11956 781.75494 781.519424 772.33179 0.001279173
13.12836 782.73608 782.535329 772.713054 0.00127757
13.13716 783.80701 783.908207 773.094457 0.001275824
13.14597 785.84729 785.775908 773.476084 0.001272512
13.15477 787.52429 788.20584 773.857806 0.001269802
13.16357 789.35162 791.185562 774.239751 0.001266863
13.17237 791.45184 794.065793 774.621919 0.001263501
13.18117 793.46509 795.550266 775.004178 0.001260295
13.18998 794.63434 794.991417 775.386701 0.00125844
13.19878 794.31268 793.424654 775.769358 0.00125895
13.20758 793.13403 792.017699 776.15219 0.001260821
13.21638 792.27332 791.204704 776.535197 0.001262191
13.22518 791.35822 791.002585 776.918377 0.00126365
13.23399 790.88135 791.295083 777.30173 0.001264412
13.24279 790.71625 791.951399 777.685254 0.001264676
13.25159 793.15485 792.874563 778.068992 0.001260788
13.26039 795.22845 794.011749 778.452856 0.0012575
13.26920 805.49487 795.342062 778.836887 0.001241473
13.27800 811.23395 796.872013 779.221084 0.00123269
13.28680 808.64886 798.623016 779.605447 0.001236631
13.29560 801.2547 800.630658 779.989973 0.001248043
13.30440 800.72809 802.944273 780.374662 0.001248863
13.31321 796.58063 805.632371 780.759555 0.001255366
13.32201 796.62592 808.784855 781.14452 0.001255294
13.33081 798.42145 812.526972 781.52973 0.001252471
13.33961 801.43518 817.029665 781.915052 0.001247762
13.34841 804.85443 822.531656 782.300485 0.001242461
13.35722 809.25256 829.394438 782.686158 0.001235708
13.36602 815.37598 838.181976 783.071938 0.001226428
13.37482 824.65649 849.888756 783.457911 0.001212626
13.38362 838.33075 866.337395 783.843943 0.001192847
13.39243 858.48975 890.872916 784.230208 0.001164836
13.40123 892.06445 929.053535 784.616572 0.001120995
13.41003 948.31116 988.7313 785.003034 0.001054506
13.41883 1053.7766 1078.624188 785.389722 0.000948968
13.42763 1231.2329 1203.768324 785.776504 0.000812194
13.43644 1436.2563 1355.061909 786.16342 0.000696255
13.44524 1581.9342 1487.283378 786.550468 0.000632138
13.45404 1569.2102 1519.314771 786.93769 0.000637263
13.46284 1421.6707 1425.560912 787.324952 0.000703398
13.47164 1251.6978 1276.648233 787.712383 0.000798915
13.48045 1107.3568 1139.113775 788.099981 0.000903051
13.48925 1012.5712 1035.687411 788.487611 0.000987585
13.49805 948.74481 965.8872 788.875447 0.001054024
13.50685 906.14886 922.00208 789.263353 0.001103571
13.51566 879.19049 895.652745 789.651416 0.00113741
13.52446 862.50488 880.429556 790.039499 0.001159414
13.53326 852.98206 872.452858 790.427734 0.001172358
13.54206 849.53113 869.850858 790.816116 0.00117712
13.55086 850.8136 871.979356 791.20451 0.001175346
13.55967 856.55115 878.755096 791.59309 0.001167473
13.56847 866.90277 889.973902 791.981721 0.001153532
13.57727 879.59473 904.631246 792.370443 0.001136887
13.58607 899.71613 922.439237 792.759252 0.001111462
13.59487 926.72888 947.852581 793.148147 0.001079064
13.60368 957.74426 987.995711 793.537123 0.00104412
13.61248 1004.799 1045.977574 793.926177 0.000995224
13.62128 1056.0737 1114.232178 794.31535 0.000946904
13.63008 1094.2606 1165.232813 794.70455 0.000913859
13.63889 1115.3538 1162.267049 795.093817 0.000896576
13.64769 1092.5562 1105.624929 795.483148 0.000915285
13.65649 1040.3525 1031.518514 795.872539 0.000961213
13.66529 982.99487 966.554779 796.261986 0.001017299
13.67409 930.14209 918.405207 796.651486 0.001075105
13.68290 892.92371 885.80106 797.041078 0.001119917
13.69170 867.64374 864.857557 797.430626 0.001152547
13.70050 849.55017 851.619791 797.820303 0.001177094
13.70930 838.06915 843.121616 798.209973 0.001193219
13.71810 831.52216 837.4933 798.59963 0.001202614
13.72691 827.5636 833.707715 798.989403 0.001208366
13.73571 825.2677 831.269119 799.379156 0.001211728
13.74451 825.36377 830.004431 799.768972 0.001211587
13.75331 827.10223 829.975529 800.158714 0.00120904
13.76211 830.35663 831.424114 800.548555 0.001204302
13.77092 835.98401 834.683497 800.938357 0.001196195
13.77972 843.0976 839.98381 801.328116 0.001186102
13.78852 852.21674 847.004087 801.71796 0.00117341
13.79732 864.09412 853.900399 802.107751 0.001157281
13.80612 876.12543 856.787407 802.497528 0.001141389
13.81493 882.44647 853.24956 802.887287 0.001133213
13.82373 881.78943 845.951786 803.277067 0.001134058
13.83253 873.97235 838.675627 803.666731 0.001144201
13.84133 861.05511 833.10041 804.056405 0.001161366
13.85014 849.31287 829.461429 804.446084 0.001177422
13.85894 839.73102 827.469322 804.835675 0.001190858
13.86774 833.66498 826.718976 805.225217 0.001199523
13.87654 830.38916 826.842404 805.614705 0.001204255
13.88534 827.87646 827.540533 806.004177 0.00120791
13.89415 827.76941 828.639199 806.393494 0.001208066
13.90295 828.57373 830.249648 806.782785 0.001206893
13.91175 830.70581 832.712173 807.172043 0.001203796
13.92055 835.23645 836.561314 807.56113 0.001197266
13.92935 844.22382 842.639849 807.950217 0.00118452
13.93816 858.26947 852.200035 808.339165 0.001165135
13.94696 879.0672 866.818646 808.728014 0.001137569
13.95576 906.9704 887.940232 809.116757 0.001102572
13.96456 937.1991 915.742297 809.505387 0.001067009
13.97337 961.41064 946.454257 809.893943 0.001040138
13.98217 968.85181 968.833399 810.282287 0.00103215
13.99097 957.73859 969.169596 810.670588 0.001044126
13.99977 938.20416 947.545288 811.058708 0.001065866
14.00857 915.53046 917.584531 811.446685 0.001092263
14.01738 895.04132 890.44106 811.834513 0.001117267
14.02618 877.53656 869.920548 812.222183 0.001139554
14.03498 863.23407 855.881207 812.609692 0.001158434
14.04378 852.54272 846.876034 812.99703 0.001172962
14.05259 844.8537 841.343199 813.384237 0.001183637
14.06139 839.68317 838.028397 813.771173 0.001190925
14.07019 835.4599 836.160963 814.158007 0.001196946
14.07899 832.46948 835.338281 814.544601 0.001201245
14.08779 830.21906 835.394105 814.930991 0.001204501
14.09660 828.98138 836.263054 815.317171 0.0012063
14.10540 829.03339 837.828229 815.703133 0.001206224
14.11420 829.98193 839.686475 816.088915 0.001204846
14.12300 831.40741 840.885131 816.474378 0.00120278
14.13180 831.70245 840.520584 816.859689 0.001202353
14.14061 831.84625 838.91452 817.24471 0.001202145
14.14941 830.65558 837.101164 817.629433 0.001203868
14.15821 829.32172 835.691547 818.013983 0.001205805
14.16701 828.42584 834.831912 818.398222 0.001207109
14.17581 828.53864 834.469583 818.782184 0.001206944
14.18462 828.33258 834.496296 819.165862 0.001207245
14.19342 828.65839 834.808398 819.549294 0.00120677
14.20222 828.66364 835.339988 819.932382 0.001206762
14.21102 828.90149 836.025051 820.315121 0.001206416
14.21983 828.65918 836.852975 820.697633 0.001206769
14.22863 829.08063 837.818477 821.079779 0.001206155
14.23743 829.4588 838.927267 821.461595 0.001205605
14.24623 830.43365 840.193139 821.843073 0.00120419
14.25503 831.1308 841.63765 822.224205 0.00120318
14.26384 831.83246 843.291439 822.604984 0.001202165
14.27264 833.01196 845.195753 822.9854 0.001200463
14.28144 834.69812 847.407587 823.365489 0.001198038
14.29024 837.09216 850.003417 823.745114 0.001194612
14.29904 840.11127 853.092688 824.124439 0.001190319
14.30785 843.86157 856.832386 824.503325 0.001185028
14.31665 848.44202 861.469304 824.881809 0.001178631
14.32545 854.20837 867.417344 825.259881 0.001170675
14.33425 862.36108 875.404396 825.637533 0.001159607
14.34305 873.70258 886.696207 826.014799 0.001144554
14.35186 888.79688 903.326258 826.391544 0.001125116
14.36066 909.88708 928.187953 826.767928 0.001099037
14.36946 942.02588 964.656673 827.143816 0.001061542
14.37826 985.70734 1015.439282 827.519241 0.0010145
14.38706 1042.3602 1079.787608 827.894195 0.000959361
14.39587 1094.3474 1147.486083 828.26867 0.000913787
14.40467 1124.174 1193.443175 828.642655 0.000889542
14.41347 1123.1785 1192.050598 829.016144 0.00089033
14.42227 1105.9935 1145.981349 829.389169 0.000904164
14.43108 1074.244 1082.247874 829.761636 0.000930887
14.43988 1040.9918 1023.971619 830.13358 0.000960622
14.44868 1008.0313 980.069623 830.504991 0.000992033
14.45748 979.36542 950.972025 830.87586 0.001021069
14.46628 956.37677 934.124695 831.246179 0.001045613
14.47509 938.84552 926.489758 831.615939 0.001065138
14.48389 925.99115 925.520928 831.985172 0.001079924
14.49269 920.07782 929.218115 832.353743 0.001086865
14.50149 922.01184 935.951371 832.721812 0.001084585
14.51029 931.62463 945.246056 833.089243 0.001073394
14.51910 952.47034 959.346938 833.456028 0.001049901
14.52790 988.69604 982.496794 833.822282 0.001011433
14.53670 1046.5918 1019.027632 834.187872 0.000955482
14.54550 1136.8351 1072.240296 834.552829 0.000879635
14.55430 1261.8179 1142.198265 834.917145 0.000792507
14.56311 1402.4866 1220.201516 835.28081 0.000713019
14.57191 1505.9785 1281.302375 835.643857 0.00066402
14.58071 1515.2654 1295.802442 836.006152 0.00065995
14.58951 1436.5823 1268.074685 836.367851 0.000696097
14.59832 1337.4521 1234.889393 836.728821 0.00074769
14.60712 1283.765 1227.667828 837.089095 0.000778959
14.61592 1309.5098 1262.773901 837.448662 0.000763645
14.62472 1439.5331 1347.002887 837.807514 0.00069467
14.63352 1674.2268 1477.449861 838.165641 0.000597291
14.64233 1900.1515 1630.577782 838.523034 0.000526274
14.65113 1969.7435 1744.640514 838.879724 0.00050768
14.65993 1843.2239 1741.868242 839.23558 0.000542528
14.66873 1608.8093 1618.012094 839.590755 0.000621578
14.67754 1387.822 1446.4375 839.945119 0.000720554
14.68634 1233.5488 1288.103715 840.298701 0.000810669
14.69514 1136.8177 1164.617007 840.651493 0.000879649
14.70394 1079.552 1076.509181 841.003486 0.00092631
14.71274 1040.4279 1016.857858 841.354711 0.000961143
14.72155 1010.8237 977.424174 841.705037 0.000989292
14.73035 986.89893 951.142044 842.054615 0.001013275
14.73915 967.84546 933.036871 842.403317 0.001033223
14.74795 952.03833 920.017796 842.751173 0.001050378
14.75675 938.84668 910.296583 843.098174 0.001065137
14.76556 927.74036 902.863289 843.44431 0.001077888
14.77436 917.38354 897.120224 843.789572 0.001090057
14.78316 908.8457 892.700037 844.133951 0.001100297
14.79196 900.12421 889.372037 844.477477 0.001110958
14.80077 892.90308 887.007628 844.820061 0.001119942
14.80957 887.17926 885.580273 845.161697 0.001127168
14.81837 883.98291 885.18592 845.502489 0.001131244
14.82717 880.45392 886.089473 845.842314 0.001135778
14.83597 878.55225 888.753166 846.1812 0.001138236
14.84478 877.38379 893.821455 846.519139 0.001139752
14.85358 877.28101 901.983199 846.85616 0.001139886
14.86238 876.98907 913.641334 847.192138 0.001140265
14.87118 877.76123 928.19878 847.52718 0.001139262
14.87998 878.01428 942.503271 847.861276 0.001138934
14.88879 879.00549 949.876283 848.194303 0.001137649
14.89759 880.2583 944.992686 848.526405 0.00113603
14.90639 882.44568 930.873031 848.857458 0.001133214
14.91519 884.14917 914.568927 849.187528 0.001131031
14.92399 884.7511 900.274532 849.516496 0.001130261
14.93280 884.4364 889.102201 849.844463 0.001130664
14.94160 884.27954 880.881082 850.171422 0.001130864
14.95040 885.32574 875.195036 850.497252 0.001129528
14.95920 888.40723 872.023975 850.822092 0.00112561
14.96800 894.03967 872.261318 851.145823 0.001118519
14.97681 901.19189 876.982193 851.468473 0.001109642
14.98561 909.01953 884.287875 851.790034 0.001100086
14.99441 914.75287 889.247608 852.110497 0.001093191
15.00321 917.74738 889.916856 852.429854 0.001089624
15.01201 916.19562 888.452156 852.748096 0.00109147
15.02082 912.6377 887.278656 853.065251 0.001095725
15.02962 909.53406 887.752099 853.381238 0.001099464
15.03842 908.69037 890.615421 853.696086 0.001100485
15.04722 910.41608 896.281897 854.009786 0.001098399
15.05603 918.17712 904.777698 854.322329 0.001089114
15.06483 931.53564 915.267504 854.633709 0.001073496
15.07363 947.6991 924.991974 854.943916 0.001055187
15.08243 961.26208 928.874724 855.252979 0.001040299
15.09123 966.77393 923.927587 855.560783 0.001034368
15.10004 961.71375 914.689053 855.867461 0.00103981
15.10884 950.9776 908.422362 856.1729 0.001051549
15.11764 938.56128 908.150368 856.477094 0.001065461
15.12644 931.47546 913.334543 856.780137 0.001073566
15.13524 927.17816 922.130171 857.081919 0.001078541
15.14405 924.59088 931.099983 857.382502 0.001081559
15.15285 920.97522 935.094064 857.681775 0.001085806
15.16165 914.67096 931.197588 857.979866 0.001093289
15.17045 907.46143 922.204107 858.276668 0.001101975
15.17925 901.31097 912.727677 858.572173 0.001109495
15.18806 896.97662 905.367531 858.866474 0.001114856
15.19686 893.89728 900.949946 859.159465 0.001118697
15.20566 892.95551 899.626672 859.451171 0.001119877
15.21446 893.9624 901.51179 859.741586 0.001118615
15.22327 898.6908 907.002815 860.030735 0.00111273
15.23207 906.33978 916.856703 860.318515 0.001103339
15.24087 918.98346 932.04759 860.605015 0.001088159
15.24967 939.20453 953.254867 860.89023 0.001064731
15.25848 967.90839 979.740543 861.174089 0.001033156
15.26728 1000.1829 1007.20516 861.456616 0.000999817
15.27608 1024.8804 1026.196346 861.737807 0.000975724
15.28488 1030.7891 1026.96442 862.017687 0.000970131
15.29368 1018.1755 1009.092195 862.296154 0.000982149
15.30249 995.93463 981.901178 862.573298 0.001004082
15.31129 969.57855 955.055167 862.849112 0.001031376
15.32009 945.15283 933.145938 863.123497 0.00105803
15.32889 925.7915 917.040302 863.396572 0.001080157
15.33769 911.49017 905.943776 863.668238 0.001097105
15.34650 900.17706 898.624628 863.93852 0.001110893
15.35530 891.80548 893.923203 864.207414 0.001121321
15.36410 885.73535 890.945746 864.474915 0.001129005
15.37290 882.16034 889.096284 864.741046 0.001133581
15.38170 879.71466 888.018237 865.005713 0.001136732
15.39051 878.52234 887.513194 865.269031 0.001138275
15.39931 877.51837 887.48194 865.530906 0.001139577
15.40811 878.41437 887.885183 865.791362 0.001138415
15.41691 878.79083 888.732701 866.050395 0.001137927
15.42572 880.39886 890.087537 866.308001 0.001135849
15.43452 882.0451 892.09321 866.564175 0.001133729
15.44332 884.52771 895.018199 866.818913 0.001130547
15.45212 887.52966 899.315331 867.07224 0.001126723
15.46092 891.4505 905.674526 867.324065 0.001121767
15.46973 896.06781 915.026655 867.5745 0.001115987
15.47853 903.34534 928.383722 867.823454 0.001106996
15.48733 914.54425 946.441874 868.070953 0.001093441
15.49613 931.21967 968.844594 868.316994 0.00107386
15.50493 962.02063 992.841493 868.561572 0.001039479
15.51374 998.36523 1012.865383 868.804713 0.001001637
15.52254 1032.7201 1024.513594 869.04633 0.000968317
15.53134 1049.5662 1028.195146 869.286531 0.000952775
15.54014 1063.6652 1026.71995 869.52523 0.000940145
15.54894 1061.6062 1022.336869 869.762425 0.000941969
15.55775 1052.6698 1013.961192 869.998195 0.000949966
15.56655 1026.7527 998.654276 870.232455 0.000973944
15.57535 994.93005 978.149425 870.465232 0.001005096
15.58415 963.52197 957.860799 870.696521 0.001037859
15.59296 941.89374 941.437412 870.926349 0.001061691
15.60176 925.36047 929.867147 871.154634 0.00108066
15.61056 915.29913 922.842591 871.381453 0.001092539
15.61936 908.30951 919.669274 871.606803 0.001100946
15.62816 906.23157 919.568202 871.830632 0.001103471
15.63697 906.09998 921.681546 872.052965 0.001103631
15.64577 910.21167 925.25721 872.2738 0.001098646
15.65457 917.22925 930.401499 872.493161 0.00109024
15.66337 928.11517 938.318854 872.710972 0.001077452
15.67217 943.49304 950.185652 872.927308 0.001059891
15.68098 965.01221 965.893449 873.142167 0.001036256
15.68978 987.83618 982.738763 873.355475 0.001012314
15.69858 1003.3887 994.235868 873.567329 0.000996623
15.70738 1004.3179 993.277968 873.777657 0.000995701
15.71618 992.17938 980.088272 873.986482 0.001007882
15.72499 971.63098 961.878891 874.193806 0.001029197
15.73379 949.19415 944.967001 874.399627 0.001053525
15.74259 931.76697 932.063613 874.603969 0.00107323
15.75139 919.6665 923.678648 874.806765 0.001087351
15.76020 913.90887 919.374911 875.008106 0.001094201
15.76900 913.25018 918.259146 875.207924 0.00109499
15.77780 917.46582 918.947455 875.406243 0.001089959
15.78660 920.96832 919.290161 875.603066 0.001085814
15.79540 923.31122 916.995132 875.798392 0.001083058
15.80421 921.92633 911.988531 875.992223 0.001084685
15.81301 918.73132 906.486098 876.184562 0.001088458
15.82181 912.58405 902.026834 876.37543 0.001095789
15.83061 907.68512 898.816846 876.564766 0.001101704
15.83942 901.77686 896.640357 876.752658 0.001108922
15.84822 897.07751 895.247134 876.939043 0.001114731
15.85702 892.41638 894.417583 877.123945 0.001120553
15.86582 889.09766 893.974298 877.307367 0.001124736
15.87462 887.30237 893.794838 877.489311 0.001127012
15.88343 886.23724 893.805714 877.669801 0.001128366
15.89223 886.02246 893.970085 877.848779 0.00112864
15.90103 887.05188 894.280297 878.026328 0.00112733
15.90983 887.87677 894.756147 878.202392 0.001126282
15.91863 888.48877 895.447858 878.376975 0.001125507
15.92744 889.77917 896.418238 878.550138 0.001123874
15.93624 892.34131 897.723136 878.721828 0.001120647
15.94504 896.21362 899.439893 878.892067 0.001115805
15.95384 901.31622 901.704746 879.06086 0.001109489
15.96265 907.93152 904.713109 879.228229 0.001101405
15.97145 915.65106 908.680239 879.394142 0.001092119
15.98025 925.08258 913.77706 879.558602 0.001080985
15.98905 935.52332 919.98716 879.721672 0.00106892
15.99785 947.38544 926.808465 879.883299 0.001055537
16.00665 955.97168 932.939033 880.043508 0.001046056
16.01546 963.10443 936.891883 880.202303 0.001038309
16.02426 964.59381 938.842215 880.359708 0.001036706
16.03306 963.01971 940.812681 880.515692 0.0010384
16.04186 959.46838 944.717614 880.67028 0.001042244
16.05066 956.49524 951.217486 880.823459 0.001045484
16.05947 954.95062 959.422137 880.97527 0.001047175
16.06827 955.69775 966.527786 881.125719 0.001046356
16.07707 958.35956 968.81891 881.274778 0.00104345
16.08588 961.27319 965.273301 881.422488 0.001040287
16.09468 961.23358 958.742687 881.568821 0.00104033
16.10348 958.09827 952.570689 881.713767 0.001043734
16.11228 953.95251 948.504249 881.857417 0.00104827
16.12108 949.77228 947.080099 881.999712 0.001052884
16.12989 947.73511 948.332384 882.14069 0.001055147
16.13869 948.65485 952.177547 882.280327 0.001054124
16.14749 952.32227 958.644268 882.418663 0.001050065
16.15629 958.44244 968.037378 882.555673 0.001043359
16.16509 969.28107 981.127772 882.69135 0.001031692
16.17390 983.19293 999.398495 882.82578 0.001017094
16.18270 1003.4238 1025.309888 882.958909 0.000996588
16.19150 1031.4734 1062.613416 883.090774 0.000969487
16.20030 1071.7004 1116.352353 883.221356 0.000933097
16.20911 1128.2957 1192.431062 883.350691 0.000886292
16.21790 1219.5426 1295.964599 883.47873 0.00081998
16.22671 1352.0126 1428.273059 883.605555 0.000739638
16.23551 1530.7522 1581.692012 883.731159 0.000653274
16.24431 1699.9789 1733.673721 883.855524 0.000588243
16.25312 1795.9589 1842.156363 883.978687 0.000556806
16.26192 1766.7527 1856.367566 884.100628 0.00056601
16.27072 1661.2773 1764.565908 884.221386 0.000601946
16.27952 1518.5835 1613.502986 884.340915 0.000658508
16.28832 1398.0946 1458.436465 884.459293 0.000715259
16.29713 1304.2345 1328.56859 884.576517 0.000766733
16.30593 1236.6959 1231.53147 884.692568 0.000808606
16.31473 1184.3882 1164.223828 884.807485 0.000844318
16.32353 1142.0016 1119.381979 884.921251 0.000875656
16.33233 1106.1393 1089.140417 885.033877 0.000904045
16.34114 1072.4222 1066.621004 885.145399 0.000932469
16.34994 1043.9587 1046.016429 885.255815 0.000957892
16.35874 1018.1512 1024.648941 885.365148 0.000982172
16.36754 995.33392 1003.783362 885.473384 0.001004688
16.37635 975.55566 985.565331 885.580558 0.001025057
16.38515 959.46918 970.997525 885.686659 0.001042243
16.39395 946.01929 960.127074 885.791696 0.001057061
16.40275 936.83362 952.66065 885.895706 0.001067425
16.41155 930.70551 948.311599 885.998688 0.001074454
16.42036 927.26324 946.940763 886.100664 0.001078442
16.42916 927.88055 948.584429 886.201625 0.001077725
16.43796 933.08807 953.358125 886.301604 0.00107171
16.44676 942.28564 961.225998 886.400568 0.001061249
16.45556 955.08325 971.52648 886.498597 0.001047029
16.46437 965.87274 982.145086 886.595658 0.001035333
16.47317 968.08856 989.101911 886.691775 0.001032963
16.48197 960.30811 988.402661 886.786971 0.001041332
16.49077 947.51776 979.573818 886.881236 0.001055389
16.49958 933.7738 966.112353 886.974605 0.001070923
16.50838 922.54871 952.149341 887.067048 0.001083954
16.51718 914.46045 940.025521 887.158641 0.001093541
16.52598 908.68066 930.452047 887.249355 0.001100497
16.53478 904.409 923.308286 887.339214 0.001105694
16.54359 901.44122 918.161505 887.428239 0.001109335
16.55239 900.12531 914.521311 887.516425 0.001110956
16.56119 899.34204 911.958163 887.603785 0.001111924
16.56999 899.05457 910.147448 887.690352 0.00111228
16.57879 899.12622 908.868722 887.77614 0.001112191
16.58760 900.32147 907.976445 887.861141 0.001110714
16.59640 902.18024 907.359648 887.945379 0.001108426
16.60520 902.83167 906.900926 888.028879 0.001107626
16.61400 902.28943 906.460945 888.111633 0.001108292
16.62280 901.16455 905.943801 888.193656 0.001109675
16.63161 900.16638 905.374472 888.274982 0.001110906
16.64041 899.53027 904.84683 888.355622 0.001111691
16.64921 899.18298 904.430361 888.435574 0.001112121
16.65801 898.85608 904.150659 888.51486 0.001112525
16.66681 898.21942 904.010786 888.593503 0.001113314
16.67562 897.44061 904.00529 888.671481 0.00111428
16.68442 897.13843 904.128186 888.748863 0.001114655
16.69322 896.76849 904.377318 888.825627 0.001115115
16.70202 896.31622 904.757703 888.901804 0.001115678
16.71082 896.3678 905.284382 888.977393 0.001115613
16.71963 896.52484 905.987217 889.052415 0.001115418
16.72843 897.06238 906.917578 889.126893 0.00111475
16.73723 897.88702 908.156607 889.20081 0.001113726
16.74603 899.2478 909.826066 889.274228 0.001112041
16.75483 900.59674 912.088181 889.34713 0.001110375
16.76364 902.01343 915.140666 889.419546 0.001108631
16.77244 904.16272 919.182509 889.491475 0.001105996
16.78124 907.05316 924.358491 889.56294 0.001102471
16.79004 910.45251 930.626658 889.633946 0.001098355
16.79885 913.60992 937.507025 889.704525 0.001094559
16.80765 916.68048 943.829286 889.774692 0.001090893
16.81645 919.81171 948.212858 889.844445 0.001087179
16.82525 923.71399 950.540458 889.913814 0.001082586
16.83405 928.3418 952.314238 889.982799 0.001077189
16.84286 934.57928 955.216232 890.051423 0.00107
16.85166 943.36737 960.329049 890.119691 0.001060032
16.86046 956.07495 968.471652 890.187635 0.001045943
16.86926 971.76697 980.270539 890.255269 0.001029053
16.87806 991.48944 995.819786 890.322593 0.001008584
16.88687 1016.2055 1015.068468 890.389636 0.000984053
16.89567 1046.6128 1038.596901 890.456398 0.000955463
16.90447 1082.7937 1066.45215 890.522885 0.000923537
16.91327 1121.9033 1095.17932 890.589152 0.000891342
16.92207 1168.0239 1116.144444 890.655181 0.000856147
16.93088 1219.7361 1120.180076 890.721003 0.000819849
16.93968 1268.6671 1106.619777 890.786617 0.000788229
16.94848 1280.8212 1082.740342 890.852053 0.000780749
16.95728 1251.2699 1055.198211 890.917311 0.000799188
16.96608 1186.0383 1027.903428 890.982397 0.000843143
16.97489 1117.3177 1003.98412 891.047363 0.000895001
16.98369 1066.3669 985.604724 891.112193 0.000937764
16.99249 1037.0044 973.445521 891.176918 0.000964316
17.00129 1018.1013 967.209578 891.241536 0.000982221
17.01010 1008.6058 966.04782 891.306077 0.000991468
17.01890 1003.2546 968.622041 891.370526 0.000996756
17.02770 1002.225 972.72072 891.434932 0.00099778
17.03650 1002.5394 975.064153 891.499304 0.000997467
17.04530 999.66327 972.672562 891.56364 0.001000337
17.05411 992.64923 965.258793 891.62797 0.001007405
17.06291 982.0329 955.189471 891.692291 0.001018296
17.07171 969.0694 945.081506 891.756627 0.001031918
17.08051 957.74847 936.384926 891.820982 0.001044115
17.08931 947.94946 929.538068 891.885386 0.001054909
17.09812 939.89539 924.466097 891.949852 0.001063948
17.10692 932.77533 920.889635 892.014379 0.00107207
17.11572 927.11383 918.482553 892.078995 0.001078616
17.12452 923.11035 916.951479 892.143699 0.001083294
17.13333 920.2146 916.062517 892.208504 0.001086703
17.14213 917.64014 915.682421 892.273437 0.001089752
17.15093 916.24152 915.717001 892.338505 0.001091415
17.15973 914.83795 916.133044 892.403728 0.00109309
17.16853 914.69324 916.941166 892.469105 0.001093263
17.17734 915.40302 918.197086 892.534662 0.001092415
17.18614 917.32019 920.013861 892.600397 0.001090132
17.19494 918.86139 922.58551 892.666323 0.001088303
17.20374 921.98621 926.228598 892.732467 0.001084615
17.21254 926.15485 931.409731 892.798835 0.001079733
17.22135 931.86603 938.765202 892.865445 0.001073116
17.23015 937.94336 949.062347 892.932296 0.001066162
17.23895 946.49005 963.06621 892.999413 0.001056535
17.24775 957.48401 981.266047 893.066778 0.001044404
17.25656 972.08929 1003.482878 893.134449 0.001028712
17.26536 991.76123 1028.19771 893.202406 0.001008307
17.27416 1011.5364 1051.512626 893.270669 0.000988595
17.28296 1027.2247 1066.366494 893.339257 0.000973497
17.29177 1031.9675 1065.916298 893.408165 0.000969023
17.30057 1022.4843 1050.353466 893.477404 0.00097801
17.30937 1005.6823 1026.881234 893.547 0.00099435
17.31817 985.78949 1002.844465 893.616964 0.001014415
17.32697 969.48871 982.18669 893.687292 0.001031472
17.33578 956.43927 966.115824 893.758 0.001045545
17.34458 947.54065 954.491692 893.829107 0.001055364
17.35338 940.7149 946.610514 893.900608 0.001063021
17.36218 935.6026 941.616782 893.972511 0.00106883
17.37098 933.26477 938.751795 894.044843 0.001071507
17.37979 932.49109 937.489642 894.117613 0.001072396
17.38859 933.50366 937.539166 894.190815 0.001071233
17.39739 934.76117 938.789324 894.264464 0.001069792
17.40619 937.31403 941.296284 894.33858 0.001066878
17.41499 940.99927 945.289081 894.413136 0.0010627
17.42380 947.93292 951.208277 894.488192 0.001054927
? 958.1001 0 0 0
? 974.47211 0 0 0
? 1002.3694 0 0 0
? 1046.8364 0 0 0
? 1112.2473 0 0 0
? 1202.0721 0 0 0
? 1296.8977 0 0 0
? 1369.4233 0 0 0
? 1424.3484 0 0 0
? 1450.0588 0 0 0
? 1501.4119 0 0 0
? 1653.7495 0 0 0
? 2327.3503 0 0 0
? 2659.3909 0 0 0
? 2762.2969 0 0 0
? 2439.2864 0 0 0
? 1850.9211 0 0 0
? 1541.6128 0 0 0
? 1391.0359 0 0 0
? 1277.226 0 0 0
? 1208.2678 0 0 0
? 1171.4379 0 0 0
? 1163.8785 0 0 0
? 1171.3016 0 0 0
? 1182.0979 0 0 0
? 1188.9601 0 0 0
? 1181.219 0 0 0
? 1156.0172 0 0 0
? 1120.6729 0 0 0
? 1084.2622 0 0 0
? 1050.041 0 0 0
? 1023.2839 0 0 0
? 1003.2909 0 0 0
? 992.36639 0 0 0
? 987.32916 0 0 0
? 988.71057 0 0 0
? 994.15765 0 0 0
? 1005.4227 0 0 0
? 1019.5585 0 0 0
? 1033.9139 0 0 0
? 1043.3033 0 0 0
? 1043.5409 0 0 0
? 1034.9083 0 0 0
? 1020.9712 0 0 0
? 1004.6038 0 0 0
? 988.91705 0 0 0
? 975.25763 0 0 0
? 963.67688 0 0 0
? 954.42841 0 0 0
? 947.513 0 0 0
? 941.59686 0 0 0
? 937.26721 0 0 0
? 934.37292 0 0 0
? 931.99884 0 0 0
? 929.56055 0 0 0
? 927.9754 0 0 0
? 927.69379 0 0 0
? 927.34052 0 0 0
17.94312 926.78082 925.085905 899.942464 0.001079004
17.95192 926.55353 925.8587 900.053213 0.001079268
17.96073 927.81781 927.446589 900.164535 0.001077798
17.96953 929.63324 929.885015 900.2764 0.001075693
17.97833 931.0694 933.091558 900.388825 0.001074034
17.98713 933.12787 936.844475 900.501752 0.001071664
17.99593 935.46539 940.755914 900.615252 0.001068987
18.00474 938.20618 944.078029 900.729265 0.001065864
18.01354 939.8385 945.6596 900.843797 0.001064013
18.02234 940.73938 944.666215 900.958852 0.001062994
18.03114 940.80713 941.476366 901.074397 0.001062917
18.03995 939.30054 937.338071 901.190449 0.001064622
18.04875 936.98218 933.363575 901.306947 0.001067256
18.05755 934.94928 930.136901 901.423961 0.001069577
18.06635 933.36823 927.86886 901.541429 0.001071389
18.07515 932.99878 926.58619 901.659355 0.001071813
18.08396 932.36627 926.241124 901.777743 0.00107254
18.09276 932.17932 926.760283 901.896556 0.001072755
18.10156 932.7774 928.056872 902.015784 0.001072067
18.11036 935.23608 930.011938 902.135444 0.001069249
18.11916 938.2901 932.413873 902.255524 0.001065768
18.12797 941.53241 934.865906 902.375989 0.001062098
18.13677 942.6535 936.800342 902.496839 0.001060835
18.14557 941.76874 937.813657 902.618078 0.001061832
18.15437 940.05865 938.087462 902.739666 0.001063763
18.16317 939.36792 938.2778 902.861592 0.001064546
18.17198 939.27393 939.066239 902.983872 0.001064652
18.18078 941.50458 940.95935 903.106494 0.00106213
18.18958 945.5304 944.33346 903.229417 0.001057607
18.19838 952.88885 949.494413 903.352644 0.00104944
18.20719 963.34338 956.673191 903.476176 0.001038051
18.21599 978.90179 965.948403 903.599944 0.001021553
18.22479 999.43707 977.088281 903.724018 0.001000563
18.23359 1022.1139 989.23508 903.84833 0.000978365
18.24239 1036.8647 1000.607679 903.972881 0.000964446
18.25120 1040.1354 1008.869433 904.097671 0.000961413
18.26000 1030.8539 1012.909014 904.222657 0.00097007
18.26880 1019.7896 1014.422046 904.347856 0.000980594
18.27760 1011.0454 1016.862659 904.473195 0.000989075
18.28640 1010.1308 1023.395949 904.598745 0.000989971
18.29521 1019.1965 1036.131813 904.724437 0.000981165
18.30401 1042.6887 1056.207876 904.850269 0.000959059
18.31281 1083.5155 1083.692661 904.976241 0.000922922
18.32161 1129.0392 1116.866186 905.102309 0.000885709
18.33041 1161.6053 1151.218722 905.228459 0.000860878
18.33922 1172.1366 1180.067961 905.354705 0.000853143
18.34802 1172.5398 1198.776155 905.481031 0.00085285
18.35682 1172.6449 1208.359058 905.607393 0.000852773
18.36562 1179.2134 1211.702526 905.73379 0.000848023
18.37443 1180.019 1207.486433 905.860222 0.000847444
18.38323 1167.7664 1191.12653 905.986644 0.000856336
18.39203 1145.6371 1161.937237 906.113039 0.000872877
18.40083 1116.8162 1125.814253 906.239422 0.000895402
18.40963 1082.9639 1090.315821 906.365776 0.000923392
18.41844 1056.9542 1060.292848 906.492057 0.000946115
18.42724 1037.7987 1037.741029 906.618263 0.000963578
18.43604 1024.0791 1023.090807 906.744391 0.000976487
18.44484 1019.0728 1016.177991 906.87037 0.000981284
18.45364 1021.8666 1016.643023 906.996268 0.000978601
18.46245 1029.9919 1024.036478 907.122012 0.000970881
18.47125 1046.8802 1037.678876 907.247615 0.000955219
18.48005 1072.6545 1056.240232 907.37303 0.000932267
18.48885 1097.118 1076.833161 907.498258 0.000911479
18.49766 1110.0563 1094.284458 907.623294 0.000900855
18.50646 1107.6703 1102.333823 907.748067 0.000902796
18.51526 1095.2645 1097.700008 907.872644 0.000913021
18.52406 1076.6611 1082.37691 907.996953 0.000928797
18.53286 1055.416 1060.922079 908.121005 0.000947494
18.54167 1034.4778 1037.487429 908.244756 0.000966671
18.55047 1015.2894 1015.127602 908.368205 0.000984941
18.55927 998.46265 995.672146 908.491319 0.00100154
18.56807 985.37213 979.756718 908.614112 0.001014845
18.57687 974.63501 967.235161 908.736567 0.001026025
18.58568 965.75378 957.643913 908.858639 0.001035461
18.59448 958.25256 950.427763 908.98034 0.001043566
18.60328 952.90283 945.050978 909.101628 0.001049425
18.61208 948.85974 941.046039 909.222499 0.001053897
18.62088 945.80341 938.04367 909.342923 0.001057302
18.62969 943.26263 935.772414 909.462914 0.00106015
18.63849 941.53192 934.042107 909.582453 0.001062099
18.64729 940.07159 932.723928 909.7015 0.001063749
18.65609 938.85205 931.732567 909.820065 0.001065131
18.66490 937.75092 931.010562 909.938106 0.001066381
18.67370 935.88959 930.521136 910.055608 0.001068502
18.68250 934.39954 930.241795 910.172583 0.001070206
18.69130 933.83228 930.162345 910.289001 0.001070856
18.70010 934.10168 930.282791 910.404863 0.001070547
18.70891 934.32935 930.614971 910.520125 0.001070286
18.71771 935.1676 931.180315 910.634801 0.001069327
18.72651 936.48383 932.035292 910.74885 0.001067824
18.73531 937.68335 933.259017 910.862258 0.001066458
18.74411 938.25641 934.973358 910.975037 0.001065807
18.75292 939.41174 937.361903 911.087161 0.001064496
18.76172 941.52771 940.676774 911.198627 0.001062104
18.77052 944.6413 945.238858 911.309399 0.001058603
18.77932 948.95441 951.418115 911.419487 0.001053791
18.78812 954.64252 959.583269 911.52883 0.001047513
18.79693 960.6629 970.019508 911.637477 0.001040948
18.80573 968.21515 982.738024 911.745403 0.001032828
18.81453 975.49597 997.156762 911.852571 0.00102512
18.82333 981.84381 1011.6611 911.958995 0.001018492
18.83214 986.97223 1023.579079 912.064638 0.0010132
18.84094 990.47015 1030.408101 912.169514 0.001009622
18.84974 992.78406 1031.479208 912.273564 0.001007268
18.85854 994.20917 1027.642801 912.376837 0.001005825
18.86734 992.48389 1019.710272 912.479311 0.001007573
18.87615 988.37073 1008.455917 912.580952 0.001011766
18.88495 980.91724 995.466002 912.681775 0.001019454
18.89375 973.45831 982.727811 912.781746 0.001027265
18.90255 965.94012 971.657083 912.880857 0.001035261
18.91135 960.50964 962.847553 912.979123 0.001041114
18.92016 954.81458 956.356518 913.076524 0.001047324
18.92896 950.85638 952.003109 913.173063 0.001051684
18.93776 947.73486 949.536824 913.268711 0.001055147
18.94656 946.80756 948.724385 913.363483 0.001056181
18.95537 946.20935 949.373262 913.457351 0.001056849
18.96417 946.13983 951.322905 913.550309 0.001056926
18.97297 945.93103 954.387228 913.642372 0.00105716
18.98177 946.5191 958.248268 913.733525 0.001056503
18.99057 948.5177 962.314155 913.823773 0.001054277
18.99938 951.69159 965.695514 913.913091 0.001050761
19.00818 956.34869 967.630752 914.001496 0.001045644
19.01698 963.74066 968.132308 914.088944 0.001037624
19.02578 974.78766 967.992589 914.175492 0.001025864
19.03458 990.23486 968.06701 914.261099 0.001009861
19.04339 1002.6042 968.715237 914.345771 0.000997403
19.05219 1006.3138 969.71303 914.429517 0.000993726
19.06099 1002.3566 970.524331 914.512317 0.000997649
19.06979 992.56445 970.825382 914.59419 0.001007491
19.07859 983.14844 970.870018 914.675098 0.00101714
19.08740 976.62958 971.344843 914.755097 0.00102393
19.09620 972.78064 973.019581 914.834152 0.001027981
19.10500 973.2616 976.541207 914.912274 0.001027473
19.11380 975.97675 982.387878 914.989474 0.001024615
19.12261 981.51563 990.88841 915.065736 0.001018832
19.13141 990.60284 1002.188094 915.141065 0.001009486
19.14021 1003.9498 1016.241659 915.215481 0.000996066
19.14901 1020.1108 1032.920731 915.28899 0.000980286
19.15781 1039.4956 1052.146157 915.361578 0.000962005
19.16662 1060.1185 1073.822157 915.433261 0.000943291
19.17542 1087.8387 1097.789894 915.504052 0.000919254
19.18422 1125.3684 1123.794785 915.573942 0.000888598
19.19302 1172.6804 1150.390434 915.64294 0.000852747
19.20182 1211.4867 1173.198342 915.711068 0.000825432
19.21063 1229.0927 1185.100671 915.778336 0.000813608
19.21943 1215.0988 1180.634299 915.844736 0.000822978
19.22823 1184.7156 1161.227978 915.910288 0.000844084
19.23703 1150.2434 1134.217991 915.975007 0.000869381
19.24583 1117.2914 1107.334584 916.038878 0.000895022
19.25464 1089.8945 1085.48151 916.101954 0.00091752
19.26344 1070.8129 1070.915731 916.16422 0.00093387
19.27224 1057.0724 1064.141164 916.225703 0.000946009
19.28104 1050.1588 1064.531736 916.286401 0.000952237
19.28985 1049.7927 1070.33288 916.346338 0.000952569
19.29865 1054.7214 1078.420885 916.405534 0.000948118
19.30745 1060.7283 1084.358358 916.463978 0.000942748
19.31625 1066.3905 1083.917171 916.521726 0.000937743
19.32505 1067.1045 1075.784602 916.578769 0.000937115
19.33386 1062.7174 1062.384358 916.635137 0.000940984
19.34266 1054.4879 1047.660382 916.690836 0.000948328
19.35146 1046.817 1034.848841 916.745891 0.000955277
19.36026 1039.0061 1025.985069 916.800314 0.000962458
19.36906 1034.5132 1022.253978 916.85414 0.000966638
19.37787 1034.0808 1024.379994 916.907387 0.000967042
19.38667 1041.913 1032.80302 916.960066 0.000959773
19.39547 1059.9802 1047.683263 917.01221 0.000943414
19.40427 1091.3517 1068.725669 917.06383 0.000916295
19.41307 1129.629 1094.73309 917.114944 0.000885246
19.42188 1163.8735 1122.812203 917.165604 0.0008592
19.43068 1179.406 1147.405381 917.215812 0.000847884
19.43948 1169.873 1160.876915 917.265604 0.000854794
19.44828 1140.0924 1157.467459 917.314995 0.000877122
19.45709 1105.4202 1137.972202 917.364022 0.000904633
19.46589 1072.5497 1108.941121 917.4127 0.000932358
19.47469 1046.5233 1077.563127 917.461053 0.000955545
19.48349 1025.196 1048.459503 917.509135 0.000975423
19.49229 1008.446 1023.729628 917.556952 0.000991625
19.50110 995.28217 1003.899802 917.604546 0.00100474
19.50990 985.31274 988.688089 917.651934 0.001014906
19.51870 976.96973 977.423995 917.699158 0.001023573
19.52750 971.2099 969.273266 917.746227 0.001029644
19.53630 966.26569 963.361805 917.793199 0.001034912
19.54511 962.5116 958.899927 917.8401 0.001038949
19.55391 958.74384 955.303147 917.886952 0.001043031
19.56271 955.16205 952.259638 917.933798 0.001046943
19.57151 953.12964 949.633014 917.980661 0.001049175
19.58032 951.53241 947.300962 918.027585 0.001050936
19.58912 949.41791 945.077242 918.074582 0.001053277
19.59792 947.96875 942.75287 918.121714 0.001054887
19.60672 946.9024 940.218742 918.16901 0.001056075
19.61552 946.53937 937.529676 918.216494 0.00105648
19.62433 946.88501 934.854075 918.264213 0.001056094
19.63313 947.164 932.419118 918.312191 0.001055783
19.64193 946.38141 930.503205 918.360465 0.001056656
19.65073 946.53766 929.377039 918.409082 0.001056482
19.65953 947.62976 929.136826 918.458073 0.001055264
19.66834 948.85004 929.614554 918.50748 0.001053907
19.67714 949.39935 930.520444 918.55733 0.001053298
19.68594 949.98755 931.638722 918.607671 0.001052645
19.69474 950.76117 932.895244 918.658528 0.001051789
19.70354 951.47186 934.320413 918.70994 0.001051003
19.71235 952.24866 935.983982 918.761955 0.001050146
19.72115 953.07849 937.946978 918.814606 0.001049232
19.72995 953.91498 940.273243 918.867936 0.001048311
19.73875 955.06757 943.067137 918.92197 0.001047046
19.74756 956.27185 946.493864 918.976759 0.001045728
19.75636 957.57758 950.773816 919.032315 0.001044302
19.76516 960.08484 956.174699 919.088713 0.001041575
19.77396 964.90228 962.980415 919.145965 0.001036374
19.78276 970.2655 971.4789 919.204115 0.001030646
19.79157 976.22308 981.856341 919.263207 0.001024356
19.80037 982.8587 994.079892 919.323263 0.00101744
19.80917 990.91852 1007.673796 919.384334 0.001009165
19.81797 1001.066 1021.690721 919.446427 0.000998935
19.82678 1013.4993 1035.227168 919.50962 0.000986681
19.83558 1025.5812 1048.171875 919.573921 0.000975057
19.84438 1038.71 1061.146676 919.63937 0.000962733
19.85318 1051.9541 1074.242257 919.706009 0.000950612
19.86198 1064.9026 1085.841091 919.773857 0.000939053
19.87079 1072.0911 1092.631736 919.842947 0.000932757
19.87959 1070.7296 1091.399535 919.913325 0.000933943
19.88839 1059.8599 1081.70426 919.985024 0.000943521
19.89719 1041.8668 1066.558799 920.058058 0.000959816
19.90599 1023.1208 1050.183739 920.132465 0.000977402
19.91480 1007.3828 1035.79718 920.208281 0.000992671
19.92360 996.69098 1025.073388 920.285518 0.00100332
19.93240 990.91199 1018.526775 920.364202 0.001009171
19.94120 988.86383 1015.864262 920.444376 0.001011262
19.95001 990.09149 1016.130968 920.526065 0.001010008
19.95881 993.1308 1017.75154 920.609273 0.001006917
19.96761 995.48248 1018.869484 920.694031 0.001004538
19.97641 996.74579 1018.254996 920.78037 0.001003265
19.98521 998.30707 1016.112355 920.868268 0.001001696
19.99402 1000.3978 1013.772276 920.957803 0.000999602
20.00282 1004.8118 1012.598425 921.04895 0.000995211
20.01162 1011.6814 1013.228512 921.141744 0.000988453
20.02042 1019.2255 1015.420039 921.236176 0.000981137
20.02922 1022.8198 1018.075854 921.332266 0.000977689
20.03803 1022.1863 1019.709832 921.430033 0.000978295
20.04683 1020.4049 1019.371406 921.52944 0.000980003
20.05563 1020.2317 1017.295195 921.630558 0.00098017
20.06443 1025.791 1014.354649 921.733343 0.000974857
20.07324 1032.6527 1010.999523 921.837818 0.00096838
20.08204 1035.8041 1006.905702 921.943956 0.000965434
20.09084 1032.25 1001.535262 922.051763 0.000968758
20.09964 1022.8765 994.925057 922.16122 0.000977635
20.10844 1010.8491 987.839729 922.272338 0.000989267
20.11725 999.09912 981.215646 922.385107 0.001000902
20.12605 989.50806 975.588745 922.499482 0.001010603
20.13485 981.36786 971.040896 922.615471 0.001018986
20.14365 974.69806 967.22735 922.733024 0.001025959
20.15245 970.25146 963.752379 922.852127 0.001030661
20.16126 966.07471 960.461247 922.972738 0.001035117
20.17006 961.95557 957.509437 923.09485 0.001039549
20.17886 958.77917 955.17461 923.218427 0.001042993
20.18766 956.50037 953.6764 923.3434 0.001045478
20.19646 954.46259 953.132532 923.469753 0.00104771
20.20527 953.36481 953.582544 923.597408 0.001048916
20.21407 953.83734 955.002458 923.726298 0.001048397
20.22287 954.07709 957.320387 923.856438 0.001048133
20.23167 954.88812 960.418362 923.987709 0.001047243
20.24047 956.60651 964.079818 924.120073 0.001045362
20.24928 957.49689 967.849657 924.25343 0.00104439
20.25808 958.91089 970.911078 924.387734 0.00104285
20.26688 960.474 972.244496 924.522873 0.001041153
20.27568 960.77081 971.204625 924.658746 0.001040831
20.28449 960.11243 968.035549 924.795337 0.001041545
20.29329 958.37854 963.665935 924.932488 0.001043429
20.30209 956.20245 959.067136 925.070128 0.001045804
20.31089 953.76886 954.883971 925.208115 0.001048472
20.31969 951.84888 951.434667 925.346367 0.001050587
20.32850 951.24713 948.831623 925.4847 0.001051252
20.33730 951.67175 947.074624 925.623065 0.001050782
20.34610 951.94098 946.109612 925.761311 0.001050485
20.35490 953.28809 945.854073 925.899268 0.001049001
20.36370 956.26813 946.211758 926.036817 0.001045732
20.37251 959.47791 947.075333 926.173773 0.001042233
20.38131 962.41022 948.319518 926.310005 0.001039058
20.39011 965.9024 949.792138 926.445281 0.001035301
20.39891 969.76215 951.342983 926.579501 0.001031181
20.40771 973.11389 952.917136 926.712463 0.001027629
20.41652 975.01727 954.656385 926.843942 0.001025623
20.42532 976.24286 956.885192 926.973768 0.001024335
20.43412 977.19788 959.993554 927.101698 0.001023334
20.44292 980.73987 964.319044 927.227514 0.001019638
20.45172 987.53339 970.071647 927.351017 0.001012624
20.46053 995.54895 977.272912 927.471952 0.001004471
20.46933 1001.3554 985.629179 927.590087 0.000998646
20.47813 1004.489 994.380519 927.705136 0.000995531
20.48693 1002.8017 1002.223069 927.816858 0.000997206
20.49574 998.64032 1007.593369 927.924949 0.001001362
20.50454 994.02893 1009.321819 928.029124 0.001006007
20.51334 989.84375 1007.081576 928.129105 0.00101026
20.52214 984.4751 1001.367296 928.224571 0.00101577
20.53094 978.52032 993.296254 928.315211 0.001021951
20.53975 972.59521 984.281037 928.400669 0.001028177
20.54855 967.32672 975.528075 928.480621 0.001033777
20.55735 961.32886 967.786873 928.554675 0.001040227
20.56615 956.51825 961.364641 928.62251 0.001045458
20.57495 952.89026 956.315389 928.683713 0.001049439
20.58376 949.58813 952.547628 928.737895 0.001053088
20.59256 946.53503 949.92387 928.784651 0.001056485
20.60136 945.6048 948.307528 928.823549 0.001057524
20.61016 944.62579 947.585757 928.854161 0.00105862
20.61896 943.19739 947.682482 928.876024 0.001060223
20.62777 942.49237 948.555925 928.888687 0.001061017
20.63657 944.35419 950.178296 928.891661 0.001058925
20.64537 947.03577 952.508962 928.884453 0.001055926
20.65417 951.44818 955.44529 928.866546 0.001051029
20.66298 957.97351 958.745909 928.837419 0.00104387
20.67178 965.59003 961.944528 928.79653 0.001035636
20.68058 968.79724 964.321517 928.74331 0.001032208
20.68938 966.4458 965.105945 928.677176 0.001034719
20.69818 961.02545 963.913533 928.597549 0.001040555
20.70699 955.21216 961.020677 928.503807 0.001046888
20.71579 948.84937 957.141088 928.395307 0.001053908
20.72459 944.68738 952.987466 928.271422 0.001058551
20.73339 941.52228 949.030186 928.13149 0.00106211
20.74219 939.42285 945.497179 927.97479 0.001064483
20.75100 937.83887 942.469428 927.800608 0.001066281
20.75980 936.51593 939.944415 927.608255 0.001067787
20.76860 935.60986 937.873358 927.396962 0.001068822
20.77741 935.60724 936.181412 927.165932 0.001068825
20.78620 936.04456 934.788587 926.914485 0.001068325
20.79501 936.93372 933.619741 926.641636 0.001067311
20.80381 937.58453 932.614096 926.346665 0.00106657
20.81261 938.13 931.723849 926.028646 0.00106595
20.82141 939.75824 930.912321 925.686767 0.001064103
20.83022 941.37604 930.153812 925.320089 0
20.83902 942.78485 0 0 0
20.84782 944.29742 0 0 0
20.85662 945.27814 0 0 0
20.86542 945.92126 0 0 0
20.87423 946.36969 0 0 0
20.88303 947.30884 0 0 0
20.89183 947.63068 0 0 0
20.90063 948.13263 0 0 0
20.90943 948.45349 0 0 0
20.91824 948.48376 0 0 0
20.92704 948.73846 0 0 0
20.93584 948.43372 0 0 0
20.94465 947.43933 0 0 0
20.95345 947.17664 0 0 0
20.96225 946.66425 0 0 0
20.97105 944.95074 0 0 0
20.97985 944.11304 0 0 0
20.98866 943.98767 0 0 0
20.99746 943.59442 0 0 0
21.00626 942.61963 0 0 0
21.01506 942.15906 0 0 0
21.02386 942.71576 0 0 0
21.03267 943.32892 0 0 0
21.04147 943.45575 0 0 0
21.05027 943.30219 0 0 0
21.05907 943.15314 0 0 0
21.06788 944.27228 0 0 0
21.07668 946.10413 0 0 0
21.08548 949.00067 0 0 0
21.09428 951.46881 0 0 0
21.10308 953.5545 0 0 0
21.11189 954.99347 0 0 0
21.12069 955.79022 0 0 0
21.12949 956.8595 0 0 0
21.13829 958.63965 0 0 0
21.14709 961.06146 0 0 0
21.15590 964.99078 0 0 0
21.16470 968.92725 0 0 0
21.17350 974.16577 0 0 0
21.18230 980.4563 0 0 0
21.19110 988.53015 0 0 0
21.19991 996.69507 0 0 0
21.20871 1005.5829 0 0 0
21.21751 1015.6692 0 0 0
21.22631 1026.7865 0 0 0
21.23512 1037.4709 0 0 0
21.24392 1047.0123 0 0 0
21.25272 1053.3962 0 0 0
21.26152 1054.8507 0 0 0
21.27032 1047.8687 0 0 0
21.27913 1037.6879 0 0 0
21.28793 1024.4951 0 0 0
21.29673 1010.8803 0 0 0
21.30553 999.88519 0 0 0
21.31433 991.53455 0 0 0
21.32314 985.61426 0 0 0
21.33194 982.87885 0 0 0
21.34074 982.59601 0 0 0
21.34954 985.9267 0 0 0
21.35834 993.80847 0 0 0
21.36715 1008.9421 0 0 0
21.37595 1035.533 0 0 0
21.38475 1079.3271 0 0 0
21.39355 1141.9877 0 0 0
21.40236 1210.7144 0 0 0
21.41116 1255.6875 0 0 0
21.41996 1259.2041 0 0 0
21.42876 1227.3783 0 0 0
21.43756 1180.0099 0 0 0
21.44637 1130.7659 0 0 0
21.45517 1084.9774 0 0 0
21.46397 1047.6976 0 0 0
21.47277 1019.5721 0 0 0
21.48157 998.04144 0 0 0
21.49038 981.62555 0 0 0
21.49918 970.59894 0 0 0
21.50798 963.13684 0 0 0
21.51678 958.64441 0 0 0
21.52558 955.37036 0 0 0
21.53439 952.75769 0 0 0
21.54319 950.87506 0 0 0
21.55199 949.73682 0 0 0
21.56079 949.18958 0 0 0
21.56959 949.06116 0 0 0
21.57840 949.33453 0 0 0
21.58720 950.31476 0 0 0
21.59600 951.27203 0 0 0
21.60480 952.01117 0 0 0
21.61360 952.35095 0 0 0
21.62241 953.75427 0 0 0
21.63121 957.16766 0 0 0
21.64001 961.79413 0 0 0
21.64881 965.34308 0 0 0
21.65762 966.73462 0 0 0
21.66642 966.20776 0 0 0
21.67522 964.92596 0 0 0
21.68402 963.74591 0 0 0
21.69282 963.3374 0 0 0
21.70163 963.34558 0 0 0
21.71043 963.21832 0 0 0
21.71923 963.77081 0 0 0
21.72803 964.62396 0 0 0
21.73683 964.02618 0 0 0
21.74564 963.7038 0 0 0
21.75444 964.78687 0 0 0
21.76324 966.97131 0 0 0
21.77204 968.82147 0 0 0
21.78085 971.19208 0 0 0
21.78965 973.8028 0 0 0
21.79845 976.60229 0 0 0
21.80725 979.77216 0 0 0
21.81605 983.41101 0 0 0
21.82486 986.77783 0 0 0
21.83366 988.5451 0 0 0
21.84246 988.93304 0 0 0
21.85126 988.21234 0 0 0
21.86006 986.77399 0 0 0
21.86887 984.5285 0 0 0
21.87767 982.97186 0 0 0
21.88647 980.71521 0 0 0
21.89527 977.96722 0 0 0
21.90408 975.04047 0 0 0
21.91288 971.52356 0 0 0
21.92168 967.55646 0 0 0
21.93048 964.01508 0 0 0
21.93928 961.64673 0 0 0
21.94809 960.02594 0 0 0
21.95689 958.51324 0 0 0
21.96569 956.90588 0 0 0
21.97449 955.61304 0 0 0
21.98329 954.46027 0 0 0
21.99210 955.17651 0 0 0
22.00090 957.86163 0 0 0
22.00970 961.67389 0 0 0
22.01850 968.26935 0 0 0
22.02731 978.12384 0 0 0
22.03611 991.36658 0 0 0
22.04491 1005.0292 0 0 0
22.05371 1015.7285 0 0 0
22.06251 1024.3352 0 0 0
22.07132 1025.3629 0 0 0
22.08012 1024.6603 0 0 0
22.08892 1029.6565 0 0 0
22.09772 1043.2646 0 0 0
22.10652 1058.4147 0 0 0
22.11533 1081.0834 0 0 0
22.12413 1093.7745 0 0 0
22.13293 1108.1709 0 0 0
22.14173 1108.7111 0 0 0
22.15054 1108.0087 0 0 0
22.15934 1093.6445 0 0 0
22.16814 1069.8271 0 0 0
22.17694 1047.4026 0 0 0
22.18574 1027.0487 0 0 0
22.19455 1013.1804 0 0 0
22.20335 1003.7891 0 0 0
22.21215 998.69934 0 0 0
22.22095 994.91632 0 0 0
22.22975 994.50201 0 0 0
22.23856 995.58441 0 0 0
22.24736 995.80957 0 0 0
22.25616 993.91711 0 0 0
22.26496 990.9267 0 0 0
22.27376 986.14734 0 0 0
22.28257 980.63281 0 0 0
22.29137 973.70642 0 0 0
22.30017 966.49884 0 0 0
22.30897 960.47949 0 0 0
22.31778 955.99225 0 0 0
22.32658 952.17133 0 0 0
22.33538 949.18567 0 0 0
22.34418 946.93109 0 0 0
22.35298 945.35559 0 0 0
22.36179 944.61298 0 0 0
22.37059 944.72266 0 0 0
22.37939 944.56793 0 0 0
22.38819 944.32367 0 0 0
22.39699 944.48749 0 0 0
22.40580 944.87219 0 0 0
22.41460 944.61877 0 0 0
22.42340 946.89526 0 0 0
22.43220 949.98328 0 0 0
22.44100 952.38318 0 0 0
22.44981 955.23029 0 0 0
22.45861 958.53027 0 0 0
22.46741 960.27087 0 0 0
22.47621 960.55737 0 0 0
22.48502 960.56458 0 0 0
22.49382 961.15466 0 0 0
22.50262 962.31989 0 0 0
22.51142 964.29968 0 0 0
22.52022 966.56299 0 0 0
22.52903 967.51385 0 0 0
22.53783 967.76587 0 0 0
22.54663 967.62421 0 0 0
22.55543 966.45081 0 0 0
22.56423 963.96106 0 0 0
22.57304 962.0307 0 0 0
22.58184 960.40509 0 0 0
22.59064 959.75531 0 0 0
22.59944 960.32343 0 0 0
22.60825 960.43341 0 0 0
22.61705 960.28564 0 0 0
22.62585 960.6535 0 0 0
22.63465 960.63806 0 0 0
22.64345 961.70844 0 0 0
22.65226 964.74731 0 0 0
22.66106 971.27985 0 0 0
22.66986 982.17816 0 0 0
22.67866 998.75745 0 0 0
22.68746 1025.293 0 0 0
22.69627 1059.8191 0 0 0
22.70507 1097.0802 0 0 0
22.71387 1123.1279 0 0 0
22.72267 1127.3809 0 0 0
22.73147 1110.8599 0 0 0
22.74028 1085.8988 0 0 0
22.74908 1058.3269 0 0 0
22.75788 1035.9534 0 0 0
22.76668 1022.9999 0 0 0
22.77549 1019.6542 0 0 0
22.78429 1024.2148 0 0 0
22.79309 1036.8091 0 0 0
22.80189 1052.2095 0 0 0
22.81069 1066.0573 0 0 0
22.81950 1073.1565 0 0 0
22.82830 1073.1815 0 0 0
22.83710 1065.0696 0 0 0
22.84590 1051.2607 0 0 0
22.85470 1034.0952 0 0 0
22.86351 1016.6406 0 0 0
22.87231 1001.462 0 0 0
22.88111 988.98859 0 0 0
22.88991 979.61255 0 0 0
22.89871 973.54462 0 0 0
22.90752 969.68591 0 0 0
22.91632 967.5874 0 0 0
22.92512 968.20398 0 0 0
22.93392 970.14264 0 0 0
22.94273 972.50854 0 0 0
22.95153 973.49036 0 0 0
22.96033 973.82007 0 0 0
22.96913 973.23407 0 0 0
22.97793 972.49878 0 0 0
22.98674 970.54376 0 0 0
22.99554 969.06207 0 0 0
23.00434 967.74933 0 0 0
23.01314 965.42621 0 0 0
23.02194 962.88068 0 0 0
23.03075 961.16071 0 0 0
23.03955 959.6142 0 0 0
23.04835 959.58966 0 0 0
23.05715 959.80817 0 0 0
23.06596 960.84363 0 0 0
23.07476 962.26361 0 0 0
23.08356 962.60999 0 0 0
23.09236 962.47601 0 0 0
23.10116 959.99554 0 0 0
23.10997 955.15277 0 0 0
23.11877 949.84161 0 0 0
23.12757 945.4361 0 0 0
23.13637 941.61578 0 0 0
23.14517 938.33771 0 0 0
23.15398 935.34509 0 0 0
23.16278 933.90985 0 0 0
23.17158 932.78766 0 0 0
23.18038 932.52673 0 0 0
23.18918 932.24152 0 0 0
23.19799 931.88971 0 0 0
23.20679 932.25122 0 0 0
23.21559 933.76599 0 0 0
23.22439 935.8324 0 0 0
23.23320 939.1618 0 0 0
23.24200 943.09247 0 0 0
23.25080 948.42566 0 0 0
23.25960 954.71454 0 0 0
23.26840 960.68146 0 0 0
23.27721 966.51361 0 0 0
23.28601 970.40137 0 0 0
23.29481 971.52057 0 0 0
23.30361 971.83984 0 0 0
23.31241 971.86176 0 0 0
23.32122 970.85907 0 0 0
23.33002 971.83826 0 0 0
23.33882 974.19653 0 0 0
23.34762 978.95172 0 0 0
23.35642 987.10339 0 0 0
23.36523 999.57806 0 0 0
23.37403 1016.7853 0 0 0
23.38283 1035.1323 0 0 0
23.39163 1048.1863 0 0 0
23.40044 1052.3279 0 0 0
23.40924 1046.9514 0 0 0
23.41804 1035.3848 0 0 0
23.42684 1017.9741 0 0 0
23.43564 1001.4396 0 0 0
23.44445 984.08826 0 0 0
23.45325 969.34509 0 0 0
23.46205 960.17938 0 0 0
23.47085 955.09753 0 0 0
23.47965 951.67932 0 0 0
23.48846 950.065 0 0 0
23.49726 951.03717 0 0 0
23.50606 952.55658 0 0 0
23.51486 953.8772 0 0 0
23.52367 952.64282 0 0 0
23.53247 950.4502 0 0 0
23.54127 947.72449 0 0 0
23.55007 944.41516 0 0 0
23.55887 940.76984 0 0 0
23.56768 938.42218 0 0 0
23.57648 937.11371 0 0 0
23.58528 935.59625 0 0 0
23.59408 934.14215 0 0 0
23.60288 933.57953 0 0 0
23.61169 933.24286 0 0 0
23.62049 932.70386 0 0 0
23.62929 932.63654 0 0 0
23.63809 933.24713 0 0 0
23.64689 934.83429 0 0 0
23.65570 936.32141 0 0 0
23.66450 937.87048 0 0 0
23.67330 938.69928 0 0 0
23.68210 939.29865 0 0 0
23.69091 939.18048 0 0 0
23.69971 938.33734 0 0 0
23.70851 936.95953 0 0 0
23.71731 935.42377 0 0 0
23.72611 933.1239 0 0 0
23.73492 930.66473 0 0 0
23.74372 928.89783 0 0 0
23.75252 927.09668 0 0 0
23.76132 924.89404 0 0 0
23.77012 922.77246 0 0 0
23.77893 921.25409 0 0 0
23.78773 920.94257 0 0 0
23.79653 921.14423 0 0 0
23.80533 921.12421 0 0 0
23.81414 920.60486 0 0 0
23.82294 920.2149 0 0 0
23.83174 920.84637 0 0 0
23.84054 921.75226 0 0 0
23.84934 922.85748 0 0 0
23.85815 924.00201 0 0 0
23.86695 924.79736 0 0 0
23.87575 924.31073 0 0 0
23.88455 924.96857 0 0 0
23.89335 925.45642 0 0 0
23.90216 925.83923 0 0 0
23.91096 926.51904 0 0 0
23.91976 926.54626 0 0 0
23.92856 926.66418 0 0 0
23.93736 928.47119 0 0 0
23.94617 931.67139 0 0 0
23.95497 933.8125 0 0 0
23.96377 935.03534 0 0 0
23.97257 936.1745 0 0 0
23.98137 937.08661 0 0 0
23.99018 936.88239 0 0 0
23.99898 936.7077 0 0 0
24.00778 936.58282 0 0 0
24.01658 937.46924 0 0 0
24.02539 938.74414 0 0 0
24.03419 940.68896 0 0 0
24.04299 943.27948 0 0 0
24.05179 945.93848 0 0 0
24.06059 949.36047 0 0 0
24.06940 953.03918 0 0 0
24.07820 957.23914 0 0 0
24.08700 962.53223 0 0 0
24.09580 969.75024 0 0 0
24.10460 977.81006 0 0 0
24.11341 984.31348 0 0 0
24.12221 986.54285 0 0 0
24.13101 987.43701 0 0 0
24.13981 984.74359 0 0 0
24.14862 980.05444 0 0 0
24.15742 973.82568 0 0 0
24.16622 967.19891 0 0 0
24.17502 960.93726 0 0 0
24.18382 956.00409 0 0 0
24.19263 952.0545 0 0 0
24.20143 949.26007 0 0 0
24.21023 948.64539 0 0 0
24.21903 949.89673 0 0 0
24.22783 952.47699 0 0 0
24.23664 955.78577 0 0 0
24.24544 958.62958 0 0 0
24.25424 958.35535 0 0 0
24.26304 956.01794 0 0 0
24.27184 952.95087 0 0 0
24.28065 950.21466 0 0 0
24.28945 946.85779 0 0 0
24.29825 944.58649 0 0 0
24.30705 943.41937 0 0 0
24.31586 943.13812 0 0 0
24.32466 942.4447 0 0 0
24.33346 940.57843 0 0 0
24.34226 939.2583 0 0 0
24.35106 938.08386 0 0 0
24.35987 937.23651 0 0 0
24.36867 936.26868 0 0 0
24.37747 934.54205 0 0 0
24.38627 933.40424 0 0 0
24.39507 932.29645 0 0 0
24.40388 929.94684 0 0 0
24.41268 928.64697 0 0 0
24.42148 928.745 0 0 0
24.43029 928.00861 0 0 0
24.43908 926.01154 0 0 0
24.44789 924.48004 0 0 0
24.45669 924.09741 0 0 0
24.46549 923.4184 0 0 0
24.47430 922.27142 0 0 0
24.48310 920.59241 0 0 0
24.49190 919.97583 0 0 0
24.50070 919.99591 0 0 0
24.50950 919.12805 0 0 0
24.51831 918.95392 0 0 0
24.52711 919.20593 0 0 0
24.53591 919.5932 0 0 0
24.54471 919.40942 0 0 0
24.55351 919.10803 0 0 0
24.56232 919.77655 0 0 0
24.57112 921.27472 0 0 0
24.57992 922.49908 0 0 0
24.58872 923.77637 0 0 0
24.59753 925.64532 0 0 0
24.60633 927.29303 0 0 0
24.61513 929.20068 0 0 0
24.62393 931.6283 0 0 0
24.63273 933.59131 0 0 0
24.64154 934.72522 0 0 0
24.65034 935.46198 0 0 0
24.65914 935.07825 0 0 0
24.66794 934.55048 0 0 0
24.67674 935.28223 0 0 0
24.68555 936.07574 0 0 0
24.69435 937.4585 0 0 0
24.70315 939.70758 0 0 0
24.71195 942.77161 0 0 0
24.72076 946.18665 0 0 0
24.72956 950.35638 0 0 0
24.73836 955.48035 0 0 0
24.74716 962.14886 0 0 0
24.75596 967.81689 0 0 0
24.76477 973.96613 0 0 0
24.77357 978.17548 0 0 0
24.78237 980.01965 0 0 0
24.79117 980.11401 0 0 0
24.79997 979.84949 0 0 0
24.80878 980.06519 0 0 0
24.81758 981.64258 0 0 0
24.82638 986.01147 0 0 0
24.83518 991.27313 0 0 0
24.84398 1002.2632 0 0 0
24.85279 1011.8086 0 0 0
24.86159 1026.0615 0 0 0
24.87039 1033.5861 0 0 0
24.87919 1044.1417 0 0 0
24.88800 1046.7531 0 0 0
24.89680 1047.6185 0 0 0
24.90560 1045.5472 0 0 0
24.91440 1036.6228 0 0 0
24.92320 1030.4232 0 0 0
24.93201 1017.8995 0 0 0
24.94081 1013.0256 0 0 0
24.94961 1004.9401 0 0 0
24.95841 1002.2985 0 0 0
24.96721 996.77313 0 0 0
24.97602 995.2229 0 0 0
24.98482 990.92688 0 0 0
24.99362 989.5813 0 0 0
25.00242 986.56274 0 0 0
25.01122 982.6275 0 0 0
25.02003 976.81122 0 0 0
25.02883 970.69739 0 0 0
25.03763 967.72711 0 0 0
25.04643 965.20697 0 0 0
25.05523 965.64349 0 0 0
25.06404 964.7793 0 0 0
25.07284 966.79596 0 0 0
25.08164 968.19708 0 0 0
25.09044 971.46692 0 0 0
25.09924 972.16418 0 0 0
25.10805 973.19934 0 0 0
25.11685 973.52094 0 0 0
25.12565 972.46698 0 0 0
25.13445 971.68066 0 0 0
25.14325 972.10272 0 0 0
25.15206 975.72955 0 0 0
25.16086 979.66101 0 0 0
25.16966 985.59528 0 0 0
25.17846 992.95367 0 0 0
25.18727 1003.5505 0 0 0
25.19607 1017.5694 0 0 0
25.20487 1034.4706 0 0 0
25.21367 1052.2107 0 0 0
25.22247 1069.0176 0 0 0
25.23128 1082.7001 0 0 0
25.24008 1090.975 0 0 0
25.24888 1087.8545 0 0 0
25.25768 1074.8268 0 0 0
25.26648 1055.1283 0 0 0
25.27529 1033.7842 0 0 0
25.28409 1012.5721 0 0 0
25.29289 994.6933 0 0 0
25.30169 979.83734 0 0 0
25.31049 967.93042 0 0 0
25.31930 959.32941 0 0 0
25.32810 952.36322 0 0 0
25.33690 946.50458 0 0 0
25.34570 942.50537 0 0 0
25.35451 940.19391 0 0 0
25.36331 937.94019 0 0 0
25.37211 936.78955 0 0 0
25.38091 936.08514 0 0 0
25.38971 935.75867 0 0 0
25.39852 936.99512 0 0 0
25.40732 939.53992 0 0 0
25.41612 943.34106 0 0 0
25.42492 949.19946 0 0 0
25.43372 956.04138 0 0 0
25.44253 965.79822 0 0 0
25.45133 979.82068 0 0 0
25.46013 995.95746 0 0 0
25.46893 1015.8357 0 0 0
25.47774 1041.1864 0 0 0
25.48654 1078.7451 0 0 0
25.49534 1124.0889 0 0 0
25.50414 1166.5905 0 0 0
25.51294 1180.5988 0 0 0
25.52175 1157.7675 0 0 0
25.53055 1111.8795 0 0 0
25.53935 1063.4971 0 0 0
25.54815 1025.4041 0 0 0
25.55695 998.89148 0 0 0
25.56576 979.63263 0 0 0
25.57456 965.00623 0 0 0
25.58336 954.58075 0 0 0
25.59216 946.54565 0 0 0
25.60096 940.40759 0 0 0
25.60977 935.15332 0 0 0
25.61857 931.27411 0 0 0
25.62737 927.71344 0 0 0
25.63618 925.63739 0 0 0
25.64498 924.5163 0 0 0
25.65378 923.40881 0 0 0
25.66258 922.82672 0 0 0
25.67138 923.26556 0 0 0
25.68019 923.25745 0 0 0
25.68899 922.89642 0 0 0
25.69779 923.52917 0 0 0
25.70659 925.26746 0 0 0
25.71539 927.17175 0 0 0
25.72420 929.27649 0 0 0
25.73300 932.2489 0 0 0
25.74180 934.5849 0 0 0
25.75060 936.95032 0 0 0
25.75940 939.46906 0 0 0
25.76821 943.59216 0 0 0
25.77701 950.70197 0 0 0
25.78581 955.76825 0 0 0
25.79461 958.80353 0 0 0
25.80342 958.05145 0 0 0
25.81222 953.85651 0 0 0
25.82102 947.73962 0 0 0
25.82982 941.01715 0 0 0
25.83862 934.56494 0 0 0
25.84743 929.54626 0 0 0
25.85623 926.87311 0 0 0
25.86503 924.6651 0 0 0
25.87383 923.30505 0 0 0
25.88263 922.26208 0 0 0
25.89144 921.08319 0 0 0
25.90024 921.22595 0 0 0
25.90904 922.17548 0 0 0
25.91784 922.93292 0 0 0
25.92664 924.25433 0 0 0
25.93545 926.06696 0 0 0
25.94425 929.47443 0 0 0
25.95305 934.53485 0 0 0
25.96185 938.87653 0 0 0
25.97066 943.479 0 0 0
25.97946 946.56073 0 0 0
25.98826 946.96136 0 0 0
25.99706 944.90009 0 0 0
26.00586 940.99768 0 0 0
26.01467 936.27954 0 0 0
26.02347 932.31201 0 0 0
26.03227 929.23132 0 0 0
26.04107 927.65216 0 0 0
26.04987 927.15363 0 0 0
26.05868 926.66797 0 0 0
26.06748 927.69257 0 0 0
26.07628 928.98627 0 0 0
26.08508 931.19513 0 0 0
26.09388 932.84784 0 0 0
26.10269 931.89575 0 0 0
26.11149 929.70044 0 0 0
26.12029 927.10889 0 0 0
26.12909 924.87341 0 0 0
26.13790 923.6203 0 0 0
26.14670 922.72919 0 0 0
26.15550 920.84338 0 0 0
26.16430 919.32318 0 0 0
26.17310 919.38025 0 0 0
26.18191 918.94708 0 0 0
26.19071 918.17377 0 0 0
26.19951 917.39423 0 0 0
26.20831 916.25659 0 0 0
26.21711 915.12048 0 0 0
26.22592 914.0545 0 0 0
26.23472 913.77319 0 0 0
26.24352 913.49597 0 0 0
26.25232 912.79022 0 0 0
26.26113 911.8493 0 0 0
26.26993 910.89783 0 0 0
26.27873 910.0755 0 0 0
26.28753 909.56226 0 0 0
26.29633 909.32587 0 0 0
26.30514 908.5235 0 0 0
26.31394 907.68896 0 0 0
26.32274 907.44849 0 0 0
26.33154 907.80731 0 0 0
26.34034 906.40967 0 0 0
26.34915 905.53906 0 0 0
26.35795 905.7926 0 0 0
26.36675 904.06366 0 0 0
26.37555 901.77716 0 0 0
26.38435 900.73315 0 0 0
26.39316 900.43872 0 0 0
26.40196 900.11584 0 0 0
26.41076 899.36041 0 0 0
26.41956 898.60736 0 0 0
26.42837 898.76605 0 0 0
26.43717 898.89398 0 0 0
26.44597 898.76074 0 0 0
26.45477 898.55408 0 0 0
26.46357 899.03394 0 0 0
26.47238 900.65753 0 0 0
26.48118 902.3476 0 0 0
26.48998 904.50146 0 0 0
26.49878 906.71155 0 0 0
26.50758 907.83221 0 0 0
26.51639 907.18225 0 0 0
26.52519 905.55609 0 0 0
26.53399 904.44208 0 0 0
26.54279 902.6369 0 0 0
26.55159 900.42615 0 0 0
26.56040 898.86969 0 0 0
26.56920 898.88159 0 0 0
26.57800 898.57288 0 0 0
26.58680 897.50232 0 0 0
26.59561 897.18091 0 0 0
26.60441 897.22528 0 0 0
26.61321 897.49084 0 0 0
26.62201 898.51385 0 0 0
26.63081 899.1087 0 0 0
26.63962 899.23853 0 0 0
26.64842 900.35675 0 0 0
26.65722 901.98901 0 0 0
26.66602 904.15778 0 0 0
26.67482 907.13696 0 0 0
26.68363 909.16302 0 0 0
26.69243 911.28802 0 0 0
26.70123 914.82404 0 0 0
26.71003 917.87378 0 0 0
26.71884 920.08246 0 0 0
26.72764 922.1886 0 0 0
26.73644 925.8407 0 0 0
26.74524 930.79816 0 0 0
26.75404 934.54987 0 0 0
26.76285 936.45978 0 0 0
26.77165 936.36572 0 0 0
26.78045 933.99829 0 0 0
26.78925 930.68469 0 0 0
26.79805 926.65344 0 0 0
26.80686 921.97028 0 0 0
26.81566 917.85388 0 0 0
26.82446 914.41406 0 0 0
26.83326 912.38031 0 0 0
26.84206 911.36383 0 0 0
26.85087 910.54816 0 0 0
26.85967 909.96338 0 0 0
26.86847 909.64099 0 0 0
26.87727 909.6145 0 0 0
26.88608 909.91827 0 0 0
26.89488 909.96472 0 0 0
26.90368 910.48761 0 0 0
26.91248 911.70001 0 0 0
26.92128 911.57703 0 0 0
26.93009 911.38562 0 0 0
26.93889 911.58813 0 0 0
26.94769 910.55438 0 0 0
26.95649 909.57501 0 0 0
26.96529 909.25342 0 0 0
26.97410 909.18408 0 0 0
26.98290 908.63153 0 0 0
26.99170 908.47162 0 0 0
27.00050 908.69 0 0 0
27.00930 910.31464 0 0 0
27.01811 912.50256 0 0 0
27.02691 913.72009 0 0 0
27.03571 915.47089 0 0 0
27.04451 918.75592 0 0 0
27.05332 923.3775 0 0 0
27.06212 927.49139 0 0 0
27.07092 932.6615 0 0 0
27.07972 937.62109 0 0 0
27.08852 942.43585 0 0 0
27.09733 949.49225 0 0 0
27.10613 957.98779 0 0 0
27.11493 970.4389 0 0 0
27.12373 985.36578 0 0 0
27.13253 996.49677 0 0 0
27.14134 999.19586 0 0 0
27.15014 993.62842 0 0 0
27.15894 991.31146 0 0 0
27.16774 995.52625 0 0 0
27.17655 999.6817 0 0 0
27.18535 1001.7487 0 0 0
27.19415 999.16302 0 0 0
27.20295 989.79303 0 0 0
27.21175 975.4325 0 0 0
27.22056 960.54346 0 0 0
27.22936 948.12518 0 0 0
27.23816 937.37152 0 0 0
27.24696 928.55658 0 0 0
27.25576 921.66022 0 0 0
27.26457 916.17987 0 0 0
27.27337 911.37903 0 0 0
27.28217 907.41962 0 0 0
27.29097 905.89471 0 0 0
27.29977 904.26263 0 0 0
27.30858 901.91901 0 0 0
27.31738 901.18353 0 0 0
27.32618 901.88757 0 0 0
27.33498 901.6839 0 0 0
27.34379 900.14734 0 0 0
27.35259 899.75403 0 0 0
27.36139 899.58649 0 0 0
27.37019 898.7605 0 0 0
27.37899 898.65448 0 0 0
27.38780 899.46283 0 0 0
27.39660 899.98438 0 0 0
27.40540 901.18103 0 0 0
27.41420 901.15015 0 0 0
27.42300 900.64282 0 0 0
27.43181 901.88513 0 0 0
27.44061 902.29095 0 0 0
27.44941 902.0705 0 0 0
27.45821 902.71326 0 0 0
27.46701 903.88336 0 0 0
27.47582 904.39264 0 0 0
27.48462 903.29822 0 0 0
27.49342 901.79791 0 0 0
27.50222 901.91254 0 0 0
27.51103 902.28723 0 0 0
27.51983 902.86841 0 0 0
27.52863 902.42365 0 0 0
27.53743 902.04919 0 0 0
27.54623 902.84595 0 0 0
27.55504 903.64636 0 0 0
27.56384 903.9104 0 0 0
27.57264 904.60077 0 0 0
27.58144 906.08649 0 0 0
27.59024 907.39569 0 0 0
27.59905 908.99115 0 0 0
27.60785 910.29694 0 0 0
27.61665 912.10803 0 0 0
27.62545 914.22058 0 0 0
27.63426 915.55511 0 0 0
27.64306 917.04535 0 0 0
27.65186 918.62781 0 0 0
27.66066 920.42554 0 0 0
27.66946 922.05145 0 0 0
27.67827 925.24817 0 0 0
27.68707 929.15381 0 0 0
27.69587 931.48938 0 0 0
27.70467 934.54785 0 0 0
27.71347 937.49451 0 0 0
27.72228 940.18005 0 0 0
27.73108 943.698 0 0 0
27.73988 946.35632 0 0 0
27.74868 947.06433 0 0 0
27.75748 947.37256 0 0 0
27.76629 946.34039 0 0 0
27.77509 944.41797 0 0 0
27.78389 942.00171 0 0 0
27.79269 939.70178 0 0 0
27.80150 937.62006 0 0 0
27.81030 935.9223 0 0 0
27.81910 936.04901 0 0 0
27.82790 936.47449 0 0 0
27.83670 936.71136 0 0 0
27.84551 936.92816 0 0 0
27.85431 936.95679 0 0 0
27.86311 936.8147 0 0 0
27.87191 935.96375 0 0 0
27.88071 933.23083 0 0 0
27.88952 929.66406 0 0 0
27.89832 926.84772 0 0 0
27.90712 924.42535 0 0 0
27.91592 921.34448 0 0 0
27.92472 918.12073 0 0 0
27.93353 916.59314 0 0 0
27.94233 914.57587 0 0 0
27.95113 911.85632 0 0 0
27.95993 910.79694 0 0 0
27.96874 910.36304 0 0 0
27.97754 909.66766 0 0 0
27.98634 908.22076 0 0 0
27.99514 905.9165 0 0 0
28.00394 903.5108 0 0 0
28.01275 901.94525 0 0 0
28.02155 901.22717 0 0 0
28.03035 900.27686 0 0 0
28.03915 899.29926 0 0 0
28.04796 899.52478 0 0 0
28.05676 898.25067 0 0 0
28.06556 896.76666 0 0 0
28.07436 897.43353 0 0 0
28.08316 896.44409 0 0 0
28.09196 895.1142 0 0 0
28.10077 894.86731 0 0 0
28.10957 895.22504 0 0 0
28.11837 895.63812 0 0 0
28.12717 895.66235 0 0 0
28.13598 896.26288 0 0 0
28.14478 897.27686 0 0 0
28.15358 898.80511 0 0 0
28.16238 899.13934 0 0 0
28.17119 897.68658 0 0 0
28.17999 896.50824 0 0 0
28.18879 896.1051 0 0 0
28.19759 896.46942 0 0 0
28.20639 898.07111 0 0 0
28.21520 899.13611 0 0 0
28.22400 901.86865 0 0 0
28.23280 905.64233 0 0 0
28.24160 906.85382 0 0 0
28.25040 909.90674 0 0 0
28.25921 915.54572 0 0 0
28.26801 918.95239 0 0 0
28.27681 920.70184 0 0 0
28.28561 923.90363 0 0 0
28.29442 925.43506 0 0 0
28.30322 926.98401 0 0 0
28.31202 928.48383 0 0 0
28.32082 927.58978 0 0 0
28.32962 923.12061 0 0 0
28.33843 907.24017 0 0 0
28.34723 903.40698 0 0 0
28.35603 914.80029 0 0 0
28.36483 922.06116 0 0 0
28.37363 927.6582 0 0 0
28.38244 930.38794 0 0 0
28.39124 930.01709 0 0 0
28.40004 927.8432 0 0 0
28.40884 925.44873 0 0 0
28.41765 921.10449 0 0 0
28.42645 916.54218 0 0 0
28.43525 914.83533 0 0 0
28.44405 912.68011 0 0 0
28.45285 910.72522 0 0 0
28.46166 910.76373 0 0 0
28.47046 909.72076 0 0 0
28.47926 908.12262 0 0 0
28.48806 907.68018 0 0 0
28.49686 906.28406 0 0 0
28.50567 904.26483 0 0 0
28.51447 902.41113 0 0 0
28.52327 902.02606 0 0 0
28.53207 901.3371 0 0 0
28.54087 900.31183 0 0 0
28.54968 900.28827 0 0 0
28.55848 900.0592 0 0 0
28.56728 899.67163 0 0 0
28.57608 900.9798 0 0 0
28.58488 902.47833 0 0 0
28.59369 901.69543 0 0 0
28.60249 902.10834 0 0 0
28.61129 904.35889 0 0 0
28.62009 905.39764 0 0 0
28.62889 906.09937 0 0 0
28.63770 907.69202 0 0 0
28.64650 908.87598 0 0 0
28.65530 909.28418 0 0 0
28.66410 910.00293 0 0 0
28.67291 910.04138 0 0 0
28.68171 909.76953 0 0 0
28.69051 910.09332 0 0 0
28.69931 912.29041 0 0 0
28.70811 913.87451 0 0 0
28.71692 914.46869 0 0 0
28.72572 916.30115 0 0 0
28.73452 919.82043 0 0 0
28.74332 924.08069 0 0 0
28.75212 928.28888 0 0 0
28.76093 933.89929 0 0 0
28.76973 938.83374 0 0 0
28.77853 944.44043 0 0 0
28.78733 950.10107 0 0 0
28.79613 953.26257 0 0 0
28.80494 954.83588 0 0 0
28.81374 956.146 0 0 0
28.82254 957.72833 0 0 0
28.83134 959.74713 0 0 0
28.84014 959.20587 0 0 0
28.84895 956.77362 0 0 0
28.85775 954.36554 0 0 0
28.86655 950.29333 0 0 0
28.87535 946.16046 0 0 0
28.88416 942.74908 0 0 0
28.89296 940.07764 0 0 0
28.90176 937.41284 0 0 0
28.91056 933.64148 0 0 0
28.91936 929.2428 0 0 0
28.92817 924.87195 0 0 0
28.93697 920.97314 0 0 0
28.94577 917.07654 0 0 0
28.95457 914.37701 0 0 0
28.96337 913.07092 0 0 0
28.97218 912.14435 0 0 0
28.98098 912.65723 0 0 0
28.98978 912.3595 0 0 0
28.99858 910.07251 0 0 0
29.00738 907.35669 0 0 0
29.01619 906.39832 0 0 0
29.02499 905.72803 0 0 0
29.03379 904.78668 0 0 0
29.04259 903.5108 0 0 0
29.05140 901.59082 0 0 0
29.06020 902.17236 0 0 0
29.06900 902.34485 0 0 0
29.07780 901.0929 0 0 0
29.08660 901.15454 0 0 0
29.09541 902.13263 0 0 0
29.10421 901.92267 0 0 0
29.11301 902.11035 0 0 0
29.12181 903.31573 0 0 0
29.13061 903.24011 0 0 0
29.13942 904.28296 0 0 0
29.14822 907.02893 0 0 0
29.15702 908.41589 0 0 0
29.16583 907.38696 0 0 0
29.17463 905.92834 0 0 0
29.18343 905.00665 0 0 0
29.19223 903.85449 0 0 0
29.20103 903.10553 0 0 0
29.20984 902.48486 0 0 0
29.21864 901.07721 0 0 0
29.22744 899.84515 0 0 0
29.23624 899.01178 0 0 0
29.24504 898.92902 0 0 0
29.25384 899.59485 0 0 0
29.26265 900.26892 0 0 0
29.27145 901.79999 0 0 0
29.28025 902.15686 0 0 0
29.28906 902.80157 0 0 0
29.29785 905.25958 0 0 0
29.30666 908.49298 0 0 0
29.31546 911.45715 0 0 0
29.32426 913.65497 0 0 0
29.33307 916.51556 0 0 0
29.34187 920.64185 0 0 0
29.35067 926.78918 0 0 0
29.35947 936.81598 0 0 0
29.36827 952.76794 0 0 0
29.37708 971.8562 0 0 0
29.38588 982.04468 0 0 0
29.39468 983.41315 0 0 0
29.40348 980.00897 0 0 0
29.41228 967.90686 0 0 0
29.42109 949.96918 0 0 0
29.42989 935.18542 0 0 0
29.43869 923.86542 0 0 0
29.44749 915.69214 0 0 0
29.45630 910.68628 0 0 0
29.46510 908.39435 0 0 0
29.47390 906.59326 0 0 0
29.48270 905.21112 0 0 0
29.49150 905.33344 0 0 0
29.50031 905.43951 0 0 0
29.50911 906.32214 0 0 0
29.51791 908.91406 0 0 0
29.52671 913.49805 0 0 0
29.53551 917.77332 0 0 0
29.54432 922.53949 0 0 0
29.55312 925.54584 0 0 0
29.56192 925.21796 0 0 0
29.57072 923.9184 0 0 0
29.57952 922.83813 0 0 0
29.58833 920.8194 0 0 0
29.59713 915.33374 0 0 0
29.60593 911.77405 0 0 0
29.61473 910.72424 0 0 0
29.62354 909.33929 0 0 0
29.63234 908.42133 0 0 0
29.64114 907.82037 0 0 0
29.64994 907.67395 0 0 0
29.65874 907.50909 0 0 0
29.66755 906.55273 0 0 0
29.67635 905.75604 0 0 0
29.68515 902.34277 0 0 0
29.69395 899.10956 0 0 0
29.70275 896.89111 0 0 0
29.71156 895.26758 0 0 0
29.72036 894.60004 0 0 0
29.72916 893.0968 0 0 0
29.73796 892.88434 0 0 0
29.74676 892.42413 0 0 0
29.75557 892.32867 0 0 0
29.76437 892.55872 0 0 0
29.77317 890.91162 0 0 0
29.78197 891.78613 0 0 0
29.79078 892.98456 0 0 0
29.79958 891.90558 0 0 0
29.80838 892.6001 0 0 0
29.81718 894.06323 0 0 0
29.82598 895.10828 0 0 0
29.83479 895.72083 0 0 0
29.84359 894.8822 0 0 0
29.85239 894.63879 0 0 0
29.86119 895.41046 0 0 0
29.86999 895.73083 0 0 0
29.87880 896.73737 0 0 0
29.88760 897.42499 0 0 0
29.89640 898.05408 0 0 0
29.90520 898.62781 0 0 0
29.91400 900.63995 0 0 0
29.92281 901.49133 0 0 0
29.93161 902.09332 0 0 0
29.94041 901.88416 0 0 0
29.94921 902.36121 0 0 0
29.95801 904.68793 0 0 0
29.96682 904.35236 0 0 0
29.97562 904.33447 0 0 0
29.98442 904.13501 0 0 0
29.99322 905.11176 0 0 0
30.00203 906.02911 0 0 0
30.01083 905.5285 0 0 0
30.01963 905.68506 0 0 0
30.02843 906.25427 0 0 0
30.03723 908.03772 0 0 0
30.04604 906.4859 0 0 0
30.05484 903.87408 0 0 0
30.06364 906.44635 0 0 0
30.07244 911.89398 0 0 0
30.08124 918.72229 0 0 0
30.09005 929.58521 0 0 0
30.09885 947.88062 0 0 0
30.10765 964.38409 0 0 0
30.11645 966.59583 0 0 0
30.12526 957.66028 0 0 0
30.13406 946.00781 0 0 0
30.14286 932.95563 0 0 0
30.15166 922.44507 0 0 0
30.16046 917.83398 0 0 0
30.16927 912.77588 0 0 0
30.17807 907.30695 0 0 0
30.18687 903.69739 0 0 0
30.19567 903.61932 0 0 0
30.20447 903.61755 0 0 0
30.21328 900.63904 0 0 0
30.22208 898.16656 0 0 0
30.23088 895.85236 0 0 0
30.23968 895.37457 0 0 0
30.24849 895.56042 0 0 0
30.25729 893.4082 0 0 0
30.26609 893.45087 0 0 0
30.27489 894.29529 0 0 0
30.28369 893.36188 0 0 0
30.29250 893.00647 0 0 0
30.30130 892.09674 0 0 0
30.31010 891.54755 0 0 0
30.31890 892.91718 0 0 0
30.32770 893.63245 0 0 0
30.33651 892.76837 0 0 0
30.34531 891.59796 0 0 0
30.35411 890.88226 0 0 0
30.36291 891.66479 0 0 0
30.37172 893.80231 0 0 0
30.38052 894.40668 0 0 0
30.38932 893.56268 0 0 0
30.39812 893.46735 0 0 0
30.40692 894.56586 0 0 0
30.41573 894.25751 0 0 0
30.42453 892.46954 0 0 0
30.43333 892.42554 0 0 0
30.44213 895.03094 0 0 0
30.45093 896.16986 0 0 0
30.45974 897.67273 0 0 0
30.46854 897.94995 0 0 0
30.47734 898.62006 0 0 0
30.48614 899.05243 0 0 0
30.49494 898.94281 0 0 0
30.50375 899.8291 0 0 0
30.51255 899.72058 0 0 0
30.52135 898.4046 0 0 0
30.53015 899.0824 0 0 0
30.53896 898.51099 0 0 0
30.54776 896.81171 0 0 0
30.55656 898.25037 0 0 0
30.56536 901.05481 0 0 0
30.57416 900.05286 0 0 0
30.58297 900.08466 0 0 0
30.59177 903.4577 0 0 0
30.60057 906.98975 0 0 0
30.60937 907.34784 0 0 0
30.61817 906.85626 0 0 0
30.62698 907.73828 0 0 0
30.63578 908.95056 0 0 0
30.64458 911.44568 0 0 0
30.65338 914.61743 0 0 0
30.66218 918.53943 0 0 0
30.67099 924.53821 0 0 0
30.67979 932.35266 0 0 0
30.68859 934.0451 0 0 0
30.69739 936.034 0 0 0
30.70620 939.47748 0 0 0
30.71500 942.89545 0 0 0
30.72380 946.92859 0 0 0
30.73260 946.24707 0 0 0
30.74140 944.61523 0 0 0
30.75021 946.69025 0 0 0
30.75901 949.41449 0 0 0
30.76781 949.7605 0 0 0
30.77661 949.85297 0 0 0
30.78541 952.32001 0 0 0
30.79422 955.46844 0 0 0
30.80302 956.8924 0 0 0
30.81182 958.67511 0 0 0
30.82062 958.87872 0 0 0
30.82943 955.3894 0 0 0
30.83823 949.32709 0 0 0
30.84703 940.29022 0 0 0
30.85583 932.74677 0 0 0
30.86463 924.57983 0 0 0
30.87344 919.18927 0 0 0
30.88224 913.93976 0 0 0
30.89104 907.81726 0 0 0
30.89984 907.61884 0 0 0
30.90864 909.68274 0 0 0
30.91745 909.25684 0 0 0
30.92625 907.34412 0 0 0
30.93505 906.39801 0 0 0
30.94385 905.52966 0 0 0
30.95265 905.54584 0 0 0
30.96146 901.72412 0 0 0
30.97026 898.4328 0 0 0
30.97906 898.35199 0 0 0
30.98786 896.85675 0 0 0
30.99667 894.65674 0 0 0
31.00547 895.63068 0 0 0
31.01427 898.50433 0 0 0
31.02307 897.68317 0 0 0
31.03187 894.37048 0 0 0
31.04068 895.04907 0 0 0
31.04948 893.73193 0 0 0
31.05828 891.36902 0 0 0
31.06708 890.52979 0 0 0
31.07588 888.7475 0 0 0
31.08469 886.78619 0 0 0
31.09349 883.77979 0 0 0
31.10229 880.3407 0 0 0
31.11109 880.8811 0 0 0
31.11989 882.96838 0 0 0
31.12870 880.56842 0 0 0
31.13750 878.28302 0 0 0
31.14630 878.59949 0 0 0
31.15510 879.86688 0 0 0
31.16391 880.13898 0 0 0
31.17271 879.37164 0 0 0
31.18151 878.6463 0 0 0
31.19031 880.27631 0 0 0
31.19911 882.06409 0 0 0
31.20792 879.41229 0 0 0
31.21672 876.78149 0 0 0
31.22552 876.70459 0 0 0
31.23432 877.51782 0 0 0
31.24312 875.85504 0 0 0
31.25193 872.31482 0 0 0
31.26073 869.27173 0 0 0
31.26953 869.76733 0 0 0
31.27833 873.96759 0 0 0
31.28714 874.888 0 0 0
31.29594 872.95605 0 0 0
31.30474 872.45172 0 0 0
31.31354 869.11761 0 0 0
31.32234 869.76544 0 0 0
31.33115 871.00885 0 0 0
31.33995 873.27148 0 0 0
31.34875 874.84753 0 0 0
31.35755 868.52423 0 0 0
31.36635 867.72894 0 0 0
31.37516 870.79218 0 0 0
31.38396 871.29358 0 0 0
31.39276 870.31598 0 0 0
31.40156 869.62604 0 0 0
31.41036 868.52472 0 0 0
31.41917 867.77435 0 0 0
31.42797 867.37769 0 0 0
31.43677 868.03424 0 0 0
31.44557 867.80811 0 0 0
31.45438 869.01471 0 0 0
31.46318 870.39691 0 0 0
31.47198 867.83612 0 0 0
31.48078 867.65875 0 0 0
31.48958 869.67719 0 0 0
31.49839 868.75879 0 0 0
31.50719 868.72876 0 0 0
31.51599 868.47491 0 0 0
31.52479 869.09741 0 0 0
31.53359 870.12622 0 0 0
31.54240 872.38068 0 0 0
31.55120 876.20105 0 0 0
31.56000 878.50604 0 0 0
31.56880 877.6637 0 0 0
31.57760 877.4903 0 0 0
31.58641 882.31018 0 0 0
31.59521 884.12915 0 0 0
31.60401 886.70197 0 0 0
31.61281 887.43268 0 0 0
31.62162 887.98315 0 0 0
31.63042 892.00836 0 0 0
31.63922 894.46368 0 0 0
31.64802 893.61035 0 0 0
31.65682 889.94012 0 0 0
31.66563 888.00623 0 0 0
31.67443 889.3443 0 0 0
31.68323 888.05469 0 0 0
31.69203 886.01575 0 0 0
31.70083 888.94696 0 0 0
31.70964 889.67664 0 0 0
31.71844 891.14276 0 0 0
31.72724 900.48175 0 0 0
31.73604 905.02362 0 0 0
31.74485 909.64606 0 0 0
31.75365 914.86029 0 0 0
31.76245 910.25073 0 0 0
31.77125 906.49573 0 0 0
31.78005 901.00165 0 0 0
31.78886 892.77698 0 0 0
31.79766 891.02344 0 0 0
31.80646 891.81836 0 0 0
31.81526 891.28778 0 0 0
31.82406 891.8606 0 0 0
31.83287 894.62311 0 0 0
31.84167 901.05023 0 0 0
31.85047 910.85657 0 0 0
31.85927 919.50867 0 0 0
31.86807 926.93341 0 0 0
31.87688 932.92297 0 0 0
31.88568 926.38647 0 0 0
31.89448 916.87665 0 0 0
31.90328 907.85938 0 0 0
31.91209 897.39832 0 0 0
31.92089 890.32605 0 0 0
31.92969 883.20154 0 0 0
31.93849 879.84753 0 0 0
31.94729 877.02087 0 0 0
31.95610 872.7132 0 0 0
31.96490 870.08289 0 0 0
31.97370 869.6662 0 0 0
31.98250 871.91418 0 0 0
31.99130 871.50153 0 0 0
32.00011 869.85828 0 0 0
32.00891 865.03412 0 0 0
32.01771 859.80725 0 0 0
32.02651 861.42358 0 0 0
32.03532 859.80743 0 0 0
32.04412 858.36285 0 0 0
32.05292 856.40192 0 0 0
32.06172 853.34277 0 0 0
32.07052 855.47308 0 0 0
32.07933 855.86523 0 0 0
32.08813 849.73315 0 0 0
32.09693 849.24927 0 0 0
32.10573 853.00714 0 0 0
32.11454 852.5517 0 0 0
32.12334 847.5517 0 0 0
32.13214 843.67194 0 0 0
32.14094 842.3775 0 0 0
32.14974 844.23175 0 0 0
32.15855 845.49695 0 0 0
32.16735 842.18726 0 0 0
32.17615 845.54437 0 0 0
32.18495 844.86676 0 0 0
32.19375 841.59619 0 0 0
32.20256 842.57977 0 0 0
32.21136 842.94171 0 0 0
32.22016 838.22998 0 0 0
32.22896 838.58685 0 0 0
32.23776 848.36853 0 0 0
32.24657 844.78351 0 0 0
32.25537 837.81134 0 0 0
32.26417 838.63751 0 0 0
32.27297 835.638 0 0 0
32.28178 837.19934 0 0 0
32.29058 840.12427 0 0 0
32.29938 835.89252 0 0 0
32.30818 834.69257 0 0 0
32.31698 831.453 0 0 0
32.32579 835.22034 0 0 0
32.33459 838.13727 0 0 0
32.34339 833.45782 0 0 0
32.35219 834.85303 0 0 0
32.36099 839.81427 0 0 0
32.36980 841.30634 0 0 0
32.37860 834.37518 0 0 0
32.38740 826.37878 0 0 0
32.39620 830.14221 0 0 0
32.40500 834.89716 0 0 0
32.41381 845.12335 0 0 0
32.42261 851.84668 0 0 0
32.43141 849.0459 0 0 0
32.44021 845.45367 0 0 0
32.44902 848.3877 0 0 0
32.45782 849.3252 0 0 0
32.46662 847.09473 0 0 0
32.47542 848.6037 0 0 0
32.48422 847.79175 0 0 0
32.49303 832.32593 0 0 0
32.50183 823.35468 0 0 0
32.51063 828.32587 0 0 0
32.51943 835.66296 0 0 0
32.52823 831.23169 0 0 0
32.53704 842.10065 0 0 0
32.54584 841.94006 0 0 0
32.55464 827.763 0 0 0
32.56344 818.59845 0 0 0
32.57225 812.72473 0 0 0
32.58105 804.04645 0 0 0
32.58985 797.56085 0 0 0
32.59865 791.19806 0 0 0
32.60745 795.18335 0 0 0
32.61626 800.27155 0 0 0
32.62506 798.06335 0 0 0
32.63386 803.16168 0 0 0
32.64266 796.67334 0 0 0
32.65146 791.41528 0 0 0
32.66027 798.9043 0 0 0
32.66907 790.06537 0 0 0
32.67787 777.18457 0 0 0
32.68667 773.71844 0 0 0
32.69547 755.69244 0 0 0
32.70428 749.70056 0 0 0
32.71308 749.22223 0 0 0
32.72188 733.90649 0 0 0
32.73068 721.77417 0 0 0
32.73949 717.79321 0 0 0
32.74829 715.6994 0 0 0
32.75709 701.599 0 0 0
32.76589 680.57831 0 0 0
32.77469 668.93689 0 0 0
32.78350 648.28735 0 0 0
32.79230 630.31879 0 0 0
32.80110 607.3952 0 0 0
32.80990 565.60181 0 0 0
32.81870 514.73114 0 0 0
32.82751 404.35999 0 0 0
32.83631 255.3517 0 0 0
32.84511 180.34412 0 0 0
32.85391 193.82797 0 0 0
32.86271 199.06972 0 0 0
32.87152 194.63728 0 0 0
32.88032 194.16425 0 0 0
32.88912 193.29416 0 0 0
32.89792 188.35138 0 0 0
32.90673 190.0676 0 0 0
32.91553 199.11516 0 0 0
32.92433 204.79367 0 0 0
32.93313 206.78281 0 0 0
32.94193 199.72041 0 0 0
32.95074 196.85716 0 0 0
32.95954 194.21022 0 0 0
32.96834 190.76643 0 0 0
32.97714 191.54347 0 0 0
32.98594 195.31609 0 0 0
32.99475 206.29623 0 0 0
33.00355 211.23622 0 0 0
33.01235 209.72643 0 0 0
33.02115 208.33501 0 0 0
33.02996 200.57239 0 0 0
33.03876 192.64348 0 0 0
33.04756 186.39661 0 0 0
33.05636 180.09615 0 0 0
33.06516 178.26085 0 0 0
33.07397 174.62338 0 0 0
33.08277 179.93675 0 0 0
33.09157 190.09158 0 0 0
33.10037 190.73599 0 0 0
33.10917 187.31744 0 0 0
33.11798 185.92239 0 0 0
33.12678 179.40451 0 0 0
33.13558 178.60664 0 0 0
33.14438 178.09473 0 0 0
33.15318 180.22632 0 0 0
33.16199 192.3167 0 0 0
33.17079 196.03487 0 0 0
33.17959 185.71336 0 0 0
33.18839 177.37781 0 0 0
33.19720 175.31221 0 0 0
33.20600 182.77463 0 0 0
33.21480 189.71965 0 0 0
33.22360 197.94803 0 0 0
33.23240 206.32433 0 0 0
33.24121 194.77634 0 0 0
33.25001 187.47476 0 0 0
33.25881 194.99188 0 0 0
33.26761 209.24583 0 0 0
33.27641 209.8961 0 0 0
33.28522 200.58601 0 0 0
33.29402 203.41409 0 0 0
33.30282 204.51677 0 0 0
33.31162 198.65907 0 0 0
33.32042 196.23512 0 0 0
33.32923 197.56725 0 0 0
33.33803 192.98198 0 0 0
33.34683 190.50171 0 0 0
33.35563 191.12936 0 0 0
33.36444 186.78056 0 0 0
33.37324 179.81932 0 0 0
33.38204 181.33882 0 0 0
33.39084 197.60098 0 0 0
33.39964 201.37881 0 0 0
33.40845 188.17862 0 0 0
33.41725 177.65666 0 0 0
33.42605 178.16243 0 0 0
33.43485 191.4052 0 0 0
33.44365 206.74551 0 0 0
33.45246 205.58549 0 0 0
33.46126 188.61488 0 0 0
33.47006 174.65402 0 0 0
33.47886 178.80777 0 0 0
33.48766 181.98099 0 0 0
33.49647 185.23526 0 0 0
33.50527 191.4133 0 0 0
33.51407 202.72023 0 0 0
33.52287 200.43845 0 0 0
33.53168 195.67857 0 0 0
33.54048 195.9381 0 0 0
33.54928 201.62988 0 0 0
33.55808 201.16354 0 0 0
33.56688 189.25783 0 0 0
33.57569 185.02327 0 0 0
33.58449 189.7247 0 0 0
33.59329 197.91017 0 0 0
33.60209 200.21811 0 0 0
33.61089 203.64636 0 0 0
33.61970 207.37778 0 0 0
33.62850 207.08028 0 0 0
33.63730 206.43526 0 0 0
33.64610 216.629 0 0 0
33.65491 222.90099 0 0 0
33.66371 213.43568 0 0 0
33.67251 200.47888 0 0 0
33.68131 189.31226 0 0 0
33.69011 188.09996 0 0 0
33.69892 194.13449 0 0 0
33.70772 191.18904 0 0 0
33.71652 185.73462 0 0 0
33.72532 187.05804 0 0 0
33.73412 193.95503 0 0 0
33.74293 209.27826 0 0 0
33.75173 217.28299 0 0 0
33.76053 214.9043 0 0 0
33.76933 207.70734 0 0 0
33.77813 213.16019 0 0 0
33.78694 216.51805 0 0 0
33.79574 217.14507 0 0 0
33.80454 215.62955 0 0 0
33.81334 200.70099 0 0 0
33.82215 199.17194 0 0 0
33.83095 200.98653 0 0 0
33.83975 192.12828 0 0 0
33.84855 186.04652 0 0 0
33.85735 192.29912 0 0 0
33.86616 197.36069 0 0 0
33.87496 192.77786 0 0 0
33.88376 184.07672 0 0 0
33.89256 179.1068 0 0 0
33.90136 181.44847 0 0 0
33.91017 184.84555 0 0 0
33.91897 190.61649 0 0 0
33.92777 187.89432 0 0 0
33.93657 186.1459 0 0 0
33.94537 196.71346 0 0 0
33.95418 219.88226 0 0 0
33.96298 235.2683 0 0 0
33.97178 232.89232 0 0 0
33.98058 214.57162 0 0 0
33.98939 198.29994 0 0 0
33.99819 192.58415 0 0 0
34.00699 193.10654 0 0 0
34.01579 191.82834 0 0 0
34.02459 188.82555 0 0 0
34.03340 191.18129 0 0 0
34.04220 194.65854 0 0 0
34.05100 192.1899 0 0 0
34.05980 184.26202 0 0 0
34.06860 184.75313 0 0 0
34.07741 189.72658 0 0 0
34.08621 195.52193 0 0 0
34.09501 202.09258 0 0 0
34.10381 208.31975 0 0 0
34.11262 200.69208 0 0 0
34.12142 198.75293 0 0 0
34.13022 205.98398 0 0 0
34.13902 212.92979 0 0 0
34.14782 209.82584 0 0 0
34.15663 216.24896 0 0 0
34.16543 223.86574 0 0 0
34.17423 216.72589 0 0 0
34.18303 210.29659 0 0 0
34.19183 208.64774 0 0 0
34.20064 205.87668 0 0 0
34.20944 206.01738 0 0 0
34.21824 208.76073 0 0 0
34.22704 215.30975 0 0 0
34.23584 220.26549 0 0 0
34.24465 219.66844 0 0 0
34.25345 210.07269 0 0 0
34.26225 201.4525 0 0 0
34.27105 197.47652 0 0 0
34.27986 193.54979 0 0 0
34.28866 196.99593 0 0 0
34.29746 199.60143 0 0 0
34.30626 206.09831 0 0 0
34.31506 210.8784 0 0 0
34.32387 213.12354 0 0 0
34.33267 208.61415 0 0 0
34.34147 201.1747 0 0 0
34.35027 195.56096 0 0 0
34.35907 200.29477 0 0 0
34.36788 205.89812 0 0 0
34.37668 207.92461 0 0 0
34.38548 203.48642 0 0 0
34.39428 198.01422 0 0 0
34.40308 196.43085 0 0 0
34.41189 198.11072 0 0 0
34.42069 205.59393 0 0 0
34.42949 201.61581 0 0 0
34.43829 193.42157 0 0 0
34.44710 193.24892 0 0 0
34.45590 205.51917 0 0 0
34.46470 201.07846 0 0 0
34.47350 200.50363 0 0 0
34.48230 198.75652 0 0 0
34.49111 195.26862 0 0 0
34.49991 194.50514 0 0 0
34.50871 196.37338 0 0 0
34.51751 193.33823 0 0 0
34.52631 191.6992 0 0 0
34.53512 193.57404 0 0 0
34.54392 204.79427 0 0 0
34.55272 211.38161 0 0 0
34.56152 213.20715 0 0 0
34.57033 215.28252 0 0 0
34.57913 213.12228 0 0 0
34.58793 199.82918 0 0 0
34.59673 192.21178 0 0 0
34.60553 199.22937 0 0 0
34.61434 200.25269 0 0 0
34.62314 202.32487 0 0 0
34.63194 199.47891 0 0 0
34.64074 197.73679 0 0 0
34.64954 202.18149 0 0 0
34.65835 209.14265 0 0 0
34.66715 215.06604 0 0 0
34.67595 216.42592 0 0 0
34.68475 226.52576 0 0 0
34.69355 220.13721 0 0 0
34.70236 216.68599 0 0 0
34.71116 219.27774 0 0 0
34.71996 221.1003 0 0 0
34.72876 213.19597 0 0 0
34.73757 211.75209 0 0 0
34.74637 211.97963 0 0 0
34.75517 212.06721 0 0 0
34.76397 212.37788 0 0 0
34.77277 192.99704 0 0 0
34.78158 201.81514 0 0 0
34.79038 224.69511 0 0 0
34.79918 234.62692 0 0 0
34.80798 219.94838 0 0 0
34.81678 206.11282 0 0 0
34.82559 202.38014 0 0 0
34.83439 203.45311 0 0 0
34.84319 217.65799 0 0 0
34.85199 229.47359 0 0 0
34.86079 220.77924 0 0 0
34.86960 214.70055 0 0 0
34.87840 215.84871 0 0 0
34.88720 207.48346 0 0 0
34.89600 198.26012 0 0 0
34.90481 209.38188 0 0 0
34.91361 221.45175 0 0 0
34.92241 219.41377 0 0 0
34.93121 200.76939 0 0 0
34.94001 186.23286 0 0 0
34.94882 191.35057 0 0 0
34.95762 204.7468 0 0 0
34.96642 211.39467 0 0 0
34.97522 208.37848 0 0 0
34.98402 210.68422 0 0 0
34.99283 211.15353 0 0 0
35.00163 207.44913 0 0 0
35.01043 200.77229 0 0 0
35.01923 197.94839 0 0 0
35.02804 199.61237 0 0 0
35.03684 203.36011 0 0 0
35.04564 207.34138 0 0 0
35.05444 203.60095 0 0 0
35.06324 206.01622 0 0 0
35.07205 207.13951 0 0 0
35.08085 207.36482 0 0 0
35.08965 209.82947 0 0 0
35.09845 212.16348 0 0 0
35.10725 212.31084 0 0 0
35.11606 215.99141 0 0 0
35.12486 218.55672 0 0 0
35.13366 215.35765 0 0 0
35.14246 215.17902 0 0 0
35.15126 211.89168 0 0 0
35.16007 210.57915 0 0 0
35.16887 216.60541 0 0 0
35.17767 221.53461 0 0 0
35.18647 218.5257 0 0 0
35.19528 216.29338 0 0 0
35.20408 221.14206 0 0 0
loop_
_gsas_i100_meas
0.12
15.66
3.60
3.25
4.55
0.55
9.02
9.86
5.99
100.00
13.20
0.06
12.61
0.40
6.33
38.98
0.02
16.35
3.93
6.31
2.32
0.38
2.18
-1.40
2.69
25.93
9.41
19.87
0.85
-0.14
-0.16
3.36
0.01
2.33
1.33
-0.77
0.30
0.78
6.08
9.30
8.77
1.43
1.61
-0.05
0.05
0.35
0.49
0.26
16.63
0.62
5.30
2.48
1.22
0.03
2.40
1.54
0.18
4.73
3.33
0.40
0.00
11.77
25.52
0.04
1.48
-1.17
1.54
2.52
-0.75
0.90
0.70
0.01
2.15
2.08
-0.02
1.87
1.26
2.33
0.28
2.93
1.33
-0.67
-0.01
0.94
0.00
1.58
2.55
23.44
-0.00
0.63
1.42
0.84
0.84
0.04
0.00
0.57
0.15
0.71
7.37
2.02
0.04
1.62
0.74
0.05
0.16
3.75
0.11
0.03
0.27
0.56
-0.06
0.75
0.11
0.23
0.10
0.28
-0.02
0.00
0.04
0.08
0.84
0.47
0.06
2.28
0.01
5.45
-0.12
6.25
5.06
0.98
0.12
0.07
0.08
2.05
0.09
1.40
-0.00
0.90
0.68
0.09
0.10
0.54
1.16
0.02
8.56
-0.24
0.20
3.98
0.14
1.09
7.24
0.01
0.21
0.24
-0.60
0.03
-0.12
1.65
0.32
4.36
0.00
0.11
1.69
0.06
2.00
0.40
1.36
0.54
0.08
0.00
1.28
0.02
0.33
0.09
1.57
0.22
1.22
0.00
0.69
0.33
0.02
0.00
