#------------------------------------------------------------------------------
#$Date: 2021-02-05 01:04:31 +0200 (Fri, 05 Feb 2021) $
#$Revision: 261628 $
#$URL: file:///home/coder/svn-repositories/cod/cif/7/24/18/7241844.cif $
#------------------------------------------------------------------------------
#
# This file is available in the Crystallography Open Database (COD),
# http://www.crystallography.net/
#
# All data on this site have been placed in the public domain by the
# contributors.
#
data_7241844
loop_
_publ_author_name
'Gu\'nka, Piotr A.'
'Hanfland, Michael'
'Chen, Yu-Sheng'
'Zachara, Janusz'
_publ_section_title
;
 High-pressure and low-temperature structural study of claudetite I, a
 monoclinic layered As2O3 polymorph
;
_journal_issue                   3
_journal_name_full               CrystEngComm
_journal_page_first              638
_journal_page_last               644
_journal_paper_doi               10.1039/D0CE01401J
_journal_volume                  23
_journal_year                    2021
_chemical_formula_moiety         'As2 O3'
_chemical_formula_sum            'As2 O3'
_chemical_formula_weight         197.84
_chemical_name_common            'claudetite I'
_chemical_name_systematic
;
arsenic(III) oxide
;
_space_group_IT_number           14
_space_group_name_Hall           '-P 2yn'
_space_group_name_H-M_alt        'P 1 21/n 1'
_symmetry_cell_setting           monoclinic
_symmetry_space_group_name_H-M   'P 1 21/n 1'
_audit_creation_date             2020-10-21T15:05
_audit_creation_method           'created in GSAS-II'
_audit_update_record
;
2020-10-22 deposited with the CCDC.	2020-12-10 downloaded from the CCDC.
;
_cell_angle_alpha                90
_cell_angle_beta                 94.6883(26)
_cell_angle_gamma                90
_cell_formula_units_Z            4
_cell_length_a                   4.8132(4)
_cell_length_b                   11.9681(6)
_cell_length_c                   4.23271(23)
_cell_measurement_pressure       1.184e7(19)
_cell_measurement_temperature    293
_cell_volume                     243.01(3)
_computing_data_reduction        Fit2D
_computing_structure_refinement
'GSAS-II (Toby & Von Dreele, J. Appl. Cryst. 46, 544-549, 2013)'
_diffrn_ambient_pressure         1.184e7(19)
_diffrn_ambient_temperature      293
_diffrn_detector                 'Mar555 flat panel'
_diffrn_detector_type            'Mar555 flat panel'
_diffrn_measurement_device_type  'ESRF ID09A beamline'
_diffrn_radiation_monochromator  Si
_diffrn_radiation_polarisn_ratio 0.9900
_diffrn_radiation_probe          x-ray
_diffrn_radiation_wavelength     0.41421
_diffrn_source                   'ESRF ID09A'
_diffrn_source_type              synchrotron
_exptl_crystal_colour            colourless
_exptl_crystal_density_diffrn    5.4075
_exptl_crystal_description       'white powder'
_pd_block_id                     2020-10-21T15:05|clau1_027rietveld||id09a
_pd_calc_method                  'Rietveld Refinement'
_pd_meas_number_of_points        4000
_pd_phase_name                   claudetiteI
_pd_prep_pressure                100.0(1)
_pd_prep_temperature             293
_pd_proc_info_datetime           2020-10-21T15:05
_pd_proc_ls_background_function
;
Background function: "chebyschev" function with 30 terms:
    757.3(8), 437(3), -924(13), 2495(21), 6.047(6)e4, -1.4151(3)e5, 
    -1.51597(6)e6, 2.963162(18)e6, 1.987431(5)e7, -3.5144462(17)e7, 
    -1.55538675(18)e8, 2.59326041(28)e8, 7.8418561(6)e8, -1.257007300(26)e9, 
    -2.67325090(6)e9, 4.158728834(14)e9, 6.33987878(3)e9, -9.619850238(13)e9, 
    -1.0591081327(19)e10, 1.5721493143(24)e10, 1.242747235(6)e10, 
    -1.808398084(3)e10, -1.003039573(8)e10, 1.4330851165(30)e10, 
    5.30458867(6)e9, -7.451055668(17)e9, -1.655409655(10)e9, 
    2.288653008(13)e9, 2.3113289(11)e8, -3.1483797(5)e8, 
;
_pd_proc_ls_pref_orient_corr
;
Simple spherical harmonic correction Order = 6
    Coefficients:  0:0:C(6,6) = -0.022(23); 0:0:C(4,4) = 0.133(23); 
    0:0:C(6,-2) = -0.143(30); 0:0:C(2,-2) = 0.050(14); 0:0:C(4,-4) = -0.152(20); 
    0:0:C(2,2) = 0.561(16); 0:0:C(4,0) = -0.319(17); 0:0:C(6,-6) = -0.125(29); 
    0:0:C(6,4) = -0.027(26); 0:0:C(4,2) = -0.261(22); 0:0:C(6,2) = -0.213(28); 
    0:0:C(6,-4) = 0.155(22); 0:0:C(6,0) = -0.029(24); 0:0:C(2,0) = -0.411(15); 
    0:0:C(4,-2) = -0.195(20); 
;
_pd_proc_ls_profile_function
;
Finger-Cox-Jephcoat function parameters U, V, W, X, Y, SH/L:
  peak variance(Gauss) = Utan(Th)^2^+Vtan(Th)+W:
  peak HW(Lorentz) = X/cos(Th)+Ytan(Th); SH/L = S/L+H/L
  U, V, W in (centideg)^2^, X & Y in centideg
    5.92(32)e3, -9.9(5)e2, 43.6(21), 1.63(28), 10(7), 0.002, 
  Crystallite size in microns with "isotropic" model:
  parameters: Size, G/L mix
    1.000, 1.000, 
  Microstrain, "isotropic" model (10^6^ * delta Q/Q)
    parameters: Mustrain, G/L mix
    1000.000, 1.000, 

;
_pd_proc_ls_prof_R_factor        0.00778
_pd_proc_ls_prof_wR_expected     0.03584
_pd_proc_ls_prof_wR_factor       0.01282
_refine_ls_goodness_of_fit_all   0.364
_refine_ls_matrix_type           full
_refine_ls_number_parameters     72
_refine_ls_R_Fsqd_factor         0.04996
_refine_ls_shift/su_max          0.0018
_refine_ls_wR_factor_obs         0.01284
_reflns_d_resolution_high        1.061
_reflns_d_resolution_low         5.984
_reflns_limit_h_max              4
_reflns_limit_h_min              0
_reflns_limit_k_max              11
_reflns_limit_k_min              0
_reflns_limit_l_max              3
_reflns_limit_l_min              -3
_reflns_number_total             211
_cod_data_source_file            d0ce01401j3.cif
_cod_data_source_block           clau1_027rietveld
_cod_depositor_comments
'Adding full bibliography for 7241824--7241862.cif.'
_cod_original_cell_volume        243.011(13)
_cod_database_code               7241844
_refine_ls_r_f_factor            0.02898
_gsas_proc_ls_prof_r_b_factor    0.01511
_gsas_proc_ls_prof_wr_b_factor   0.02650
loop_
_space_group_symop_id
_space_group_symop_operation_xyz
1 x,y,z
2 1/2-x,1/2+y,1/2-z
3 -x,-y,-z
4 1/2+x,1/2-y,1/2+z
loop_
_atom_site_label
_atom_site_type_symbol
_atom_site_fract_x
_atom_site_fract_y
_atom_site_fract_z
_atom_site_occupancy
_atom_site_adp_type
_atom_site_U_iso_or_equiv
_atom_site_symmetry_multiplicity
As1 As 0.2774(8) 0.08967(29) 0.0646(6) 1.000 Uiso 0.0132(15) 4
As2 As 0.3342(6) 0.35738(31) 0.0212(6) 1.000 Uiso 0.0132 4
O3 O 0.4432(26) 0.2206(4) 0.132(5) 1.000 Uiso 0.0132 4
O4 O 0.6701(17) 0.4064(13) 0.1540(12) 1.000 Uiso 0.0132 4
O5 O -0.0690(18) 0.1245(20) 0.1315(13) 1.000 Uiso 0.0132 4
loop_
_atom_type_symbol
_atom_type_number_in_cell
_atom_type_scat_Cromer_Mann_a1
_atom_type_scat_Cromer_Mann_a2
_atom_type_scat_Cromer_Mann_a3
_atom_type_scat_Cromer_Mann_a4
_atom_type_scat_Cromer_Mann_b1
_atom_type_scat_Cromer_Mann_b2
_atom_type_scat_Cromer_Mann_b3
_atom_type_scat_Cromer_Mann_b4
_atom_type_scat_Cromer_Mann_c
_atom_type_scat_length_neutron
_atom_type_scat_source
_atom_type_scat_dispersion_real
_atom_type_scat_dispersion_imag
_atom_type_scat_dispersion_source
As 8 16.6723 6.0701 3.4313 4.2779 2.6345 0.2647 12.9479 47.7972 2.531 0.658
https://subversion.xray.aps.anl.gov/pyGSAS/trunk/atmdata.py 0.283 0.775
https://subversion.xray.aps.anl.gov/pyGSAS/trunk/atmdata.py
O 12 3.0485 2.2868 1.5463 0.867 13.2771 5.7011 0.3239 32.9089 0.2508 0.5805
https://subversion.xray.aps.anl.gov/pyGSAS/trunk/atmdata.py 0.002 0.002
https://subversion.xray.aps.anl.gov/pyGSAS/trunk/atmdata.py
loop_
_geom_angle_atom_site_label_1
_geom_angle_atom_site_label_2
_geom_angle_atom_site_label_3
_geom_angle
_geom_angle_site_symmetry_1
_geom_angle_site_symmetry_2
_geom_angle_site_symmetry_3
_geom_angle_publ_flag
O3 As1 O4 103.0(8) 1_555 1_555 4_454 yes
O3 As1 O5 100.6(9) 1_555 1_555 1_555 yes
O4 As1 O5 87.0(3) 4_454 1_555 1_555 yes
O3 As2 O4 88.8(6) 1_555 1_555 1_555 yes
O3 As2 O5 105.4(13) 1_555 1_555 4_554 yes
O4 As2 O5 87.2(3) 1_555 1_555 4_554 yes
As1 O3 As2 131.0(5) 1_555 1_555 1_555 yes
As1 O4 As2 120.4(4) 4_555 1_555 1_555 yes
As1 O5 As2 120.3(4) 1_555 1_555 4_455 yes
loop_
_geom_bond_atom_site_label_1
_geom_bond_atom_site_label_2
_geom_bond_distance
_geom_bond_site_symmetry_1
_geom_bond_site_symmetry_2
_geom_bond_publ_flag
As1 O3 1.771(4) 1_555 1_555 yes
As1 O4 1.773(4) 1_555 4_454 yes
As1 O5 1.764(4) 1_555 1_555 yes
As2 O3 1.769(4) 1_555 1_555 yes
As2 O4 1.768(4) 1_555 1_555 yes
As2 O5 1.764(3) 1_555 4_554 yes
loop_
_pd_meas_2theta_scan
_pd_meas_intensity_total
_pd_calc_intensity_total
_pd_proc_intensity_bkg_calc
_pd_proc_ls_weight
0.00440 103.25751 0 0 0
0.01321 102.28456 0 0 0
0.02202 103.04376 0 0 0
0.03083 104.61001 0 0 0
0.03963 107.46778 0 0 0
0.04844 107.33276 0 0 0
0.05725 106.83067 0 0 0
0.06605 104.47218 0 0 0
0.07486 103.87454 0 0 0
0.08367 104.07042 0 0 0
0.09248 107.67664 0 0 0
0.10128 107.97104 0 0 0
0.11009 107.52776 0 0 0
0.11890 107.38968 0 0 0
0.12770 108.15184 0 0 0
0.13651 107.63982 0 0 0
0.14532 105.63305 0 0 0
0.15413 105.54679 0 0 0
0.16293 107.08823 0 0 0
0.17174 106.32034 0 0 0
0.18055 104.55627 0 0 0
0.18935 105.25639 0 0 0
0.19816 107.38245 0 0 0
0.20697 107.66943 0 0 0
0.21578 106.0635 0 0 0
0.22458 105.86882 0 0 0
0.23339 105.44197 0 0 0
0.24220 105.73789 0 0 0
0.25100 105.78696 0 0 0
0.25981 106.6093 0 0 0
0.26862 107.86678 0 0 0
0.27743 109.78008 0 0 0
0.28623 109.34679 0 0 0
0.29504 108.70036 0 0 0
0.30385 108.51204 0 0 0
0.31265 109.48978 0 0 0
0.32146 110.99658 0 0 0
0.33027 110.71258 0 0 0
0.33908 109.79755 0 0 0
0.34788 109.45529 0 0 0
0.35669 109.56208 0 0 0
0.36550 110.20644 0 0 0
0.37430 109.36295 0 0 0
0.38311 109.63167 0 0 0
0.39192 109.81776 0 0 0
0.40073 109.7919 0 0 0
0.40953 110.57158 0 0 0
0.41834 111.16167 0 0 0
0.42715 111.48033 0 0 0
0.43595 110.63615 0 0 0
0.44476 109.94481 0 0 0
0.45357 110.09104 0 0 0
0.46238 110.25334 0 0 0
0.47118 110.46773 0 0 0
0.47999 110.62341 0 0 0
0.48880 110.1347 0 0 0
0.49760 108.91467 0 0 0
0.50641 108.44211 0 0 0
0.51522 108.06131 0 0 0
0.52403 108.97404 0 0 0
0.53283 109.56189 0 0 0
0.54164 110.5862 0 0 0
0.55045 110.69359 0 0 0
0.55926 111.81046 0 0 0
0.56806 111.32826 0 0 0
0.57687 110.76145 0 0 0
0.58568 110.87108 0 0 0
0.59448 110.93934 0 0 0
0.60329 111.08036 0 0 0
0.61210 110.4327 0 0 0
0.62091 110.36536 0 0 0
0.62971 110.2319 0 0 0
0.63852 111.36856 0 0 0
0.64733 111.12677 0 0 0
0.65613 110.2448 0 0 0
0.66494 109.70839 0 0 0
0.67375 110.81445 0 0 0
0.68256 111.0239 0 0 0
0.69136 110.55878 0 0 0
0.70017 110.47836 0 0 0
0.70898 111.85857 0 0 0
0.71778 112.24808 0 0 0
0.72659 112.06478 0 0 0
0.73540 110.85984 0 0 0
0.74421 110.53892 0 0 0
0.75301 110.09089 0 0 0
0.76182 110.25092 0 0 0
0.77063 111.44897 0 0 0
0.77943 113.15509 0 0 0
0.78824 113.2307 0 0 0
0.79705 112.26369 0 0 0
0.80586 111.54126 0 0 0
0.81466 112.26803 0 0 0
0.82347 112.29743 0 0 0
0.83228 113.69966 0 0 0
0.84108 114.28371 0 0 0
0.84989 114.58829 0 0 0
0.85870 113.31747 0 0 0
0.86751 112.67747 0 0 0
0.87631 113.72259 0 0 0
0.88512 115.33119 0 0 0
0.89393 116.98262 0 0 0
0.90273 118.63271 0 0 0
0.91154 120.44866 0 0 0
0.92035 120.91088 0 0 0
0.92916 122.02781 0 0 0
0.93796 122.56741 0 0 0
0.94677 124.8516 0 0 0
0.95558 126.64626 0 0 0
0.96438 129.17378 0 0 0
0.97319 130.28075 0 0 0
0.98200 132.58113 0 0 0
0.99081 135.88786 0 0 0
0.99961 139.76718 0 0 0
1.00842 143.18291 0 0 0
1.01723 145.39932 0 0 0
1.02604 146.8894 0 0 0
1.03484 154.03857 0 0 0
1.04365 163.49516 0 0 0
1.05246 172.45256 0 0 0
1.06126 180.01846 0 0 0
1.07007 190.89146 0 0 0
1.07888 194.37753 0 0 0
1.08769 197.18446 0 0 0
1.09649 203.45024 0 0 0
1.10530 210.35477 0 0 0
1.11411 215.97935 0 0 0
1.12291 221.59196 0 0 0
1.13172 228.1507 0 0 0
1.14053 232.686 0 0 0
1.14934 235.81601 0 0 0
1.15814 237.47995 0 0 0
1.16695 238.82237 0 0 0
1.17576 240.21658 0 0 0
1.18456 242.41074 0 0 0
1.19337 244.56934 0 0 0
1.20218 246.9158 0 0 0
1.21099 248.51933 0 0 0
1.21979 251.13104 0 0 0
1.22860 252.92458 0 0 0
1.23741 255.75458 0 0 0
1.24621 257.92456 0 0 0
1.25502 260.04944 0 0 0
1.26383 261.54324 0 0 0
1.27264 262.76538 0 0 0
1.28144 265.32254 0 0 0
1.29025 266.69379 0 0 0
1.29906 267.98752 0 0 0
1.30786 269.71976 0 0 0
1.31667 272.25967 0 0 0
1.32548 273.70288 0 0 0
1.33429 274.82208 0 0 0
1.34309 275.72577 0 0 0
1.35190 277.61392 0 0 0
1.36071 279.75186 0 0 0
1.36951 281.75839 0 0 0
1.37832 282.03479 0 0 0
1.38713 283.26971 0 0 0
1.39594 283.76291 0 0 0
1.40474 284.95508 0 0 0
1.41355 286.50079 0 0 0
1.42236 288.03024 0 0 0
1.43116 289.67349 0 0 0
1.43997 289.71457 0 0 0
1.44878 290.936 0 0 0
1.45759 291.66403 0 0 0
1.46639 292.88467 0 0 0
1.47520 293.37772 0 0 0
1.48401 294.45203 0 0 0
1.49281 296.29123 0 0 0
1.50162 297.69376 0 0 0
1.51043 298.6781 0 0 0
1.51924 299.50766 0 0 0
1.52804 300.67572 0 0 0
1.53685 302.27707 0 0 0
1.54566 303.11041 0 0 0
1.55446 303.87143 0 0 0
1.56327 303.9455 0 0 0
1.57208 306.28845 0 0 0
1.58089 307.74057 0 0 0
1.58969 307.875 0 0 0
1.59850 308.00458 0 0 0
1.60731 308.28177 0 0 0
1.61612 309.05713 0 0 0
1.62492 309.71786 0 0 0
1.63373 311.02435 0 0 0
1.64254 312.06589 0 0 0
1.65134 312.84961 0 0 0
1.66015 313.45169 0 0 0
1.66896 313.76746 0 0 0
1.67777 314.03809 0 0 0
1.68657 313.93594 0 0 0
1.69538 314.65311 0 0 0
1.70419 315.94135 0 0 0
1.71299 318.8309 0 0 0
1.72180 320.03204 0 0 0
1.73061 320.31155 0 0 0
1.73942 319.77536 0 0 0
1.74822 319.35541 0 0 0
1.75703 320.02762 0 0 0
1.76584 320.82056 0 0 0
1.77464 322.56512 0 0 0
1.78345 323.95938 0 0 0
1.79226 325.57004 0 0 0
1.80107 325.59012 0 0 0
1.80987 324.59888 0 0 0
1.81868 324.34683 0 0 0
1.82749 325.85944 0 0 0
1.83629 327.63834 0 0 0
1.84510 328.47742 0 0 0
1.85391 329.22858 0 0 0
1.86272 330.00455 0 0 0
1.87152 330.50693 0 0 0
1.88033 332.44104 0 0 0
1.88914 333.13776 0 0 0
1.89794 333.77802 0 0 0
1.90675 334.47275 0 0 0
1.91556 336.08167 0 0 0
1.92437 336.1452 0 0 0
1.93317 335.62662 0 0 0
1.94198 335.48459 0 0 0
1.95079 336.50916 0 0 0
1.95959 337.10327 0 0 0
1.96840 337.90314 0 0 0
1.97721 339.06592 0 0 0
1.98602 340.33267 0 0 0
1.99482 341.91568 0 0 0
2.00363 342.00226 0 0 0
2.01244 342.20728 0 0 0
2.02124 342.00589 0 0 0
2.03005 341.97958 0 0 0
2.03886 343.23569 0 0 0
2.04767 345.56543 0 0 0
2.05647 346.79456 0 0 0
2.06528 346.13782 0 0 0
2.07409 346.24292 0 0 0
2.08289 346.51593 0 0 0
2.09170 346.80508 0 0 0
2.10051 347.52463 0 0 0
2.10932 347.57547 0 0 0
2.11812 347.24048 0 0 0
2.12693 347.13272 0 0 0
2.13574 347.87076 0 0 0
2.14455 349.76663 0 0 0
2.15335 351.41046 0 0 0
2.16216 351.70636 0 0 0
2.17097 351.5181 0 0 0
2.17977 352.39886 0 0 0
2.18858 352.99017 0 0 0
2.19739 354.20401 0 0 0
2.20620 354.75183 0 0 0
2.21500 354.72 0 0 0
2.22381 355.02557 0 0 0
2.23262 356.60208 0 0 0
2.24142 357.60806 0 0 0
2.25023 356.7478 0 0 0
2.25904 356.40326 0 0 0
2.26785 357.11212 364.646229 364.625988 0.002800241
2.27665 358.28284 362.698649 362.678301 0.002791091
2.28546 358.84436 361.187004 361.166548 0.002786723
2.29427 359.31766 360.056678 360.036113 0.002783053
2.30307 359.31354 359.25816 359.237484 0.002783085
2.31188 359.11426 358.748304 358.725973 0.002784629
2.32069 359.65344 358.483698 358.461248 0.002780454
2.32950 360.80905 358.429605 358.407037 0.002771549
2.33830 361.52768 358.553499 358.530812 0.00276604
2.34711 361.89575 358.826295 358.803487 0.002763227
2.35592 362.07779 359.222066 359.199136 0.002761837
2.36472 362.12479 359.717811 359.694759 0.002761479
2.37353 361.90204 360.293142 360.269966 0.002763179
2.38234 362.85773 360.930158 360.906857 0.002755901
2.39115 364.10849 361.613134 361.589707 0.002746434
2.39995 364.4902 362.328386 362.304832 0.002743558
2.40876 364.72833 363.064071 363.040389 0.002741767
2.41757 364.42349 363.810012 363.786201 0.00274406
2.42637 365.33829 364.557535 364.533593 0.002737189
2.43518 366.72586 365.299365 365.275292 0.002726833
2.44399 366.93301 366.029418 366.005212 0.002725293
2.45280 367.04825 366.742715 366.718376 0.002724437
2.46160 367.13498 367.435298 367.410824 0.002723794
2.47041 368.18799 368.104023 368.079412 0.002716004
2.47922 368.80344 368.746609 368.721861 0.002711471
2.48802 368.76987 369.361383 369.336496 0.002711718
2.49683 368.82993 369.947349 369.922322 0.002711277
2.50564 368.72052 370.503981 370.478814 0.002712081
2.51445 369.36874 371.031244 371.005933 0.002707322
2.52325 370.19662 371.529483 371.504029 0.002701267
2.53206 371.0592 371.999379 371.97378 0.002694988
2.54087 371.19489 372.4419 372.416155 0.002694003
2.54967 371.49881 372.858245 372.832352 0.002691799
2.55848 372.55612 373.249807 373.223764 0.002684159
2.56729 372.88818 373.618117 373.591924 0.002681769
2.57610 373.35394 373.964841 373.938496 0.002678424
2.58490 372.54669 374.291715 374.265217 0.002684227
2.59371 372.74664 374.600534 374.57388 0.002682787
2.60252 372.98175 374.893121 374.866311 0.002681096
2.61132 373.64474 375.171314 375.144346 0.002676339
2.62013 373.99564 375.43693 375.409803 0.002673828
2.62894 374.75616 375.691769 375.664481 0.002668402
2.63775 375.62338 375.937581 375.910131 0.002662241
2.64655 375.99829 376.176066 376.148452 0.002659587
2.65536 376.28891 376.408849 376.381069 0.002657532
2.66417 376.24472 376.637488 376.609541 0.002657845
2.67298 377.10489 376.863461 376.835345 0.002651782
2.68178 377.74777 377.088147 377.05986 0.002647269
2.69059 378.52597 377.312848 377.284389 0.002641827
2.69940 378.36536 377.538758 377.510125 0.002642948
2.70820 378.2037 377.797886 377.738174 0.002644078
2.71701 378.62234 378.029544 377.969539 0.002641154
2.72582 379.11938 378.265422 378.205122 0.002637692
2.73463 378.71478 378.50633 378.445733 0.00264051
2.74343 378.47586 378.75298 378.692083 0.002642176
2.75224 379.45639 379.005978 378.944778 0.002635349
2.76105 379.90927 379.265853 379.204348 0.002632207
2.76985 380.2218 379.533039 379.471226 0.002630044
2.77866 380.21802 379.807877 379.745754 0.00263007
2.78747 380.24942 380.090629 380.028192 0.002629853
2.79628 380.48801 380.381477 380.318724 0.002628204
2.80508 380.95364 380.680525 380.617454 0.002624991
2.81389 382.00925 380.987806 380.924414 0.002617738
2.82270 382.78711 381.303295 381.239578 0.002612418
2.83150 383.43167 381.626894 381.56285 0.002608027
2.84031 383.00662 381.958446 381.894072 0.002610921
2.84912 383.04276 382.297746 382.233039 0.002610675
2.85793 383.65698 382.64454 382.579497 0.002606495
2.86673 384.091 382.998521 382.933139 0.00260355
2.87554 383.83273 383.359357 383.293632 0.002605302
2.88435 383.83752 383.726665 383.660594 0.002605269
2.89315 384.23264 384.100023 384.033604 0.00260259
2.90196 385.30133 384.479021 384.41225 0.002595371
2.91077 386.04456 384.863189 384.796062 0.002590375
2.91958 386.582 385.252041 385.184556 0.002586773
2.92838 386.77237 385.645085 385.577238 0.0025855
2.93719 386.83899 386.041815 385.973602 0.002585055
2.94600 386.75699 386.441707 386.373124 0.002585603
2.95480 386.8566 386.844245 386.77529 0.002584937
2.96361 387.19907 387.248905 387.179573 0.002582651
2.97242 387.52402 387.655158 387.585446 0.002580485
2.98123 387.82245 388.062487 387.992391 0.0025785
2.99003 388.56897 388.470366 388.399882 0.002573546
2.99884 389.78937 388.8783 388.807424 0.002565488
3.00765 390.14133 389.285786 389.214514 0.002563174
3.01645 390.10419 389.692339 389.620667 0.002563418
3.02526 389.98538 390.097475 390.0254 0.002564199
3.03407 389.83307 390.50077 390.428286 0.002565201
3.04288 390.05826 390.901768 390.828871 0.00256372
3.05168 390.89468 391.300055 391.226741 0.002558234
3.06049 392.00488 391.695231 391.621495 0.002550989
3.06930 392.22632 392.086919 392.012758 0.002549548
3.07810 392.10687 392.474761 392.400169 0.002550325
3.08691 392.41614 392.858431 392.783404 0.002548315
3.09572 392.77768 393.237619 393.162152 0.00254597
3.10453 392.70428 393.612042 393.536129 0.002546445
3.11333 391.92276 393.981435 393.905071 0.002551523
3.12214 392.22549 394.352036 394.268741 0.002549554
3.13095 393.39255 394.710718 394.626938 0.00254199
3.13976 395.04556 395.06374 394.979468 0.002531354
3.14856 396.35025 395.41094 395.326171 0.002523021
3.15737 396.13925 395.752168 395.666897 0.002524365
3.16618 395.89975 396.087339 396.00156 0.002525892
3.17498 395.85266 396.416349 396.330055 0.002526192
3.18379 395.53134 396.739134 396.652318 0.002528245
3.19260 395.52734 397.055651 396.968309 0.00252827
3.20140 396.00317 397.387395 397.277999 0.002525232
3.21021 396.71866 397.691417 397.581398 0.002520678
3.21902 396.53754 397.989177 397.878527 0.002521829
3.22783 396.74088 398.280713 398.169426 0.002520537
3.23663 396.79929 398.566091 398.454158 0.002520166
3.24544 396.57684 398.845389 398.732803 0.002521579
3.25425 396.70395 399.118703 399.005455 0.002520771
3.26306 397.01462 399.386155 399.272237 0.002518799
3.27186 396.87125 399.647873 399.533276 0.002519709
3.28067 397.89545 399.904002 399.788717 0.002513223
3.28948 398.86472 400.154694 400.038713 0.002507116
3.29828 399.60645 400.40014 400.283453 0.002502462
3.30709 399.18399 400.640517 400.523114 0.00250511
3.31590 399.45035 400.876019 400.757892 0.00250344
3.32471 400.31827 401.106856 400.987992 0.002498012
3.33351 400.81903 401.333237 401.213627 0.002494892
3.34232 401.01947 401.555393 401.435026 0.002493645
3.35113 400.96579 401.773551 401.652415 0.002493978
3.35993 401.32568 401.987948 401.866033 0.002491742
3.36874 401.72217 402.198826 402.076119 0.002489283
3.37755 402.57156 402.406432 402.28292 0.00248403
3.38636 402.89389 402.611012 402.486682 0.002482043
3.39516 403.77649 402.821146 402.687662 0.002476618
3.40397 403.61661 403.020473 402.886111 0.002477599
3.41278 403.76822 403.217537 403.082283 0.002476668
3.42158 404.11038 403.412592 403.276429 0.002474571
3.43039 404.58197 403.605886 403.468799 0.002471687
3.43920 404.12195 403.797682 403.659655 0.002474501
3.44801 403.99008 403.988226 403.849239 0.002475308
3.45681 403.91608 404.177761 404.037798 0.002475762
3.46562 404.26212 404.36653 404.22557 0.002473643
3.47443 404.21753 404.554774 404.412797 0.002473915
3.48323 404.56503 404.742724 404.59971 0.002471791
3.49204 405.06522 404.930609 404.786535 0.002468738
3.50085 405.17133 405.118649 404.973491 0.002468092
3.50966 404.96616 405.307062 405.160794 0.002469342
3.51846 404.98148 405.496051 405.348648 0.002469249
3.52727 405.38477 405.685823 405.537256 0.002466792
3.53608 405.91098 405.876567 405.726807 0.002463594
3.54488 406.49567 406.098634 405.917485 0.002460051
3.55369 406.58527 406.291989 406.109462 0.002459509
3.56250 406.62344 406.486839 406.302899 0.002459278
3.57131 407.50964 406.683357 406.497963 0.00245393
3.58011 407.39365 406.881684 406.694796 0.002454628
3.58892 407.89551 407.081963 406.893534 0.002451608
3.59773 407.38513 407.284319 407.094302 0.00245468
3.60653 407.80399 407.488881 407.297223 0.002452158
3.61534 407.61475 407.695756 407.5024 0.002453297
3.62415 408.05118 407.905047 407.709932 0.002450673
3.63296 408.78448 408.116846 407.919905 0.002446277
3.64176 409.73825 408.331235 408.132395 0.002440582
3.65057 409.83029 408.548291 408.347472 0.002440034
3.65938 410.12772 408.768077 408.565192 0.002438265
3.66818 410.11349 408.990648 408.7856 0.002438349
3.67699 410.67859 409.216052 409.008736 0.002434994
3.68580 410.31705 409.444328 409.234625 0.00243714
3.69461 410.46103 409.675498 409.463277 0.002436285
3.70341 410.41992 409.909602 409.694716 0.002436529
3.71222 411.23468 410.146648 409.928934 0.002431702
3.72103 411.46945 410.386649 410.165919 0.002430314
3.72984 411.71326 410.629609 410.405651 0.002428875
3.73864 411.14978 410.883076 410.648106 0.002432204
3.74745 411.3385 411.132014 410.893247 0.002431088
3.75626 411.57294 411.383948 411.14103 0.002429703
3.76506 412.29358 411.63945 411.391401 0.002425456
3.77387 412.39716 411.897526 411.6443 0.002424847
3.78268 412.01974 412.158852 411.899666 0.002427068
3.79149 411.88794 412.423664 412.157422 0.002427845
3.80029 412.28961 412.69235 412.417487 0.00242548
3.80910 413.02756 412.965512 412.679778 0.002421146
3.81791 414.75513 413.244041 412.9442 0.002411061
3.82671 415.88492 413.529174 413.210648 0.002404511
3.83552 415.57379 413.822595 413.479038 0.002406312
3.84433 414.49646 414.126384 413.749253 0.002412566
3.85314 414.65848 414.442997 414.021178 0.002411623
3.86194 415.02509 414.775113 414.294703 0.002409493
3.87075 416.28589 415.125338 414.569707 0.002402195
3.87956 416.77774 415.495835 414.846066 0.00239936
3.88836 416.72235 415.88782 415.123655 0.002399679
3.89717 416.4592 416.301069 415.402346 0.002401196
3.90598 416.76254 416.733386 415.682006 0.002399448
3.91479 417.00204 417.180233 415.962508 0.00239807
3.92359 417.30698 417.634385 416.243716 0.002396317
3.93240 417.82156 418.085741 416.525495 0.002393366
3.94121 418.88559 418.521424 416.807711 0.002387287
3.95001 419.79745 418.9265 417.090227 0.002382101
3.95882 420.15469 419.286183 417.372905 0.002380076
3.96763 420.93268 419.5896 417.655609 0.002375677
3.97644 420.66354 419.833689 417.938214 0.002377197
3.98524 419.90707 420.024389 418.220577 0.002381479
3.99405 419.13632 420.174219 418.502572 0.002385859
4.00286 419.38202 420.29812 418.784064 0.002384461
4.01166 419.65686 420.410168 419.064925 0.002382899
4.02047 419.49915 420.52203 419.345028 0.002383795
4.02928 419.22598 420.642483 419.624249 0.002385348
4.03809 419.37323 420.777516 419.902462 0.002384511
4.04689 419.57715 420.930534 420.179556 0.002383352
4.05570 419.94687 421.102713 420.455412 0.002381254
4.06451 420.28644 421.293471 420.729919 0.00237933
4.07331 420.76294 421.50095 421.002966 0.002376635
4.08212 420.46649 421.722551 421.274448 0.002378311
4.09093 420.70734 421.955393 421.544271 0.002376949
4.09974 421.04242 422.19664 421.812335 0.002375058
4.10854 421.69962 422.443753 422.078548 0.002371356
4.11735 423.00357 422.694603 422.342824 0.002364046
4.12616 423.08844 422.947498 422.605081 0.002363572
4.13496 423.14124 423.201152 422.865239 0.002363277
4.14377 423.02396 423.454632 423.12323 0.002363932
4.15258 422.99588 423.707269 423.378986 0.002364089
4.16139 422.50552 423.958597 423.632446 0.002366833
4.17019 423.04266 424.208279 423.883536 0.002363828
4.17900 423.50812 424.456116 424.132237 0.00236123
4.18781 424.254 424.701935 424.378487 0.002357079
4.19661 424.98724 424.945615 424.622245 0.002353012
4.20542 425.29022 425.187074 424.863481 0.002351336
4.21423 425.47202 425.426241 425.102164 0.002350331
4.22304 425.30469 425.663064 425.338271 0.002351256
4.23184 425.64008 425.897501 425.571784 0.002349403
4.24065 425.55487 426.129523 425.802692 0.002349873
4.24946 425.44977 426.359105 426.030986 0.002350454
4.25826 424.93939 426.586238 426.256671 0.002353277
4.26707 424.63611 426.810913 426.479748 0.002354958
4.27588 424.89325 427.033132 426.700229 0.002353532
4.28469 426.08835 427.252902 426.91813 0.002346931
4.29349 427.29355 427.470236 427.133469 0.002340311
4.30230 427.97067 427.68516 427.346278 0.002336609
4.31111 427.2811 427.897699 427.556586 0.00234038
4.31992 427.59897 428.107885 427.764431 0.00233864
4.32872 428.30609 428.315757 427.969855 0.002334779
4.33753 428.43936 428.52136 428.172905 0.002334053
4.34634 428.55136 428.724741 428.37363 0.002333443
4.35514 429.32831 428.92596 428.572091 0.00232922
4.36395 430.24573 429.125074 428.768348 0.002324253
4.37276 431.12814 429.322149 428.962466 0.002319496
4.38157 431.53516 429.517254 429.154514 0.002317308
4.39037 431.29095 429.710462 429.344567 0.00231862
4.39918 431.01865 429.90185 429.5327 0.002320085
4.40799 430.72144 430.091504 429.718999 0.002321686
4.41679 430.62872 430.279508 429.903548 0.002322186
4.42560 430.87888 430.465953 430.086435 0.002320838
4.43441 431.04089 430.650922 430.267741 0.002319966
4.44322 430.15253 430.834944 430.447583 0.002324757
4.45202 430.45999 431.017286 430.626049 0.002323096
4.46083 431.44531 431.19846 430.803236 0.002317791
4.46964 432.97757 431.378576 430.979253 0.002309588
4.47844 433.17679 431.55774 431.154203 0.002308526
4.48725 433.03006 431.736063 431.328193 0.002309309
4.49606 432.52505 431.913657 431.501335 0.002312005
4.50487 432.54507 432.090637 431.673736 0.002311898
4.51367 432.71832 432.267123 431.845515 0.002310972
4.52248 432.64136 432.443231 432.016783 0.002311383
4.53129 432.41489 432.619082 432.187657 0.002312594
4.54009 432.54883 432.794797 432.358252 0.002311878
4.54890 433.65198 432.970498 432.528686 0.002305997
4.55771 434.72958 433.146307 432.699076 0.002300281
4.56652 434.66037 433.322351 432.869543 0.002300647
4.57532 434.69843 433.498752 433.040203 0.002300445
4.58413 435.00671 433.675637 433.211176 0.002298815
4.59294 435.36667 433.85313 433.382579 0.002296914
4.60174 435.58362 434.031355 433.554529 0.00229577
4.61055 436.17426 434.210437 433.727143 0.002292662
4.61936 436.10657 434.390504 433.900541 0.002293018
4.62817 435.15588 434.571678 434.074835 0.002298027
4.63697 435.72183 434.754082 434.25014 0.002295042
4.64578 436.52609 434.93784 434.426569 0.002290814
4.65459 436.76614 435.123072 434.604232 0.002289555
4.66339 436.80515 435.309903 434.783242 0.00228935
4.67220 437.25793 435.498452 434.963704 0.00228698
4.68101 437.84808 435.688836 435.145726 0.002283897
4.68982 438.83978 435.881175 435.32941 0.002278736
4.69862 439.00595 436.075584 435.514858 0.002277873
4.70743 438.50839 436.272167 435.702159 0.002280458
4.71624 438.01221 436.471057 435.891427 0.002283041
4.72504 438.56436 436.672361 436.08275 0.002280167
4.73385 438.36374 436.876185 436.276217 0.002281211
4.74266 438.10904 437.08264 436.471915 0.002282537
4.75147 438.19092 437.291832 436.669929 0.00228211
4.76027 438.63666 437.503867 436.870341 0.002279791
4.76908 439.27319 437.718848 437.073225 0.002276488
4.77789 440.48322 437.936882 437.278662 0.002270234
4.78669 440.71628 438.158068 437.48672 0.002269033
4.79550 440.24481 438.382508 437.697466 0.002271463
4.80431 440.64093 438.6103 437.910964 0.002269421
4.81312 441.83688 438.841543 438.127274 0.002263279
4.82192 442.79782 439.076334 438.346449 0.002258367
4.83073 443.0878 439.314774 438.568546 0.002256889
4.83954 443.09833 439.55696 438.793611 0.002256835
4.84835 442.94046 439.802989 439.021688 0.00225764
4.85715 443.12311 440.052962 439.252817 0.002256709
4.86596 442.965 440.306974 439.487029 0.002257515
4.87477 443.4119 440.565135 439.724363 0.002255239
4.88357 443.74329 440.827546 439.964842 0.002253555
4.89238 443.64288 441.094316 440.20849 0.002254065
4.90119 443.74466 441.365558 440.455325 0.002253548
4.91000 444.46738 441.641389 440.705362 0.002249884
4.91880 444.84848 441.921931 440.958607 0.002247956
4.92761 444.35901 442.207321 441.215072 0.002250433
4.93642 443.99139 442.497701 441.474757 0.002252296
4.94522 443.60175 442.793221 441.737657 0.002254274
4.95403 443.89371 443.094048 442.003766 0.002252792
4.96284 444.20206 443.400363 442.273069 0.002251228
4.97165 444.97382 443.712359 442.545545 0.002247323
4.98045 445.52966 444.030279 442.821192 0.002244519
4.98926 446.50992 444.354368 443.099981 0.002239592
4.99807 447.02432 444.684904 443.381881 0.002237015
5.00687 446.57599 445.022201 443.666859 0.002239261
5.01568 446.82053 445.366622 443.954879 0.002238035
5.02449 447.06311 445.718572 444.245899 0.002236821
5.03330 447.53833 446.078529 444.53988 0.002234445
5.04210 448.19482 446.447034 444.836773 0.002231173
5.05091 448.71082 446.82471 445.136527 0.002228607
5.05972 448.58142 447.212288 445.439085 0.00222925
5.06852 448.4588 447.61061 445.74439 0.002229859
5.07733 449.05115 448.035008 446.052376 0.002226918
5.08614 450.02026 448.458038 446.362985 0.002222122
5.09495 450.42401 448.895363 446.676145 0.00222013
5.10375 450.62326 449.37673 446.991785 0.002219149
5.11256 450.68945 449.848021 447.309829 0.002218823
5.12137 450.93506 450.339641 447.630199 0.002217614
5.13017 450.91531 450.854585 447.952812 0.002217711
5.13898 451.5376 451.396779 448.277592 0.002214655
5.14779 452.73526 451.971479 448.604448 0.002208796
5.15660 453.87546 452.586206 448.933293 0.002203248
5.16540 454.69803 453.252373 449.264035 0.002199262
5.17421 455.58633 453.987785 449.596578 0.002194974
5.18302 455.5769 454.820842 449.930834 0.002195019
5.19182 456.15884 455.796715 450.266702 0.002192219
5.20063 457.56268 456.985272 450.604083 0.002185493
5.20944 458.71542 458.490595 450.942876 0.002180001
5.21825 460.25235 460.460315 451.282979 0.002172721
5.22705 461.20428 463.090399 451.624284 0.002168237
5.23586 462.81909 466.621957 451.966674 0.002160671
5.24467 465.88519 471.325094 452.310077 0.002146452
5.25347 470.7515 477.464836 452.654368 0.002124263
5.26228 476.15344 485.248807 452.999437 0.002100163
5.27109 482.84485 494.76313 453.345176 0.002071059
5.27990 491.56302 505.905613 453.691474 0.002034327
5.28870 503.93085 518.315144 454.038218 0.001984399
5.29751 520.8822 531.31051 454.385304 0.00191982
5.30632 543.77625 543.837476 454.732619 0.001838992
5.31513 575.70178 554.456043 455.080051 0.00173701
5.32393 606.73004 561.518365 455.42749 0.001648179
5.33274 618.81641 563.669566 455.774825 0.001615988
5.34155 601.9054 560.503052 456.121942 0.001661391
5.35035 567.05865 552.797428 456.468739 0.001763486
5.35916 530.45044 542.079369 456.815103 0.00188519
5.36797 507.8548 529.964156 457.160927 0.001969067
5.37678 492.62631 517.771485 457.506102 0.002029936
5.38558 483.89542 506.428999 457.850518 0.002066562
5.39439 477.18384 496.502864 458.194079 0.002095628
5.40320 473.12787 488.2623 458.536676 0.002113594
5.41200 470.67554 481.740566 458.878207 0.002124606
5.42081 468.0918 476.802146 459.218571 0.002136333
5.42962 466.0322 473.214141 459.557669 0.002145774
5.43843 464.8819 470.705251 459.8954 0.002151084
5.44723 464.57846 469.011686 460.231677 0.002152489
5.45604 464.22214 467.905676 460.566401 0.002154141
5.46485 463.62512 467.20738 460.899482 0.002156915
5.47365 462.69589 466.784356 461.23083 0.002161247
5.48246 462.18796 466.54457 461.56036 0.002163622
5.49127 462.58432 466.427225 461.887983 0.002161768
5.50008 462.94867 466.39341 462.213626 0.002160067
5.50888 463.40936 466.418585 462.537187 0.002157919
5.51769 463.82892 466.511061 462.858628 0.002155967
5.52650 463.95856 466.613474 463.177856 0.002155365
5.53530 464.49097 466.742709 463.494802 0.002152894
5.54411 465.26669 466.893903 463.809398 0.002149305
5.55292 465.56726 467.063422 464.121578 0.002147917
5.56173 465.03415 467.248419 464.431287 0.00215038
5.57053 465.19647 467.446556 464.738465 0.002149629
5.57934 465.3558 467.655942 465.043057 0.002148893
5.58815 466.12845 467.880299 465.345012 0.002145331
5.59695 465.91611 468.107717 465.644282 0.002146309
5.60576 466.01843 468.342388 465.940828 0.002145838
5.61457 466.27911 468.583399 466.234607 0.002144638
5.62338 466.85889 468.829981 466.525584 0.002141975
5.63218 466.9859 469.081526 466.813726 0.002141392
5.64099 466.44675 469.337538 467.099004 0.002143867
5.64980 466.31644 469.597634 467.38139 0.002144467
5.65860 466.81116 469.861536 467.660869 0.002142194
5.66741 467.98807 470.12906 467.937422 0.002136807
5.67622 467.66147 470.400121 468.211035 0.002138299
5.68503 467.28308 470.674716 468.4817 0.00214003
5.69383 468.06943 470.952954 468.74941 0.002136435
5.70264 468.74689 471.235035 469.014161 0.002133347
5.71145 468.20935 471.521267 469.275963 0.002135797
5.72025 468.995 471.812089 469.53482 0.002132219
5.72906 469.53174 472.108067 469.790741 0.002129781
5.73787 470.19727 472.409919 470.043742 0.002126767
5.74668 469.79266 472.725373 470.29384 0.002128599
5.75548 470.09769 473.041976 470.541062 0.002127217
5.76429 470.24301 473.367909 470.785433 0.00212656
5.77310 470.16409 473.704927 471.026969 0.002126917
5.78190 470.35202 474.055311 471.265735 0.002126067
5.79071 471.14136 474.421982 471.501754 0.002122505
5.79952 471.48495 474.80898 471.735069 0.002120958
5.80833 471.80457 475.222159 471.965725 0.002119522
5.81713 471.76904 475.670587 472.193777 0.002119681
5.82594 472.51962 476.168705 472.419277 0.002116314
5.83475 472.77975 476.740118 472.642284 0.00211515
5.84356 474.05347 477.422778 472.86286 0.002109467
5.85236 475.16403 478.275865 473.081069 0.002104536
5.86117 476.0072 479.386987 473.29698 0.002100809
5.86998 475.90619 480.877838 473.51067 0.002101254
5.87878 477.13934 482.903557 473.722213 0.002095824
5.88759 477.5332 485.6424 473.93169 0.002094095
5.89640 478.66025 489.272395 474.139183 0.002089164
5.90521 480.64606 493.93194 474.344777 0.002080533
5.91401 484.76511 499.670652 474.548568 0.002062855
5.92282 489.59921 506.396441 474.750645 0.002042487
5.93163 495.82932 513.817133 474.951107 0.002016823
5.94043 505.29282 521.382063 475.150051 0.00197905
5.94924 518.29077 528.23276 475.347582 0.001929419
5.95805 534.37689 533.24109 475.543802 0.001871338
5.96686 544.05365 535.313906 475.738823 0.001838054
5.97566 542.94202 533.949606 475.932755 0.001841817
5.98447 530.45959 529.572708 476.125712 0.001885158
5.99328 515.73834 523.247826 476.31781 0.001938968
6.00208 503.07535 516.117658 476.509166 0.001987774
6.01089 495.33328 509.069154 476.699902 0.002018843
6.01970 489.96118 502.679313 476.890143 0.002040978
6.02851 486.92566 497.261206 477.080014 0.002053702
6.03731 484.91257 492.922697 477.269642 0.002062227
6.04612 484.41107 489.625221 477.459146 0.002064362
6.05493 484.39511 487.235907 477.648678 0.00206443
6.06373 484.31107 485.579531 477.838362 0.002064789
6.07254 483.64856 484.476625 478.028329 0.002067617
6.08135 483.47388 483.769871 478.218721 0.002068364
6.09016 483.45218 483.335021 478.409673 0.002068457
6.09896 482.2399 483.081908 478.601324 0.002073657
6.10777 482.16058 482.949646 478.793815 0.002073998
6.11658 482.72925 482.900749 478.987284 0.002071555
6.12538 484.08807 482.908176 479.181878 0.00206574
6.13419 484.47 482.959452 479.377739 0.002064111
6.14300 484.80927 483.045173 479.57501 0.002062667
6.15181 484.46466 483.160584 479.773835 0.002064134
6.16061 484.11722 483.302674 479.974361 0.002065615
6.16942 484.5705 483.469828 480.176729 0.002063683
6.17823 486.10645 483.661544 480.381091 0.002057163
6.18703 486.74429 483.878504 480.58759 0.002054467
6.19584 487.09503 484.122885 480.796372 0.002052987
6.20465 487.57983 484.399182 481.007582 0.002050946
6.21346 489.52417 484.715665 481.221367 0.0020428
6.22226 490.5322 485.086673 481.437869 0.002038602
6.23107 490.11514 485.535862 481.657238 0.002040337
6.23988 490.12436 486.100086 481.879616 0.002040299
6.24868 490.73254 486.832731 482.105148 0.00203777
6.25749 491.46671 487.804862 482.333975 0.002034726
6.26630 492.37759 489.101413 482.566238 0.002030962
6.27511 493.29935 490.810731 482.802083 0.002027167
6.28391 494.2659 493.005312 483.041647 0.002023202
6.29272 496.16318 495.716455 483.285069 0.002015466
6.30153 498.68539 498.905651 483.532487 0.002005272
6.31033 503.16431 502.431469 483.784022 0.001987422
6.31914 507.53391 506.014914 484.039837 0.001970312
6.32795 512.24615 509.206143 484.300049 0.001952186
6.33676 516.50537 511.420656 484.564794 0.001936088
6.34556 519.78558 512.137112 484.834199 0.00192387
6.35437 517.42072 511.224314 485.108391 0.001932663
6.36318 511.2641 509.028097 485.387495 0.001955936
6.37198 504.99139 506.141064 485.671635 0.001980232
6.38079 502.01071 503.095088 485.960929 0.001991989
6.38960 500.22266 500.258273 486.255501 0.00199911
6.39841 498.37048 497.840269 486.555464 0.002006539
6.40721 497.18738 495.929884 486.860933 0.002011314
6.41602 497.06293 494.543547 487.172018 0.002011818
6.42483 497.79642 493.597414 487.488827 0.002008853
6.43364 497.62149 493.023545 487.811464 0.00200956
6.44244 497.90762 492.733185 488.140037 0.002008405
6.45125 498.75055 492.646966 488.474643 0.00200501
6.46006 499.61688 492.701865 488.815379 0.002001534
6.46886 499.42749 492.852375 489.162339 0.002002293
6.47767 499.06201 493.068805 489.515609 0.002003759
6.48648 499.51678 493.330214 489.875284 0.002001935
6.49529 499.99985 493.638204 490.241446 0.002000001
6.50409 500.22919 493.96074 490.614174 0.001999084
6.51290 500.55249 494.306009 490.993546 0.001997792
6.52171 501.51575 494.671322 491.379635 0.001993955
6.53051 502.30276 495.054876 491.772509 0.001990831
6.53932 502.69946 495.457217 492.172241 0.00198926
6.54813 502.84644 495.87396 492.578892 0.001988679
6.55694 502.87521 496.306239 492.99252 0.001988565
6.56574 503.02936 496.753645 493.413182 0.001987956
6.57455 503.91714 497.215937 493.840928 0.001984453
6.58336 504.96793 497.692989 494.275783 0.001980324
6.59216 505.48013 498.185453 494.717834 0.001978317
6.60097 505.86835 498.692322 495.167109 0.001976799
6.60978 506.32767 499.214455 495.623637 0.001975006
6.61859 506.40417 499.75225 496.087453 0.001974707
6.62739 506.66577 500.306247 496.558584 0.001973688
6.63620 507.70837 500.877152 497.037054 0.001969635
6.64501 508.30655 501.465812 497.52288 0.001967317
6.65381 508.35703 502.07329 498.016088 0.001967121
6.66262 507.91022 502.700884 498.516685 0.001968852
6.67143 508.0481 503.350466 499.024679 0.001968318
6.68024 508.32782 504.023322 499.540076 0.001967234
6.68904 509.23703 504.722134 500.062869 0.001963722
6.69785 510.44095 505.449663 500.593066 0.00195909
6.70666 511.69766 506.209483 501.130654 0.001954279
6.71546 512.75262 507.006003 501.67562 0.001950258
6.72427 512.7489 507.844929 502.227948 0.001950272
6.73308 512.72607 508.733798 502.787618 0.001950359
6.74189 513.3457 509.686017 503.3546 0.001948005
6.75069 514.48657 510.712028 503.928878 0.001943685
6.75950 515.57922 511.840213 504.510413 0.001939566
6.76831 516.67188 513.113128 505.099169 0.001935464
6.77711 517.59985 514.601991 505.695106 0.001931994
6.78592 518.14923 516.422129 506.298179 0.001929946
6.79473 519.52728 518.750681 506.908334 0.001924827
6.80354 521.31219 521.837204 507.525532 0.001918236
6.81234 523.43536 526.001708 508.14971 0.001910456
6.82115 526.89508 531.600344 508.780809 0.001897911
6.82996 531.01361 538.955484 509.418764 0.001883191
6.83877 536.88159 548.252634 510.063502 0.001862608
6.84757 547.24731 559.406303 510.714928 0.001827327
6.85638 564.43036 571.907246 511.373034 0.001771698
6.86519 588.53851 584.628155 512.037705 0.001699124
6.87399 616.08685 595.637307 512.70886 0.001623148
6.88280 631.28326 602.41187 513.386412 0.001584075
6.89161 627.94635 602.992553 514.070273 0.001592493
6.90041 609.11676 597.457385 514.760341 0.001641721
6.90922 585.13898 587.854088 515.456538 0.001708996
6.91803 565.32971 576.693933 516.158756 0.001768879
6.92684 551.98193 565.857154 516.866893 0.001811654
6.93564 543.41656 556.422941 517.580842 0.001840209
6.94445 538.45728 548.860912 518.300496 0.001857158
6.95326 535.20233 543.239616 519.025734 0.001868452
6.96207 533.95953 539.36452 519.756459 0.001872801
6.97087 533.02179 536.906604 520.492543 0.001876096
6.97968 532.87836 535.513556 521.233867 0.001876601
6.98849 532.81104 534.869756 521.980307 0.001876838
6.99729 532.10925 534.732832 522.731729 0.001879313
7.00610 532.20313 534.932754 523.488021 0.001878982
7.01491 533.12323 535.360528 524.249043 0.001875739
7.02372 534.88666 535.950877 525.014662 0.001869555
7.03252 536.50659 536.667086 525.784741 0.00186391
7.04133 537.5824 537.490229 526.559143 0.00186018
7.05014 538.31183 538.41314 527.337718 0.001857659
7.05894 540.29608 539.438931 528.12034 0.001850837
7.06775 542.15973 540.578585 528.906857 0.001844475
7.07656 544.03394 541.86112 529.697121 0.001838121
7.08537 546.59393 543.337519 530.490984 0.001829512
7.09417 549.79987 545.092196 531.288296 0.001818844
7.10298 553.19733 547.25043 532.088894 0.001807673
7.11179 555.98267 549.982621 532.892644 0.001798617
7.12059 559.67487 553.488923 533.699335 0.001786752
7.12940 564.00476 557.965485 534.508903 0.001773035
7.13821 569.75702 563.545974 535.321143 0.001755134
7.14702 576.20978 570.224192 536.135895 0.001735479
7.15582 584.44653 577.758412 536.953001 0.001711021
7.16463 592.42938 585.544739 537.772288 0.001687965
7.17344 601.6076 592.487024 538.593613 0.001662213
7.18224 605.91418 597.100222 539.416803 0.001650399
7.19105 605.83344 598.248929 540.241693 0.001650619
7.19986 599.93787 596.054527 541.068119 0.001666839
7.20867 592.36182 591.814648 541.895907 0.001688157
7.21747 585.37823 586.994334 542.724908 0.001708297
7.22628 579.41803 582.615597 543.554946 0.00172587
7.23509 575.97827 579.226346 544.385856 0.001736177
7.24389 574.42792 577.042499 545.217469 0.001740862
7.25270 573.84668 576.055964 546.049619 0.001742626
7.26151 573.54645 576.147404 546.88213 0.001743538
7.27032 574.27625 577.148777 547.714852 0.001741322
7.27912 576.14056 578.901514 548.547609 0.001735688
7.28793 579.74561 581.292992 549.380234 0.001724894
7.29674 584.78168 584.260844 550.212562 0.00171004
7.30554 591.12122 587.807624 551.044425 0.0016917
7.31435 598.79364 591.994103 551.875649 0.001670024
7.32316 607.45093 596.94801 552.706087 0.001646224
7.33197 618.47406 602.892791 553.535566 0.001616883
7.34077 632.28607 610.222989 554.363922 0.001581563
7.34958 649.37524 619.615183 555.190992 0.001539942
7.35839 670.41949 632.213046 556.016605 0.001491603
7.36720 694.55963 649.851849 556.840619 0.001439761
7.37600 724.89343 675.25344 557.662865 0.001379513
7.38481 764.20593 712.055206 558.483137 0.001308548
7.39362 810.83923 764.482835 559.301372 0.00123329
7.40242 869.41083 836.511591 560.117367 0.001150204
7.41123 947.79218 930.526709 560.930967 0.001055084
7.42004 1034.783 1045.55945 561.742009 0.000966386
7.42884 1149.8864 1174.873457 562.550362 0.000869651
7.43765 1268.7601 1302.706506 563.355866 0.000788171
7.44646 1371.9905 1401.856926 564.158372 0.000728868
7.45527 1430.723 1440.344646 564.957735 0.000698947
7.46407 1396.512 1402.909635 565.75381 0.00071607
7.47288 1298.3322 1305.292017 566.546444 0.000770219
7.48169 1169.5248 1179.539077 567.335517 0.000855048
7.49050 1041.2257 1052.696824 568.12088 0.000960407
7.49930 942.08563 940.325527 568.902396 0.001061475
7.50811 865.90009 849.049047 569.679932 0.001154868
7.51692 804.41492 779.78029 570.453356 0.00124314
7.52572 759.96613 730.095354 571.222529 0.001315848
7.53453 724.78888 696.003475 571.987342 0.001379712
7.54334 696.60504 673.299512 572.747661 0.001435534
7.55215 677.4339 658.373456 573.503364 0.001476159
7.56095 661.31543 648.526819 574.25433 0.001512138
7.56976 648.90887 641.956185 575.000435 0.001541048
7.57857 638.03571 637.540744 575.741581 0.00156731
7.58737 629.1286 634.631285 576.477647 0.0015895
7.59618 623.28558 632.862534 577.208525 0.001604401
7.60499 619.74438 632.035386 577.934107 0.001613568
7.61380 617.50818 632.050101 578.654291 0.001619412
7.62260 616.74207 632.88005 579.368967 0.001621423
7.63141 617.13739 634.566619 580.078054 0.001620385
7.64022 617.93646 637.240447 580.78145 0.001618289
7.64902 620.67212 641.15766 581.479061 0.001611157
7.65783 625.86914 646.759216 582.170761 0.001597778
7.66664 633.28815 654.724011 582.856542 0.00157906
7.67545 642.9281 666.002162 583.536281 0.001555384
7.68425 655.17206 681.781078 584.209892 0.001526317
7.69306 673.68951 703.390797 584.877313 0.001484363
7.70187 700.21185 732.113021 585.538463 0.001428139
7.71067 738.16516 768.925647 586.193272 0.00135471
7.71948 793.62958 814.03531 586.841673 0.001260034
7.72829 870.74768 866.035863 587.483602 0.001148438
7.73710 961.37177 921.306259 588.11899 0.00104018
7.74590 1036.5228 976.021046 588.747796 0.000964764
7.75471 1080.104 1030.600026 589.369956 0.000925837
7.76352 1105.9417 1089.338774 589.985422 0.000904207
7.77232 1137.2319 1153.189107 590.594144 0.000879328
7.78113 1183.191 1212.916964 591.196071 0.000845172
7.78994 1236.7184 1248.047508 591.791177 0.000808592
7.79875 1250.7896 1237.566712 592.379416 0.000799495
7.80755 1203.2338 1179.256165 592.960753 0.000831094
7.81636 1109.588 1092.214848 593.535157 0.000901235
7.82517 1005.2408 999.349395 594.1026 0.000994787
7.83397 907.46045 915.585267 594.663051 0.001101976
7.84278 840.88684 847.788204 595.2165 0.001189221
7.85159 796.71594 797.863825 595.762924 0.001255152
7.86040 771.05872 765.045449 596.302306 0.001296918
7.86920 757.88281 747.437792 596.834635 0.001319465
7.87801 755.30371 743.06523 597.359896 0.001323971
7.88682 763.81622 750.358275 597.878096 0.001309215
7.89563 779.52094 768.078264 598.389225 0.001282839
7.90443 800.24744 794.797702 598.893285 0.001249613
7.91324 825.00885 827.983185 599.390279 0.001212108
7.92205 856.87354 862.65341 599.880188 0.001167033
7.93085 887.30475 890.419189 600.363075 0.001127009
7.93966 901.96179 902.092969 600.838922 0.001108694
7.94847 894.24005 895.341839 601.307755 0.001118268
7.95727 874.61438 878.111638 601.769587 0.001143361
7.96608 859.11542 862.44446 602.224442 0.001163988
7.97489 860.89526 858.56114 602.672342 0.001161581
7.98370 884.57922 874.002719 603.113317 0.001130481
7.99250 929.60748 914.157318 603.547393 0.001075723
8.00131 1002.0803 981.979616 603.974636 0.000997924
8.01012 1099.2197 1076.722798 604.39503 0.000909736
8.01893 1207.3765 1191.555949 604.808637 0.000828242
8.02773 1310.8593 1309.4935 605.215496 0.000762858
8.03654 1387.5402 1399.745736 605.61566 0.0007207
8.04535 1410.7762 1426.069463 606.009172 0.00070883
8.05415 1365.7762 1374.622623 606.39608 0.000732184
8.06296 1256.5875 1268.158441 606.776395 0.000795806
8.07177 1123.9092 1142.81348 607.150257 0.000889752
8.08057 1001.4921 1024.458323 607.517679 0.00099851
8.08938 902.20404 925.542567 607.878722 0.001108397
8.09819 831.21027 849.763838 608.233448 0.001203065
8.10700 783.47418 796.013658 608.581915 0.001276366
8.11580 753.44238 761.006197 608.924199 0.001327242
8.12461 732.76141 741.065839 609.260364 0.001364701
8.13342 723.9881 733.235435 609.590481 0.001381238
8.14223 722.3678 735.644237 609.914622 0.001384336
8.15103 728.77753 747.223213 610.232859 0.001372161
8.15984 757.39911 767.011884 610.545275 0.001320308
8.16865 787.08936 793.158515 610.851945 0.001270504
8.17745 827.27521 821.539414 611.152951 0.001208788
8.18626 859.74658 844.421518 611.448373 0.001163133
8.19507 854.83557 852.003989 611.738297 0.001169816
8.20388 842.62482 839.457212 612.022804 0.001186768
8.21268 801.71851 811.523385 612.301989 0.001247321
8.22149 757.68182 777.322523 612.575936 0.001319815
8.23030 719.99548 744.052182 612.844737 0.001388898
8.23910 689.26892 715.516213 613.108483 0.001450813
8.24791 671.09283 692.990594 613.367266 0.001490107
8.25672 658.57941 676.248256 613.62118 0.00151842
8.26553 649.3042 664.313607 613.870324 0.00154011
8.27433 643.88568 655.988746 614.114794 0.001553071
8.28314 639.96259 650.173167 614.354687 0.001562591
8.29195 636.38245 646.013075 614.590102 0.001571382
8.30075 633.53906 642.920393 614.821137 0.001578435
8.30956 631.62585 640.52388 615.047897 0.001583216
8.31837 630.48486 638.599785 615.270483 0.001586081
8.32718 628.61255 637.014725 615.488997 0.001590805
8.33598 627.69543 635.685598 615.703542 0.001593129
8.34479 626.85962 634.558292 615.914223 0.001595253
8.35360 626.51575 633.594487 616.121142 0.001596129
8.36240 626.44946 632.7653 616.324409 0.001596298
8.37121 626.98187 632.048723 616.524127 0.001594942
8.38002 627.27319 631.427175 616.720403 0.001594202
8.38883 626.08838 630.886452 616.913343 0.001597219
8.39763 625.52643 630.415024 617.103055 0.001598653
8.40644 625.65436 630.003548 617.289643 0.001598327
8.41525 626.08752 629.644181 617.473219 0.001597221
8.42406 626.12488 629.330249 617.653889 0.001597125
8.43286 626.20776 629.057137 617.83176 0.001596914
8.44167 626.02704 628.819088 618.006939 0.001597375
8.45048 626.49609 628.61233 618.179534 0.001596179
8.45928 627.44623 628.433706 618.349654 0.001593762
8.46809 627.10785 628.280478 618.517405 0.001594622
8.47690 627.24042 628.150239 618.682895 0.001594285
8.48571 627.19324 628.040736 618.84623 0.001594405
8.49451 627.34064 627.950356 619.007517 0.00159403
8.50332 627.66553 627.877475 619.166859 0.001593205
8.51213 627.81781 627.820648 619.324367 0.001592819
8.52093 627.90466 627.778881 619.480144 0.001592598
8.52974 628.07758 627.751233 619.634294 0.00159216
8.53855 628.14105 627.736945 619.786921 0.001591999
8.54736 627.87152 627.735418 619.938129 0.001592683
8.55616 627.40845 627.746183 620.088019 0.001593858
8.56497 627.54675 627.768957 620.236696 0.001593507
8.57378 627.48425 627.80361 620.384259 0.001593665
8.58258 628.10925 627.850188 620.530809 0.00159208
8.59139 628.98724 627.908962 620.676445 0.001589857
8.60020 629.13275 627.980447 620.821248 0.00158949
8.60900 628.55872 628.065503 620.965351 0.001590941
8.61781 628.56689 628.165407 621.108831 0.001590921
8.62662 629.42975 628.282114 621.251783 0.00158874
8.63543 629.9046 628.418708 621.394305 0.001587542
8.64423 630.073 628.58027 621.536487 0.001587118
8.65304 630.36127 628.775598 621.678422 0.001586392
8.66185 631.05615 629.019974 621.8202 0.001584645
8.67066 631.70306 629.338998 621.961911 0.001583022
8.67946 632.0885 629.772238 622.10364 0.001582057
8.68827 633.0874 630.374321 622.245477 0.001579561
8.69708 633.93768 631.209457 622.387507 0.001577442
8.70588 635.03296 632.336663 622.529812 0.001574721
8.71469 635.88409 633.784318 622.672476 0.001572614
8.72350 636.9621 635.508389 622.815577 0.001569952
8.73231 637.72937 637.321552 622.959198 0.001568063
8.74111 637.3725 638.809332 623.103415 0.001568941
8.74992 637.31378 639.416609 623.248305 0.001569086
8.75873 638.14392 638.898108 623.393941 0.001567045
8.76753 637.97638 637.598843 623.540397 0.001567456
8.77634 636.89447 636.072265 623.687743 0.001570119
8.78515 635.7168 634.686998 623.836051 0.001573027
8.79396 634.60004 633.595688 623.985387 0.001575796
8.80276 633.53571 632.82452 624.135818 0.001578443
8.81157 632.95844 632.337003 624.287409 0.001579883
8.82038 633.13452 632.071682 624.44022 0.001579443
8.82918 633.2533 631.965527 624.594315 0.001579147
8.83799 632.80542 631.966941 624.749752 0.001580265
8.84680 633.01672 632.039459 624.906589 0.001579737
8.85561 632.87012 632.160009 625.06488 0.001580103
8.86441 633.34229 632.31511 625.22468 0.001578925
8.87322 634.00006 632.49713 625.386038 0.001577287
8.88203 634.28186 632.701737 625.549008 0.001576586
8.89083 634.1991 632.926448 625.713636 0.001576792
8.89964 634.77716 633.169772 625.879969 0.001575356
8.90845 634.95941 633.430839 626.04805 0.001574904
8.91726 634.99298 633.709243 626.217923 0.001574821
8.92606 634.95313 634.004899 626.389625 0.001574919
8.93487 635.25531 634.317981 626.5632 0.00157417
8.94368 635.54938 634.648895 626.738683 0.001573442
8.95249 635.53772 634.998297 626.916107 0.001573471
8.96129 636.02472 635.367003 627.095507 0.001572266
8.97010 638.00897 635.756027 627.276911 0.001567376
8.97891 639.45227 636.166643 627.460353 0.001563838
8.98771 640.09894 636.600291 627.645858 0.001562258
8.99652 640.75385 637.058638 627.833451 0.001560662
9.00533 641.31854 637.543679 628.023157 0.001559288
9.01414 641.01471 638.05764 628.214996 0.001560027
9.02294 641.2417 638.603069 628.408987 0.001559474
9.03175 641.88306 639.182976 628.605152 0.001557916
9.04056 642.70612 639.800735 628.803505 0.001555921
9.04936 642.70056 640.460235 629.004061 0.001555935
9.05817 643.08948 641.166015 629.206832 0.001554994
9.06698 642.85797 641.923306 629.411829 0.001555554
9.07579 642.55725 642.738134 629.619058 0.001556282
9.08459 643.19739 643.617605 629.828533 0.001554733
9.09340 643.95453 644.570016 630.040255 0.001552905
9.10221 644.28925 645.605095 630.254229 0.001552098
9.11101 645.35059 646.734299 630.470457 0.001549545
9.11982 646.30817 647.971456 630.688937 0.00154725
9.12863 647.91125 649.332906 630.909672 0.001543421
9.13743 649.22974 650.838162 631.132635 0.001540287
9.14624 650.45044 652.511434 631.357864 0.001537396
9.15505 651.25464 654.381924 631.585335 0.001535498
9.16386 652.79102 656.485464 631.815037 0.001531884
9.17266 655.82605 658.866647 632.046963 0.001524795
9.18147 659.62762 661.581161 632.281101 0.001516007
9.19028 662.8559 664.700124 632.517438 0.001508624
9.19909 666.81458 668.314328 632.755959 0.001499667
9.20789 671.47943 672.542731 632.996653 0.001489249
9.21670 677.68616 677.547263 633.239502 0.001475609
9.22551 684.88428 683.556756 633.484487 0.001460101
9.23431 694.53149 690.916208 633.731589 0.00143982
9.24312 706.11584 700.179165 633.980785 0.001416198
9.25193 721.06085 712.259318 634.232058 0.001386846
9.26074 740.67474 728.660615 634.485382 0.00135012
9.26954 766.70282 751.759719 634.740734 0.001304286
9.27835 801.07245 785.031244 634.998086 0.001248327
9.28716 842.87274 833.06201 635.257413 0.001186419
9.29596 901.37299 901.093607 635.518684 0.001109419
9.30477 974.04016 993.804887 635.781875 0.001026652
9.31358 1074.991 1112.681923 636.046953 0.00093024
9.32239 1199.8865 1251.36268 636.313888 0.000833412
9.33119 1355.0721 1390.997682 636.582646 0.000737968
9.34000 1506.2104 1504.093189 636.853196 0.000663918
9.34881 1624.0471 1565.973447 637.1255 0.000615746
9.35761 1650.8862 1556.028339 637.399529 0.000605735
9.36642 1566.9015 1467.590216 637.675244 0.000638202
9.37523 1387.3818 1327.442993 637.95261 0.000720782
9.38404 1177.9774 1177.198035 638.231587 0.000848913
9.39284 1002.6583 1044.402023 638.512136 0.000997349
9.40165 877.23511 939.053968 638.794224 0.001139945
9.41046 805.09058 861.109948 639.077808 0.001242096
9.41926 759.95892 806.194162 639.362848 0.001315861
9.42807 733.10522 768.632817 639.649303 0.001364061
9.43688 713.4491 743.129153 639.937133 0.001401642
9.44569 700.01306 725.529496 640.226291 0.001428545
9.45449 690.08112 712.968934 640.516744 0.001449105
9.46330 682.37671 703.639828 640.808443 0.001465466
9.47211 676.23688 696.460427 641.101347 0.001478772
9.48092 671.63733 690.792461 641.395413 0.001488899
9.48972 668.6626 686.245161 641.690595 0.001495523
9.49853 665.96136 682.56305 641.986847 0.001501589
9.50734 663.22168 679.569494 642.284131 0.001507791
9.51614 661.05164 677.135453 642.5824 0.001512741
9.52495 659.71637 675.163332 642.881608 0.001515803
9.53376 658.50323 673.579169 643.181711 0.001518595
9.54257 658.27557 672.325955 643.48266 0.001519121
9.55137 658.30823 671.359433 643.784418 0.001519045
9.56018 658.51648 670.646183 644.086935 0.001518565
9.56899 659.15796 670.161007 644.390166 0.001517087
9.57779 659.42371 669.885514 644.694067 0.001516476
9.58660 658.96802 669.807431 644.998593 0.001517524
9.59541 658.73999 669.92008 645.303695 0.00151805
9.60422 659.37341 670.221695 645.609335 0.001516591
9.61302 660.78754 670.71578 645.915466 0.001513346
9.62183 662.35229 671.411632 646.222043 0.001509771
9.63064 664.07318 672.324894 646.529023 0.001505858
9.63944 665.5069 673.479014 646.83636 0.001502614
9.64825 667.47119 674.908209 647.144009 0.001498192
9.65706 670.69873 676.660287 647.451933 0.001490982
9.66587 674.58899 678.801121 647.760085 0.001482384
9.67467 678.89355 681.420228 648.06839 0.001472985
9.68348 684.69409 684.637304 648.376873 0.001460506
9.69229 691.19501 688.609827 648.68546 0.00144677
9.70109 698.13708 693.552269 648.994109 0.001432383
9.70990 707.93713 699.773667 649.30278 0.001412555
9.71871 719.0683 707.750227 649.611428 0.001390688
9.72752 733.31482 718.246631 649.920023 0.001363671
9.73632 753.83496 732.554963 650.228522 0.00132655
9.74513 773.97699 752.870956 650.536886 0.001292028
9.75394 800.9483 782.440545 650.845078 0.00124852
9.76274 840.37244 825.071154 651.153059 0.001189949
9.77155 881.05945 884.115045 651.460798 0.001134997
9.78036 945.65845 960.922745 651.768258 0.001057464
9.78917 1029.1261 1052.276425 652.075403 0.000971698
9.79797 1099.2871 1145.813346 652.3822 0.00090968
9.80678 1190.0359 1215.487631 652.688616 0.000840311
9.81559 1225.7391 1230.531195 652.994616 0.000815834
9.82439 1211.731 1183.917515 653.300175 0.000825266
9.83320 1173.8516 1101.021571 653.605259 0.000851896
9.84201 1086.6974 1012.894083 653.909838 0.000920219
9.85082 999.65332 937.947864 654.213885 0.001000347
9.85962 926.39221 883.195354 654.517372 0.001079456
9.86843 865.89496 849.367982 654.820267 0.001154874
9.87724 834.30969 833.805179 655.122553 0.001198596
9.88604 820.07886 831.597687 655.4242 0.001219395
9.89485 816.59515 835.549087 655.725186 0.001224597
9.90366 817.41193 836.332001 656.025488 0.001223373
9.91247 815.43683 826.47272 656.325079 0.001226337
9.92127 799.87543 806.187613 656.623946 0.001250195
9.93008 779.46368 781.580607 656.922067 0.001282933
9.93889 760.35413 758.165388 657.219421 0.001315177
9.94769 744.8277 738.584014 657.515992 0.001342592
9.95650 734.91779 723.491992 657.811763 0.001360696
9.96531 728.05853 712.558021 658.106715 0.001373516
9.97412 722.84351 705.037615 658.40084 0.001383425
9.98292 718.92664 700.116205 658.694121 0.001390963
9.99173 718.31891 697.106912 658.986547 0.001392139
10.00054 718.45679 695.545034 659.27811 0.001391872
10.00934 719.20087 695.213273 659.568785 0.001390432
10.01815 720.40845 696.145394 659.858574 0.001388101
10.02696 724.84088 698.633582 660.14747 0.001379613
10.03577 729.05707 703.243784 660.435498 0.001371635
10.04457 734.61859 710.789103 660.722587 0.001361251
10.05338 742.18634 722.217482 661.008765 0.001347371
10.06219 752.53668 738.363722 661.294029 0.001328839
10.07099 764.08936 759.530756 661.578377 0.001308747
10.07980 777.22656 784.782299 661.86184 0.001286626
10.08861 792.62402 810.703658 662.144353 0.001261632
10.09742 807.62744 830.191711 662.425949 0.001238195
10.10622 813.67523 834.644617 662.706631 0.001228992
10.11503 807.7038 821.524648 662.986402 0.001238078
10.12384 788.40674 797.27718 663.265266 0.001268381
10.13265 767.16833 770.450936 663.54326 0.001303495
10.14145 748.01306 746.299863 663.820328 0.001336875
10.15026 732.1568 726.824533 664.096508 0.001365828
10.15907 719.74445 712.22314 664.37181 0.001389382
10.16787 710.59711 701.843537 664.646243 0.001407267
10.17668 702.97882 694.715459 664.919849 0.001422518
10.18549 697.51581 689.883876 665.192577 0.001433659
10.19430 692.85437 686.573542 665.464471 0.001443305
10.20310 689.46185 684.237137 665.735515 0.001450407
10.21191 686.80231 682.524373 666.005784 0.001456023
10.22072 684.18823 681.224694 666.275264 0.001461586
10.22952 681.5719 680.213598 666.544002 0.001467197
10.23833 680.35614 679.415514 666.811955 0.001469818
10.24714 679.62067 678.781327 667.079171 0.001471409
10.25595 679.22614 678.277084 667.34567 0.001472264
10.26475 678.35602 677.878045 667.611474 0.001474152
10.27356 678.0661 677.565403 667.876632 0.001474782
10.28237 676.99506 677.324466 668.141108 0.001477116
10.29117 676.1778 677.143773 668.404955 0.001478901
10.29998 675.99567 677.014034 668.668196 0.001479299
10.30879 675.71814 676.927876 668.930856 0.001479907
10.31760 675.48486 676.879302 669.192961 0.001480418
10.32640 674.53632 676.863438 669.454567 0.0014825
10.33521 673.60529 676.876192 669.715642 0.001484549
10.34402 673.80627 676.914292 669.976242 0.001484106
10.35282 674.65424 676.974943 670.236398 0.001482241
10.36163 675.26593 677.05587 670.496138 0.001480898
10.37044 675.85583 677.155227 670.755521 0.001479605
10.37925 676.11725 677.271386 671.01452 0.001479033
10.38805 676.27411 677.403105 671.273194 0.00147869
10.39686 677.06512 677.549363 671.531577 0.001476963
10.40567 677.48108 677.709322 671.7897 0.001476056
10.41447 677.55804 677.882379 672.047596 0.001475888
10.42328 677.36511 678.068147 672.305328 0.001476309
10.43209 677.48657 678.266303 672.562873 0.001476044
10.44090 678.55231 678.476829 672.820293 0.001473726
10.44970 679.43311 678.69985 673.077623 0.001471815
10.45851 679.56604 678.935665 673.3349 0.001471527
10.46732 679.5451 679.184867 673.592188 0.001471573
10.47612 679.9718 679.448207 673.849465 0.001470649
10.48493 680.65875 679.726779 674.106798 0.001469165
10.49374 681.81677 680.022086 674.364222 0.00146667
10.50255 682.39557 680.336038 674.621776 0.001465426
10.51135 683.11353 680.671097 674.879497 0.001463886
10.52016 683.85352 681.030573 675.137452 0.001462301
10.52897 684.45227 681.418605 675.395621 0.001461022
10.53777 685.08386 681.840847 675.654072 0.001459675
10.54658 685.43201 682.305223 675.912842 0.001458934
10.55539 685.86987 682.823239 676.171972 0.001458003
10.56420 687.20648 683.412891 676.431528 0.001455167
10.57300 688.86517 684.103565 676.69149 0.001451663
10.58181 690.37439 684.944133 676.951929 0.001448489
10.59062 691.61047 686.013439 677.212881 0.001445901
10.59943 692.86749 687.431775 677.474388 0.001443277
10.60823 695.28998 689.365321 677.736486 0.001438249
10.61704 698.39703 692.017332 677.999247 0.00143185
10.62585 701.49896 695.596387 678.262648 0.001425519
10.63465 704.22412 700.258163 678.526758 0.001420002
10.64346 707.43372 706.011584 678.791617 0.00141356
10.65227 712.03101 712.564949 679.057263 0.001404433
10.66108 717.55682 719.072583 679.323765 0.001393618
10.66988 722.19867 724.004763 679.591101 0.001384661
10.67869 724.64868 725.825734 679.859338 0.001379979
10.68750 724.01837 724.359128 680.128516 0.00138118
10.69630 720.98889 720.891093 680.398671 0.001386984
10.70511 717.2644 716.743588 680.669872 0.001394186
10.71392 712.7002 712.460023 680.942095 0.001403115
10.72273 708.18164 708.14678 681.215406 0.001412067
10.73153 704.49921 704.027474 681.489843 0.001419448
10.74034 702.44916 700.443154 681.765409 0.001423591
10.74915 700.37036 697.587826 682.042203 0.001427816
10.75795 697.62933 695.463099 682.320261 0.001433426
10.76676 695.73273 693.970092 682.599554 0.001437334
10.77557 695.62836 692.98041 682.880149 0.001437549
10.78438 695.91821 692.371488 683.162077 0.00143695
10.79318 696.41309 692.04022 683.445374 0.001435929
10.80199 696.1106 691.906178 683.730104 0.001436553
10.81080 695.70801 691.910986 684.016234 0.001437385
10.81960 695.59717 692.015087 684.303829 0.001437614
10.82841 695.78668 692.192944 684.592919 0.001437222
10.83722 695.18884 692.428544 684.883535 0.001438458
10.84602 695.25354 692.712064 685.175706 0.001438324
10.85483 695.69757 693.037453 685.469495 0.001437406
10.86364 696.21118 693.400877 685.764864 0.001436346
10.87245 696.37311 693.800219 686.061873 0.001436012
10.88125 696.98206 694.234442 686.36055 0.001434757
10.89006 697.49054 694.703471 686.660921 0.001433711
10.89887 698.34869 695.208139 686.963046 0.001431949
10.90768 698.32098 695.749847 687.266881 0.001432006
10.91648 699.32074 696.33108 687.572483 0.001429959
10.92529 700.48718 696.955132 687.879877 0.001427578
10.93410 701.41882 697.626293 688.189085 0.001425682
10.94290 701.83679 698.350161 688.500127 0.001424833
10.95171 702.62164 699.133935 688.813062 0.001423241
10.96052 703.85596 699.986628 689.127837 0.001420745
10.96933 704.54926 700.920488 689.444506 0.001419347
10.97813 705.46252 701.952277 689.763089 0.00141751
10.98694 707.05536 703.105982 690.083601 0.001414316
10.99575 709.1593 704.417847 690.406098 0.00141012
11.00455 710.6803 705.942333 690.730519 0.001407102
11.01336 712.98492 707.762304 691.056918 0.001402554
11.02217 715.53992 709.998703 691.385306 0.001397546
11.03098 718.88196 712.819148 691.715698 0.001391049
11.03978 722.4209 716.440453 692.048104 0.001384235
11.04859 726.64935 721.123486 692.382574 0.00137618
11.05740 731.95502 727.146934 692.719041 0.001366204
11.06621 737.87067 734.759617 693.057553 0.001355251
11.07501 744.83563 744.074206 693.398117 0.001342578
11.08382 751.79041 754.893809 693.74074 0.001330158
11.09263 759.04041 766.595321 694.085467 0.001317453
11.10143 766.31433 778.394432 694.432226 0.001304948
11.11024 774.15558 789.850464 694.781059 0.00129173
11.11905 781.21014 800.605898 695.131969 0.001280065
11.12786 787.17096 809.491438 695.484958 0.001270372
11.13666 790.59912 814.792135 695.840028 0.001264864
11.14547 794.27087 816.008587 696.197219 0.001259016
11.15428 796.66852 814.452293 696.556449 0.001255227
11.16308 798.09808 811.672449 696.917757 0.001252979
11.17189 800.57904 808.516607 697.28114 0.001249096
11.18070 804.48712 806.071884 697.646594 0.001243028
11.18951 810.08148 806.497325 698.014155 0.001234444
11.19831 819.03278 812.483887 698.383735 0.001220952
11.20712 832.79156 826.454966 698.755369 0.001200781
11.21593 852.1095 850.240895 699.129048 0.001173558
11.22473 879.68182 884.843019 699.504765 0.001136775
11.23354 915.21619 929.897249 699.882508 0.001092638
11.24235 959.71906 982.763488 700.262312 0.001041972
11.25116 1011.5404 1037.001711 700.644077 0.000988591
11.25996 1061.3976 1080.968358 701.027835 0.000942154
11.26877 1085.8363 1100.208109 701.413572 0.000920949
11.27758 1074.4305 1086.772524 701.801229 0.000930726
11.28638 1034.4484 1046.514976 702.190923 0.000966699
11.29519 980.55481 993.489125 702.582506 0.001019831
11.30400 929.47595 939.906885 702.976005 0.001075875
11.31281 889.51453 892.782576 703.371402 0.001124209
11.32161 859.88452 855.075614 703.768677 0.001162947
11.33042 839.76709 827.382337 704.167857 0.001190806
11.33923 827.98083 809.084557 704.568829 0.001207757
11.34803 822.84698 799.14447 704.971619 0.001215293
11.35684 822.91846 796.665118 705.376202 0.001215187
11.36565 827.75922 801.249627 705.782558 0.001208081
11.37445 836.64813 813.065985 706.19066 0.001195246
11.38326 850.51105 832.674935 706.600531 0.001175764
11.39207 868.55786 860.612026 707.012053 0.001151334
11.40088 892.97333 896.789365 707.425246 0.001119854
11.40968 926.37866 939.748512 707.840082 0.001079472
11.41849 970.36676 985.91328 708.256534 0.001030538
11.42730 1022.5386 1028.761257 708.674621 0.000977958
11.43611 1067.2339 1058.516431 709.094218 0.000937002
11.44491 1084.859 1064.976529 709.515343 0.000921779
11.45372 1068.0529 1044.77971 709.937967 0.000936283
11.46253 1021.6749 1004.981236 710.362056 0.000978785
11.47133 963.98279 957.15827 710.78758 0.001037363
11.48014 914.50439 910.537781 711.214554 0.001093488
11.48895 874.44763 870.249908 711.64285 0.001143579
11.49776 844.73059 838.407989 712.07248 0.001183809
11.50656 822.94891 815.300347 712.503412 0.001215142
11.51537 808.45807 800.160565 712.93561 0.001236923
11.52418 798.28766 791.651201 713.369088 0.001252681
11.53299 792.20862 788.184842 713.803713 0.001262294
11.54179 788.47437 788.011546 714.239497 0.001268272
11.55060 787.27124 789.176202 714.676403 0.00127021
11.55941 786.22705 789.528523 715.114395 0.001271897
11.56821 784.11841 787.318098 715.553435 0.001275318
11.57702 779.50806 782.150453 715.993535 0.00128286
11.58583 772.58441 775.05687 716.434557 0.001294357
11.59464 765.53748 767.483436 716.876511 0.001306272
11.60344 759.21899 760.50142 717.31936 0.001317143
11.61225 755.19092 754.694798 717.763064 0.001324168
11.62106 751.88904 750.303689 718.207633 0.001329983
11.62986 749.47095 747.35692 718.652928 0.001334275
11.63867 747.58606 745.752237 719.098958 0.001337639
11.64748 746.97784 745.303809 719.545683 0.001338728
11.65629 746.20502 745.765565 719.993062 0.001340114
11.66509 745.95575 746.822378 720.441056 0.001340562
11.67390 745.58661 748.05242 720.889673 0.001341226
11.68271 745.42242 748.916704 721.338773 0.001341521
11.69151 744.78809 748.908035 721.788363 0.001342664
11.70032 744.06561 747.854588 722.238403 0.001343968
11.70913 743.43158 746.028288 722.688853 0.001345114
11.71794 742.5788 743.889954 723.139721 0.001346658
11.72674 741.53381 741.814227 723.590865 0.001348556
11.73555 740.41821 740.013219 724.042295 0.001350588
11.74436 739.06671 738.576936 724.493968 0.001353058
11.75316 738.70544 737.517796 724.945845 0.00135372
11.76197 738.63037 736.802541 725.397884 0.001353857
11.77078 738.18372 736.375992 725.850095 0.001354676
11.77959 738.4024 736.177697 726.302335 0.001354275
11.78839 738.98151 736.153287 726.754615 0.001353214
11.79720 738.87604 736.261472 727.206894 0.001353407
11.80601 738.35156 736.475587 727.659132 0.001354368
11.81481 738.57916 736.783321 728.111288 0.001353951
11.82362 739.55127 737.185576 728.563324 0.001352171
11.83243 739.96637 737.694764 729.015199 0.001351413
11.84123 740.06085 738.33303 729.466873 0.00135124
11.85004 740.50739 739.129297 729.918309 0.001350425
11.85885 741.39026 740.11391 730.369518 0.001348817
11.86766 742.64264 741.310509 730.82036 0.001346543
11.87646 744.08789 742.726975 731.270847 0.001343927
11.88527 745.25635 744.340692 731.720943 0.00134182
11.89408 746.49738 746.079439 732.170609 0.001339589
11.90288 747.35461 747.797526 732.61981 0.001338053
11.91169 748.68927 749.270643 733.068559 0.001335668
11.92050 749.38232 750.268653 733.516719 0.001334432
11.92931 749.47406 750.701805 733.964305 0.001334269
11.93811 749.84906 750.680155 734.411283 0.001333602
11.94692 750.47656 750.406088 734.857617 0.001332487
11.95573 750.96631 750.05523 735.303326 0.001331618
11.96454 752.18945 749.761498 735.748273 0.001329452
11.97334 752.86853 749.641626 736.192476 0.001328253
11.98215 753.96228 749.804425 736.635905 0.001326326
11.99096 755.61395 750.353313 737.078526 0.001323427
11.99976 758.45599 751.399956 737.520309 0.001318468
12.00857 761.18335 753.083606 737.961274 0.001313744
12.01738 764.67273 755.586001 738.401291 0.001307749
12.02619 768.39252 759.128792 738.840381 0.001301418
12.03499 772.50604 763.948458 739.278514 0.001294488
12.04380 777.7569 770.245927 739.715665 0.001285749
12.05261 783.95807 778.119837 740.151855 0.001275578
12.06142 790.53571 787.464049 740.586958 0.001264965
12.07022 797.86578 797.861479 741.021 0.001253344
12.07903 806.29773 808.40464 741.453954 0.001240237
12.08784 813.31104 817.546061 741.885798 0.001229542
12.09664 817.7359 823.2587 742.316507 0.001222889
12.10545 818.29694 823.921191 742.746108 0.00122205
12.11426 813.81549 819.4639 743.174482 0.00122878
12.12307 806.6228 811.427193 743.601656 0.001239737
12.13187 798.08533 801.850691 744.027611 0.001252999
12.14068 790.45947 792.334934 744.452327 0.001265087
12.14949 784.65576 783.836765 744.875833 0.001274444
12.15829 779.74701 776.816004 745.298017 0.001282467
12.16710 775.52777 771.407686 745.718908 0.001289444
12.17591 771.51544 767.542857 746.138491 0.00129615
12.18472 768.63495 765.046126 746.556752 0.001301008
12.19352 767.42944 763.701561 746.973675 0.001303051
12.20233 767.07825 763.300048 747.389295 0.001303648
12.21114 766.82001 763.659578 747.803504 0.001304087
12.21994 767.55023 764.623636 748.216339 0.001302846
12.22875 769.23126 766.041404 748.627788 0.001299999
12.23756 772.21356 767.738482 749.037841 0.001294979
12.24637 774.83325 769.476976 749.446536 0.0012906
12.25517 777.20764 770.934201 749.853773 0.001286657
12.26398 778.2359 771.763493 750.259589 0.001284957
12.27279 778.26343 771.761227 750.66398 0.001284912
12.28159 776.04395 771.007382 751.066938 0.001288587
12.29040 772.38885 769.795879 751.468461 0.001294685
12.29921 769.50421 768.446589 751.868589 0.001299538
12.30802 767.0545 767.193118 752.267229 0.001303688
12.31682 766.15509 766.170896 752.664425 0.001305219
12.32563 765.96808 765.445757 753.060175 0.001305537
12.33444 765.75964 765.038307 753.454479 0.001305893
12.34324 765.37701 764.943066 753.847384 0.001306546
12.35205 765.24188 765.144325 754.238756 0.001306776
12.36086 765.4646 765.627319 754.628732 0.001306396
12.36966 766.11365 766.385751 755.017271 0.001305289
12.37847 767.00952 767.42374 755.404377 0.001303765
12.38728 767.79425 768.752727 755.790099 0.001302432
12.39609 769.13849 770.383971 756.174355 0.001300156
12.40489 771.52386 772.319265 756.557196 0.001296136
12.41370 773.85181 774.537532 756.938631 0.001292237
12.42251 776.14264 776.978463 757.318666 0.001288423
12.43131 778.4054 779.520551 757.697312 0.001284678
12.44012 781.21991 781.978897 758.074622 0.001280049
12.44893 784.67871 784.16187 758.45052 0.001274407
12.45774 787.44922 785.992945 758.825062 0.001269923
12.46654 789.46307 787.579474 759.19826 0.001266684
12.47535 791.37189 789.133238 759.570128 0.001263628
12.48416 793.9989 790.826148 759.940722 0.001259448
12.49297 796.57697 792.707923 760.309972 0.001255371
12.50177 800.10309 794.719709 760.677936 0.001249839
12.51058 802.73846 796.801212 761.044631 0.001245736
12.51939 804.73456 799.034 761.410073 0.001242646
12.52819 806.59564 801.677726 761.774282 0.001239779
12.53700 808.37372 805.055255 762.137315 0.001237052
12.54581 810.81201 809.403541 762.499111 0.001233332
12.55462 815.30994 814.79079 762.85973 0.001226527
12.56342 820.15961 821.07446 763.219193 0.001219275
12.57223 825.11304 827.894728 763.577521 0.001211955
12.58104 830.88153 834.795288 763.934777 0.001203541
12.58985 836.23285 841.502141 764.290901 0.001195839
12.59865 842.32465 848.143568 764.645958 0.001187191
12.60746 848.12366 855.105119 764.999971 0.001179073
12.61627 854.1062 862.668746 765.352964 0.001170815
12.62507 859.09668 870.82492 765.704963 0.001164013
12.63388 866.04004 879.471551 766.056032 0.001154681
12.64269 874.99335 888.884218 766.406117 0.001142866
12.65150 885.52106 899.970568 766.755285 0.001129279
12.66030 897.89166 913.926763 767.103562 0.00111372
12.66911 913.20001 931.605413 767.450977 0.00109505
12.67792 932.49884 953.039364 767.797595 0.001072387
12.68672 957.07697 977.151038 768.143367 0.001044848
12.69553 984.73322 1001.675067 768.488359 0.001015503
12.70434 1010.9454 1023.634938 768.832603 0.000989173
12.71315 1031.3342 1040.622173 769.176126 0.000969618
12.72195 1042.9011 1051.867386 769.518958 0.000958864
12.73076 1051.7429 1057.714341 769.861169 0.000950803
12.73957 1056.5359 1058.0388 770.20271 0.000946489
12.74837 1054.9216 1051.596992 770.543652 0.000947938
12.75718 1040.0881 1037.157744 770.884026 0.000961457
12.76599 1015.3186 1015.335782 771.223862 0.000984913
12.77480 984.91174 988.947041 771.563231 0.001015319
12.78360 954.92737 961.59578 771.902088 0.0010472
12.79241 927.67279 936.165834 772.240501 0.001077966
12.80122 906.67126 914.321185 772.578505 0.001102936
12.81002 891.28485 896.643737 772.916131 0.001121976
12.81883 881.36749 882.883872 773.253411 0.001134601
12.82764 876.4256 872.214353 773.590416 0.001140998
12.83645 873.15796 863.588105 773.927102 0.001145268
12.84525 868.31586 856.173285 774.26354 0.001151655
12.85406 861.61188 849.639142 774.599762 0.001160615
12.86287 854.95477 844.050036 774.935802 0.001169653
12.87167 848.00568 839.545361 775.27173 0.001179237
12.88048 842.6134 836.122856 775.607503 0.001186784
12.88929 839.50079 833.56533 775.943153 0.001191184
12.89809 836.47522 831.443209 776.27879 0.001195493
12.90690 832.54279 829.195551 776.614407 0.001201139
12.91571 827.09576 826.335231 776.950038 0.00120905
12.92452 821.4068 822.690462 777.285752 0.001217424
12.93332 816.44104 818.458088 777.621507 0.001224828
12.94213 811.83203 814.01917 777.957371 0.001231782
12.95094 806.42578 809.729343 778.293377 0.00124004
12.95974 801.65472 805.828131 778.629558 0.00124742
12.96855 798.39496 802.446109 778.965981 0.001252513
12.97736 796.14349 799.633202 779.302603 0.001256055
12.98617 794.30573 797.379557 779.639493 0.001258961
12.99497 793.01343 795.638605 779.976682 0.001261013
13.00378 791.68872 794.340843 780.314199 0.001263123
13.01259 791.06897 793.407419 780.652114 0.001264112
13.02140 791.0365 792.762903 780.99038 0.001264164
13.03020 790.91229 792.341012 781.329065 0.001264363
13.03901 791.29834 792.088708 781.668197 0.001263746
13.04782 791.45258 791.967121 782.007807 0.0012635
13.05662 791.5639 791.949977 782.347921 0.001263322
13.06543 792.12787 792.021841 782.688607 0.001262422
13.07424 792.70636 792.176889 783.029816 0.001261501
13.08305 793.36975 792.418038 783.371612 0.001260446
13.09185 793.66699 792.757492 783.714023 0.001259974
13.10066 794.0094 793.217626 784.057075 0.001259431
13.10947 794.5816 793.83223 784.400832 0.001258524
13.11828 795.49426 794.646804 784.745241 0.00125708
13.12708 797.2735 795.717405 785.090367 0.001254275
13.13589 799.24969 797.106016 785.436233 0.001251173
13.14470 801.49963 798.873498 785.782863 0.001247661
13.15350 804.47321 801.06728 786.13028 0.001243049
13.16231 807.46484 803.707772 786.478546 0.001238444
13.17112 809.37701 806.77197 786.827603 0.001235518
13.17993 812.26978 810.175789 787.177512 0.001231118
13.18873 814.47852 813.752136 787.528294 0.001227779
13.19754 817.96399 817.229185 787.879968 0.001222548
13.20635 822.00159 820.218654 788.232595 0.001216543
13.21515 824.11792 822.270611 788.586112 0.001213419
13.22396 824.99854 823.030986 788.940577 0.001212123
13.23277 824.81927 822.434406 789.296008 0.001212387
13.24157 822.05951 820.752259 789.652421 0.001216457
13.25038 819.12494 818.44413 790.009831 0.001220815
13.25919 817.03088 815.963842 790.368296 0.001223944
13.26800 815.21857 813.657203 790.727747 0.001226665
13.27680 813.91089 811.747512 791.088239 0.001228636
13.28561 814.42578 810.354368 791.449785 0.001227859
13.29442 813.16687 809.513103 791.812396 0.00122976
13.30323 811.96332 809.194381 792.176127 0.001231583
13.31203 809.68762 809.314708 792.540904 0.001235044
13.32084 807.73657 809.739665 792.906779 0.001238027
13.32965 806.87671 810.289782 793.273761 0.001239347
13.33845 807.05328 810.757503 793.641857 0.001239076
13.34726 807.1723 810.953483 794.011077 0.001238893
13.35607 806.6355 810.775359 794.381467 0.001239717
13.36488 805.32092 810.244278 794.752951 0.001241741
13.37368 804.8269 809.473414 795.125574 0.001242503
13.38249 804.65686 808.601614 795.499342 0.001242766
13.39130 804.0694 807.745413 795.874258 0.001243674
13.40010 804.33801 806.985845 796.250367 0.001243258
13.40891 805.01648 806.37208 796.627586 0.001242211
13.41772 805.20221 805.927662 797.005957 0.001241924
13.42652 804.45947 805.658409 797.385439 0.001243071
13.43533 803.88348 805.557481 797.766116 0.001243961
13.44414 804.31665 805.611166 798.147945 0.001243291
13.45295 805.15131 805.803333 798.530966 0.001242003
13.46175 805.53003 806.119505 798.915089 0.001241419
13.47056 805.75635 806.548995 799.300355 0.00124107
13.47937 805.7439 807.085972 799.686757 0.001241089
13.48818 806.14215 807.728675 800.074291 0.001240476
13.49698 806.72931 808.477637 800.462994 0.001239573
13.50579 806.6167 809.332932 800.85277 0.001239746
13.51460 807.2276 810.291483 801.243657 0.001238808
13.52340 808.88586 811.343627 801.635645 0.001236268
13.53221 811.02551 812.470346 802.028724 0.001233007
13.54102 811.94562 813.639072 802.422884 0.00123161
13.54983 812.54327 814.800845 802.818159 0.001230704
13.55863 812.87976 815.890464 803.214448 0.001230194
13.56744 813.42761 816.838228 803.611781 0.001229366
13.57625 814.87933 817.595478 804.010146 0.001227176
13.58505 816.03198 818.16163 804.409529 0.001225442
13.59386 816.27557 818.587673 804.809959 0.001225076
13.60267 816.10767 818.954042 805.211331 0.001225329
13.61148 817.42163 819.343598 805.613673 0.001223359
13.62028 819.02191 819.829388 806.016968 0.001220969
13.62909 820.51495 820.475596 806.421198 0.001218747
13.63790 821.39441 821.344209 806.826344 0.001217442
13.64671 823.03796 822.505602 807.232433 0.001215011
13.65551 825.26776 824.049383 807.639353 0.001211728
13.66432 827.86139 826.096311 808.04713 0.001207932
13.67313 831.37384 828.809924 808.455741 0.001202828
13.68193 836.26483 832.406343 808.865165 0.001195793
13.69074 843.35968 837.154697 809.275426 0.001185734
13.69955 852.72351 843.365467 809.686407 0.001172713
13.70835 865.48627 851.373077 810.098131 0.00115542
13.71716 882.94714 861.488046 810.510574 0.001132571
13.72597 904.13342 873.943018 810.923709 0.001106031
13.73478 927.70197 888.832104 811.337513 0.001077932
13.74358 953.93878 906.030491 811.752005 0.001048285
13.75239 980.51227 925.110604 812.167064 0.001019875
13.76120 1001.7469 945.278332 812.58271 0.000998256
13.77000 1018.0104 965.251424 812.998916 0.000982308
13.77881 1025.0431 983.205662 813.415653 0.000975569
13.78762 1027.5961 996.894144 813.83294 0.000973145
13.79643 1022.3994 1004.115231 814.250652 0.000978091
13.80523 1008.5721 1003.576268 814.668807 0.000991501
13.81404 988.42358 995.534935 815.087375 0.001011712
13.82285 964.02148 981.668635 815.506325 0.001037321
13.83166 938.63861 964.28503 815.925674 0.001065373
13.84046 916.77606 945.554674 816.345296 0.001090779
13.84927 898.50452 927.153358 816.765205 0.00111296
13.85808 884.02521 910.229182 817.18537 0.001131189
13.86688 873.11749 895.47716 817.605759 0.001145321
13.87569 864.9895 883.251287 818.026339 0.001156083
13.88450 858.88696 873.640102 818.447124 0.001164298
13.89331 854.17426 866.54602 818.867985 0.001170721
13.90211 851.92383 861.758913 819.288937 0.001173814
13.91092 850.50256 859.02143 819.709946 0.001175775
13.91973 850.25983 858.077688 820.130978 0.001176111
13.92854 850.5462 858.718365 820.552045 0.001175715
13.93734 852.0343 860.804001 820.973019 0.001173662
13.94615 852.97284 864.264137 821.393911 0.00117237
13.95496 854.9519 869.071201 821.814688 0.001169656
13.96376 858.56812 875.190188 822.235267 0.00116473
13.97257 864.39673 882.521157 822.655708 0.001156876
13.98138 870.82544 890.846535 823.075976 0.001148336
13.99018 879.61987 899.787897 823.49594 0.001136855
13.99899 890.73895 908.771959 823.915613 0.001122663
14.00780 902.76233 917.035789 824.334959 0.001107711
14.01661 913.93127 923.7111 824.753944 0.001094174
14.02541 923.85443 927.984193 825.172579 0.001082422
14.03422 929.42316 929.285589 825.590733 0.001075936
14.04303 928.90131 927.438148 826.00842 0.001076541
14.05183 922.21887 922.719096 826.425604 0.001084341
14.06064 911.2749 915.809946 826.842251 0.001097364
14.06945 898.60242 907.607704 827.258324 0.001112839
14.07826 886.37701 898.997922 827.673836 0.001128188
14.08706 876.63525 890.716432 828.088658 0.001140725
14.09587 869.20441 883.30125 828.502803 0.001150477
14.10468 863.60547 877.118503 828.916237 0.001157936
14.11348 860.26392 872.399966 829.328924 0.001162434
14.12229 859.55829 869.276129 829.740879 0.001163388
14.13110 860.39703 867.806942 830.151973 0.001162254
14.13991 862.2951 867.99964 830.562219 0.001159696
14.14871 865.36407 869.821286 830.971586 0.001155583
14.15752 868.82684 873.200458 831.380038 0.001150977
14.16633 873.55121 878.02176 831.787545 0.001144753
14.17513 880.44232 884.116769 832.194119 0.001135793
14.18394 887.19305 891.237315 832.599637 0.00112715
14.19275 896.29089 899.043286 833.004112 0.001115709
14.20156 907.15411 907.066648 833.407514 0.001102349
14.21036 917.88354 914.695513 833.809812 0.001089463
14.21917 930.26971 921.200376 834.21102 0.001074957
14.22798 942.21429 925.860358 834.611018 0.00106133
14.23678 947.67236 928.202718 835.009821 0.001055217
14.24559 949.75183 928.231822 835.407401 0.001052907
14.25440 950.25055 926.467151 835.803728 0.001052354
14.26321 941.75751 923.752881 836.198774 0.001061844
14.27201 936.89532 920.992206 836.592557 0.001067355
14.28082 932.17419 918.963587 836.984959 0.001072761
14.28963 924.81134 918.250365 837.375999 0.001081302
14.29843 923.31744 919.219919 837.76565 0.001083051
14.30724 925.82172 922.022452 838.153887 0.001080122
14.31605 929.81958 926.586225 838.540728 0.001075477
14.32486 936.34204 932.602541 838.926062 0.001067986
14.33366 943.71161 939.541343 839.309909 0.001059646
14.34247 948.91559 946.711845 839.692244 0.001053835
14.35128 952.56183 953.39167 840.073047 0.001049801
14.36008 953.48651 958.99199 840.452293 0.001048783
14.36889 953.46124 963.114663 840.830006 0.00104881
14.37770 951.63647 965.47245 841.206078 0.001050821
14.38651 949.80646 965.760088 841.580532 0.001052846
14.39531 946.60999 963.655373 841.953349 0.001056401
14.40412 942.82074 958.985621 842.32451 0.001060647
14.41293 936.16339 951.931719 842.694039 0.00106819
14.42174 929.38757 943.070481 843.061835 0.001075977
14.43054 921.57709 933.189972 843.427923 0.001085096
14.43935 914.13287 923.119878 843.792287 0.001093933
14.44816 907.27844 913.496292 844.154912 0.001102197
14.45696 900.90759 904.774385 844.515783 0.001109992
14.46577 896.29071 897.224435 844.874927 0.001115709
14.47458 892.87408 890.973924 845.23225 0.001119979
14.48339 889.54279 886.025335 845.587781 0.001124173
14.49219 886.34442 882.289755 845.941507 0.00112823
14.50100 884.32233 879.605276 846.293378 0.001130809
14.50981 881.39569 877.754859 846.643504 0.001134564
14.51861 878.86438 876.488347 846.991755 0.001137832
14.52742 877.10461 875.546296 847.338164 0.001140115
14.53623 876.00726 874.69465 847.682722 0.001141543
14.54504 874.84778 873.777233 848.025423 0.001143056
14.55384 873.71497 872.712779 848.366298 0.001144538
14.56265 871.95776 871.5367 848.705265 0.001146845
14.57146 870.17419 870.302656 849.042359 0.001149195
14.58026 867.23419 869.087949 849.377575 0.001153091
14.58907 865.5799 867.962933 849.71091 0.001155295
14.59788 864.8526 866.983645 850.042362 0.001156266
14.60669 864.81256 866.193568 850.371966 0.00115632
14.61549 863.84467 865.621486 850.699648 0.001157616
14.62430 863.80249 865.300467 851.025444 0.001157672
14.63311 863.88458 865.248468 851.349355 0.001157562
14.64191 864.37872 865.487311 851.671384 0.0011569
14.65072 864.82373 866.041896 851.991567 0.001156305
14.65953 865.84424 866.929389 852.309837 0.001154942
14.66834 866.93555 868.215354 852.626232 0.001153488
14.67714 868.95752 869.929152 852.940758 0.001150804
14.68595 871.75781 872.11726 853.253419 0.001147108
14.69476 874.71124 874.823276 853.564223 0.001143234
14.70356 878.12457 878.081451 853.87321 0.001138791
14.71237 881.57861 881.907795 854.180319 0.001134329
14.72118 885.76263 886.291268 854.485592 0.001128971
14.72999 889.55145 891.18079 854.789038 0.001124162
14.73879 895.52576 896.470286 855.090667 0.001116662
14.74760 900.14722 901.998066 855.390524 0.001110929
14.75641 905.55414 907.520357 855.688551 0.001104296
14.76521 907.46234 912.743133 855.984794 0.001101974
14.77402 910.66083 917.371049 856.279266 0.001098104
14.78283 910.95093 921.17785 856.57198 0.001097754
14.79164 912.396 924.054412 856.86295 0.001096015
14.80044 913.38092 925.99242 857.152222 0.001094833
14.80925 916.18219 927.011752 857.439746 0.001091486
14.81806 917.08539 927.112507 857.725571 0.001090411
14.82686 917.40674 926.286149 858.009712 0.001090029
14.83567 915.99133 924.58772 858.292187 0.001091713
14.84448 915.03992 922.208832 858.573046 0.001092848
14.85329 912.42413 919.49131 858.852241 0.001095982
14.86209 910.54541 916.863191 859.129825 0.001098243
14.87090 908.5528 914.757819 859.405815 0.001100651
14.87971 907.96582 913.550052 859.680232 0.001101363
14.88851 908.87927 913.534214 859.953096 0.001100256
14.89732 912.01239 914.912486 860.224458 0.001096476
14.90613 917.51129 917.791182 860.494279 0.001089905
14.91494 925.21741 922.181381 860.76261 0.001080827
14.92374 933.72931 927.986509 861.029474 0.001070974
14.93255 943.17999 934.99079 861.294893 0.001060243
14.94136 953.75 942.852825 861.558921 0.001048493
14.95017 964.27747 951.085401 861.82152 0.001037046
14.95897 974.36511 959.072762 862.082746 0.001026309
14.96778 982.62372 966.122568 862.342622 0.001017684
14.97659 988.12427 971.570651 862.601172 0.001012018
14.98539 989.82959 974.923659 862.858423 0.001010275
14.99420 988.90186 975.941413 863.114428 0.001011223
15.00301 984.92114 974.617398 863.369155 0.00101531
15.01182 978.80707 971.094714 863.622659 0.001021652
15.02062 969.56036 965.613139 863.874966 0.001031395
15.02943 959.02679 958.518951 864.126104 0.001042724
15.03824 947.43256 950.271635 864.376098 0.001055484
15.04704 935.89374 941.397167 864.624976 0.001068497
15.05585 925.29419 932.409157 864.872765 0.001080737
15.06466 916.15649 923.737614 865.119493 0.001091517
15.07347 908.12646 915.694555 865.365188 0.001101168
15.08227 901.55469 908.476694 865.609904 0.001109195
15.09108 895.67914 902.186349 865.853615 0.001116471
15.09989 891.11432 896.845072 866.096377 0.00112219
15.10869 887.8858 892.418685 866.338217 0.001126271
15.11750 884.77954 888.835278 866.579165 0.001130225
15.12631 882.15698 885.998874 866.819248 0.001133585
15.13512 880.21796 883.802299 867.058523 0.001136082
15.14392 879.44775 882.139419 867.296963 0.001137077
15.15273 878.45313 880.909544 867.534624 0.001138365
15.16154 877.04596 880.023669 867.771536 0.001140191
15.17034 876.5639 879.407004 868.007726 0.001140818
15.17915 876.36066 878.998873 868.24325 0.001141083
15.18796 876.88019 878.752342 868.478082 0.001140407
15.19677 876.758 878.63266 868.712279 0.001140566
15.20557 876.39801 878.615441 868.945869 0.001141034
15.21438 876.39368 878.685051 869.178879 0.00114104
15.22319 877.17633 878.833414 869.411338 0.001140022
15.23199 877.07898 879.058842 869.6433 0.001140148
15.24080 877.73804 879.365483 869.874741 0.001139292
15.24961 878.73645 879.763463 870.105715 0.001137998
15.25842 880.01831 880.268553 870.336249 0.00113634
15.26722 880.89136 880.90234 870.56637 0.001135214
15.27603 881.7229 881.692555 870.796132 0.001134143
15.28484 882.68091 882.671654 871.025509 0.001132912
15.29364 884.68365 883.876622 871.254555 0.001130348
15.30245 886.2467 885.34723 871.483295 0.001128354
15.31126 887.30054 887.122856 871.711755 0.001127014
15.32007 888.58521 889.239536 871.939962 0.001125384
15.32887 891.24084 891.727456 872.167966 0.001122031
15.33768 895.32483 894.60388 872.395742 0.001116913
15.34649 898.64893 897.871787 872.623339 0.001112782
15.35529 900.49481 901.514123 872.850783 0.001110501
15.36410 902.96198 905.487876 873.078096 0.001107466
15.37291 906.02649 909.719817 873.30533 0.00110372
15.38172 910.07623 914.102056 873.532454 0.001098809
15.39052 914.76892 918.496094 873.759519 0.001093172
15.39933 919.18372 922.747494 873.986546 0.001087922
15.40814 923.70135 926.714586 874.213557 0.001082601
15.41695 927.14923 930.301507 874.440574 0.001078575
15.42575 929.02429 933.477289 874.667644 0.001076398
15.43456 930.12335 936.267652 874.894736 0.001075126
15.44337 931.46625 938.73558 875.121895 0.001073576
15.45217 933.10864 940.953516 875.349142 0.001071687
15.46098 934.70825 942.979219 875.576494 0.001069853
15.46979 936.8476 944.840807 875.803998 0.001067409
15.47860 940.44476 946.530631 876.031618 0.001063327
15.48740 945.21399 948.012786 876.259398 0.001057961
15.49621 949.56342 949.237827 876.487356 0.001053116
15.50502 953.11005 950.148746 876.715507 0.001049197
15.51382 956.36609 950.683674 876.943867 0.001045625
15.52263 958.30469 950.785465 877.172477 0.001043509
15.53144 958.73724 950.424807 877.4013 0.001043039
15.54025 957.37329 949.618087 877.630377 0.001044525
15.54905 955.12823 948.436935 877.859719 0.00104698
15.55786 951.70758 947.002249 878.089341 0.001050743
15.56667 948.12463 945.465847 878.31928 0.001054714
15.57547 944.40326 943.984335 878.54947 0.00105887
15.58428 942.46625 942.681617 878.779999 0.001061046
15.59309 942.41949 941.66266 879.010852 0.001061099
15.60190 943.78741 940.971718 879.242039 0.001059561
15.61070 945.26569 940.622875 879.473595 0.001057904
15.61951 946.86987 940.669414 879.705475 0.001056111
15.62832 949.80859 941.146486 879.937714 0.001052844
15.63712 952.46277 942.129034 880.170319 0.00104991
15.64593 955.35022 943.708775 880.403295 0.001046737
15.65474 958.5083 945.968003 880.636649 0.001043288
15.66355 962.47522 948.955043 880.870413 0.001038988
15.67235 966.45636 952.672055 881.104537 0.001034708
15.68116 970.49622 957.071998 881.339053 0.001030401
15.68997 973.99054 962.058855 881.573962 0.001026704
15.69877 978.01794 967.485053 881.809268 0.001022476
15.70758 982.06415 973.127868 882.044998 0.001018263
15.71639 986.97571 978.674133 882.281102 0.001013196
15.72520 991.67023 983.707243 882.517605 0.0010084
15.73400 997.34723 987.726872 882.754508 0.00100266
15.74281 1003.2679 990.213256 882.991809 0.000996743
15.75162 1007.2692 990.732084 883.229508 0.000992783
15.76042 1010.0731 989.06104 883.467629 0.000990027
15.76923 1008.375 985.263664 883.706115 0.000991695
15.77804 1003.0342 979.665656 883.94499 0.000996975
15.78685 995.37494 972.75542 884.18425 0.001004647
15.79565 985.93866 965.060728 884.42389 0.001014262
15.80446 973.73541 957.068263 884.663933 0.001026973
15.81327 961.77478 949.186139 884.904317 0.001039744
15.82207 952.04401 941.724968 885.145063 0.001050372
15.83088 943.92017 934.914384 885.386165 0.001059412
15.83969 937.716 928.907915 885.627614 0.001066421
15.84850 932.01862 923.789972 885.869403 0.00107294
15.85730 927.61981 919.59082 886.11155 0.001078028
15.86611 924.62213 916.296415 886.35399 0.001081523
15.87492 922.2807 913.853877 886.596741 0.001084269
15.88373 920.2417 912.188366 886.839793 0.001086671
15.89253 918.83984 911.210778 887.083134 0.001088329
15.90134 918.06366 910.825402 887.32678 0.001089249
15.91015 917.21399 910.939905 887.570665 0.001090258
15.91895 917.16595 911.470113 887.814802 0.001090315
15.92776 916.97644 912.341751 888.059179 0.001090541
15.93657 916.83868 913.490952 888.303782 0.001090704
15.94538 916.30121 914.861443 888.548597 0.001091344
15.95418 916.66516 916.401248 888.793638 0.001090911
15.96299 916.98627 918.064142 889.038833 0.001090529
15.97180 917.00085 919.815265 889.284195 0.001090512
15.98060 917.41724 921.632409 889.529708 0.001090017
15.98941 918.55182 923.505105 889.775356 0.00108867
15.99822 919.67224 925.427093 890.021151 0.001087344
16.00702 920.70013 927.382259 890.26699 0.00108613
16.01583 922.79095 929.339635 890.512969 0.001083669
16.02464 925.45111 931.249233 890.758957 0.001080554
16.03345 928.66351 933.054453 891.00505 0.001076816
16.04225 930.89832 934.70645 891.251115 0.001074231
16.05106 932.31195 936.186696 891.497275 0.001072602
16.05987 932.41663 937.506657 891.743343 0.001072482
16.06868 932.05347 938.70222 891.989438 0.0010729
16.07748 931.37701 939.807571 892.235431 0.001073679
16.08629 931.17303 940.83484 892.481411 0.001073914
16.09510 931.39691 941.758262 892.727277 0.001073656
16.10391 931.83496 942.512619 892.973062 0.001073151
16.11271 932.08441 943.002214 893.218664 0.001072864
16.12152 932.7851 943.113981 893.464173 0.001072058
16.13032 932.91046 942.794186 893.709456 0.001071914
16.13913 932.95123 942.014097 893.954605 0.001071867
16.14794 932.63745 940.828821 894.199514 0.001072228
16.15675 931.93866 939.351614 894.444218 0.001073032
16.16555 929.59528 937.729103 894.688612 0.001075737
16.17436 928.07257 936.107646 894.932786 0.001077502
16.18317 927.58051 934.61563 895.176608 0.001078074
16.19198 928.33423 933.353369 895.420194 0.001077198
16.20078 929.81873 932.39308 895.663357 0.001075478
16.20959 931.23273 931.777456 895.906215 0.001073845
16.21840 932.92273 931.526533 896.148634 0.0010719
16.22721 934.8371 931.640809 896.390703 0.001069705
16.23601 937.22174 932.110785 896.63232 0.001066983
16.24482 937.59448 932.925912 896.873516 0.001066559
16.25363 938.02258 934.090208 897.114189 0.001066072
16.26243 937.81824 935.608425 897.354428 0.001066305
16.27124 939.2226 937.487386 897.5941 0.00106471
16.28005 938.67419 939.723897 897.833296 0.001065332
16.28886 940.02295 942.292238 898.071912 0.001063804
16.29766 942.32935 945.13983 898.309981 0.0010612
16.30647 945.89429 948.182446 898.547403 0.001057201
16.31528 950.38654 951.303937 898.784265 0.001052203
16.32408 956.94702 954.356034 899.020439 0.00104499
16.33289 961.4198 957.173255 899.256013 0.001040128
16.34170 966.90564 959.591856 899.490887 0.001034227
16.35051 970.60522 961.488209 899.725094 0.001030285
16.35931 970.93066 962.810621 899.958537 0.00102994
16.36812 968.75024 963.597774 900.191302 0.001032258
16.37693 966.45447 963.962979 900.423266 0.00103471
16.38573 964.10986 964.061519 900.654488 0.001037226
16.39454 963.00482 964.050662 900.884953 0.001038416
16.40335 961.85925 964.055868 901.114562 0.001039653
16.41215 960.81183 964.157493 901.343404 0.001040787
16.42096 962.13037 964.384418 901.571359 0.00103936
16.42977 964.55273 964.712864 901.798538 0.00103675
16.43858 966.84625 965.074444 902.024772 0.001034291
16.44738 968.37677 965.372613 902.250173 0.001032656
16.45619 970.33789 965.507338 902.474625 0.001030569
16.46500 970.94098 965.412193 902.698214 0.001029929
16.47380 971.29065 965.084566 902.920826 0.001029558
16.48261 970.73602 964.598279 903.142571 0.001030146
16.49142 970.59399 964.093239 903.363287 0.001030297
16.50023 968.68872 963.747427 903.583086 0.001032323
16.50903 969.72241 963.74465 903.801856 0.001031223
16.51784 969.52936 964.264765 904.019684 0.001031428
16.52665 972.27435 965.452636 904.236486 0.001028516
16.53546 973.20337 967.427087 904.4523 0.001027534
16.54426 979.14484 970.272127 904.667042 0.001021299
16.55307 982.31964 974.039297 904.8808 0.001017999
16.56188 990.53619 978.738075 905.093469 0.001009554
16.57068 996.24994 984.341141 905.305136 0.001003764
16.57949 1007.7669 990.780823 905.515722 0.000992293
16.58830 1014.6754 997.964862 905.725266 0.000985537
16.59710 1025.8661 1005.78811 905.933692 0.000974786
16.60591 1032.4641 1014.165029 906.141087 0.000968557
16.61472 1043.7772 1023.019074 906.347353 0.000958059
16.62353 1048.0544 1032.292154 906.5526 0.000954149
16.63233 1059.0149 1041.895846 906.756685 0.000944274
16.64114 1063.8706 1051.695622 906.959721 0.000939964
16.64995 1072.5093 1061.469479 907.161612 0.000932393
16.65876 1071.3845 1070.930182 907.362447 0.000933372
16.66756 1072.1879 1079.731007 907.562134 0.000932672
16.67637 1064.3867 1087.53935 907.760783 0.000939508
16.68518 1060.7318 1094.062575 907.958261 0.000942745
16.69399 1054.3625 1099.079834 908.154678 0.00094844
16.70279 1050.0859 1102.415377 908.349946 0.000952303
16.71160 1047.8488 1103.908623 908.544156 0.000954336
16.72041 1048.5317 1103.401927 908.737243 0.000953715
16.72921 1050.8514 1100.778445 908.929253 0.000951609
16.73802 1054.0129 1096.021848 909.120124 0.000948755
16.74683 1057.2479 1089.278682 909.309948 0.000945852
16.75563 1056.6033 1080.877222 909.498641 0.000946429
16.76444 1051.9666 1071.265328 909.686295 0.000950601
16.77325 1043.7778 1060.952923 909.872851 0.000958058
16.78206 1034.1117 1050.414787 910.058358 0.000967014
16.79086 1022.5961 1040.063386 910.24276 0.000977903
16.79967 1012.8143 1030.21534 910.426149 0.000987348
16.80848 1003.3376 1021.110151 910.608447 0.000996674
16.81729 995.85632 1012.901697 910.789769 0.001004161
16.82609 989.53564 1005.687971 910.97 0.001010575
16.83490 985.3645 999.484398 911.149251 0.001014853
16.84371 982.15826 994.253754 911.327452 0.001018166
16.85251 981.35535 989.891169 911.504695 0.001018999
16.86132 980.51978 986.242146 911.68091 0.001019867
16.87013 981.0799 983.108961 911.85621 0.001019285
16.87893 981.63202 980.27846 912.030488 0.001018712
16.88774 981.48657 977.538476 912.203856 0.001018863
16.89655 979.75598 974.719761 912.376249 0.001020662
16.90536 976.95557 971.712164 912.547759 0.001023588
16.91416 972.37286 968.480619 912.718343 0.001028412
16.92297 966.42322 965.054454 912.888015 0.001034743
16.93178 959.52307 961.504748 913.05685 0.001042184
16.94058 953.32227 957.925485 913.224785 0.001048963
16.94939 947.68689 954.409192 913.391915 0.001055201
16.95820 942.99591 951.041026 913.558199 0.00106045
16.96701 939.71429 947.8893 913.723691 0.001064153
16.97581 936.5575 945.007958 913.888355 0.00106774
16.98462 934.34381 942.430829 914.052281 0.00107027
16.99343 932.9696 940.178698 914.215415 0.001071846
17.00223 931.38141 938.254784 914.377849 0.001073674
17.01104 930.12921 936.649824 914.539548 0.001075119
17.01985 929.57581 935.34159 914.700566 0.001075759
17.02866 929.55652 934.298825 914.860871 0.001075782
17.03746 929.40613 933.482988 915.020553 0.001075956
17.04627 928.71521 932.85348 915.179562 0.001076756
17.05508 928.69519 932.370387 915.338008 0.00107678
17.06388 928.95728 931.999277 915.495804 0.001076476
17.07269 929.15051 931.712253 915.653062 0.001076252
17.08150 928.87744 931.489674 915.80973 0.001076568
17.09031 928.89154 931.318696 915.965902 0.001076552
17.09911 929.13483 931.192652 916.121528 0.00107627
17.10792 929.3595 931.110516 916.276719 0.00107601
17.11673 930.19354 931.076695 916.431391 0.001075045
17.12554 930.74176 931.100704 916.585654 0.001074412
17.13434 930.74792 931.196426 916.73946 0.001074405
17.14315 930.49799 931.380483 916.892902 0.001074693
17.15196 930.14856 931.670196 917.045949 0.001075097
17.16077 930.47278 932.082846 917.198659 0.001074722
17.16957 931.26617 932.634036 917.351002 0.001073807
17.17838 932.13513 933.33823 917.50307 0.001072806
17.18718 933.71912 934.207796 917.654817 0.001070986
17.19599 935.39862 935.254487 917.806333 0.001069063
17.20480 936.86737 936.487571 917.957589 0.001067387
17.21361 937.73474 937.91584 918.108643 0.0010664
17.22241 940.3042 939.545545 918.259464 0.001063486
17.23122 942.97491 941.382649 918.410143 0.001060474
17.24003 944.88306 943.430588 918.560635 0.001058332
17.24884 947.5083 945.696448 918.711046 0.0010554
17.25764 950.28772 948.187244 918.861295 0.001052313
17.26645 953.60413 950.918393 919.011489 0.001048653
17.27526 957.09985 953.907981 919.161581 0.001044823
17.28406 961.20282 957.176988 919.31166 0.001040363
17.29287 964.82336 960.736594 919.46168 0.001036459
17.30168 969.25891 964.588763 919.611744 0.001031716
17.31049 974.04596 968.707085 919.761772 0.001026646
17.31929 978.92688 973.043149 919.911869 0.001021527
17.32810 984.20697 977.51411 920.061986 0.001016046
17.33691 990.9527 982.007939 920.21221 0.00100913
17.34571 998.54004 986.378311 920.362508 0.001001462
17.35452 1007.152 990.45954 920.512935 0.000992899
17.36333 1015.2314 994.073225 920.663455 0.000984997
17.37214 1022.157 997.054597 920.814156 0.000978323
17.38094 1025.8998 999.268126 920.964986 0.000974754
17.38975 1027.1782 1000.631657 921.116031 0.000973541
17.39856 1025.6072 1001.11748 921.267254 0.000975032
17.40737 1022.6382 1000.754591 921.418707 0.000977863
17.41617 1018.469 999.622041 921.570353 0.000981866
17.42498 1014.1426 997.837087 921.722275 0.000986055
17.43379 1007.967 995.545256 921.874419 0.000992096
17.44260 1001.6937 992.903221 922.026885 0.000998309
17.45140 995.77057 990.068012 922.179582 0.001004247
17.46021 990.99567 987.176046 922.332575 0.001009086
17.46901 987.27838 984.335784 922.48591 0.001012886
17.47782 984.03082 981.623676 922.639529 0.001016228
17.48663 981.81293 979.077312 922.793513 0.001018524
17.49544 980.03125 976.703821 922.947819 0.001020376
17.50424 978.86505 974.482231 923.102491 0.001021591
17.51305 977.30908 972.374491 923.257486 0.001023218
17.52186 975.92322 970.334906 923.412882 0.001024671
17.53066 974.61615 968.324829 923.568617 0.001026045
17.53947 972.37494 966.316537 923.724784 0.00102841
17.54828 969.81067 964.304435 923.881284 0.001031129
17.55709 967.03986 962.300231 924.038212 0.001034084
17.56589 964.45764 960.335053 924.195499 0.001036852
17.57470 961.47955 958.452013 924.353222 0.001040064
17.58351 958.69971 956.703672 924.51133 0.001043079
17.59232 956.47577 955.143818 924.669862 0.001045505
17.60112 954.81183 953.825617 924.828764 0.001047327
17.60993 953.59436 952.796492 924.988111 0.001048664
17.61874 952.46954 952.098167 925.147829 0.001049902
17.62754 952.11804 951.763536 925.307991 0.00105029
17.63635 952.12549 951.816272 925.468541 0.001050282
17.64516 951.88306 952.269647 925.629512 0.001050549
17.65396 952.47101 953.124299 925.790848 0.001049901
17.66277 953.50354 954.368719 925.952617 0.001048764
17.67158 955.12775 955.977047 926.114742 0.00104698
17.68039 956.94458 957.910278 926.277292 0.001044993
17.68919 959.40424 960.113398 926.440203 0.001042314
17.69800 961.97986 962.519932 926.603508 0.001039523
17.70681 965.84698 965.047942 926.767142 0.001035361
17.71562 970.18365 967.606358 926.931171 0.001030733
17.72442 975.64423 970.092781 927.095512 0.001024964
17.73323 981.35278 972.400251 927.260248 0.001019002
17.74204 987.02448 974.418995 927.425256 0.001013146
17.75085 992.00989 976.050749 927.590618 0.001008054
17.75965 994.78381 977.218057 927.756247 0.001005244
17.76846 994.63293 977.882783 927.922204 0.001005396
17.77727 992.63629 978.054581 928.088421 0.001007418
17.78607 989.29828 977.794845 928.254919 0.001010817
17.79488 984.98822 977.207739 928.421627 0.001015241
17.80369 979.3551 976.425177 928.588604 0.00102108
17.81249 975.45325 975.591628 928.755759 0.001025164
17.82130 971.76959 974.849287 928.923149 0.001029051
17.83011 969.19714 974.32922 929.090699 0.001031782
17.83892 967.22821 974.148464 929.258429 0.001033882
17.84772 967.43451 974.404379 929.426261 0.001033662
17.85653 968.32227 975.175573 929.594253 0.001032714
17.86534 970.21649 976.519949 929.762306 0.001030698
17.87415 971.86279 978.474828 929.930495 0.001028952
17.88295 974.89001 981.051629 930.098682 0.001025757
17.89176 979.34839 984.243044 930.266942 0.001021087
17.90057 985.57452 988.01315 930.435173 0.001014637
17.90937 991.11133 992.305726 930.603429 0.001008968
17.91818 997.86072 997.038629 930.771609 0.001002144
17.92699 1004.6898 1002.112929 930.939782 0.000995332
17.93579 1011.4565 1007.408677 931.10781 0.000988673
17.94460 1017.0199 1012.804146 931.27576 0.000983265
17.95341 1023.852 1018.172757 931.443531 0.000976704
17.96222 1029.8828 1023.404216 931.611171 0.000970984
17.97102 1037.0009 1028.403671 931.778595 0.000964319
17.97983 1041.1511 1033.098691 931.945815 0.000960475
17.98864 1045.2727 1037.433774 932.112744 0.000956688
17.99744 1047.0403 1041.362808 932.279391 0.000955073
18.00625 1052.599 1044.836219 932.445765 0.000950029
18.01506 1058.7725 1047.7897 932.611781 0.00094449
18.02387 1067.8533 1050.151058 932.777444 0.000936458
18.03267 1075.225 1051.84694 932.94267 0.000930038
18.04148 1087.3291 1052.828059 933.107502 0.000919685
18.05029 1094.0844 1053.090366 933.271835 0.000914006
18.05909 1099.8674 1052.692728 933.435713 0.000909201
18.06790 1096.693 1051.759749 933.599047 0.000911832
18.07671 1088.491 1050.463526 933.761845 0.000918703
18.08552 1074.2695 1049.003263 933.924018 0.000930865
18.09432 1061.6222 1047.572936 934.085609 0.000941955
18.10313 1051.6561 1046.341238 934.246513 0.000950881
18.11194 1047.1696 1045.434529 934.40677 0.000954955
18.12074 1045.2761 1044.932366 934.566294 0.000956685
18.12955 1045.287 1044.85927 934.725088 0.000956675
18.13836 1045.0697 1045.192863 934.883067 0.000956874
18.14717 1045.2568 1045.866388 935.04027 0.000956703
18.15597 1046.0262 1046.77637 935.196594 0.000955999
18.16478 1046.0814 1047.789647 935.352095 0.000955949
18.17359 1046.042 1048.757831 935.506635 0.000955985
18.18240 1046.8309 1049.522748 935.66027 0.000955264
18.19120 1047.2919 1049.935065 935.812898 0.000954844
18.20001 1047.77 1049.870741 935.964558 0.000954408
18.20882 1046.5721 1049.244634 936.115166 0.0009555
18.21763 1044.4321 1048.016587 936.264724 0.000957458
18.22643 1041.3353 1046.187493 936.413152 0.000960305
18.23524 1037.0298 1043.782856 936.560485 0.000964292
18.24404 1033.4656 1040.84405 936.706627 0.000967618
18.25285 1030.1721 1037.407491 936.851613 0.000970712
18.26166 1026.5188 1033.51214 936.995365 0.000974166
18.27047 1022.5935 1029.199464 937.137885 0.000977906
18.27927 1018.5068 1024.525535 937.279096 0.000981829
18.28808 1013.6318 1019.563266 937.419033 0.000986552
18.29689 1007.9839 1014.411575 937.557606 0.000992079
18.30570 1001.6687 1009.175806 937.694848 0.000998334
18.31450 995.54724 1003.970613 937.830686 0.001004473
18.32331 989.63489 998.899858 937.965124 0.001010474
18.33212 984.25903 994.053511 938.09809 0.001015993
18.34092 979.45294 989.498469 938.229619 0.001020978
18.34973 975.56848 985.287065 938.359626 0.001025043
18.35854 972.28424 981.446144 938.488161 0.001028506
18.36735 969.08368 977.994001 938.615112 0.001031903
18.37615 966.45996 974.931392 938.740527 0.001034704
18.38496 964.44342 972.253277 938.864329 0.001036867
18.39377 962.77136 969.946191 938.986551 0.001038668
18.40257 961.5603 967.995672 939.10713 0.001039976
18.41138 960.56305 966.374976 939.226074 0.001041056
18.42019 959.41797 965.07713 939.343322 0.001042299
18.42900 958.50177 964.070778 939.45891 0.001043295
18.43780 958.24426 963.329121 939.572766 0.001043575
18.44661 957.82971 962.821944 939.684926 0.001044027
18.45542 957.27246 962.517718 939.795334 0.001044635
18.46423 956.93433 962.382275 939.904 0.001045004
18.47303 956.84442 962.381414 940.010873 0.001045102
18.48184 957.07025 962.481815 940.115988 0.001044855
18.49065 957.03345 962.651224 940.219284 0.001044896
18.49945 956.82214 962.860055 940.320796 0.001045126
18.50826 956.68164 963.081304 940.420478 0.00104528
18.51707 957.43036 963.290362 940.518343 0.001044462
18.52587 957.50458 963.466077 940.61435 0.001044381
18.53468 957.49817 963.592447 940.708511 0.001044388
18.54349 957.18195 963.660298 940.800841 0.001044733
18.55230 957.23682 963.67 940.891302 0.001044674
18.56110 957.31873 963.632369 940.97991 0.001044584
18.56991 957.46973 963.568141 941.066629 0.001044419
18.57872 957.14209 963.505873 941.151498 0.001044777
18.58752 956.5437 963.477922 941.234473 0.001045431
18.59633 956.58398 963.517545 941.315603 0.001045387
18.60514 956.94678 963.65611 941.39483 0.00104499
18.61395 957.43793 963.920598 941.472202 0.001044454
18.62275 957.65387 964.332658 941.547685 0.001044219
18.63156 958.54041 964.908694 941.621317 0.001043253
18.64037 960.50848 965.657524 941.693076 0.001041115
18.64918 962.47485 966.581963 941.762983 0.001038988
18.65798 963.72217 967.677691 941.831022 0.001037643
18.66679 965.25934 968.933832 941.897229 0.001035991
18.67560 967.63373 970.33169 941.961584 0.001033449
18.68440 970.58972 971.847304 942.024125 0.001030301
18.69321 973.82593 973.45045 942.08484 0.001026878
18.70202 977.09241 975.106523 942.143755 0.001023445
18.71082 980.60254 976.779324 942.200861 0.001019781
18.71963 983.4859 978.436539 942.256199 0.001016791
18.72844 984.8465 980.052371 942.309757 0.001015387
18.73725 986.19086 981.608342 942.361574 0.001014003
18.74605 987.51392 983.116214 942.41165 0.001012644
18.75486 987.68707 984.583555 942.460013 0.001012466
18.76367 987.60132 986.030825 942.506665 0.001012554
18.77248 988.59711 987.482021 942.551645 0.001011534
18.78128 989.66058 988.957044 942.594955 0.001010447
18.79009 990.58185 990.467907 942.636638 0.001009508
18.79890 990.91925 992.015168 942.676689 0.001009164
18.80770 991.11047 993.588257 942.715153 0.001008969
18.81651 991.68726 995.161331 942.752037 0.001008382
18.82532 993.23779 996.697106 942.787381 0.001006808
18.83413 994.96552 998.14575 942.821199 0.00100506
18.84293 996.94238 999.447692 942.853525 0.001003067
18.85174 998.23755 1000.540567 942.884374 0.001001766
18.86055 998.85083 1001.367206 942.913789 0.00100115
18.86935 999.13989 1001.882398 942.941785 0.001000861
18.87816 999.32373 1002.062934 942.968403 0.001000677
18.88697 999.13165 1001.908821 942.993664 0.001000869
18.89578 997.80334 1001.441669 943.017605 0.001002201
18.90458 996.13434 1000.699541 943.040248 0.001003881
18.91339 994.50214 999.72907 943.061637 0.001005528
18.92220 992.55505 998.580308 943.081793 0.001007501
18.93100 990.48779 997.301902 943.100759 0.001009604
18.93981 989.21075 995.93856 943.118562 0.001010907
18.94862 988.01337 994.529467 943.135241 0.001012132
18.95743 986.87958 993.106429 943.150823 0.001013295
18.96623 986.47748 991.689488 943.165352 0.001013708
18.97504 986.37537 990.291133 943.178857 0.001013813
18.98385 985.98859 988.908711 943.19138 0.001014211
18.99265 986.83972 987.530807 943.202951 0.001013336
19.00146 988.52386 986.138302 943.213611 0.001011609
19.01027 989.76776 984.711166 943.223393 0.001010338
19.01908 990.19305 983.231274 943.23234 0.001009904
19.02788 989.21619 981.69009 943.240485 0.001010901
19.03669 987.10522 980.087528 943.247867 0.001013063
19.04550 983.71075 978.43467 943.254523 0.001016559
19.05431 979.99603 976.748353 943.260494 0.001020412
19.06311 975.99268 975.050373 943.265814 0.001024598
19.07192 972.61133 973.362117 943.270525 0.00102816
19.08073 969.64905 971.703416 943.274664 0.001031301
19.08953 967.66644 970.093102 943.278268 0.001033414
19.09834 966.30249 968.545946 943.281377 0.001034873
19.10715 964.60962 967.077157 943.284028 0.001036689
19.11595 963.59564 965.699451 943.28626 0.00103778
19.12476 962.4212 964.427552 943.288111 0.001039046
19.13357 960.6394 963.276127 943.289619 0.001040973
19.14238 959.84515 962.260563 943.29082 0.001041835
19.15118 959.79272 961.395749 943.291753 0.001041892
19.15999 959.57599 960.697531 943.292455 0.001042127
19.16880 959.39569 960.179894 943.292962 0.001042323
19.17760 959.10187 959.856733 943.293312 0.001042642
19.18641 959.08746 959.740923 943.293539 0.001042658
19.19522 959.41412 959.843402 943.293681 0.001042303
19.20403 960.24005 960.173013 943.293771 0.001041406
19.21283 960.67413 960.736977 943.293846 0.001040936
19.22164 961.06842 961.53844 943.293939 0.001040509
19.23045 962.3327 962.575685 943.294084 0.001039142
19.23926 963.21021 963.844006 943.294314 0.001038195
19.24806 963.97614 965.33112 943.294662 0.00103737
19.25687 965.17169 967.020108 943.29516 0.001036085
19.26568 966.45166 968.886331 943.295838 0.001034713
19.27448 968.32977 970.899281 943.296729 0.001032706
19.28329 970.22168 973.018158 943.297861 0.001030692
19.29210 972.66638 975.198085 943.299263 0.001028102
19.30091 975.23743 977.383143 943.300965 0.001025391
19.30971 977.65662 979.512547 943.302993 0.001022854
19.31852 980.26178 981.518208 943.305374 0.001020136
19.32733 983.31091 983.328645 943.308134 0.001016972
19.33613 985.50214 984.87157 943.311298 0.001014711
19.34494 988.1109 986.081849 943.31489 0.001012032
19.35375 989.69366 986.904391 943.318933 0.001010414
19.36256 989.70557 987.303744 943.32345 0.001010402
19.37136 989.81909 987.266878 943.32846 0.001010286
19.38017 988.7121 986.805643 943.333985 0.001011417
19.38898 986.62695 985.954947 943.340043 0.001013554
19.39778 984.59375 984.767537 943.346654 0.001015647
19.40659 981.24774 983.309652 943.353831 0.001019111
19.41540 978.03278 981.652259 943.361596 0.001022461
19.42421 975.24609 979.868695 943.369958 0.001025382
19.43301 972.94348 978.02773 943.378935 0.001027809
19.44182 971.34351 976.193366 943.388535 0.001029502
19.45063 969.99689 974.421208 943.398775 0.001030931
19.45943 968.70728 972.760513 943.409661 0.001032304
19.46824 967.96759 971.251172 943.421206 0.001033092
19.47705 967.13361 969.925817 943.433413 0.001033983
19.48586 966.97516 968.809005 943.446294 0.001034153
19.49466 967.14001 967.918785 943.459849 0.001033976
19.50347 967.91748 967.266719 943.47409 0.001033146
19.51228 968.63019 966.859781 943.489014 0.001032386
19.52109 969.19446 966.700518 943.504628 0.001031785
19.52989 969.5401 966.789089 943.520926 0.001031417
19.53870 969.81458 967.124666 943.537916 0.001031125
19.54751 970.78149 967.705889 943.555588 0.001030098
19.55631 971.81805 968.533294 943.573949 0.001028999
19.56512 972.9292 969.607565 943.592988 0.001027824
19.57393 972.79456 970.930495 943.612704 0.001027966
19.58273 972.47131 972.503595 943.633085 0.001028308
19.59154 973.25671 974.328308 943.654133 0.001027478
19.60035 974.82819 976.40184 943.675829 0.001025822
19.60916 976.33527 978.72064 943.698171 0.001024238
19.61796 977.58453 981.275 943.721149 0.001022929
19.62677 979.37903 984.048927 943.744744 0.001021055
19.63558 980.57562 987.022934 943.768952 0.001019809
19.64438 982.49396 990.169641 943.793749 0.001017818
19.65319 985.20416 993.45826 943.819134 0.001015018
19.66200 988.35132 996.850204 943.845074 0.001011786
19.67081 991.35828 1000.304955 943.871566 0.001008717
19.67961 995.12732 1003.772852 943.89858 0.001004897
19.68842 999.77655 1007.202385 943.92611 0.001000223
19.69723 1004.491 1010.533438 943.954122 0.000995529
19.70604 1008.4234 1013.703714 943.982612 0.000991647
19.71484 1012.0316 1016.646422 944.011539 0.000988111
19.72365 1015.7888 1019.301528 944.040895 0.000984457
19.73246 1018.1777 1021.6159 944.070645 0.000982147
19.74126 1019.6809 1023.557244 944.100778 0.000980699
19.75007 1019.7089 1025.113477 944.131257 0.000980672
19.75888 1018.9084 1026.297497 944.162065 0.000981442
19.76769 1017.5969 1027.143253 944.193163 0.000982707
19.77649 1016.7885 1027.698707 944.224539 0.000983489
19.78530 1016.6368 1028.017371 944.25615 0.000983635
19.79411 1016.793 1028.148465 944.287983 0.000983484
19.80291 1017.3494 1028.132142 944.319997 0.000982946
19.81172 1019.0953 1027.994313 944.35217 0.000981262
19.82053 1021.3868 1027.746121 944.384461 0.000979061
19.82934 1025.4019 1027.385082 944.416854 0.000975227
19.83814 1030.5173 1026.900012 944.449303 0.000970386
19.84695 1033.9359 1026.273286 944.481795 0.000967178
19.85576 1037.0831 1025.489729 944.514277 0.000964243
19.86456 1039.7739 1024.537502 944.546734 0.000961748
19.87337 1040.4626 1023.411488 944.57912 0.000961111
19.88218 1038.5435 1022.111132 944.611417 0.000962887
19.89099 1035.3799 1020.639209 944.643578 0.000965829
19.89979 1032.35 1018.995228 944.675588 0.000968664
19.90860 1029.7729 1017.177854 944.707393 0.000971088
19.91741 1027.7877 1015.179396 944.738978 0.000972964
19.92621 1025.7749 1012.991171 944.770296 0.000974873
19.93502 1022.45 1010.605109 944.801329 0.000978043
19.94383 1018.7773 1008.020562 944.832033 0.000981569
19.95264 1014.1103 1005.245073 944.862382 0.000986086
19.96144 1008.4645 1002.299909 944.892336 0.000991607
19.97025 1002.3189 999.214644 944.921874 0.000997686
19.97906 996.74945 996.029433 944.950953 0.001003261
19.98786 990.58923 992.787215 944.979553 0.0010095
19.99667 984.84125 989.534615 945.007636 0.001015392
20.00548 980.84961 986.31446 945.035175 0.001019524
20.01429 977.40247 983.167453 945.062133 0.00102312
20.02309 973.87439 980.130245 945.088492 0.001026826
20.03190 970.83014 977.232713 945.114211 0.001030046
20.04071 968.37854 974.498073 945.139276 0.001032654
20.04951 966.16992 971.946857 945.163644 0.001035015
20.05832 964.47095 969.591478 945.1873 0.001036838
20.06713 963.07086 967.442475 945.21021 0.001038345
20.07594 962.07312 965.503996 945.232356 0.001039422
20.08474 961.45319 963.77864 945.253706 0.001040092
20.09355 960.66479 962.264939 945.274247 0.001040946
20.10236 959.98145 960.960983 945.293943 0.001041687
20.11117 958.60541 959.861778 945.312784 0.001043182
20.11997 957.72913 958.962772 945.330739 0.001044137
20.12878 957.69849 958.257706 945.347799 0.00104417
20.13759 958.13733 957.740878 945.363938 0.001043692
20.14639 958.24634 957.406682 945.379139 0.001043573
20.15520 957.42126 957.249811 945.39339 0.001044472
20.16401 957.42096 957.2655 945.40667 0.001044473
20.17281 958.21759 957.449798 945.418972 0.001043604
20.18162 959.03772 957.799254 945.430276 0.001042712
20.19043 959.50299 958.310736 945.440576 0.001042206
20.19924 959.84583 958.981321 945.449856 0.001041834
20.20804 960.26312 959.808318 945.458113 0.001041381
20.21685 961.11328 960.787734 945.465334 0.00104046
20.22566 962.18939 961.915694 945.471517 0.001039296
20.23447 963.84753 963.186154 945.476653 0.001037508
20.24327 965.73602 964.591684 945.480741 0.00103548
20.25208 967.32263 966.122264 945.483777 0.001033781
20.26089 969.02747 967.766408 945.485761 0.001031962
20.26969 971.08698 969.508215 945.486693 0.001029774
20.27850 973.6803 971.330947 945.486575 0.001027031
20.28731 975.26282 973.21239 945.48541 0.001025365
20.29612 976.85718 975.130071 945.483202 0.001023691
20.30492 979.08014 977.057567 945.479958 0.001021367
20.31373 982.10101 978.968822 945.475685 0.001018225
20.32254 984.35559 980.835807 945.470393 0.001015893
20.33134 986.03033 982.633615 945.464089 0.001014168
20.34015 987.9809 984.336887 945.456789 0.001012165
20.34896 990.05927 985.926307 945.448503 0.001010041
20.35777 992.23309 987.383474 945.439247 0.001007828
20.36657 994.25598 988.694001 945.429035 0.001005777
20.37538 995.64209 989.844884 945.417886 0.001004377
20.38419 997.37561 990.82471 945.405816 0.001002631
20.39299 999.80591 991.623532 945.39285 0.001000194
20.40180 1001.9527 992.23436 945.379002 0.000998051
20.41061 1003.6376 992.652769 945.364301 0.000996376
20.41942 1004.7324 992.880102 945.348764 0.00099529
20.42822 1006.0081 992.92364 945.332421 0.000994028
20.43703 1006.08 992.79666 945.315294 0.000993957
20.44584 1004.7606 992.518788 945.297416 0.000995262
20.45464 1002.3198 992.113685 945.278808 0.000997686
20.46345 1000.1509 991.606168 945.259506 0.000999849
20.47226 997.71436 991.020654 945.239531 0.001002291
20.48107 996.15363 990.378605 945.218927 0.001003861
20.48987 994.13055 989.696285 945.197715 0.001005904
20.49868 993.31677 988.985409 945.175937 0.001006728
20.50749 992.62476 988.251948 945.153618 0.00100743
20.51629 992.01312 987.499129 945.130803 0.001008051
20.52510 990.55774 986.725157 945.107513 0.001009532
20.53391 989.22931 985.929069 945.083803 0.001010888
20.54272 987.09802 985.10837 945.059694 0.001013071
20.55152 984.93439 984.262301 945.035235 0.001015296
20.56033 982.5611 983.390946 945.010454 0.001017748
20.56914 981.27026 982.496787 944.985397 0.001019087
20.57795 979.59637 981.583046 944.960097 0.001020829
20.58675 977.75818 980.653688 944.934603 0.001022748
20.59556 976.34766 979.711477 944.908942 0.001024225
20.60437 975.04309 978.759585 944.883166 0.001025596
20.61317 974.49377 977.799631 944.857304 0.001026174
20.62198 973.83813 976.833805 944.831404 0.001026865
20.63079 972.92853 975.864639 944.8055 0.001027825
20.63959 972.11938 974.897009 944.779642 0.00102868
20.64840 971.13318 973.937058 944.753857 0.001029725
20.65721 970.08282 972.994031 944.728197 0.00103084
20.66602 968.80017 972.077313 944.702688 0.001032205
20.67482 968.40875 971.198062 944.677385 0.001032622
20.68363 967.81348 970.365868 944.652319 0.001033257
20.69244 966.69189 969.588684 944.627524 0.001034456
20.70124 965.32782 968.872449 944.603047 0.001035918
20.71005 965.02466 968.219894 944.578915 0.001036243
20.71886 965.63251 967.63171 944.555174 0.001035591
20.72767 966.04889 967.105844 944.531853 0.001035144
20.73647 965.63782 966.63851 944.508995 0.001035585
20.74528 965.5108 966.224774 944.486626 0.001035721
20.75409 965.97235 965.859256 944.464787 0.001035226
20.76290 966.66046 965.536995 944.4435 0.001034489
20.77170 967.10602 965.254603 944.422809 0.001034013
20.78051 967.09686 965.009591 944.402734 0.001034023
20.78932 966.66943 964.800998 944.383311 0.00103448
20.79812 966.383 964.62956 944.364561 0.001034786
20.80693 966.36359 964.496757 944.346515 0.001034807
20.81574 965.93854 964.40394 944.329195 0.001035263
20.82455 965.55261 964.352849 944.312631 0.001035676
20.83335 965.7135 964.343835 944.296835 0.001035504
20.84216 966.66315 964.377051 944.281837 0.001034487
20.85097 966.81281 964.450931 944.267649 0.001034326
20.85977 967.03796 964.563808 944.254292 0.001034086
20.86858 967.37085 964.713748 944.241779 0.00103373
20.87739 966.85223 964.898681 944.230128 0.001034284
20.88620 966.57843 965.117149 944.219346 0.001034577
20.89500 966.44122 965.368077 944.209448 0.001034724
20.90381 965.65332 965.650072 944.200436 0.001035568
20.91262 965.42975 965.961198 944.192324 0.001035808
20.92142 966.41278 966.298112 944.185111 0.001034755
20.93023 967.1015 966.655295 944.178803 0.001034018
20.93904 966.87579 967.025296 944.173398 0.001034259
20.94785 967.47522 967.397655 944.168897 0.001033618
20.95665 968.62091 967.760167 944.165294 0.001032396
20.96546 969.73035 968.098464 944.162587 0.001031215
20.97427 970.81403 968.397298 944.160765 0.001030063
20.98307 971.65216 968.640812 944.159822 0.001029175
20.99188 972.49823 968.813441 944.159744 0.00102828
21.00069 973.16833 968.902696 944.160517 0.001027571
21.00950 973.36145 968.896587 944.162128 0.001027368
21.01830 973.58948 968.787434 944.164557 0.001027127
21.02711 972.48279 968.571192 944.167786 0.001028296
21.03592 971.48785 968.248208 944.171792 0.001029349
21.04472 969.55652 967.823279 944.176553 0.001031399
21.05353 967.63263 967.305621 944.182042 0.00103345
21.06234 966.04523 966.70721 944.188232 0.001035148
21.07115 964.11035 966.043057 944.195092 0.001037226
21.07995 962.10199 965.328725 944.202594 0.001039391
21.08876 960.24902 964.580899 944.210701 0.001041397
21.09757 959.10345 963.814228 944.219383 0.00104264
21.10637 958.06311 963.045351 944.228597 0.001043773
21.11518 957.14801 962.286395 944.238311 0.00104477
21.12399 956.38531 961.548614 944.248479 0.001045604
21.13280 955.83514 960.840789 944.259065 0.001046206
21.14160 955.36389 960.169935 944.270022 0.001046722
21.15041 955.25372 959.539896 944.281309 0.001046842
21.15922 955.48584 958.952993 944.292875 0.001046588
21.16803 955.37079 958.408318 944.304678 0.001046714
21.17683 955.14349 957.903709 944.316665 0.001046963
21.18564 955.63544 957.434691 944.328792 0.001046424
21.19445 954.83527 956.996045 944.341003 0.001047301
21.20325 954.59583 956.58159 944.353249 0.001047564
21.21206 954.95905 956.185556 944.365476 0.001047165
21.22087 955.43652 955.802685 944.37763 0.001046642
21.22968 955.37695 955.429058 944.389662 0.001046707
21.23848 955.41119 955.062445 944.401511 0.00104667
21.24729 955.04535 954.69998 944.413128 0.001047071
21.25610 954.01593 954.347391 944.42445 0.001048201
21.26490 952.03589 954.004345 944.435427 0.001050381
21.27371 951.87805 953.673911 944.445999 0.001050555
21.28252 951.40381 953.359182 944.456113 0.001051078
21.29133 950.57159 953.06359 944.46571 0.001051999
21.30013 950.02155 952.790075 944.474737 0.001052608
21.30894 949.6369 952.541421 944.483131 0.001053034
21.31775 949.46777 952.319687 944.490844 0.001053222
21.32655 948.83936 952.126527 944.497814 0.001053919
21.33536 948.23126 951.962814 944.503992 0.001054595
21.34417 948.38611 951.825971 944.50932 0.001054423
21.35298 948.92389 951.721324 944.513746 0.001053825
21.36178 949.13947 951.644849 944.517215 0.001053586
21.37059 949.172 951.594648 944.519677 0.00105355
21.37940 949.98163 951.568253 944.52108 0.001052652
21.38820 950.06561 951.562626 944.521375 0.001052559
21.39701 949.26904 951.57421 944.520513 0.001053442
21.40582 949.3645 951.599401 944.518446 0.001053336
21.41463 949.58118 951.634549 944.515129 0.001053096
21.42343 950.22058 951.676308 944.510516 0.001052387
21.43224 951.06763 951.721773 944.504565 0.00105145
21.44105 951.48291 951.768717 944.497234 0.001050991
21.44985 951.10925 951.815539 944.488486 0.001051404
21.45866 950.4538 951.861277 944.478278 0.001052129
21.46747 950.10876 951.90543 944.466579 0.001052511
21.47628 950.63257 951.947921 944.45335 0.001051931
21.48508 950.67719 951.988874 944.438562 0.001051882
21.49389 949.99536 952.028728 944.422181 0.001052637
21.50270 949.65564 952.068163 944.404186 0.001053013
21.51150 950.47217 952.108169 944.384541 0.001052109
21.52031 951.59149 952.149822 944.363233 0.001050871
21.52912 951.53729 952.196512 944.340229 0.001050931
21.53793 951.52582 952.25081 944.315515 0.001050944
21.54673 951.44397 952.316637 944.289071 0.001051034
21.55554 951.34888 952.398855 944.260889 0.001051139
21.56435 951.34363 952.503121 944.230943 0.001051145
21.57315 951.21069 952.635577 944.199235 0.001051292
21.58196 951.27643 952.802932 944.165742 0.001051219
21.59077 951.43359 953.01199 944.130474 0.001051046
21.59958 951.44586 953.269931 944.093411 0.001051032
21.60838 951.49738 953.583555 944.054566 0.001050975
21.61719 951.74438 953.959864 944.013921 0.001050702
21.62600 951.414 954.405593 943.971492 0.001051067
21.63481 952.3418 954.927112 943.927272 0.001050043
21.64361 953.16943 955.530315 943.881284 0.001049131
21.65242 954.14337 956.220968 943.833514 0.001048061
21.66123 955.41705 957.003733 943.783991 0.001046663
21.67003 956.03833 957.883403 943.732708 0.001045983
21.67884 956.4903 958.86285 943.679693 0.001045489
21.68765 957.49561 959.945818 943.624947 0.001044391
21.69646 958.63867 961.133245 943.568509 0.001043146
21.70526 960.26874 962.425974 943.510369 0.001041375
21.71407 961.85638 963.821718 943.450574 0.001039656
21.72288 963.67804 965.318624 943.389109 0.001037691
21.73168 965.26959 966.910061 943.326039 0.00103598
21.74049 966.58447 968.589419 943.261351 0.001034571
21.74930 968.16595 970.346836 943.195099 0.001032881
21.75810 970.54449 972.171017 943.127295 0.001030349
21.76691 972.14764 974.049031 943.057948 0.00102865
21.77572 974.44513 975.96513 942.987109 0.001026225
21.78453 977.297 977.902771 942.914791 0.00102323
21.79333 979.94305 979.842085 942.84105 0.001020467
21.80214 982.14648 981.762329 942.765878 0.001018178
21.81095 984.19379 983.638474 942.689344 0.00101606
21.81976 986.61627 985.444569 942.611434 0.001013565
21.82856 990.00171 987.150469 942.532234 0.001010099
21.83737 993.5509 988.726461 942.451732 0.001006491
21.84618 997.3833 990.140938 942.369999 0.001002624
21.85498 1000.9523 991.365508 942.287033 0.000999049
21.86379 1003.8199 992.374453 942.202897 0.000996195
21.87260 1005.3558 993.148505 942.117609 0.000994673
21.88141 1006.0729 993.675074 942.031235 0.000993964
21.89021 1005.1014 993.949886 941.943777 0.000994924
21.89902 1003.9564 993.976411 941.855314 0.000996059
21.90783 1001.9877 993.764347 941.765848 0.000998016
21.91663 1000.3037 993.327874 941.675452 0.000999696
21.92544 998.15485 992.684024 941.584154 0.001001849
21.93425 996.80475 991.850436 941.492034 0.001003205
21.94306 995.03741 990.843673 941.399096 0.001004987
21.95186 993.77264 989.679998 941.305441 0.001006266
21.96067 992.39063 988.373383 941.211083 0.001007668
21.96948 990.8501 986.937089 941.116114 0.001009234
21.97828 990.63745 985.385096 941.020582 0.001009451
21.98709 989.88464 983.73165 940.924585 0.001010219
21.99590 987.57898 981.992122 940.82816 0.001012577
22.00471 984.01166 980.184924 940.731431 0.001016248
22.01351 980.49854 978.328431 940.634434 0.001019889
22.02232 976.50458 976.44415 940.537334 0.001024061
22.03113 972.76233 974.552025 940.440177 0.001028
22.03993 969.00598 972.673429 940.343127 0.001031985
22.04874 965.90131 970.827002 940.246262 0.001035302
22.05755 962.85785 969.031738 940.149749 0.001038575
22.06636 961.17712 967.30263 940.053725 0.001040391
22.07516 959.18481 965.654371 939.958377 0.001042552
22.08397 957.51428 964.09749 939.863842 0.001044371
22.09278 956.66382 962.641503 939.770356 0.001045299
22.10159 955.94324 961.29239 939.678088 0.001046087
22.11039 954.9726 960.054084 939.587299 0.00104715
22.11920 954.09741 958.928587 939.498216 0.001048111
22.12801 953.63989 957.915425 939.411148 0.001048614
22.13681 953.32007 957.011806 939.32634 0.001048966
22.14562 952.96326 956.214089 939.244162 0.001049358
22.15443 953.02393 955.516422 939.164915 0.001049292
22.16324 952.73413 954.912565 939.089009 0.001049611
22.17204 953.01477 954.394783 939.016825 0.001049302
22.18085 953.35687 953.955598 938.948836 0.001048925
22.18966 953.37817 953.586748 938.885478 0.001048902
22.19846 954.09698 953.280556 938.827292 0.001048111
22.20727 954.77332 953.029081 938.774786 0.001047369
22.21608 954.37115 952.825116 938.728599 0.00104781
22.22489 953.91742 952.66169 938.689329 0.001048309
22.23369 953.71759 952.532449 938.657666 0.001048528
22.24250 953.49109 952.431903 938.634323 0.001048777
22.25131 954.00507 952.355492 938.620085 0.001048212
22.26011 954.4212 952.299843 938.615769 0.001047755
22.26892 954.04724 952.262774 938.622255 0.001048166
22.27773 953.85132 952.24345 938.640475 0.001048381
22.28654 953.49957 952.242642 938.67142 0.001048768
22.29534 952.60962 952.262035 938.716137 0.001049748
22.30415 952.01257 952.304434 938.775757 0.001050406
22.31296 951.66992 952.373232 938.85143 0.001050784
22.32176 951.24817 952.472219 938.944421 0.00105125
22.33057 951.24347 952.604368 939.056001 0.001051256
22.33938 951.57635 952.773737 939.187595 0.001050888
22.34819 952.13342 952.982157 939.340603 0.001050273
22.35699 952.80255 953.231022 939.516581 0.001049535
22.36580 953.61157 953.520365 939.717036 0.001048645
22.37461 953.66974 953.849342 939.943724 0.001048581
22.38341 954.09869 954.215413 940.198269 0.00104811
22.39222 954.53925 954.615288 940.482569 0.001047626
22.40103 954.78558 955.04453 940.798407 0.001047356
22.40984 955.36615 955.49771 941.147785 0.001046719
22.41864 956.44922 955.969156 941.532575 0.001045534
22.42745 956.71948 956.453177 941.955014 0.001045238
22.43626 957.0213 956.943864 942.417034 0.001044909
22.44506 957.54694 957.436569 942.921082 0.001044335
22.45387 957.85345 957.926932 943.469049 0.001044001
22.46268 958.41864 958.412394 944.063516 0.001043385
22.47149 959.13611 958.891273 944.706529 0.001042605
22.48029 959.39264 959.363876 945.400734 0.001042326
22.48910 959.60333 959.831757 946.148276 0.001042097
22.49791 959.92218 960.298327 946.951723 0.001041751
22.50671 960.62183 960.76851 947.813181 0.001040992
22.51552 961.39026 961.249196 948.735419 0.00104016
22.52433 961.35797 961.748014 949.7204 0.001040195
22.53314 962.19739 962.274289 950.770893 0.001039288
22.54194 963.08966 962.837662 951.888822 0.001038325
22.55075 963.71436 963.448247 953.076639 0.001037652
22.55956 964.1311 964.115873 954.336034 0.001037203
22.56837 964.85364 964.850459 955.669565 0.001036427
22.57717 966.17853 965.660782 957.078473 0
22.58598 968.03784 0 0 0
22.59479 969.4939 0 0 0
22.60359 970.2226 0 0 0
22.61240 970.86938 0 0 0
22.62121 971.19189 0 0 0
22.63001 969.88837 0 0 0
22.63882 969.45313 0 0 0
22.64763 969.91449 0 0 0
22.65644 969.64288 0 0 0
22.66524 969.12402 0 0 0
22.67405 969.04926 0 0 0
22.68286 968.84113 0 0 0
22.69167 968.40912 0 0 0
22.70047 968.76135 0 0 0
22.70928 968.75757 0 0 0
22.71809 968.79224 0 0 0
22.72689 968.91388 0 0 0
22.73570 968.82788 0 0 0
22.74451 968.70685 0 0 0
22.75332 968.3205 0 0 0
22.76212 966.96637 0 0 0
22.77093 965.10095 0 0 0
22.77974 963.25464 0 0 0
22.78854 961.67487 0 0 0
22.79735 961.12628 0 0 0
22.80616 960.34857 0 0 0
22.81497 958.76593 0 0 0
22.82377 958.27075 0 0 0
22.83258 957.17651 0 0 0
22.84139 955.73529 0 0 0
22.85019 955.28967 0 0 0
22.85900 955.36066 0 0 0
22.86781 956.02551 0 0 0
22.87662 956.11554 0 0 0
22.88542 954.45697 0 0 0
22.89423 953.12256 0 0 0
22.90304 953.13879 0 0 0
22.91184 953.01605 0 0 0
22.92065 952.2146 0 0 0
22.92946 951.25024 0 0 0
22.93827 950.19049 0 0 0
22.94707 950.22229 0 0 0
22.95588 950.73523 0 0 0
22.96469 950.5929 0 0 0
22.97349 950.96948 0 0 0
22.98230 951.0282 0 0 0
22.99111 950.66949 0 0 0
22.99992 950.89966 0 0 0
23.00872 951.97687 0 0 0
23.01753 952.87799 0 0 0
23.02634 953.19318 0 0 0
23.03514 953.36115 0 0 0
23.04395 953.4278 0 0 0
23.05276 953.60278 0 0 0
23.06157 954.11542 0 0 0
23.07037 954.57562 0 0 0
23.07918 954.80951 0 0 0
23.08799 954.42493 0 0 0
23.09679 953.92261 0 0 0
23.10560 954.05798 0 0 0
23.11441 954.91846 0 0 0
23.12322 955.92041 0 0 0
23.13202 956.27203 0 0 0
23.14083 956.44873 0 0 0
23.14964 957.09473 0 0 0
23.15845 957.46271 0 0 0
23.16725 956.99774 0 0 0
23.17606 956.60321 0 0 0
23.18487 957.31305 0 0 0
23.19367 957.44666 0 0 0
23.20248 956.88696 0 0 0
23.21129 957.46887 0 0 0
23.22010 958.11871 0 0 0
23.22890 958.49561 0 0 0
23.23771 959.15643 0 0 0
23.24652 959.64264 0 0 0
23.25532 960.44189 0 0 0
23.26413 962.40271 0 0 0
23.27294 963.23749 0 0 0
23.28175 963.5116 0 0 0
23.29055 964.53973 0 0 0
23.29936 965.63428 0 0 0
23.30817 967.03497 0 0 0
23.31697 967.65918 0 0 0
23.32578 968.15936 0 0 0
23.33459 969.32385 0 0 0
23.34340 969.98407 0 0 0
23.35220 970.8504 0 0 0
23.36101 971.30328 0 0 0
23.36982 971.63898 0 0 0
23.37862 972.34277 0 0 0
23.38743 973.18286 0 0 0
23.39624 975.13745 0 0 0
23.40505 977.16797 0 0 0
23.41385 978.99622 0 0 0
23.42266 980.08771 0 0 0
23.43147 981.61084 0 0 0
23.44027 983.33313 0 0 0
23.44908 985.28418 0 0 0
23.45789 987.38782 0 0 0
23.46670 988.90088 0 0 0
23.47550 988.96399 0 0 0
23.48431 990.31769 0 0 0
23.49312 991.80725 0 0 0
23.50192 992.94098 0 0 0
23.51073 995.11353 0 0 0
23.51954 996.24908 0 0 0
23.52835 997.08282 0 0 0
23.53715 998.91968 0 0 0
23.54596 1000.2708 0 0 0
23.55477 1000.5687 0 0 0
23.56357 999.5116 0 0 0
23.57238 997.63062 0 0 0
23.58119 995.73749 0 0 0
23.59000 992.9754 0 0 0
23.59880 990.06274 0 0 0
23.60761 988.41248 0 0 0
23.61642 987.22577 0 0 0
23.62523 984.54327 0 0 0
23.63403 981.26263 0 0 0
23.64284 978.64111 0 0 0
23.65165 977.26306 0 0 0
23.66045 975.30725 0 0 0
23.66926 972.96069 0 0 0
23.67807 970.79688 0 0 0
23.68687 969.1203 0 0 0
23.69568 967.69922 0 0 0
23.70449 966.02521 0 0 0
23.71330 964.94641 0 0 0
23.72210 964.17255 0 0 0
23.73091 963.02802 0 0 0
23.73972 961.40924 0 0 0
23.74853 960.96887 0 0 0
23.75733 960.67749 0 0 0
23.76614 960.53381 0 0 0
23.77495 960.159 0 0 0
23.78375 960.03534 0 0 0
23.79256 959.76459 0 0 0
23.80137 958.56653 0 0 0
23.81018 957.43524 0 0 0
23.81898 957.47235 0 0 0
23.82779 957.42419 0 0 0
23.83660 956.89075 0 0 0
23.84540 956.41907 0 0 0
23.85421 954.95898 0 0 0
23.86302 954.17102 0 0 0
23.87183 954.51532 0 0 0
23.88063 955.2583 0 0 0
23.88944 955.37396 0 0 0
23.89825 956.05151 0 0 0
23.90705 957.57507 0 0 0
23.91586 959.92816 0 0 0
23.92467 962.04919 0 0 0
23.93348 963.64594 0 0 0
23.94228 964.45721 0 0 0
23.95109 965.42468 0 0 0
23.95990 967.29968 0 0 0
23.96870 968.69019 0 0 0
23.97751 969.95319 0 0 0
23.98632 971.14941 0 0 0
23.99513 970.73065 0 0 0
24.00393 968.8064 0 0 0
24.01274 968.14282 0 0 0
24.02155 967.25702 0 0 0
24.03035 965.46625 0 0 0
24.03916 963.36237 0 0 0
24.04797 961.18585 0 0 0
24.05678 958.80511 0 0 0
24.06558 956.4162 0 0 0
24.07439 953.68005 0 0 0
24.08320 951.56079 0 0 0
24.09201 949.49103 0 0 0
24.10081 947.8399 0 0 0
24.10962 946.46411 0 0 0
24.11842 945.32709 0 0 0
24.12723 944.56525 0 0 0
24.13604 943.18268 0 0 0
24.14485 942.19354 0 0 0
24.15365 940.98486 0 0 0
24.16246 940.44434 0 0 0
24.17127 940.39594 0 0 0
24.18008 939.79706 0 0 0
24.18888 939.07196 0 0 0
24.19769 939.07227 0 0 0
24.20650 939.17181 0 0 0
24.21531 939.03516 0 0 0
24.22411 938.70215 0 0 0
24.23292 938.56885 0 0 0
24.24173 938.98932 0 0 0
24.25053 939.49023 0 0 0
24.25934 938.97815 0 0 0
24.26815 939.30969 0 0 0
24.27696 939.89801 0 0 0
24.28576 940.49408 0 0 0
24.29457 941.16516 0 0 0
24.30338 941.3161 0 0 0
24.31218 941.78363 0 0 0
24.32099 942.50775 0 0 0
24.32980 942.60309 0 0 0
24.33861 942.49713 0 0 0
24.34741 943.35901 0 0 0
24.35622 943.92773 0 0 0
24.36503 943.81281 0 0 0
24.37383 943.68909 0 0 0
24.38264 943.82733 0 0 0
24.39145 943.81091 0 0 0
24.40026 943.02789 0 0 0
24.40906 943.10376 0 0 0
24.41787 943.63245 0 0 0
24.42668 944.52594 0 0 0
24.43548 944.69128 0 0 0
24.44429 943.99396 0 0 0
24.45310 943.91467 0 0 0
24.46191 943.90552 0 0 0
24.47071 943.70197 0 0 0
24.47952 943.78992 0 0 0
24.48833 943.88641 0 0 0
24.49713 944.2298 0 0 0
24.50594 943.36359 0 0 0
24.51475 942.05133 0 0 0
24.52356 941.0224 0 0 0
24.53236 939.62775 0 0 0
24.54117 938.34869 0 0 0
24.54998 937.31006 0 0 0
24.55878 937.16296 0 0 0
24.56759 937.06842 0 0 0
24.57640 936.71704 0 0 0
24.58520 935.58478 0 0 0
24.59401 934.69263 0 0 0
24.60282 934.58789 0 0 0
24.61163 934.63159 0 0 0
24.62043 934.36676 0 0 0
24.62924 934.20093 0 0 0
24.63805 934.55389 0 0 0
24.64686 934.57336 0 0 0
24.65566 934.55475 0 0 0
24.66447 934.51471 0 0 0
24.67328 934.74213 0 0 0
24.68209 935.26318 0 0 0
24.69089 936.19733 0 0 0
24.69970 937.04785 0 0 0
24.70851 936.76245 0 0 0
24.71731 936.68268 0 0 0
24.72612 937.79419 0 0 0
24.73493 939.08313 0 0 0
24.74373 939.9231 0 0 0
24.75254 940.17896 0 0 0
24.76135 940.88452 0 0 0
24.77016 942.17535 0 0 0
24.77896 942.35901 0 0 0
24.78777 942.35468 0 0 0
24.79658 942.49457 0 0 0
24.80539 942.63306 0 0 0
24.81419 944.18506 0 0 0
24.82300 946.43103 0 0 0
24.83181 947.79553 0 0 0
24.84061 949.03754 0 0 0
24.84942 950.01855 0 0 0
24.85823 951.24799 0 0 0
24.86704 952.03265 0 0 0
24.87584 952.20056 0 0 0
24.88465 952.30389 0 0 0
24.89346 951.82617 0 0 0
24.90226 950.67273 0 0 0
24.91107 948.86163 0 0 0
24.91988 947.63806 0 0 0
24.92869 946.58734 0 0 0
24.93749 945.36804 0 0 0
24.94630 943.55414 0 0 0
24.95511 941.30103 0 0 0
24.96392 940.18835 0 0 0
24.97272 939.36285 0 0 0
24.98153 938.07086 0 0 0
24.99034 936.17688 0 0 0
24.99914 933.94916 0 0 0
25.00795 932.85437 0 0 0
25.01676 932.29633 0 0 0
25.02556 931.31213 0 0 0
25.03437 930.57782 0 0 0
25.04318 928.64972 0 0 0
25.05198 928.21387 0 0 0
25.06079 929.25995 0 0 0
25.06960 928.95795 0 0 0
25.07841 928.56549 0 0 0
25.08721 928.25079 0 0 0
25.09602 927.16785 0 0 0
25.10483 925.95972 0 0 0
25.11364 925.76599 0 0 0
25.12244 925.47089 0 0 0
25.13125 926.23285 0 0 0
25.14006 926.45868 0 0 0
25.14887 925.78937 0 0 0
25.15767 925.86694 0 0 0
25.16648 926.18549 0 0 0
25.17528 925.88531 0 0 0
25.18409 925.9184 0 0 0
25.19290 927.01123 0 0 0
25.20171 927.59814 0 0 0
25.21051 927.34058 0 0 0
25.21932 927.32794 0 0 0
25.22813 928.25562 0 0 0
25.23694 928.79834 0 0 0
25.24574 929.24225 0 0 0
25.25455 929.95587 0 0 0
25.26336 930.75104 0 0 0
25.27217 930.87622 0 0 0
25.28097 932.0224 0 0 0
25.28978 933.22034 0 0 0
25.29859 933.94025 0 0 0
25.30739 934.04749 0 0 0
25.31620 934.1955 0 0 0
25.32501 935.11877 0 0 0
25.33382 934.33588 0 0 0
25.34262 933.67987 0 0 0
25.35143 934.31342 0 0 0
25.36024 934.85553 0 0 0
25.36904 934.15906 0 0 0
25.37785 933.96094 0 0 0
25.38666 933.65924 0 0 0
25.39547 933.20587 0 0 0
25.40427 933.99249 0 0 0
25.41308 933.91974 0 0 0
25.42189 934.12512 0 0 0
25.43070 934.25311 0 0 0
25.43950 934.10315 0 0 0
25.44831 934.47369 0 0 0
25.45712 934.8891 0 0 0
25.46592 934.43817 0 0 0
25.47473 934.55927 0 0 0
25.48354 934.83105 0 0 0
25.49234 934.67114 0 0 0
25.50115 934.81165 0 0 0
25.50996 935.55743 0 0 0
25.51876 936.41968 0 0 0
25.52757 937.58966 0 0 0
25.53638 939.17377 0 0 0
25.54519 939.62958 0 0 0
25.55399 939.74146 0 0 0
25.56280 940.69348 0 0 0
25.57161 942.68317 0 0 0
25.58042 943.87183 0 0 0
25.58922 943.91266 0 0 0
25.59803 944.17383 0 0 0
25.60684 945.31592 0 0 0
25.61564 946.02386 0 0 0
25.62445 945.18903 0 0 0
25.63326 944.16681 0 0 0
25.64206 943.57916 0 0 0
25.65087 943.26154 0 0 0
25.65968 942.25977 0 0 0
25.66849 940.48755 0 0 0
25.67729 937.82196 0 0 0
25.68610 936.92389 0 0 0
25.69491 936.56598 0 0 0
25.70372 935.58997 0 0 0
25.71252 933.88025 0 0 0
25.72133 932.11212 0 0 0
25.73014 931.69446 0 0 0
25.73895 931.50085 0 0 0
25.74775 931.05066 0 0 0
25.75656 931.09906 0 0 0
25.76537 931.29541 0 0 0
25.77417 930.70093 0 0 0
25.78298 931.09113 0 0 0
25.79179 932.2915 0 0 0
25.80059 932.75635 0 0 0
25.80940 933.32349 0 0 0
25.81821 934.62695 0 0 0
25.82702 936.09143 0 0 0
25.83582 937.1662 0 0 0
25.84463 938.01941 0 0 0
25.85344 938.70557 0 0 0
25.86225 940.38525 0 0 0
25.87105 941.99951 0 0 0
25.87986 942.56311 0 0 0
25.88867 943.96722 0 0 0
25.89747 945.38354 0 0 0
25.90628 946.09302 0 0 0
25.91509 947.62714 0 0 0
25.92390 949.19818 0 0 0
25.93270 949.83362 0 0 0
25.94151 950.46582 0 0 0
25.95032 951.42529 0 0 0
25.95912 950.83722 0 0 0
25.96793 949.21271 0 0 0
25.97674 947.862 0 0 0
25.98555 945.13361 0 0 0
25.99435 943.13281 0 0 0
26.00316 941.46149 0 0 0
26.01197 938.98022 0 0 0
26.02078 937.28375 0 0 0
26.02958 935.69525 0 0 0
26.03839 934.15533 0 0 0
26.04719 932.367 0 0 0
26.05600 930.98212 0 0 0
26.06481 929.94562 0 0 0
26.07362 929.31342 0 0 0
26.08242 929.15802 0 0 0
26.09123 928.11023 0 0 0
26.10004 927.76666 0 0 0
26.10884 927.52759 0 0 0
26.11765 927.84247 0 0 0
26.12646 928.53333 0 0 0
26.13527 928.67926 0 0 0
26.14407 928.70105 0 0 0
26.15288 928.83118 0 0 0
26.16169 930.54108 0 0 0
26.17050 932.99792 0 0 0
26.17930 933.6012 0 0 0
26.18811 933.63928 0 0 0
26.19692 934.53247 0 0 0
26.20573 936.60211 0 0 0
26.21453 938.44208 0 0 0
26.22334 939.41968 0 0 0
26.23214 939.99115 0 0 0
26.24095 939.48865 0 0 0
26.24976 938.96417 0 0 0
26.25857 936.82819 0 0 0
26.26737 935.21576 0 0 0
26.27618 934.76361 0 0 0
26.28499 934.29248 0 0 0
26.29380 932.38629 0 0 0
26.30260 929.97839 0 0 0
26.31141 928.09106 0 0 0
26.32022 925.3952 0 0 0
26.32903 922.59259 0 0 0
26.33783 920.5722 0 0 0
26.34664 918.91791 0 0 0
26.35545 917.32416 0 0 0
26.36425 916.16583 0 0 0
26.37306 914.68109 0 0 0
26.38187 914.16595 0 0 0
26.39068 913.57269 0 0 0
26.39948 913.2041 0 0 0
26.40829 913.42725 0 0 0
26.41710 913.04889 0 0 0
26.42590 912.69897 0 0 0
26.43471 912.64899 0 0 0
26.44352 912.97876 0 0 0
26.45233 912.71613 0 0 0
26.46113 913.06879 0 0 0
26.46994 913.10583 0 0 0
26.47875 912.94543 0 0 0
26.48756 913.83624 0 0 0
26.49636 915.59985 0 0 0
26.50517 915.85712 0 0 0
26.51397 915.18079 0 0 0
26.52278 915.51312 0 0 0
26.53159 915.86292 0 0 0
26.54040 916.06403 0 0 0
26.54920 915.26819 0 0 0
26.55801 915.72809 0 0 0
26.56682 916.33881 0 0 0
26.57563 916.05676 0 0 0
26.58443 915.63605 0 0 0
26.59324 915.17426 0 0 0
26.60205 915.16199 0 0 0
26.61085 914.86426 0 0 0
26.61966 915.34869 0 0 0
26.62847 914.82404 0 0 0
26.63728 914.10962 0 0 0
26.64608 913.94861 0 0 0
26.65489 914.40717 0 0 0
26.66370 914.62372 0 0 0
26.67250 913.72382 0 0 0
26.68131 913.51465 0 0 0
26.69012 913.28314 0 0 0
26.69892 912.51868 0 0 0
26.70773 911.94495 0 0 0
26.71654 912.06012 0 0 0
26.72535 912.35498 0 0 0
26.73415 912.08514 0 0 0
26.74296 912.11212 0 0 0
26.75177 912.47784 0 0 0
26.76058 912.63049 0 0 0
26.76938 912.89783 0 0 0
26.77819 912.38525 0 0 0
26.78700 911.99066 0 0 0
26.79581 912.38745 0 0 0
26.80461 912.92694 0 0 0
26.81342 913.02374 0 0 0
26.82223 912.63928 0 0 0
26.83103 912.08691 0 0 0
26.83984 910.85925 0 0 0
26.84865 910.6402 0 0 0
26.85745 910.76263 0 0 0
26.86626 908.91278 0 0 0
26.87507 907.27155 0 0 0
26.88388 907.13879 0 0 0
26.89268 906.70715 0 0 0
26.90149 905.71106 0 0 0
26.91030 905.2489 0 0 0
26.91911 904.5282 0 0 0
26.92791 903.78125 0 0 0
26.93672 904.10809 0 0 0
26.94553 903.98975 0 0 0
26.95433 902.70227 0 0 0
26.96314 901.81708 0 0 0
26.97195 901.58044 0 0 0
26.98075 902.2337 0 0 0
26.98956 902.88287 0 0 0
26.99837 901.90894 0 0 0
27.00718 900.6546 0 0 0
27.01598 900.49225 0 0 0
27.02479 901.09845 0 0 0
27.03360 901.18976 0 0 0
27.04241 900.75781 0 0 0
27.05121 899.80853 0 0 0
27.06002 899.896 0 0 0
27.06883 900.42877 0 0 0
27.07764 899.37585 0 0 0
27.08644 898.89532 0 0 0
27.09525 899.41382 0 0 0
27.10405 899.26404 0 0 0
27.11286 899.22321 0 0 0
27.12167 899.56812 0 0 0
27.13048 899.32782 0 0 0
27.13928 899.7793 0 0 0
27.14809 900.29706 0 0 0
27.15690 900.39447 0 0 0
27.16570 899.69116 0 0 0
27.17451 899.05908 0 0 0
27.18332 900.10272 0 0 0
27.19213 901.12756 0 0 0
27.20093 900.67444 0 0 0
27.20974 900.40601 0 0 0
27.21855 901.00452 0 0 0
27.22736 900.75299 0 0 0
27.23616 900.57135 0 0 0
27.24497 901.0835 0 0 0
27.25378 901.17615 0 0 0
27.26259 900.66608 0 0 0
27.27139 900.24005 0 0 0
27.28020 900.4386 0 0 0
27.28900 900.96533 0 0 0
27.29781 901.29852 0 0 0
27.30662 900.78369 0 0 0
27.31543 900.52966 0 0 0
27.32423 901.34735 0 0 0
27.33304 901.82581 0 0 0
27.34185 901.78107 0 0 0
27.35066 901.67029 0 0 0
27.35946 901.79498 0 0 0
27.36827 903.3194 0 0 0
27.37708 904.73926 0 0 0
27.38588 903.52496 0 0 0
27.39469 903.81134 0 0 0
27.40350 906.24146 0 0 0
27.41231 906.77917 0 0 0
27.42111 906.48663 0 0 0
27.42992 906.66492 0 0 0
27.43873 907.7381 0 0 0
27.44753 909.46674 0 0 0
27.45634 910.52191 0 0 0
27.46515 911.73029 0 0 0
27.47396 912.66351 0 0 0
27.48276 912.87976 0 0 0
27.49157 913.19342 0 0 0
27.50038 914.2149 0 0 0
27.50919 915.58032 0 0 0
27.51799 915.86981 0 0 0
27.52680 914.61816 0 0 0
27.53561 913.1239 0 0 0
27.54442 912.15259 0 0 0
27.55322 912.54108 0 0 0
27.56203 912.38989 0 0 0
27.57083 910.51251 0 0 0
27.57964 908.89441 0 0 0
27.58845 908.4953 0 0 0
27.59726 907.8078 0 0 0
27.60606 906.76703 0 0 0
27.61487 906.06628 0 0 0
27.62368 905.33063 0 0 0
27.63249 904.65576 0 0 0
27.64129 904.03595 0 0 0
27.65010 903.71136 0 0 0
27.65891 903.27545 0 0 0
27.66771 903.14099 0 0 0
27.67652 903.44244 0 0 0
27.68533 903.15503 0 0 0
27.69414 903.56714 0 0 0
27.70294 903.97388 0 0 0
27.71175 903.13916 0 0 0
27.72056 903.44305 0 0 0
27.72936 904.83209 0 0 0
27.73817 904.85468 0 0 0
27.74698 905.15466 0 0 0
27.75578 906.71051 0 0 0
27.76459 907.74188 0 0 0
27.77340 908.74451 0 0 0
27.78221 909.9093 0 0 0
27.79101 910.47845 0 0 0
27.79982 910.5639 0 0 0
27.80863 912.52411 0 0 0
27.81744 914.21143 0 0 0
27.82624 915.09589 0 0 0
27.83505 917.10962 0 0 0
27.84386 918.32733 0 0 0
27.85266 918.86774 0 0 0
27.86147 919.44061 0 0 0
27.87028 919.92242 0 0 0
27.87909 920.17114 0 0 0
27.88789 920.1062 0 0 0
27.89670 921.19653 0 0 0
27.90551 922.26434 0 0 0
27.91431 922.33093 0 0 0
27.92312 921.63745 0 0 0
27.93193 920.50269 0 0 0
27.94074 920.15997 0 0 0
27.94954 918.34412 0 0 0
27.95835 916.75433 0 0 0
27.96716 917.5603 0 0 0
27.97596 916.32404 0 0 0
27.98477 914.36499 0 0 0
27.99358 913.70654 0 0 0
28.00239 911.85651 0 0 0
28.01119 909.93085 0 0 0
28.02000 909.73676 0 0 0
28.02881 908.68817 0 0 0
28.03761 907.66583 0 0 0
28.04642 907.28284 0 0 0
28.05523 906.073 0 0 0
28.06404 904.58624 0 0 0
28.07284 902.64014 0 0 0
28.08165 902.87848 0 0 0
28.09046 903.40723 0 0 0
28.09927 901.83429 0 0 0
28.10807 900.38293 0 0 0
28.11688 899.87695 0 0 0
28.12569 899.62457 0 0 0
28.13450 900.18408 0 0 0
28.14330 900.66675 0 0 0
28.15211 900.61328 0 0 0
28.16091 901.26416 0 0 0
28.16972 902.11761 0 0 0
28.17853 902.16595 0 0 0
28.18734 901.97168 0 0 0
28.19614 900.95917 0 0 0
28.20495 899.64655 0 0 0
28.21376 899.62982 0 0 0
28.22256 900.21124 0 0 0
28.23137 900.17639 0 0 0
28.24018 900.92346 0 0 0
28.24899 901.97272 0 0 0
28.25779 901.41101 0 0 0
28.26660 900.79065 0 0 0
28.27541 902.26788 0 0 0
28.28422 903.12042 0 0 0
28.29302 903.05249 0 0 0
28.30183 902.7868 0 0 0
28.31064 902.60553 0 0 0
28.31945 904.35089 0 0 0
28.32825 904.99261 0 0 0
28.33706 904.90863 0 0 0
28.34586 902.5567 0 0 0
28.35467 885.91223 0 0 0
28.36348 878.7182 0 0 0
28.37229 888.71997 0 0 0
28.38109 895.112 0 0 0
28.38990 899.4801 0 0 0
28.39871 901.50195 0 0 0
28.40752 903.45483 0 0 0
28.41632 905.67542 0 0 0
28.42513 907.18127 0 0 0
28.43394 909.37567 0 0 0
28.44274 912.10614 0 0 0
28.45155 913.09454 0 0 0
28.46036 913.70129 0 0 0
28.46917 915.95074 0 0 0
28.47797 917.6579 0 0 0
28.48678 918.20483 0 0 0
28.49559 919.83966 0 0 0
28.50439 920.38525 0 0 0
28.51320 919.98871 0 0 0
28.52201 919.87292 0 0 0
28.53082 920.37012 0 0 0
28.53962 919.8418 0 0 0
28.54843 918.29376 0 0 0
28.55724 918.25958 0 0 0
28.56605 918.39423 0 0 0
28.57485 916.63641 0 0 0
28.58366 913.91943 0 0 0
28.59247 913.3161 0 0 0
28.60127 912.96863 0 0 0
28.61008 912.00262 0 0 0
28.61889 910.49426 0 0 0
28.62769 909.41901 0 0 0
28.63650 908.4079 0 0 0
28.64531 907.46576 0 0 0
28.65412 907.36804 0 0 0
28.66292 906.91107 0 0 0
28.67173 906.58441 0 0 0
28.68054 905.69055 0 0 0
28.68935 904.95917 0 0 0
28.69815 904.47766 0 0 0
28.70696 903.47772 0 0 0
28.71577 903.62189 0 0 0
28.72458 902.83423 0 0 0
28.73338 901.61334 0 0 0
28.74219 901.14917 0 0 0
28.75100 898.96045 0 0 0
28.75980 896.67664 0 0 0
28.76861 896.23157 0 0 0
28.77742 896.95917 0 0 0
28.78622 896.36285 0 0 0
28.79503 895.62067 0 0 0
28.80384 896.30524 0 0 0
28.81264 896.61334 0 0 0
28.82145 894.96552 0 0 0
28.83026 894.26593 0 0 0
28.83907 894.42401 0 0 0
28.84787 894.54791 0 0 0
28.85668 894.50775 0 0 0
28.86549 894.07214 0 0 0
28.87430 894.15948 0 0 0
28.88310 894.02844 0 0 0
28.89191 893.76965 0 0 0
28.90072 893.11169 0 0 0
28.90952 892.9765 0 0 0
28.91833 893.53412 0 0 0
28.92714 893.34888 0 0 0
28.93595 893.4176 0 0 0
28.94475 893.31793 0 0 0
28.95356 892.58112 0 0 0
28.96237 892.46252 0 0 0
28.97117 892.06616 0 0 0
28.97998 892.59259 0 0 0
28.98879 893.83929 0 0 0
28.99760 894.45471 0 0 0
29.00640 894.76788 0 0 0
29.01521 894.94049 0 0 0
29.02402 895.30542 0 0 0
29.03282 896.02454 0 0 0
29.04163 897.44794 0 0 0
29.05044 898.89471 0 0 0
29.05925 900.02307 0 0 0
29.06805 899.58746 0 0 0
29.07686 898.14227 0 0 0
29.08567 898.49438 0 0 0
29.09447 899.55737 0 0 0
29.10328 899.72949 0 0 0
29.11209 899.09851 0 0 0
29.12090 899.67828 0 0 0
29.12970 901.29388 0 0 0
29.13851 901.96466 0 0 0
29.14732 900.81677 0 0 0
29.15613 900.04669 0 0 0
29.16493 900.7204 0 0 0
29.17374 900.9892 0 0 0
29.18255 902.09894 0 0 0
29.19136 901.1604 0 0 0
29.20016 899.72131 0 0 0
29.20897 900.04596 0 0 0
29.21777 901.07501 0 0 0
29.22658 901.08832 0 0 0
29.23539 900.2525 0 0 0
29.24420 900.02283 0 0 0
29.25300 900.01697 0 0 0
29.26181 898.86816 0 0 0
29.27062 897.38989 0 0 0
29.27942 899.49377 0 0 0
29.28823 900.21729 0 0 0
29.29704 898.90625 0 0 0
29.30585 898.64099 0 0 0
29.31465 898.76282 0 0 0
29.32346 899.38843 0 0 0
29.33227 900.4245 0 0 0
29.34108 900.27997 0 0 0
29.34988 899.79187 0 0 0
29.35869 900.76978 0 0 0
29.36750 902.11676 0 0 0
29.37630 901.85583 0 0 0
29.38511 901.20642 0 0 0
29.39392 902.58551 0 0 0
29.40273 904.21252 0 0 0
29.41153 904.56598 0 0 0
29.42034 904.35168 0 0 0
29.42915 905.19983 0 0 0
29.43795 905.98627 0 0 0
29.44676 907.56738 0 0 0
29.45557 908.51117 0 0 0
29.46438 907.52588 0 0 0
29.47318 908.62421 0 0 0
29.48199 909.67194 0 0 0
29.49080 909.5708 0 0 0
29.49960 909.23993 0 0 0
29.50841 908.77759 0 0 0
29.51722 909.80902 0 0 0
29.52603 911.10095 0 0 0
29.53483 910.58209 0 0 0
29.54364 911.39117 0 0 0
29.55245 911.84094 0 0 0
29.56125 911.9137 0 0 0
29.57006 913.41119 0 0 0
29.57887 913.60742 0 0 0
29.58768 912.86371 0 0 0
29.59648 911.8324 0 0 0
29.60529 910.96057 0 0 0
29.61410 911.99292 0 0 0
29.62291 912.29126 0 0 0
29.63171 910.69092 0 0 0
29.64052 910.56555 0 0 0
29.64933 909.03467 0 0 0
29.65813 907.56732 0 0 0
29.66694 908.43018 0 0 0
29.67575 908.5528 0 0 0
29.68455 905.33905 0 0 0
29.69336 902.44867 0 0 0
29.70217 901.48047 0 0 0
29.71098 900.88055 0 0 0
29.71978 899.89648 0 0 0
29.72859 898.86011 0 0 0
29.73740 899.10773 0 0 0
29.74621 898.12341 0 0 0
29.75501 896.59692 0 0 0
29.76382 896.22131 0 0 0
29.77263 896.91119 0 0 0
29.78143 896.46582 0 0 0
29.79024 894.79175 0 0 0
29.79905 895.53717 0 0 0
29.80786 896.54114 0 0 0
29.81666 894.43573 0 0 0
29.82547 892.83716 0 0 0
29.83428 893.47308 0 0 0
29.84308 893.47986 0 0 0
29.85189 894.26355 0 0 0
29.86070 893.5094 0 0 0
29.86951 890.79401 0 0 0
29.87831 891.05219 0 0 0
29.88712 890.96521 0 0 0
29.89593 892.21539 0 0 0
29.90473 895.15027 0 0 0
29.91354 895.7099 0 0 0
29.92235 896.1192 0 0 0
29.93116 896.21906 0 0 0
29.93996 896.33282 0 0 0
29.94877 895.71301 0 0 0
29.95758 895.44067 0 0 0
29.96638 897.38855 0 0 0
29.97519 898.0777 0 0 0
29.98400 897.72137 0 0 0
29.99281 899.21136 0 0 0
30.00161 898.59326 0 0 0
30.01042 896.776 0 0 0
30.01923 897.87213 0 0 0
30.02803 898.40936 0 0 0
30.03684 897.94696 0 0 0
30.04565 897.64978 0 0 0
30.05446 898.46484 0 0 0
30.06326 899.02374 0 0 0
30.07207 898.2005 0 0 0
30.08088 897.5293 0 0 0
30.08968 897.82196 0 0 0
30.09849 897.34961 0 0 0
30.10730 899.47607 0 0 0
30.11611 901.00775 0 0 0
30.12491 900.54962 0 0 0
30.13372 901.1098 0 0 0
30.14253 900.53827 0 0 0
30.15133 899.48883 0 0 0
30.16014 900.82898 0 0 0
30.16895 901.93933 0 0 0
30.17776 901.34247 0 0 0
30.18656 899.66455 0 0 0
30.19537 898.46301 0 0 0
30.20418 897.82379 0 0 0
30.21299 899.10675 0 0 0
30.22179 901.83118 0 0 0
30.23060 900.03229 0 0 0
30.23941 898.24988 0 0 0
30.24821 898.08801 0 0 0
30.25702 896.64038 0 0 0
30.26583 897.05341 0 0 0
30.27463 896.86963 0 0 0
30.28344 894.92261 0 0 0
30.29225 895.22235 0 0 0
30.30106 895.6955 0 0 0
30.30986 895.13745 0 0 0
30.31867 896.48199 0 0 0
30.32748 896.86755 0 0 0
30.33629 895.51782 0 0 0
30.34509 894.39063 0 0 0
30.35390 894.01752 0 0 0
30.36271 894.53381 0 0 0
30.37151 894.38855 0 0 0
30.38032 894.05249 0 0 0
30.38913 896.1463 0 0 0
30.39794 897.33917 0 0 0
30.40674 895.18463 0 0 0
30.41555 892.88519 0 0 0
30.42436 892.83441 0 0 0
30.43316 892.54199 0 0 0
30.44197 892.854 0 0 0
30.45078 894.00757 0 0 0
30.45959 894.66003 0 0 0
30.46839 893.29218 0 0 0
30.47720 892.60303 0 0 0
30.48601 891.29803 0 0 0
30.49481 891.11652 0 0 0
30.50362 891.07147 0 0 0
30.51243 890.13647 0 0 0
30.52124 888.92065 0 0 0
30.53004 888.2243 0 0 0
30.53885 888.85382 0 0 0
30.54766 886.99146 0 0 0
30.55646 884.56342 0 0 0
30.56527 885.69043 0 0 0
30.57408 887.6236 0 0 0
30.58289 887.453 0 0 0
30.59169 886.40149 0 0 0
30.60050 887.01465 0 0 0
30.60931 888.31787 0 0 0
30.61811 887.67731 0 0 0
30.62692 888.47382 0 0 0
30.63573 887.5293 0 0 0
30.64454 886.2135 0 0 0
30.65334 886.01532 0 0 0
30.66215 886.11182 0 0 0
30.67096 886.88708 0 0 0
30.67977 888.18402 0 0 0
30.68857 889.36053 0 0 0
30.69738 887.93475 0 0 0
30.70619 885.7666 0 0 0
30.71499 886.28632 0 0 0
30.72380 887.65936 0 0 0
30.73261 886.56622 0 0 0
30.74141 886.54211 0 0 0
30.75022 886.19946 0 0 0
30.75903 885.53638 0 0 0
30.76784 886.18225 0 0 0
30.77664 886.72119 0 0 0
30.78545 886.4599 0 0 0
30.79426 886.95746 0 0 0
30.80307 888.78925 0 0 0
30.81187 889.27075 0 0 0
30.82068 887.92712 0 0 0
30.82949 885.5929 0 0 0
30.83829 885.26593 0 0 0
30.84710 886.07941 0 0 0
30.85591 886.414 0 0 0
30.86472 885.32941 0 0 0
30.87352 884.72418 0 0 0
30.88233 885.27521 0 0 0
30.89114 886.5213 0 0 0
30.89994 885.31055 0 0 0
30.90875 883.91595 0 0 0
30.91756 885.81372 0 0 0
30.92637 887.76947 0 0 0
30.93517 884.04541 0 0 0
30.94398 881.84387 0 0 0
30.95279 883.39844 0 0 0
30.96159 882.21069 0 0 0
30.97040 879.75653 0 0 0
30.97921 879.64905 0 0 0
30.98802 880.97949 0 0 0
30.99682 881.63501 0 0 0
31.00563 879.46594 0 0 0
31.01444 878.92963 0 0 0
31.02324 878.0451 0 0 0
31.03205 876.76965 0 0 0
31.04086 878.57092 0 0 0
31.04967 879.19891 0 0 0
31.05847 879.33667 0 0 0
31.06728 879.39709 0 0 0
31.07609 877.01642 0 0 0
31.08489 876.24103 0 0 0
31.09370 874.52679 0 0 0
31.10251 872.79974 0 0 0
31.11132 874.77515 0 0 0
31.12012 877.88055 0 0 0
31.12893 875.97687 0 0 0
31.13774 873.3963 0 0 0
31.14654 872.28729 0 0 0
31.15535 871.89166 0 0 0
31.16416 871.44037 0 0 0
31.17297 869.92706 0 0 0
31.18177 870.77625 0 0 0
31.19058 870.02808 0 0 0
31.19939 868.36493 0 0 0
31.20819 867.58313 0 0 0
31.21700 869.49048 0 0 0
31.22581 868.38098 0 0 0
31.23462 867.83362 0 0 0
31.24342 868.42242 0 0 0
31.25223 867.73505 0 0 0
31.26104 868.54547 0 0 0
31.26985 869.00897 0 0 0
31.27865 868.46478 0 0 0
31.28746 869.88965 0 0 0
31.29627 870.4361 0 0 0
31.30507 869.35608 0 0 0
31.31388 868.15802 0 0 0
31.32269 866.44293 0 0 0
31.33150 865.23059 0 0 0
31.34030 865.88306 0 0 0
31.34911 868.62872 0 0 0
31.35792 868.02991 0 0 0
31.36672 870.96204 0 0 0
31.37553 872.13599 0 0 0
31.38434 869.53302 0 0 0
31.39315 870.93817 0 0 0
31.40195 872.08374 0 0 0
31.41076 868.84369 0 0 0
31.41957 868.16943 0 0 0
31.42837 871.84052 0 0 0
31.43718 873.04321 0 0 0
31.44599 870.82037 0 0 0
31.45480 870.75787 0 0 0
31.46360 871.22382 0 0 0
31.47241 870.60394 0 0 0
31.48122 872.56256 0 0 0
31.49002 874.32288 0 0 0
31.49883 874.53674 0 0 0
31.50764 876.11713 0 0 0
31.51645 877.71582 0 0 0
31.52525 875.60364 0 0 0
31.53406 875.36182 0 0 0
31.54287 878.03528 0 0 0
31.55167 880.71716 0 0 0
31.56048 881.63251 0 0 0
31.56929 880.42285 0 0 0
31.57810 879.4552 0 0 0
31.58690 878.93909 0 0 0
31.59571 879.65485 0 0 0
31.60452 881.32611 0 0 0
31.61332 883.16608 0 0 0
31.62213 883.74896 0 0 0
31.63094 882.99445 0 0 0
31.63975 878.88708 0 0 0
31.64855 877.74005 0 0 0
31.65736 879.04681 0 0 0
31.66617 879.20404 0 0 0
31.67497 875.59149 0 0 0
31.68378 875.33612 0 0 0
31.69259 875.63507 0 0 0
31.70140 872.74902 0 0 0
31.71020 872.3056 0 0 0
31.71901 872.08746 0 0 0
31.72782 873.00232 0 0 0
31.73663 870.61908 0 0 0
31.74543 865.59894 0 0 0
31.75424 864.87158 0 0 0
31.76305 867.69452 0 0 0
31.77185 866.37012 0 0 0
31.78066 861.25354 0 0 0
31.78947 861.54926 0 0 0
31.79828 861.23157 0 0 0
31.80708 861.78015 0 0 0
31.81589 863.93451 0 0 0
31.82470 865.0528 0 0 0
31.83350 865.26746 0 0 0
31.84231 862.11523 0 0 0
31.85112 860.33942 0 0 0
31.85993 863.16437 0 0 0
31.86873 860.79614 0 0 0
31.87754 857.72388 0 0 0
31.88635 859.14044 0 0 0
31.89515 859.24744 0 0 0
31.90396 858.74689 0 0 0
31.91277 856.47345 0 0 0
31.92158 855.27161 0 0 0
31.93038 856.90649 0 0 0
31.93919 856.91345 0 0 0
31.94800 853.0144 0 0 0
31.95680 854.77539 0 0 0
31.96561 853.67175 0 0 0
31.97442 850.20776 0 0 0
31.98323 850.57275 0 0 0
31.99203 850.72327 0 0 0
32.00084 852.71887 0 0 0
32.00965 851.1637 0 0 0
32.01846 850.73956 0 0 0
32.02726 850.71832 0 0 0
32.03607 849.54645 0 0 0
32.04488 851.50415 0 0 0
32.05368 851.578 0 0 0
32.06249 854.03473 0 0 0
32.07130 853.25586 0 0 0
32.08011 849.56189 0 0 0
32.08891 848.78613 0 0 0
32.09772 849.82831 0 0 0
32.10652 851.83472 0 0 0
32.11533 850.03656 0 0 0
32.12414 845.78729 0 0 0
32.13295 843.27582 0 0 0
32.14175 845.50641 0 0 0
32.15056 845.75842 0 0 0
32.15937 843.8606 0 0 0
32.16817 846.54523 0 0 0
32.17698 842.15204 0 0 0
32.18579 839.42841 0 0 0
32.19460 844.33545 0 0 0
32.20340 847.53662 0 0 0
32.21221 846.42242 0 0 0
32.22102 844.65784 0 0 0
32.22983 842.55371 0 0 0
32.23863 842.29901 0 0 0
32.24744 841.86377 0 0 0
32.25625 844.31842 0 0 0
32.26506 845.47333 0 0 0
32.27386 842.25562 0 0 0
32.28267 835.94739 0 0 0
32.29148 835.30298 0 0 0
32.30029 835.66571 0 0 0
32.30909 835.70148 0 0 0
32.31790 830.82587 0 0 0
32.32671 834.48358 0 0 0
32.33551 836.86176 0 0 0
32.34432 838.68848 0 0 0
32.35313 841.59247 0 0 0
32.36194 840.82617 0 0 0
32.37074 841.95258 0 0 0
32.37955 840.2113 0 0 0
32.38835 840.65594 0 0 0
32.39716 840.16827 0 0 0
32.40597 841.17444 0 0 0
32.41478 843.54163 0 0 0
32.42358 836.45282 0 0 0
32.43239 829.9502 0 0 0
32.44120 831.55945 0 0 0
32.45000 837.86377 0 0 0
32.45881 841.05273 0 0 0
32.46762 833.43182 0 0 0
32.47643 826.64911 0 0 0
32.48523 825.19641 0 0 0
32.49404 827.91815 0 0 0
32.50285 827.21082 0 0 0
32.51165 827.08282 0 0 0
32.52046 831.32385 0 0 0
32.52927 834.78833 0 0 0
32.53808 836.19879 0 0 0
32.54688 836.55145 0 0 0
32.55569 826.09735 0 0 0
32.56450 825.76874 0 0 0
32.57331 826.91425 0 0 0
32.58211 829.66589 0 0 0
32.59092 826.78699 0 0 0
32.59973 816.29022 0 0 0
32.60854 815.32666 0 0 0
32.61734 821.35919 0 0 0
32.62615 824.41333 0 0 0
32.63496 810.02942 0 0 0
32.64376 794.64703 0 0 0
32.65257 800.55872 0 0 0
32.66138 807.49817 0 0 0
32.67018 805.57422 0 0 0
32.67899 791.8877 0 0 0
32.68780 775.83118 0 0 0
32.69661 774.28748 0 0 0
32.70541 777.54578 0 0 0
32.71422 768.85431 0 0 0
32.72303 757.96295 0 0 0
32.73183 762.46008 0 0 0
32.74064 757.96722 0 0 0
32.74945 740.09686 0 0 0
32.75825 732.85486 0 0 0
32.76706 721.88214 0 0 0
32.77587 696.71765 0 0 0
32.78468 675.20905 0 0 0
32.79348 678.8642 0 0 0
32.80229 676.58746 0 0 0
32.81110 647.46161 0 0 0
32.81991 613.54913 0 0 0
32.82871 558.25592 0 0 0
32.83752 477.89313 0 0 0
32.84633 389.04263 0 0 0
32.85514 266.70993 0 0 0
32.86394 188.74828 0 0 0
32.87275 190.71236 0 0 0
32.88156 180.98625 0 0 0
32.89037 179.96051 0 0 0
32.89917 183.8549 0 0 0
32.90798 187.42621 0 0 0
32.91679 188.6978 0 0 0
32.92559 188.71057 0 0 0
32.93440 179.98859 0 0 0
32.94321 179.24118 0 0 0
32.95202 181.57716 0 0 0
32.96082 185.6084 0 0 0
32.96963 187.41396 0 0 0
32.97844 186.118 0 0 0
32.98724 189.80241 0 0 0
32.99605 188.17262 0 0 0
33.00486 183.26501 0 0 0
33.01366 180.12538 0 0 0
33.02247 179.52579 0 0 0
33.03128 180.58293 0 0 0
33.04008 183.87604 0 0 0
33.04889 185.11523 0 0 0
33.05770 182.20093 0 0 0
33.06650 177.38719 0 0 0
33.07531 169.18379 0 0 0
33.08412 162.6019 0 0 0
33.09293 174.26108 0 0 0
33.10173 185.1319 0 0 0
33.11054 186.53807 0 0 0
33.11935 180.80957 0 0 0
33.12816 174.3735 0 0 0
33.13696 179.89343 0 0 0
33.14577 177.89534 0 0 0
33.15458 166.04219 0 0 0
33.16339 170.38271 0 0 0
33.17219 186.5844 0 0 0
33.18100 190.13248 0 0 0
33.18981 180.22621 0 0 0
33.19862 177.92049 0 0 0
33.20742 180.16098 0 0 0
33.21623 182.48047 0 0 0
33.22504 184.17957 0 0 0
33.23385 183.2634 0 0 0
33.24265 177.86653 0 0 0
33.25146 171.8007 0 0 0
33.26026 171.96411 0 0 0
33.26907 174.80275 0 0 0
33.27788 173.89767 0 0 0
33.28669 180.02397 0 0 0
33.29549 187.40254 0 0 0
33.30430 189.56396 0 0 0
33.31311 187.12224 0 0 0
33.32191 181.80681 0 0 0
33.33072 178.88345 0 0 0
33.33953 190.11819 0 0 0
33.34833 203.35329 0 0 0
33.35714 193.43422 0 0 0
33.36595 176.78586 0 0 0
33.37476 174.77371 0 0 0
33.38356 182.95537 0 0 0
33.39237 187.79147 0 0 0
33.40118 178.07234 0 0 0
33.40999 175.57742 0 0 0
33.41879 172.05237 0 0 0
33.42760 165.63501 0 0 0
33.43641 167.92679 0 0 0
33.44522 180.49066 0 0 0
33.45402 190.43765 0 0 0
33.46283 189.29631 0 0 0
33.47164 181.57524 0 0 0
33.48045 178.88139 0 0 0
33.48925 184.27147 0 0 0
33.49806 184.40466 0 0 0
33.50687 182.74709 0 0 0
33.51568 181.62822 0 0 0
33.52448 184.60577 0 0 0
33.53329 184.69943 0 0 0
33.54210 185.67273 0 0 0
33.55090 183.20319 0 0 0
33.55971 178.34947 0 0 0
33.56852 175.96387 0 0 0
33.57732 179.67638 0 0 0
33.58613 183.0784 0 0 0
33.59494 187.89192 0 0 0
33.60375 198.25389 0 0 0
33.61255 203.11412 0 0 0
33.62136 194.13206 0 0 0
33.63016 189.94142 0 0 0
33.63897 187.85294 0 0 0
33.64778 179.99962 0 0 0
33.65659 173.10558 0 0 0
33.66539 172.07523 0 0 0
33.67420 182.92596 0 0 0
33.68301 184.35457 0 0 0
33.69181 187.79662 0 0 0
33.70062 194.24216 0 0 0
33.70943 189.15065 0 0 0
33.71824 188.4344 0 0 0
33.72704 195.27821 0 0 0
33.73585 194.47023 0 0 0
33.74466 183.48717 0 0 0
33.75347 176.54123 0 0 0
33.76227 169.13737 0 0 0
33.77108 174.93512 0 0 0
33.77989 186.66515 0 0 0
33.78870 193.84489 0 0 0
33.79750 192.078 0 0 0
33.80631 177.76958 0 0 0
33.81512 176.29353 0 0 0
33.82393 185.95421 0 0 0
33.83273 189.92749 0 0 0
33.84154 189.41452 0 0 0
33.85035 193.07623 0 0 0
33.85915 200.67117 0 0 0
33.86796 204.3374 0 0 0
33.87677 202.43318 0 0 0
33.88557 200.04472 0 0 0
33.89438 194.43835 0 0 0
33.90319 189.39268 0 0 0
33.91199 175.9075 0 0 0
33.92080 176.41698 0 0 0
33.92961 192.3826 0 0 0
33.93842 203.14844 0 0 0
33.94722 205.90906 0 0 0
33.95603 197.19199 0 0 0
33.96484 192.90892 0 0 0
33.97364 193.11458 0 0 0
33.98245 189.14999 0 0 0
33.99126 183.93661 0 0 0
34.00007 185.39609 0 0 0
34.00887 193.43762 0 0 0
34.01768 201.31851 0 0 0
34.02649 204.14578 0 0 0
34.03530 195.69582 0 0 0
34.04410 193.73361 0 0 0
34.05291 188.24927 0 0 0
34.06172 186.80957 0 0 0
34.07053 187.21771 0 0 0
34.07933 187.39668 0 0 0
34.08814 180.91408 0 0 0
34.09695 183.93141 0 0 0
34.10575 192.90758 0 0 0
34.11456 201.96118 0 0 0
34.12337 197.36697 0 0 0
34.13217 193.76265 0 0 0
34.14098 193.07451 0 0 0
34.14979 194.00798 0 0 0
34.15860 189.50775 0 0 0
34.16740 180.62666 0 0 0
34.17621 184.95178 0 0 0
34.18502 179.11461 0 0 0
34.19382 183.82573 0 0 0
34.20263 188.65327 0 0 0
34.21144 189.17366 0 0 0
34.22024 196.90332 0 0 0
34.22905 211.07635 0 0 0
34.23786 217.57645 0 0 0
34.24667 217.26387 0 0 0
34.25547 211.61664 0 0 0
34.26428 201.97195 0 0 0
34.27309 191.71336 0 0 0
34.28189 179.44604 0 0 0
34.29070 177.98242 0 0 0
34.29951 178.8364 0 0 0
34.30832 182.12177 0 0 0
34.31712 189.57216 0 0 0
34.32593 189.03601 0 0 0
34.33474 199.58685 0 0 0
34.34355 205.53922 0 0 0
34.35235 209.57552 0 0 0
34.36116 204.9256 0 0 0
34.36997 200.97377 0 0 0
34.37878 207.65425 0 0 0
34.38758 209.98817 0 0 0
34.39639 206.34106 0 0 0
34.40520 202.06783 0 0 0
34.41401 200.12608 0 0 0
34.42281 200.63536 0 0 0
34.43162 194.35457 0 0 0
34.44043 192.4478 0 0 0
34.44923 189.37372 0 0 0
34.45804 186.42603 0 0 0
34.46685 195.39499 0 0 0
34.47566 198.38312 0 0 0
34.48446 199.802 0 0 0
34.49327 198.65942 0 0 0
34.50207 192.58984 0 0 0
34.51088 188.48863 0 0 0
34.51969 190.46475 0 0 0
34.52850 197.62354 0 0 0
34.53730 199.21785 0 0 0
34.54611 198.14883 0 0 0
34.55492 196.38446 0 0 0
34.56372 201.00514 0 0 0
34.57253 204.63475 0 0 0
34.58134 196.99873 0 0 0
34.59015 189.28293 0 0 0
34.59895 192.51813 0 0 0
34.60776 199.28117 0 0 0
34.61657 196.18884 0 0 0
34.62538 191.24823 0 0 0
34.63418 193.24918 0 0 0
34.64299 203.66393 0 0 0
34.65180 207.49298 0 0 0
34.66060 206.57483 0 0 0
34.66941 210.67673 0 0 0
34.67822 216.45674 0 0 0
34.68703 218.7722 0 0 0
34.69583 214.38399 0 0 0
34.70464 217.72792 0 0 0
34.71345 231.71446 0 0 0
34.72226 232.10297 0 0 0
34.73106 210.50705 0 0 0
34.73987 186.21999 0 0 0
34.74868 187.93399 0 0 0
34.75748 207.25612 0 0 0
34.76629 213.09724 0 0 0
34.77510 204.15143 0 0 0
34.78390 207.35886 0 0 0
34.79271 218.47874 0 0 0
34.80152 223.68896 0 0 0
34.81033 218.6497 0 0 0
34.81913 214.97871 0 0 0
34.82794 210.56503 0 0 0
34.83675 207.38573 0 0 0
34.84555 208.47945 0 0 0
34.85436 206.95184 0 0 0
34.86317 206.84853 0 0 0
34.87197 208.66602 0 0 0
34.88078 223.08649 0 0 0
34.88959 227.96332 0 0 0
34.89840 229.22087 0 0 0
34.90720 225.55272 0 0 0
34.91601 205.84662 0 0 0
34.92482 206.77502 0 0 0
34.93363 221.35255 0 0 0
34.94243 218.4272 0 0 0
34.95124 207.43503 0 0 0
34.96005 216.07249 0 0 0
34.96886 225.85063 0 0 0
34.97766 222.00214 0 0 0
34.98647 214.96245 0 0 0
34.99528 216.2225 0 0 0
35.00409 212.61327 0 0 0
35.01289 206.00034 0 0 0
35.02170 204.35381 0 0 0
35.03051 208.92847 0 0 0
35.03931 220.44434 0 0 0
35.04812 225.85498 0 0 0
35.05693 221.48015 0 0 0
35.06573 214.62222 0 0 0
35.07454 213.49797 0 0 0
35.08335 218.3559 0 0 0
35.09215 216.38205 0 0 0
35.10096 210.20071 0 0 0
35.10977 208.04619 0 0 0
35.11858 206.69933 0 0 0
35.12738 202.8233 0 0 0
35.13619 207.48056 0 0 0
35.14500 217.18417 0 0 0
35.15380 215.95889 0 0 0
35.16261 214.02203 0 0 0
35.17142 223.28951 0 0 0
35.18023 228.50183 0 0 0
35.18903 227.19147 0 0 0
35.19784 218.7 0 0 0
35.20665 219.27399 0 0 0
35.21545 225.49901 0 0 0
35.22426 225.59912 0 0 0
loop_
_gsas_i100_meas
0.31
14.64
5.86
3.95
10.55
5.67
100.00
18.86
63.19
23.87
83.13
19.21
1.31
1.11
34.52
67.18
0.44
60.70
13.61
17.78
4.44
1.22
2.69
6.73
3.87
43.60
2.68
39.60
5.54
1.79
1.12
0.19
0.06
10.17
2.03
1.44
1.66
3.69
5.89
19.30
24.62
5.16
3.83
0.02
4.32
0.08
1.30
0.69
30.11
0.49
5.51
7.71
12.77
0.21
8.38
12.27
2.10
5.20
5.91
0.02
12.41
0.55
7.60
0.00
4.05
2.11
3.06
4.32
3.45
0.30
1.91
2.31
2.33
20.45
0.49
1.48
0.13
3.58
0.71
4.76
2.10
8.72
0.00
7.90
0.11
7.42
14.95
21.70
2.09
0.42
2.77
0.41
4.24
0.61
0.44
2.06
9.90
3.56
1.36
3.29
0.13
0.23
3.67
2.36
0.52
0.08
9.15
0.15
2.75
7.59
16.94
3.03
3.86
13.56
5.67
2.90
0.34
0.63
0.01
0.61
2.07
0.07
4.55
0.43
0.00
0.58
8.81
2.29
4.78
0.22
0.28
0.97
0.25
0.02
7.30
2.46
0.57
0.52
0.04
0.46
1.43
0.38
0.37
12.93
1.61
7.62
0.69
0.03
0.00
6.28
2.35
0.86
0.17
0.12
0.32
2.08
2.26
2.91
5.34
0.00
1.74
2.03
0.97
0.50
0.83
2.34
0.00
0.93
0.03
1.46
1.96
1.56
0.04
3.38
0.61
0.18
0.18
0.27
0.94
0.02
0.55
0.02
0.01
0.00
0.00
0.26
0.35
0.07
0.01
0.02
0.42
0.66
1.01
1.52
2.91
6.92
0.95
4.37
0.48
0.78
0.08
0.73
0.54
0.70
0.59
0.26
0.00
1.11
0.42
1.28
0.33
