#------------------------------------------------------------------------------
#$Date: 2021-02-05 01:04:31 +0200 (Fri, 05 Feb 2021) $
#$Revision: 261628 $
#$URL: file:///home/coder/svn-repositories/cod/cif/7/24/18/7241847.cif $
#------------------------------------------------------------------------------
#
# This file is available in the Crystallography Open Database (COD),
# http://www.crystallography.net/
#
# All data on this site have been placed in the public domain by the
# contributors.
#
data_7241847
loop_
_publ_author_name
'Gu\'nka, Piotr A.'
'Hanfland, Michael'
'Chen, Yu-Sheng'
'Zachara, Janusz'
_publ_section_title
;
 High-pressure and low-temperature structural study of claudetite I, a
 monoclinic layered As2O3 polymorph
;
_journal_issue                   3
_journal_name_full               CrystEngComm
_journal_page_first              638
_journal_page_last               644
_journal_paper_doi               10.1039/D0CE01401J
_journal_volume                  23
_journal_year                    2021
_chemical_formula_moiety         'As2 O3'
_chemical_formula_sum            'As2 O3'
_chemical_formula_weight         197.84
_chemical_name_common            'claudetite I'
_chemical_name_systematic
;
arsenic(III) oxide
;
_space_group_IT_number           14
_space_group_name_Hall           '-P 2yn'
_space_group_name_H-M_alt        'P 1 21/n 1'
_symmetry_cell_setting           monoclinic
_symmetry_space_group_name_H-M   'P 1 21/n 1'
_audit_creation_date             2020-10-21T14:05
_audit_creation_method           'created in GSAS-II'
_audit_update_record
;
2020-10-22 deposited with the CCDC.	2020-12-10 downloaded from the CCDC.
;
_cell_angle_alpha                90
_cell_angle_beta                 94.769(4)
_cell_angle_gamma                90
_cell_formula_units_Z            4
_cell_length_a                   4.5965(6)
_cell_length_b                   11.5222(7)
_cell_length_c                   4.0319(4)
_cell_measurement_pressure       2.746e7(5)
_cell_measurement_temperature    293
_cell_volume                     212.80(4)
_computing_data_reduction        Fit2D
_computing_structure_refinement
'GSAS-II (Toby & Von Dreele, J. Appl. Cryst. 46, 544-549, 2013)'
_diffrn_ambient_pressure         2.746e7(5)
_diffrn_ambient_temperature      293
_diffrn_detector                 'Mar555 flat panel'
_diffrn_detector_type            'Mar555 flat panel'
_diffrn_measurement_device_type  'ESRF ID09A beamline'
_diffrn_radiation_monochromator  Si
_diffrn_radiation_polarisn_ratio 0.9900
_diffrn_radiation_probe          x-ray
_diffrn_radiation_wavelength     0.41421
_diffrn_source                   'ESRF ID09A'
_diffrn_source_type              synchrotron
_exptl_crystal_colour            colourless
_exptl_crystal_density_diffrn    6.1754
_exptl_crystal_description       'white powder'
_pd_block_id                     2020-10-21T14:05|clau1_021rietveld||id09a
_pd_calc_method                  'Rietveld Refinement'
_pd_meas_number_of_points        4000
_pd_phase_name                   claudetiteI
_pd_prep_pressure                100.0(1)
_pd_prep_temperature             293
_pd_proc_info_datetime           2020-10-21T14:05
_pd_proc_ls_background_function
;
Background function: "chebyschev" function with 15 terms:
    748.7(14), 385(5), 168(23), -1.37(4)e3, -1.54(11)e3, 1.367(8)e4, 
    1.25(15)e3, -48336(18), 8.98(7)e3, 7.804(7)e4, -2.446(12)e4, 
    -5.979(5)e4, 2.323(15)e4, 1.769(7)e4, -7.71(15)e3, 
;
_pd_proc_ls_pref_orient_corr
;
Simple spherical harmonic correction Order = 6
    Coefficients:  0:0:C(6,6) = -0.056(25); 0:0:C(4,4) = 0.198(24); 
    0:0:C(6,-2) = -0.02(3); 0:0:C(2,-2) = 0.122(18); 0:0:C(4,-4) = -0.279(22); 
    0:0:C(2,2) = 0.409(16); 0:0:C(4,0) = -0.472(22); 0:0:C(6,-6) = -0.144(31); 
    0:0:C(6,4) = -0.068(29); 0:0:C(4,2) = -0.150(21); 0:0:C(6,2) = -0.005(30); 
    0:0:C(6,-4) = 0.098(22); 0:0:C(6,0) = -0.059(28); 0:0:C(2,0) = -0.204(14); 
    0:0:C(4,-2) = 0.122(27); 
;
_pd_proc_ls_profile_function
;
Finger-Cox-Jephcoat function parameters U, V, W, X, Y, SH/L:
  peak variance(Gauss) = Utan(Th)^2^+Vtan(Th)+W:
  peak HW(Lorentz) = X/cos(Th)+Ytan(Th); SH/L = S/L+H/L
  U, V, W in (centideg)^2^, X & Y in centideg
    5.7(5)e3, -9.1(8)e2, 43(4), 28.6(5), 4(12), 0.002, 
  Crystallite size in microns with "isotropic" model:
  parameters: Size, G/L mix
    1.000, 1.000, 
  Microstrain, "isotropic" model (10^6^ * delta Q/Q)
    parameters: Mustrain, G/L mix
    1000.000, 1.000, 

;
_pd_proc_ls_prof_R_factor        0.01190
_pd_proc_ls_prof_wR_expected     0.03523
_pd_proc_ls_prof_wR_factor       0.01749
_refine_ls_goodness_of_fit_all   0.504
_refine_ls_matrix_type           full
_refine_ls_number_parameters     57
_refine_ls_R_Fsqd_factor         0.04852
_refine_ls_shift/su_max          0.0011
_refine_ls_wR_factor_obs         0.01753
_reflns_d_resolution_high        1.111
_reflns_d_resolution_low         5.761
_reflns_limit_h_max              4
_reflns_limit_h_min              0
_reflns_limit_k_max              10
_reflns_limit_k_min              0
_reflns_limit_l_max              3
_reflns_limit_l_min              -3
_reflns_number_total             163
_cod_data_source_file            d0ce01401j3.cif
_cod_data_source_block           clau1_021rietveld
_cod_depositor_comments
'Adding full bibliography for 7241824--7241862.cif.'
_cod_original_cell_volume        212.796(15)
_cod_database_code               7241847
_refine_ls_r_f_factor            0.02699
_gsas_proc_ls_prof_r_b_factor    0.01975
_gsas_proc_ls_prof_wr_b_factor   0.03577
loop_
_space_group_symop_id
_space_group_symop_operation_xyz
1 x,y,z
2 1/2-x,1/2+y,1/2-z
3 -x,-y,-z
4 1/2+x,1/2-y,1/2+z
loop_
_atom_site_label
_atom_site_type_symbol
_atom_site_fract_x
_atom_site_fract_y
_atom_site_fract_z
_atom_site_occupancy
_atom_site_adp_type
_atom_site_U_iso_or_equiv
_atom_site_symmetry_multiplicity
As1 As 0.2853(10) 0.08250(31) 0.0815(9) 1.000 Uiso 0.0074(18) 4
As2 As 0.3141(8) 0.3559(4) 0.0393(8) 1.000 Uiso 0.0074 4
O3 O 0.4713(23) 0.2173(5) 0.102(5) 1.000 Uiso 0.0074 4
O4 O 0.6569(25) 0.4201(15) 0.1590(19) 1.000 Uiso 0.0074 4
O5 O -0.0772(22) 0.1255(21) 0.1318(17) 1.000 Uiso 0.0074 4
loop_
_atom_type_symbol
_atom_type_number_in_cell
_atom_type_scat_Cromer_Mann_a1
_atom_type_scat_Cromer_Mann_a2
_atom_type_scat_Cromer_Mann_a3
_atom_type_scat_Cromer_Mann_a4
_atom_type_scat_Cromer_Mann_b1
_atom_type_scat_Cromer_Mann_b2
_atom_type_scat_Cromer_Mann_b3
_atom_type_scat_Cromer_Mann_b4
_atom_type_scat_Cromer_Mann_c
_atom_type_scat_length_neutron
_atom_type_scat_source
_atom_type_scat_dispersion_real
_atom_type_scat_dispersion_imag
_atom_type_scat_dispersion_source
As 8 16.6723 6.0701 3.4313 4.2779 2.6345 0.2647 12.9479 47.7972 2.531 0.658
https://subversion.xray.aps.anl.gov/pyGSAS/trunk/atmdata.py 0.283 0.775
https://subversion.xray.aps.anl.gov/pyGSAS/trunk/atmdata.py
O 12 3.0485 2.2868 1.5463 0.867 13.2771 5.7011 0.3239 32.9089 0.2508 0.5805
https://subversion.xray.aps.anl.gov/pyGSAS/trunk/atmdata.py 0.002 0.002
https://subversion.xray.aps.anl.gov/pyGSAS/trunk/atmdata.py
loop_
_geom_angle_atom_site_label_1
_geom_angle_atom_site_label_2
_geom_angle_atom_site_label_3
_geom_angle
_geom_angle_site_symmetry_1
_geom_angle_site_symmetry_2
_geom_angle_site_symmetry_3
_geom_angle_publ_flag
O3 As1 O4 100.5(9) 1_555 1_555 4_454 yes
O3 As1 O5 101.8(10) 1_555 1_555 1_555 yes
O4 As1 O5 82.6(4) 4_454 1_555 1_555 yes
O3 As2 O4 89.7(7) 1_555 1_555 1_555 yes
O3 As2 O5 95.7(12) 1_555 1_555 4_554 yes
O4 As2 O5 83.6(4) 1_555 1_555 4_554 yes
As1 O3 As2 126.7(6) 1_555 1_555 1_555 yes
As1 O4 As2 118.5(5) 4_555 1_555 1_555 yes
As1 O5 As2 118.8(5) 1_555 1_555 4_455 yes
loop_
_geom_bond_atom_site_label_1
_geom_bond_atom_site_label_2
_geom_bond_distance
_geom_bond_site_symmetry_1
_geom_bond_site_symmetry_2
_geom_bond_publ_flag
As1 O3 1.771(5) 1_555 1_555 yes
As1 O4 1.756(5) 1_555 4_454 yes
As1 O5 1.766(5) 1_555 1_555 yes
As2 O3 1.763(5) 1_555 1_555 yes
As2 O4 1.771(5) 1_555 1_555 yes
As2 O5 1.769(5) 1_555 4_554 yes
loop_
_pd_meas_2theta_scan
_pd_meas_intensity_total
_pd_calc_intensity_total
_pd_proc_intensity_bkg_calc
_pd_proc_ls_weight
0.00440 104.67757 0 0 0
0.01320 102.03979 0 0 0
0.02201 102.31866 0 0 0
0.03081 102.75204 0 0 0
0.03961 105.67888 0 0 0
0.04841 109.16094 0 0 0
0.05721 111.59198 0 0 0
0.06602 113.00689 0 0 0
0.07482 116.88712 0 0 0
0.08362 118.38766 0 0 0
0.09242 115.83501 0 0 0
0.10122 108.74431 0 0 0
0.11003 105.98199 0 0 0
0.11883 104.72611 0 0 0
0.12763 105.87795 0 0 0
0.13643 105.77489 0 0 0
0.14523 104.09142 0 0 0
0.15404 104.35476 0 0 0
0.16284 105.92966 0 0 0
0.17164 105.64501 0 0 0
0.18044 106.36784 0 0 0
0.18925 105.14603 0 0 0
0.19805 105.3195 0 0 0
0.20685 105.03912 0 0 0
0.21565 105.43996 0 0 0
0.22445 105.7572 0 0 0
0.23326 105.14281 0 0 0
0.24206 105.29076 0 0 0
0.25086 105.05306 0 0 0
0.25966 105.76784 0 0 0
0.26846 107.84636 0 0 0
0.27727 110.82091 0 0 0
0.28607 111.45972 0 0 0
0.29487 109.99237 0 0 0
0.30367 109.97859 0 0 0
0.31248 110.77734 0 0 0
0.32128 110.83687 0 0 0
0.33008 110.46045 0 0 0
0.33888 110.52731 0 0 0
0.34768 110.32068 0 0 0
0.35649 109.77663 0 0 0
0.36529 110.49451 0 0 0
0.37409 111.51929 0 0 0
0.38289 112.31902 0 0 0
0.39169 110.91626 0 0 0
0.40050 109.96966 0 0 0
0.40930 109.00765 0 0 0
0.41810 109.28146 0 0 0
0.42690 109.29168 0 0 0
0.43570 109.87609 0 0 0
0.44451 110.18246 0 0 0
0.45331 110.71578 0 0 0
0.46211 111.93033 0 0 0
0.47091 112.50042 0 0 0
0.47972 112.06813 0 0 0
0.48852 110.47939 0 0 0
0.49732 109.52303 0 0 0
0.50612 109.95962 0 0 0
0.51492 110.13421 0 0 0
0.52373 109.02112 0 0 0
0.53253 108.31239 0 0 0
0.54133 109.41932 0 0 0
0.55013 110.68671 0 0 0
0.55893 111.98257 0 0 0
0.56774 111.32494 0 0 0
0.57654 110.66844 0 0 0
0.58534 110.28733 0 0 0
0.59414 109.97683 0 0 0
0.60295 110.67098 0 0 0
0.61175 111.20876 0 0 0
0.62055 110.68074 0 0 0
0.62935 109.23925 0 0 0
0.63815 108.88322 0 0 0
0.64696 109.21375 0 0 0
0.65576 110.64977 0 0 0
0.66456 109.90659 0 0 0
0.67336 108.06052 0 0 0
0.68216 108.96611 0 0 0
0.69097 111.17088 0 0 0
0.69977 111.74651 0 0 0
0.70857 111.25767 0 0 0
0.71737 111.71049 0 0 0
0.72617 111.32264 0 0 0
0.73498 111.54041 0 0 0
0.74378 111.50697 0 0 0
0.75258 112.4189 0 0 0
0.76138 112.31094 0 0 0
0.77019 111.91877 0 0 0
0.77899 111.61462 0 0 0
0.78779 111.91483 0 0 0
0.79659 112.24773 0 0 0
0.80539 111.465 0 0 0
0.81420 110.75191 0 0 0
0.82300 111.86855 0 0 0
0.83180 112.41343 0 0 0
0.84060 113.60017 0 0 0
0.84940 115.1021 0 0 0
0.85821 116.87138 0 0 0
0.86701 117.4778 0 0 0
0.87581 116.9924 0 0 0
0.88461 116.62037 0 0 0
0.89342 117.11793 0 0 0
0.90222 118.72872 0 0 0
0.91102 121.09943 0 0 0
0.91982 122.73828 0 0 0
0.92862 123.69243 0 0 0
0.93743 124.43948 0 0 0
0.94623 124.83867 0 0 0
0.95503 124.29166 0 0 0
0.96383 127.75493 0 0 0
0.97263 131.61757 0 0 0
0.98144 132.33577 0 0 0
0.99024 133.31244 0 0 0
0.99904 136.36681 0 0 0
1.00784 137.44403 0 0 0
1.01664 142.96794 0 0 0
1.02545 149.7778 0 0 0
1.03425 159.80884 0 0 0
1.04305 170.08804 0 0 0
1.05185 181.49438 0 0 0
1.06066 186.923 0 0 0
1.06946 193.60016 0 0 0
1.07826 196.29489 0 0 0
1.08706 199.92693 0 0 0
1.09586 205.14729 0 0 0
1.10467 212.41074 0 0 0
1.11347 220.32722 0 0 0
1.12227 225.95694 0 0 0
1.13107 230.54953 0 0 0
1.13987 233.38078 0 0 0
1.14868 235.13974 0 0 0
1.15748 237.32417 0 0 0
1.16628 240.42026 0 0 0
1.17508 244.67235 0 0 0
1.18389 247.37955 0 0 0
1.19269 249.22412 0 0 0
1.20149 249.81862 0 0 0
1.21029 251.19382 0 0 0
1.21909 253.62859 0 0 0
1.22790 256.56952 0 0 0
1.23670 260.13535 0 0 0
1.24550 262.37167 0 0 0
1.25430 263.49442 0 0 0
1.26310 263.737 0 0 0
1.27191 265.39017 0 0 0
1.28071 267.35641 0 0 0
1.28951 270.14966 0 0 0
1.29831 272.91772 0 0 0
1.30711 274.49033 0 0 0
1.31592 275.73978 0 0 0
1.32472 276.5195 0 0 0
1.33352 277.93832 0 0 0
1.34232 279.30597 0 0 0
1.35113 280.90662 0 0 0
1.35993 280.89188 0 0 0
1.36873 280.72696 0 0 0
1.37753 282.59808 0 0 0
1.38633 284.69238 0 0 0
1.39514 286.38434 0 0 0
1.40394 286.57117 0 0 0
1.41274 287.41672 0 0 0
1.42154 288.36292 0 0 0
1.43034 290.39255 0 0 0
1.43915 291.50909 0 0 0
1.44795 292.40869 0 0 0
1.45675 292.7142 0 0 0
1.46555 293.61191 0 0 0
1.47436 294.08307 0 0 0
1.48316 294.66452 0 0 0
1.49196 297.65424 0 0 0
1.50076 299.12686 0 0 0
1.50956 300.45215 0 0 0
1.51837 301.44067 0 0 0
1.52717 302.42072 0 0 0
1.53597 302.50815 0 0 0
1.54477 303.79169 0 0 0
1.55357 305.19623 0 0 0
1.56238 306.29709 0 0 0
1.57118 306.65802 0 0 0
1.57998 307.46448 0 0 0
1.58878 308.92535 0 0 0
1.59758 310.02118 0 0 0
1.60639 309.92139 0 0 0
1.61519 310.29636 0 0 0
1.62399 311.68503 0 0 0
1.63279 312.77441 0 0 0
1.64160 312.69907 0 0 0
1.65040 312.69659 0 0 0
1.65920 313.9248 0 0 0
1.66800 314.96347 0 0 0
1.67680 315.13654 0 0 0
1.68561 316.48022 0 0 0
1.69441 317.3465 0 0 0
1.70321 317.62741 0 0 0
1.71201 318.55344 0 0 0
1.72081 319.48459 0 0 0
1.72962 319.38986 0 0 0
1.73842 320.2478 0 0 0
1.74722 321.14789 0 0 0
1.75602 321.89651 0 0 0
1.76483 322.3931 0 0 0
1.77363 324.04037 0 0 0
1.78243 324.82422 0 0 0
1.79123 325.18198 0 0 0
1.80003 326.23315 0 0 0
1.80884 327.34802 0 0 0
1.81764 327.78348 0 0 0
1.82644 329.10114 0 0 0
1.83524 329.97614 0 0 0
1.84404 330.69455 0 0 0
1.85285 331.21942 0 0 0
1.86165 331.90973 0 0 0
1.87045 332.6629 0 0 0
1.87925 334.03989 0 0 0
1.88805 334.32175 0 0 0
1.89686 333.2543 0 0 0
1.90566 332.92789 0 0 0
1.91446 333.85928 0 0 0
1.92326 335.06085 0 0 0
1.93207 335.83643 0 0 0
1.94087 336.36206 0 0 0
1.94967 336.81808 0 0 0
1.95847 336.84079 0 0 0
1.96727 336.78665 0 0 0
1.97608 336.9736 0 0 0
1.98488 338.27963 0 0 0
1.99368 339.65775 0 0 0
2.00248 340.79428 0 0 0
2.01128 340.69681 0 0 0
2.02009 341.35922 0 0 0
2.02889 341.49768 0 0 0
2.03769 341.65503 0 0 0
2.04649 342.11633 0 0 0
2.05530 343.29053 0 0 0
2.06410 344.85031 0 0 0
2.07290 345.67966 0 0 0
2.08170 345.96365 0 0 0
2.09050 346.56799 0 0 0
2.09931 346.5683 0 0 0
2.10811 346.50967 0 0 0
2.11691 347.34943 0 0 0
2.12571 348.28214 0 0 0
2.13451 348.99902 0 0 0
2.14332 348.80325 0 0 0
2.15212 350.47009 0 0 0
2.16092 350.97925 0 0 0
2.16972 350.63174 0 0 0
2.17852 351.10089 0 0 0
2.18733 352.36838 0 0 0
2.19613 353.88904 0 0 0
2.20493 353.80823 0 0 0
2.21373 354.03183 0 0 0
2.22254 354.82236 0 0 0
2.23134 355.46509 0 0 0
2.24014 356.31305 0 0 0
2.24894 357.00766 0 0 0
2.25774 355.93137 0 0 0
2.26655 356.14667 0 0 0
2.27535 356.40442 0 0 0
2.28415 357.35947 0 0 0
2.29295 357.79767 0 0 0
2.30175 358.302 0 0 0
2.31056 358.59308 0 0 0
2.31936 359.01599 0 0 0
2.32816 359.29474 0 0 0
2.33696 359.10257 0 0 0
2.34576 359.92184 0 0 0
2.35457 360.6315 0 0 0
2.36337 360.75879 0 0 0
2.37217 361.61469 0 0 0
2.38097 361.94687 0 0 0
2.38978 362.86349 0 0 0
2.39858 362.23929 0 0 0
2.40738 362.2309 0 0 0
2.41618 362.68756 0 0 0
2.42498 364.00879 0 0 0
2.43379 364.69455 0 0 0
2.44259 365.42664 0 0 0
2.45139 366.02368 0 0 0
2.46019 366.28705 0 0 0
2.46899 367.25873 0 0 0
2.47780 368.72842 0 0 0
2.48660 369.44946 0 0 0
2.49540 369.11984 0 0 0
2.50420 369.0535 0 0 0
2.51301 368.23529 0 0 0
2.52181 367.88312 0 0 0
2.53061 368.16223 0 0 0
2.53941 368.32648 0 0 0
2.54821 369.55783 0 0 0
2.55702 369.66229 0 0 0
2.56582 370.40643 362.444829 362.282928 0.002699737
2.57462 370.48203 363.684325 363.521799 0.002699186
2.58342 371.48352 364.878125 364.714969 0.002691909
2.59222 372.22263 366.027647 365.863858 0.002686564
2.60103 373.01016 367.134266 366.969837 0.002680892
2.60983 372.92804 368.199337 368.034265 0.002681482
2.61863 371.73679 369.224209 369.058489 0.002690075
2.62743 371.7692 370.210175 370.043802 0.002689841
2.63624 373.17255 371.158487 370.991457 0.002679726
2.64504 374.43549 372.070351 371.902659 0.002670687
2.65384 374.34195 372.947036 372.778675 0.002671354
2.66264 374.73364 373.789687 373.620654 0.002668562
2.67144 374.50845 374.599456 374.429745 0.002670167
2.68025 374.70367 375.37744 375.207046 0.002668776
2.68905 375.53555 376.12479 375.953708 0.002662864
2.69785 376.47928 376.842549 376.670773 0.002656189
2.70665 376.26639 377.531753 377.359278 0.002657692
2.71545 376.03931 378.193439 378.020259 0.002659296
2.72426 377.10333 378.828571 378.654681 0.002651793
2.73306 377.68625 379.438163 379.263557 0.0026477
2.74186 378.10745 380.023139 379.847811 0.002644751
2.75066 378.45969 380.584421 380.408366 0.002642289
2.75946 378.34372 381.122892 380.946103 0.002643099
2.76827 378.40039 381.639463 381.461934 0.002642703
2.77707 377.94327 382.134971 381.956696 0.0026459
2.78587 378.63 382.610242 382.431216 0.002641101
2.79467 378.41357 383.066089 382.886304 0.002642611
2.80348 378.81717 383.503311 383.322761 0.002639796
2.81228 379.62955 383.922677 383.741356 0.002634147
2.82108 380.06937 384.324931 384.142831 0.002631099
2.82988 381.04163 384.710788 384.527903 0.002624385
2.83868 382.20456 385.080984 384.897307 0.0026164
2.84749 382.99359 385.436195 385.251719 0.00261101
2.85629 382.8205 385.777092 385.591811 0.00261219
2.86509 382.78705 386.104325 385.918231 0.002612419
2.87389 383.60901 386.418529 386.231613 0.002606821
2.88269 384.43655 386.720327 386.532583 0.002601209
2.89150 384.62924 387.010318 386.821738 0.002599906
2.90030 384.76471 387.289081 387.099658 0.002598991
2.90910 384.5386 387.557173 387.366897 0.002600519
2.91790 384.79755 387.815161 387.624025 0.002598769
2.92670 385.39642 388.063568 387.871564 0.002594731
2.93551 385.68066 388.302911 388.110031 0.002592819
2.94431 385.67865 388.533686 388.33992 0.002592832
2.95311 385.30258 388.756393 388.561733 0.002595363
2.96191 384.37579 388.971494 388.775931 0.002601621
2.97072 384.59613 389.179452 388.982977 0.00260013
2.97952 386.56131 389.380707 389.18331 0.002586912
2.98832 387.77515 389.57568 389.377353 0.002578814
2.99712 388.21133 389.764802 389.565533 0.002575917
3.00592 387.93384 389.948467 389.748247 0.002577759
3.01473 388.08881 390.127063 389.925883 0.00257673
3.02353 387.62363 390.300962 390.09881 0.002579822
3.03233 388.44174 390.470538 390.267404 0.002574389
3.04113 388.81219 390.636137 390.43201 0.002571936
3.04993 388.68436 390.798095 390.592964 0.002572782
3.05874 388.58466 390.956742 390.750595 0.002573442
3.06754 389.46497 391.112395 390.905222 0.002567625
3.07634 390.10315 391.26536 391.057148 0.002563425
3.08514 390.55658 391.415929 391.206666 0.002560448
3.09395 390.53665 391.564395 391.354053 0.002560579
3.10275 390.16806 391.71101 391.499592 0.002562998
3.11155 390.31827 391.856046 391.643538 0.002562012
3.12035 390.58026 391.999756 391.786145 0.002560293
3.12915 390.85269 392.14238 391.927652 0.002558509
3.13796 390.7511 392.284152 392.068292 0.002559174
3.14676 391.40305 392.425297 392.208292 0.002554911
3.15556 392.04605 392.56603 392.347864 0.002550721
3.16436 392.69778 392.706554 392.487212 0.002546488
3.17316 393.44861 392.847062 392.626528 0.002541628
3.18197 392.94479 392.987752 392.766009 0.002544887
3.19077 392.40329 393.128797 392.90583 0.002548399
3.19957 392.25323 393.270371 393.046162 0.002549374
3.20837 393.45795 393.412632 393.187162 0.002541568
3.21717 395.02429 393.555745 393.328998 0.00253149
3.22598 395.10428 393.699854 393.47181 0.002530977
3.23478 394.62781 393.845102 393.615741 0.002534033
3.24358 394.92361 393.991622 393.760925 0.002532135
3.25238 395.56473 394.139537 393.907483 0.002528031
3.26119 394.95062 394.288977 394.055545 0.002531962
3.26999 395.20221 394.44005 394.205218 0.00253035
3.27879 396.41681 394.592865 394.35661 0.002522597
3.28759 397.32755 394.747517 394.509815 0.002516815
3.29639 397.35052 394.904112 394.66494 0.00251667
3.30520 397.15924 395.062733 394.822064 0.002517882
3.31400 397.5481 395.223465 394.981275 0.002515419
3.32280 398.30725 395.386383 395.142643 0.002510625
3.33160 399.16016 395.551563 395.306246 0.00250526
3.34040 399.40033 395.719074 395.472151 0.002503754
3.34921 398.76593 395.888975 395.640416 0.002507737
3.35801 398.67651 396.061324 395.811097 0.002508299
3.36681 398.90842 396.236167 395.98424 0.002506841
3.37561 399.3017 396.413563 396.159903 0.002504372
3.38442 399.88214 396.593549 396.33812 0.002500737
3.39322 400.38162 396.776167 396.518932 0.002497617
3.40202 400.63254 396.961445 396.702366 0.002496053
3.41082 400.16556 397.14942 396.888458 0.002498966
3.41962 400.01971 397.340119 397.077232 0.002499877
3.42843 400.42392 397.533562 397.268707 0.002497353
3.43723 400.49811 397.729763 397.462894 0.002496891
3.44603 400.2749 397.928748 397.65982 0.002498283
3.45483 400.76724 398.130525 397.859486 0.002495214
3.46363 401.45203 398.335102 398.061901 0.002490958
3.47244 401.35196 398.542477 398.26706 0.002491579
3.48124 401.63721 398.752667 398.474977 0.002489809
3.49004 402.02856 398.965663 398.68564 0.002487385
3.49884 402.54245 399.181465 398.899047 0.00248421
3.50764 402.07086 399.400066 399.115186 0.002487124
3.51645 402.05286 399.621449 399.334039 0.002487235
3.52525 402.31131 399.84562 399.555606 0.002485637
3.53405 402.92615 400.072557 399.779862 0.002481844
3.54285 403.61203 400.302245 400.006788 0.002477627
3.55166 404.18054 400.534659 400.236354 0.002474142
3.56046 404.46396 400.769795 400.468551 0.002472408
3.56926 404.47485 401.007621 400.703343 0.002472342
3.57806 404.38525 401.248121 400.940706 0.002472889
3.58686 404.62143 401.491262 401.180602 0.002471446
3.59567 404.78998 401.762316 401.423007 0.002470417
3.60447 405.29529 402.033014 401.667886 0.002467337
3.61327 405.3736 402.284076 401.9152 0.00246686
3.62207 405.20456 402.537675 402.164913 0.002467889
3.63087 405.60861 402.793771 402.416975 0.002465431
3.63968 406.72815 403.052352 402.671364 0.002458645
3.64848 407.07697 403.313375 402.928026 0.002456538
3.65728 406.89343 403.576813 403.186923 0.002457646
3.66608 407.01355 403.842627 403.448001 0.002456921
3.67489 407.6427 404.110793 403.711223 0.002453129
3.68369 407.53098 404.381281 403.976543 0.002453801
3.69249 407.38168 404.654055 404.243908 0.0024547
3.70129 407.43097 404.929076 404.51326 0.002454404
3.71009 408.79834 405.206335 404.784568 0.002446194
3.71890 409.4487 405.485792 405.05777 0.002442308
3.72770 409.68903 405.76742 405.332813 0.002440876
3.73650 410.09454 406.051193 405.609644 0.002438462
3.74530 410.31479 406.3371 405.888217 0.002437153
3.75410 410.41864 406.625111 406.168471 0.002436537
3.76291 409.82526 406.915219 406.450356 0.002440064
3.77171 409.73807 407.207409 406.733815 0.002440584
3.78051 409.77344 407.501665 407.018782 0.002440373
3.78931 410.06274 407.798006 407.305221 0.002438651
3.79811 409.81641 408.096429 407.593065 0.002440117
3.80692 409.9938 408.396947 407.882258 0.002439061
3.81572 410.54623 408.699575 408.172733 0.002435779
3.82452 410.53677 409.004368 408.464452 0.002435835
3.83332 410.8251 409.311362 408.757346 0.002434126
3.84213 411.51758 409.620627 409.051363 0.00243003
3.85093 412.59897 409.93224 409.346435 0.002423661
3.85973 412.7988 410.246328 409.642515 0.002422488
3.86853 412.67709 410.563044 409.939546 0.002423202
3.87733 412.64957 410.882594 410.237466 0.002423364
3.88614 413.29388 411.205269 410.536218 0.002419586
3.89494 413.26639 411.53147 410.835735 0.002419747
3.90374 412.83673 411.861815 411.135979 0.002422265
3.91254 412.88699 412.198415 411.43688 0.00242197
3.92134 413.10913 412.540036 411.738387 0.002420668
3.93015 413.53372 412.889767 412.040435 0.002418182
3.93895 413.79111 413.250269 412.342977 0.002416678
3.94775 414.44867 413.625259 412.645957 0.002412844
3.95655 414.35403 414.019823 412.949316 0.002413395
3.96535 414.97607 414.440696 413.252988 0.002409778
3.97416 414.95459 414.896546 413.556939 0.002409902
3.98296 415.33408 415.397963 413.861105 0.0024077
3.99176 416.01453 415.973155 414.165429 0.002403762
4.00056 416.17392 416.60431 414.469862 0.002402842
4.00937 415.66443 417.321291 414.774343 0.002405787
4.01817 415.98782 418.137375 415.07884 0.002403917
4.02697 416.89111 419.063001 415.383269 0.002398708
4.03577 417.61517 420.104076 415.687597 0.002394549
4.04457 417.75003 421.259713 415.991793 0.002393776
4.05338 418.65588 422.519857 416.295767 0.002388597
4.06218 419.52533 423.863785 416.599489 0.002383646
4.07098 421.28461 425.264204 416.902929 0.002373692
4.07978 423.0105 426.660563 417.206006 0.002364008
4.08858 424.85843 427.995335 417.508701 0.002353725
4.09739 426.72491 429.190257 417.810938 0.00234343
4.10619 429.31342 430.159648 418.112689 0.002329301
4.11499 431.65454 430.825695 418.413921 0.002316667
4.12379 432.31558 431.140165 418.714558 0.002313125
4.13260 430.798 431.101421 419.014578 0.002321274
4.14140 428.9039 430.754932 419.313946 0.002331525
4.15020 426.19199 430.177213 419.612592 0.00234636
4.15900 424.26309 429.45395 419.910507 0.002357028
4.16780 421.87494 428.664036 420.207621 0.002370371
4.17661 420.62067 427.872192 420.503904 0.002377439
4.18541 420.01855 427.127344 420.799338 0.002380847
4.19421 420.172 426.463866 421.093855 0.002379978
4.20301 420.87036 425.90324 421.387444 0.002376029
4.21181 420.82922 425.461194 421.68004 0.002376261
4.22062 421.00433 425.128661 421.971623 0.002375272
4.22942 421.10742 424.905267 422.262179 0.002374691
4.23822 421.60242 424.780655 422.551635 0.002371903
4.24702 421.88446 424.741629 422.839979 0.002370317
4.25582 422.70209 424.773987 423.127195 0.002365732
4.26463 423.46902 424.863866 423.413222 0.002361448
4.27343 424.06107 424.998662 423.698058 0.002358151
4.28223 423.42291 425.167554 423.981643 0.002361705
4.29103 423.78262 425.361704 424.26397 0.0023597
4.29984 423.87314 425.57417 424.54502 0.002359196
4.30864 423.78534 425.799663 424.824739 0.002359685
4.31744 424.26984 426.034329 425.103134 0.002356991
4.32624 424.72351 426.275359 425.380151 0.002354473
4.33504 424.77536 426.520789 425.655776 0.002354186
4.34385 425.41714 426.769255 425.930007 0.002350634
4.35265 425.36353 427.019765 426.202794 0.00235093
4.36145 425.48462 427.27164 426.474124 0.002350261
4.37025 424.8493 427.524399 426.743997 0.002353776
4.37905 425.12979 427.777642 427.012365 0.002352223
4.38786 425.50711 428.031112 427.279241 0.002350137
4.39666 426.37695 428.284543 427.544573 0.002345343
4.40546 426.55072 428.537764 427.808364 0.002344387
4.41426 426.52707 428.79063 428.070613 0.002344517
4.42307 426.22827 429.042976 428.331279 0.002346161
4.43187 426.14267 429.294708 428.590373 0.002346632
4.44067 426.5997 429.545695 428.847856 0.002344118
4.44947 427.05521 429.795862 429.103735 0.002341618
4.45827 428.25995 430.045139 429.358006 0.00233503
4.46708 428.6398 430.293428 429.610636 0.002332961
4.47588 429.20493 430.540682 429.861632 0.002329889
4.48468 429.57236 430.786855 430.110996 0.002327897
4.49348 429.91312 431.03187 430.358694 0.002326051
4.50228 429.28687 431.275711 430.60475 0.002329445
4.51109 429.42792 431.518316 430.849132 0.00232868
4.51989 430.07953 431.759657 431.091845 0.002325151
4.52869 431.3721 431.999721 431.332903 0.002318184
4.53749 432.32724 432.238457 431.572277 0.002313063
4.54630 432.74402 432.475863 431.809988 0.002310835
4.55510 432.53494 432.711894 432.046012 0.002311952
4.56390 432.80237 432.946548 432.28036 0.002310523
4.57270 433.78293 433.179825 432.513051 0.0023053
4.58150 433.98898 433.413435 432.744054 0.002304206
4.59031 433.43607 433.643882 432.973387 0.002307145
4.59911 432.56854 433.87292 433.201067 0.002311772
4.60791 433.11691 434.10052 433.427074 0.002308845
4.61671 433.58627 434.3267 433.651435 0.002306346
4.62551 433.49194 434.551433 433.874131 0.002306848
4.63432 433.51688 434.774735 434.095185 0.002306715
4.64312 433.76529 434.996616 434.31461 0.002305394
4.65192 433.89874 435.217054 434.532394 0.002304685
4.66072 433.39578 435.436071 434.748558 0.00230736
4.66952 433.2757 435.653678 434.963121 0.002307999
4.67833 433.41031 435.869862 435.17607 0.002307282
4.68713 434.40512 436.084654 435.387441 0.002301999
4.69593 435.22784 436.298043 435.597223 0.002297647
4.70473 435.45267 436.510047 435.805436 0.002296461
4.71354 435.34152 436.720693 436.012108 0.002297047
4.72234 434.87177 436.929971 436.217228 0.002299528
4.73114 435.04126 437.13792 436.420836 0.002298633
4.73994 435.61111 437.344528 436.622921 0.002295626
4.74874 436.36469 437.549827 436.823511 0.002291661
4.75755 435.84976 437.753846 437.022634 0.002294369
4.76635 434.98633 437.956583 437.220287 0.002298923
4.77515 434.20529 438.158065 437.416494 0.002303058
4.78395 434.44757 438.358327 437.611287 0.002301774
4.79275 435.40173 438.557779 437.804664 0.00229673
4.80156 435.56577 438.755646 437.996664 0.002295865
4.81036 435.95633 438.95234 438.187285 0.002293808
4.81916 436.59219 439.1479 438.376562 0.002290467
4.82796 437.50363 439.344739 438.564522 0.002285695
4.83676 437.98386 439.53811 438.751168 0.002283189
4.84557 438.46863 439.730439 438.936543 0.002280665
4.85437 437.85306 439.921734 439.120651 0.002283871
4.86317 438.1246 440.113102 439.303521 0.002282456
4.87197 437.91165 440.302454 439.485191 0.002283566
4.88078 437.69418 440.490868 439.665665 0.0022847
4.88958 437.72934 440.678387 439.844974 0.002284517
4.89838 437.97733 440.865056 440.023156 0.002283223
4.90718 438.80609 441.050893 440.200216 0.002278911
4.91598 439.23099 441.235959 440.376203 0.002276706
4.92479 439.72983 441.420267 440.551119 0.002274124
4.93359 439.9169 441.612097 440.725003 0.002273157
4.94239 440.62125 441.79507 440.897893 0.002269523
4.95119 440.34756 441.977416 441.069798 0.002270933
4.95999 440.01544 442.159196 441.240763 0.002272648
4.96880 440.51672 442.341763 441.410798 0.002270061
4.97760 441.1561 442.522535 441.579945 0.002266771
4.98640 441.47168 442.702887 441.748237 0.002265151
4.99520 441.00366 442.882854 441.915689 0.002267555
5.00401 441.26385 443.062503 442.082341 0.002266218
5.01281 441.0748 443.241897 442.248229 0.002267189
5.02161 441.66974 443.433519 442.413367 0.002264135
5.03041 442.07932 443.612598 442.577806 0.002262038
5.03921 442.28745 443.791592 442.741558 0.002260973
5.04802 441.97894 443.970573 442.904662 0.002262551
5.05682 442.30484 444.151683 443.067161 0.002260884
5.06562 442.60693 444.330868 443.229068 0.002259341
5.07442 442.86444 444.510278 443.390435 0.002258027
5.08322 443.44656 444.689975 443.551274 0.002255063
5.09203 444.0802 444.870057 443.711629 0.002251845
5.10083 444.22198 445.050626 443.871541 0.002251127
5.10963 444.23682 445.231764 444.031027 0.002251052
5.11843 444.10172 445.413581 444.190127 0.002251736
5.12723 444.44641 445.596379 444.348885 0.00224999
5.13604 445.20111 445.779903 444.507318 0.002246176
5.14484 445.69858 445.964477 444.665475 0.002243669
5.15364 445.96906 446.150218 444.823374 0.002242308
5.16244 446.16565 446.33729 444.981061 0.00224132
5.17125 446.34293 446.525855 445.138574 0.00224043
5.18005 446.87717 446.716073 445.295933 0.002237751
5.18885 447.08105 446.908459 445.453182 0.002236731
5.19765 447.02621 447.102602 445.610365 0.002237005
5.20645 447.41339 447.299021 445.767496 0.002235069
5.21526 447.58493 447.497982 445.92463 0.002234213
5.22406 447.74161 447.69975 446.081787 0.002233431
5.23286 447.4285 447.90463 446.239005 0.002234994
5.24166 447.54092 448.112976 446.396333 0.002234433
5.25046 448.06985 448.325138 446.553786 0.002231795
5.25927 448.25745 448.541656 446.711421 0.002230861
5.26807 448.56934 448.76281 446.86925 0.00222931
5.27687 449.3334 448.989223 447.027321 0.002225519
5.28567 450.04285 449.221516 447.185676 0.002222011
5.29448 450.50607 449.460368 447.344337 0.002219726
5.30328 450.59729 449.706563 447.503343 0.002219277
5.31208 450.95844 449.961028 447.66274 0.002217499
5.32088 450.95267 450.226085 447.822549 0.002217528
5.32968 451.70697 450.500389 447.982818 0.002213825
5.33849 452.24518 450.786654 448.143566 0.00221119
5.34729 452.07181 451.08664 448.304841 0.002212038
5.35609 452.13864 451.402514 448.466682 0.002211711
5.36489 452.60583 451.737399 448.629108 0.002209428
5.37369 453.78241 452.094127 448.792172 0.002203699
5.38250 454.58691 452.478066 448.955894 0.002199799
5.39130 454.67917 452.89635 449.120312 0.002199353
5.40010 454.52606 453.359383 449.285474 0.002200094
5.40890 454.6207 453.882374 449.451396 0.002199636
5.41770 455.52966 454.487721 449.618122 0.002195247
5.42651 456.61145 455.2077 449.785694 0.002190046
5.43531 458.28519 456.087414 449.954128 0.002182047
5.44411 460.29932 457.188121 450.123477 0.002172499
5.45291 460.82874 458.588821 450.29376 0.002170004
5.46172 461.35522 460.386842 450.465014 0.002167527
5.47052 463.31516 462.694425 450.637286 0.002158358
5.47932 466.55789 465.633794 450.810592 0.002143357
5.48812 469.31296 469.314078 450.98498 0.002130774
5.49692 471.64578 473.830017 451.160466 0.002120235
5.50573 474.21133 479.231151 451.337095 0.002108764
5.51453 479.51767 485.502966 451.514906 0.002085429
5.52333 486.6304 492.536948 451.693913 0.002054948
5.53213 497.08887 500.111804 451.874159 0.002011713
5.54093 508.24567 507.867082 452.055688 0.001967552
5.54974 520.46649 515.275943 452.238508 0.001921353
5.55854 532.8454 521.629212 452.422673 0.001876717
5.56734 545.82269 526.135479 452.608196 0.001832097
5.57614 554.23938 528.102961 452.795114 0.001804275
5.58495 555.94342 527.218339 452.983471 0.001798744
5.59375 545.88239 523.665796 453.173277 0.001831896
5.60255 528.95782 518.080422 453.364586 0.00189051
5.61135 510.34586 511.258383 453.557401 0.001959455
5.62015 495.58673 503.929799 453.751767 0.00201781
5.62896 484.53885 496.671214 453.947724 0.002063818
5.63776 477.2446 489.880953 454.145281 0.002095362
5.64656 473.09286 483.812354 454.344474 0.00211375
5.65536 470.3306 478.596332 454.545346 0.002126164
5.66416 468.2001 474.269563 454.747904 0.002135839
5.67297 466.83282 470.795925 454.952196 0.002142094
5.68177 465.72281 468.092006 455.158228 0.0021472
5.69057 465.30124 466.046703 455.366043 0.002149145
5.69937 464.38693 464.54032 455.575674 0.002153377
5.70817 463.79691 463.458354 455.787127 0.002156116
5.71698 463.49054 462.699594 456.000441 0.002157541
5.72578 464.20691 462.180375 456.215657 0.002154212
5.73458 465.10089 461.835598 456.432771 0.002150071
5.74338 465.15567 461.616524 456.651837 0.002149818
5.75219 465.6084 461.489666 456.872855 0.002147728
5.76099 465.99686 461.427768 457.095865 0.002145937
5.76979 466.48596 461.41561 457.320899 0.002143687
5.77859 466.86911 461.441929 457.547959 0.002141928
5.78739 467.36807 461.499339 457.777094 0.002139641
5.79620 468.07791 461.582103 458.008305 0.002136396
5.80500 468.43506 461.686462 458.241623 0.002134768
5.81380 468.18423 461.809759 458.477086 0.002135911
5.82260 468.14993 461.949847 458.714693 0.002136068
5.83140 468.40744 462.105039 458.954475 0.002134894
5.84021 468.77676 462.273984 459.196469 0.002133212
5.84901 468.01154 462.455553 459.440672 0.002136699
5.85781 467.73434 462.648977 459.687127 0.002137966
5.86661 467.84741 462.853204 459.935831 0.002137449
5.87541 468.37244 463.06776 460.186816 0.002135053
5.88422 468.61096 463.292156 460.440121 0.002133966
5.89302 468.56284 463.525959 460.69573 0.002134185
5.90182 468.93802 463.768891 460.953695 0.002132478
5.91062 470.0643 464.020706 461.214007 0.002127369
5.91943 470.55151 464.281266 461.476694 0.002125166
5.92823 469.59137 464.550526 461.741791 0.002129511
5.93703 469.28058 464.828462 462.009287 0.002130921
5.94583 470.05103 465.118923 462.279216 0.002127429
5.95463 470.33606 465.414589 462.551604 0.002126139
5.96344 469.97348 465.7195 462.82644 0.00212778
5.97224 470.46286 466.033843 463.103771 0.002125566
5.98104 471.89044 466.358095 463.383584 0.002119136
5.98984 472.48547 466.692798 463.665904 0.002116467
5.99864 472.50168 467.038627 463.950764 0.002116395
6.00745 472.62103 467.397435 464.23815 0.00211586
6.01625 472.89304 467.768034 464.528102 0.002114643
6.02505 473.25333 468.155184 464.820604 0.002113033
6.03385 473.10181 468.555279 465.115688 0.00211371
6.04266 473.29587 468.972622 465.413377 0.002112843
6.05146 473.3905 469.409451 465.713653 0.002112421
6.06026 474.27209 469.868748 466.016545 0.002108494
6.06906 475.00931 470.354745 466.322084 0.002105222
6.07786 475.8027 470.876133 466.630241 0.002101711
6.08667 476.30374 471.434859 466.941064 0.002099501
6.09547 476.27759 472.046658 467.254528 0.002099616
6.10427 476.45999 472.730133 467.570663 0.002098812
6.11307 476.65637 473.514557 467.889491 0.002097947
6.12187 477.7305 474.435047 468.210987 0.00209323
6.13068 478.5925 475.547873 468.535196 0.00208946
6.13948 479.45023 476.927099 468.862093 0.002085722
6.14828 480.12955 478.657172 469.191697 0.002082771
6.15708 481.09866 480.845506 469.524038 0.002078576
6.16589 482.96567 483.605045 469.859087 0.002070541
6.17469 484.57062 487.043788 470.196864 0.002063683
6.18349 486.29938 491.247851 470.537396 0.002056346
6.19229 489.48727 496.259935 470.880655 0.002042954
6.20109 493.24902 502.054352 471.226677 0.002027374
6.20990 498.48703 508.511991 471.575431 0.00200607
6.21870 505.37323 515.388866 471.926941 0.001978736
6.22750 514.72174 522.285508 472.281235 0.001942797
6.23630 525.55469 528.614634 472.638268 0.001902752
6.24510 536.89172 533.629136 472.998068 0.001862573
6.25391 544.23486 536.55884 473.360661 0.001837442
6.26271 546.51086 536.899743 473.726001 0.00182979
6.27151 544.12714 534.658966 474.094134 0.001837806
6.28031 535.84363 530.356594 474.46502 0.001866216
6.28911 525.34583 524.753795 474.838686 0.001903508
6.29792 514.21747 518.602 475.215145 0.001944703
6.30672 505.69391 512.480776 475.594359 0.001977481
6.31552 499.44998 506.786978 475.97637 0.002002203
6.32432 495.38947 501.760795 476.361138 0.002018614
6.33313 492.28571 497.51844 476.748676 0.002031341
6.34193 490.56677 494.083155 477.139008 0.002038458
6.35073 489.88 491.411714 477.532094 0.002041316
6.35953 489.21585 489.416945 477.927943 0.002044087
6.36833 488.50714 487.990193 478.32658 0.002047053
6.37714 488.60257 487.018932 478.727963 0.002046653
6.38594 489.03119 486.398484 479.132123 0.002044859
6.39474 489.51926 486.039802 479.539015 0.002042821
6.40354 490.03091 485.87167 479.948658 0.002040688
6.41234 490.01126 485.840665 480.361077 0.002040769
6.42115 489.68594 485.907611 480.776209 0.002042125
6.42995 489.72784 486.045534 481.194101 0.00204195
6.43875 490.241 486.236402 481.6147 0.002039813
6.44755 490.50729 486.46665 482.038029 0.002038706
6.45636 490.40463 486.72929 482.464095 0.002039132
6.46516 490.2489 487.018573 482.892848 0.00203978
6.47396 490.55771 487.329284 483.32431 0.002038496
6.48276 491.85309 487.659333 483.758488 0.002033127
6.49156 492.38751 488.006666 484.195331 0.002030921
6.50037 492.66287 488.369767 484.634878 0.002029786
6.50917 492.41321 488.750304 485.077078 0.002030815
6.51797 493.03806 489.141825 485.521935 0.002028241
6.52677 493.97672 489.546745 485.969471 0.002024387
6.53557 495.2168 489.964495 486.419631 0.002019318
6.54438 495.55283 490.394932 486.872445 0.002017948
6.55318 495.85474 490.837709 487.327856 0.00201672
6.56198 496.09711 491.293187 487.78588 0.002015734
6.57078 497.41809 491.759007 488.246537 0.002010381
6.57958 498.61057 492.234676 488.709753 0.002005573
6.58839 499.78531 492.719234 489.175547 0.002000859
6.59719 499.80557 493.208464 489.643934 0.002000778
6.60599 500.9715 493.699103 490.114855 0.001996122
6.61479 502.60205 494.187312 490.588337 0.001989646
6.62360 503.77588 494.669602 491.064322 0.00198501
6.63240 504.29184 495.144776 491.542827 0.001982979
6.64120 504.16599 495.61441 492.023855 0.001983474
6.65000 502.87488 496.08302 492.507343 0.001988566
6.65880 502.05005 496.552041 492.993332 0.001991833
6.66761 502.05347 497.027759 493.481758 0.00199182
6.67641 501.81876 497.507964 493.972622 0.001992751
6.68521 501.32919 497.995985 494.465943 0.001994697
6.69401 502.04654 498.496414 494.961655 0.001991847
6.70281 502.48886 499.001429 495.459758 0.001990094
6.71162 502.46353 499.514835 495.960272 0.001990194
6.72042 502.15735 500.03616 496.463128 0.001991408
6.72922 502.99707 500.564922 496.968355 0.001988083
6.73802 503.10083 501.104861 497.475886 0.001987673
6.74682 503.83392 501.64686 497.985732 0.001984781
6.75563 504.78473 502.196422 498.497909 0.001981042
6.76443 505.8746 502.750716 499.012332 0.001976774
6.77323 505.87067 503.309844 499.529016 0.00197679
6.78203 505.54935 503.874348 500.047974 0.001978046
6.79084 505.30231 504.444127 500.569133 0.001979013
6.79964 505.42993 505.019272 501.092523 0.001978514
6.80844 505.76248 505.599709 501.618071 0.001977213
6.81724 505.69336 506.185776 502.145793 0.001977483
6.82604 506.99438 506.777255 502.675688 0.001972408
6.83485 508.64017 507.374421 503.207683 0.001966026
6.84365 509.46289 507.977513 503.741818 0.001962852
6.85245 509.49298 508.586688 504.278019 0.001962736
6.86125 509.16733 509.202742 504.816282 0.001963991
6.87005 508.85318 509.824933 505.356625 0.001965203
6.87886 509.28781 510.455318 505.898972 0.001963526
6.88766 510.19971 511.091868 506.44332 0.001960017
6.89646 511.84253 511.736385 506.989685 0.001953726
6.90526 512.47766 512.38879 507.537984 0.001951305
6.91407 512.89252 513.05012 508.088263 0.001949726
6.92287 513.5929 513.720756 508.640426 0.001947067
6.93167 514.21637 514.401584 509.194489 0.001944707
6.94047 515.13397 515.095848 509.75046 0.001941243
6.94927 514.90216 515.799865 510.308261 0.001942117
6.95808 514.67871 516.517041 510.867921 0.00194296
6.96688 514.63678 517.248767 511.429358 0.001943118
6.97568 515.15515 517.99698 511.992589 0.001941163
6.98448 515.84894 518.763185 512.55761 0.001938552
6.99328 516.81207 519.549722 513.12434 0.001934939
7.00209 518.49786 520.360196 513.692793 0.001928648
7.01089 519.52527 521.196986 514.262967 0.001924834
7.01969 519.6825 522.06556 514.834779 0.001924252
7.02849 520.18872 522.974043 515.40827 0.001922379
7.03729 520.60156 523.927197 515.983358 0.001920855
7.04610 520.80408 524.942316 516.560037 0.001920108
7.05490 522.45093 526.035613 517.138325 0.001914055
7.06370 523.71881 527.239401 517.718136 0.001909422
7.07250 525.13501 528.596078 518.299499 0.001904272
7.08131 525.74799 530.169572 518.882331 0.001902052
7.09011 526.26709 532.046959 519.466639 0.001900176
7.09891 526.68719 534.342042 520.052438 0.00189866
7.10771 528.35248 537.193374 520.639624 0.001892676
7.11651 531.19415 540.757331 521.228212 0.001882551
7.12532 534.17358 545.191963 521.81821 0.001872051
7.13412 537.31976 550.631855 522.409532 0.001861089
7.14292 541.13422 557.157872 523.002207 0.00184797
7.15172 546.63306 564.758179 523.596149 0.001829381
7.16052 554.48053 573.284291 524.191372 0.00180349
7.16933 566.16864 582.404988 524.787872 0.001766258
7.17813 581.85022 591.526092 525.385561 0.001718655
7.18693 596.68567 599.75734 525.984482 0.001675924
7.19573 607.34247 605.952171 526.584548 0.001646517
7.20453 608.36646 609.014686 527.185753 0.001643746
7.21334 604.04114 608.399443 527.788113 0.001655516
7.22214 594.53448 604.434461 528.391539 0.001681988
7.23094 583.55585 598.12249 528.996026 0.001713632
7.23974 572.92285 590.636878 529.601589 0.001745436
7.24855 564.03113 582.952548 530.208133 0.001772952
7.25735 555.82703 575.735034 530.815708 0.001799121
7.26615 550.31567 569.380846 531.424205 0.001817139
7.27495 546.64886 564.08167 532.033638 0.001829328
7.28375 545.23804 559.880455 532.644016 0.001834061
7.29256 543.84393 556.719058 533.25525 0.001838763
7.30136 542.46942 554.474218 533.867334 0.001843422
7.31016 541.81567 552.992238 534.480284 0.001845646
7.31896 542.24817 552.116303 535.094011 0.001844174
7.32777 542.4873 551.701908 535.708544 0.001843361
7.33657 542.75031 551.630409 536.323793 0.001842468
7.34537 543.35889 551.811381 536.939774 0.001840404
7.35417 543.58063 552.173548 537.556481 0.001839653
7.36297 544.24066 552.673763 538.173825 0.001837422
7.37178 544.90472 553.279277 538.79185 0.001835183
7.38058 546.41467 553.973035 539.410465 0.001830112
7.38938 546.66071 554.745164 540.029665 0.001829288
7.39818 547.05145 555.592391 540.649467 0.001827982
7.40698 547.56952 556.51729 541.269779 0.001826252
7.41579 548.59253 557.527472 541.890597 0.001822847
7.42459 549.66113 558.635462 542.511937 0.001819303
7.43339 551.17688 559.858176 543.133701 0.0018143
7.44219 551.86725 561.216429 543.755941 0.00181203
7.45099 552.31689 562.732187 544.378545 0.001810555
7.45980 553.2171 564.424503 545.001531 0.001807609
7.46860 554.16699 566.307854 545.624906 0.00180451
7.47740 556.23346 568.385943 546.248581 0.001797806
7.48620 557.51758 570.644941 546.872587 0.001793665
7.49501 558.54272 573.047627 547.496833 0.001790373
7.50381 560.03497 575.523755 548.121335 0.001785603
7.51261 562.10834 577.961877 548.74609 0.001779016
7.52141 563.61194 580.216042 549.371007 0.00177427
7.53021 564.41296 582.146634 549.996103 0.001771752
7.53902 565.30243 583.690311 550.621373 0.001768965
7.54782 566.42963 584.904548 551.246727 0.001765444
7.55662 568.39594 585.939761 551.872212 0.001759337
7.56542 570.42395 586.968386 552.497737 0.001753082
7.57422 572.99078 588.136679 553.123297 0.001745229
7.58303 575.57013 589.551744 553.748911 0.001737408
7.59183 578.64752 591.288596 554.374482 0.001728168
7.60063 582.29504 593.401443 555.000062 0.001717342
7.60943 586.15613 595.932267 555.625541 0.00170603
7.61823 591.03815 598.9208 556.250936 0.001691938
7.62704 597.86102 602.414088 556.876258 0.00167263
7.63584 605.35223 606.478083 557.501419 0.001651931
7.64464 614.03485 611.215986 558.126414 0.001628572
7.65344 624.69507 616.791619 558.751261 0.001600781
7.66225 637.60138 623.462541 559.375872 0.001568378
7.67105 651.91473 631.630631 560.000279 0.001533943
7.67985 669.94659 641.899693 560.624394 0.001492656
7.68865 689.13409 655.148415 561.248234 0.001451096
7.69745 714.86273 672.593593 561.871798 0.00139887
7.70626 742.8288 695.819236 562.494997 0.001346205
7.71506 778.3952 726.757622 563.117878 0.001284694
7.72386 823.24457 767.551201 563.740354 0.001214706
7.73266 873.78479 820.321754 564.362422 0.001144447
7.74146 936.28381 886.801235 564.984101 0.001068052
7.75027 1003.393 967.842831 565.605303 0.000996618
7.75907 1082.9824 1062.888427 566.226028 0.000923376
7.76787 1167.3488 1169.281695 566.846293 0.000856642
7.77667 1262.6113 1281.361222 567.466006 0.000792009
7.78548 1355.6378 1389.470287 568.08522 0.00073766
7.79428 1439.455 1479.441183 568.70383 0.000694707
7.80308 1501.588 1534.749776 569.321854 0.000665962
7.81188 1534.7528 1542.68232 569.939305 0.000651571
7.82068 1503.7715 1501.496009 570.556097 0.000664995
7.82949 1419.6664 1421.547752 571.17223 0.000704391
7.83829 1304.8596 1319.10549 571.787724 0.000766366
7.84709 1193.8104 1209.349982 572.402493 0.000837654
7.85589 1084.9783 1103.162238 573.016572 0.000921677
7.86469 996.11035 1007.188765 573.629877 0.001003905
7.87350 919.90131 924.792004 574.242429 0.001087073
7.88230 857.89612 857.046616 574.854225 0.001165642
7.89110 809.70905 803.419632 575.465185 0.001235012
7.89990 772.95569 762.379516 576.075355 0.001293735
7.90870 742.55243 731.896889 576.684652 0.001346706
7.91751 719.13568 709.825532 577.293078 0.001390558
7.92631 700.16357 694.201905 577.900653 0.001428238
7.93511 685.74072 683.390845 578.507288 0.001458277
7.94391 674.77771 676.150128 579.113005 0.00148197
7.95272 667.04163 671.616435 579.717803 0.001499157
7.96152 661.79614 669.247747 580.321603 0.001511039
7.97032 659.18176 668.760349 580.924452 0.001517032
7.97912 658.70294 670.059614 581.526271 0.001518135
7.98792 660.2168 673.178045 582.12706 0.001514654
7.99673 662.47992 678.215942 582.726842 0.00150948
8.00553 667.56451 685.285459 583.325571 0.001497983
8.01433 675.65015 694.458242 583.923146 0.001480056
8.02313 687.43005 705.720772 584.519692 0.001454693
8.03193 701.41467 718.914387 585.115124 0.00142569
8.04074 717.6272 733.678756 585.709362 0.001393481
8.04954 735.80609 749.403355 586.30251 0.001359054
8.05834 757.60321 765.262353 586.89449 0.001319952
8.06714 780.64917 780.568614 587.485224 0.001280985
8.07594 802.25964 795.481953 588.074817 0.001246479
8.08475 820.04407 811.578042 588.66319 0.001219447
8.09355 834.87964 831.677639 589.250267 0.001197777
8.10235 850.50104 859.043622 589.836151 0.001175778
8.11115 869.88477 896.558737 590.420767 0.001149578
8.11996 902.81891 946.232259 591.004098 0.001107642
8.12876 946.2605 1008.844609 591.586069 0.001056791
8.13756 1007.1567 1083.598915 592.166783 0.000992894
8.14636 1081.1991 1167.507555 592.746165 0.000924899
8.15516 1167.0737 1254.638021 593.324141 0.000856844
8.16397 1263.3805 1335.474105 593.900815 0.000791527
8.17277 1359.5881 1397.562784 594.476111 0.000735517
8.18157 1441.1558 1429.410925 595.049958 0.000693888
8.19037 1492.2897 1426.481708 595.622458 0.000670111
8.19917 1493.2729 1393.974079 596.193537 0.00066967
8.20798 1447.4412 1343.122266 596.763119 0.000690874
8.21678 1363.1942 1284.865186 597.331324 0.000733571
8.22558 1268.1307 1226.119709 597.898061 0.000788562
8.23438 1173.1068 1169.26879 598.463324 0.000852437
8.24319 1095.4877 1113.720809 599.027036 0.000912835
8.25199 1029.9276 1058.392363 599.589318 0.000970942
8.26079 975.04816 1003.774953 600.15008 0.00102559
8.26959 925.93201 951.968396 600.709255 0.001079993
8.27839 880.19244 905.326293 601.266955 0.001136115
8.28720 842.88562 865.465079 601.823112 0.001186401
8.29600 814.91779 833.10707 602.377639 0.001227118
8.30480 796.49805 808.401903 602.930657 0.001255496
8.31360 786.29889 791.306921 603.48209 0.001271781
8.32240 785.95508 781.814689 604.031873 0.001272337
8.33121 797.49927 780.10942 604.580106 0.00125392
8.34001 822.25507 786.655134 605.126723 0.001216168
8.34881 861.23035 802.20243 605.671713 0.00116113
8.35761 909.07703 827.695316 606.215011 0.001100017
8.36641 962.76617 864.094557 606.756718 0.001038674
8.37522 1014.0507 912.05187 607.296768 0.000986144
8.38402 1071.6019 971.525907 607.835097 0.000933182
8.39282 1123.9403 1041.339755 608.371806 0.000889727
8.40162 1174.6836 1118.52018 608.906832 0.000851293
8.41043 1229.476 1197.524196 609.440109 0.000813355
8.41923 1276.0327 1269.540711 609.97174 0.000783679
8.42803 1308.0848 1322.868917 610.501661 0.000764476
8.43683 1320.7729 1346.335622 611.02981 0.000757132
8.44563 1304.4355 1335.130348 611.556287 0.000766615
8.45444 1263.509 1294.194155 612.081031 0.000791447
8.46324 1199.483 1235.37846 612.604033 0.000833693
8.47204 1125.7506 1171.557246 613.125234 0.000888296
8.48084 1062.2012 1112.815857 613.644734 0.000941441
8.48964 1016.1581 1065.717238 614.162472 0.000984099
8.49845 998.98199 1033.77356 614.678388 0.001001019
8.50725 1011.9677 1018.014134 615.192583 0.000988174
8.51605 1046.1631 1017.338524 615.704997 0.000955874
8.52485 1086.934 1028.577834 616.215573 0.000920019
8.53366 1133.4634 1046.431198 616.724408 0.000882252
8.54246 1163.6559 1063.57001 617.231446 0.000859361
8.55126 1165.9923 1071.811058 617.736623 0.000857639
8.56006 1141.5587 1064.9155 618.240057 0.000875995
8.56886 1086.0565 1041.448887 618.741672 0.000920762
8.57767 1014.369 1004.853053 619.24147 0.000985835
8.58647 939.64294 960.731456 619.73939 0.001064234
8.59527 874.13373 914.252159 620.235547 0.00114399
8.60407 820.91345 869.259555 620.72987 0.001218155
8.61287 780.87915 828.281262 621.222304 0.001280608
8.62168 749.91882 792.708757 621.712958 0.001333478
8.63048 727.71887 763.041539 622.201778 0.001374157
8.63928 711.64252 739.106569 622.688695 0.0014052
8.64808 698.9317 720.296479 623.173823 0.001430755
8.65689 690.1499 705.802653 623.657103 0.001448961
8.66569 682.92621 694.766765 624.138484 0.001464287
8.67449 677.77039 686.388965 624.618063 0.001475426
8.68329 674.2807 679.995587 625.095788 0.001483062
8.69209 672.29828 675.053016 625.571658 0.001487435
8.70090 669.60596 671.162198 626.045622 0.001493416
8.70970 667.93005 668.035199 626.517778 0.001497163
8.71850 666.54291 665.472604 626.988074 0.001500279
8.72730 664.82996 663.337275 627.456462 0.001504144
8.73610 663.96411 661.534391 627.923038 0.001506106
8.74491 663.5011 659.998379 628.387753 0.001507157
8.75371 662.87408 658.682184 628.85056 0.001508582
8.76251 662.16174 657.550665 629.311554 0.001510205
8.77131 662.13623 656.5767 629.770687 0.001510263
8.78011 662.62164 655.738942 630.227913 0.001509157
8.78892 663.30298 655.019771 630.683326 0.001507607
8.79772 662.9801 654.404588 631.136881 0.001508341
8.80652 662.67957 653.881098 631.588578 0.001509025
8.81532 662.07416 653.438895 632.038372 0.001510405
8.82413 661.69324 653.069019 632.486358 0.001511274
8.83293 661.7666 652.763692 632.932491 0.001511107
8.84173 662.73651 652.516294 633.376727 0.001508895
8.85053 663.34058 652.321026 633.81916 0.001507521
8.85933 663.16632 652.172803 634.259745 0.001507917
8.86814 663.08136 652.067183 634.698441 0.001508111
8.87694 662.53857 652.000293 635.135341 0.001509346
8.88574 662.35333 651.968708 635.570401 0.001509768
8.89454 662.51288 651.96936 636.003576 0.001509405
8.90334 663.25049 651.999591 636.434972 0.001507726
8.91215 663.8429 652.057002 636.864535 0.001506381
8.92095 664.21564 652.139495 637.292271 0.001505535
8.92975 664.48444 652.245115 637.718137 0.001504926
8.93855 665.56201 652.372248 638.142239 0.00150249
8.94736 666.2843 652.519365 638.564522 0.001500861
8.95616 666.67487 652.685087 638.984947 0.001499982
8.96496 667.24756 652.868272 639.403616 0.001498694
8.97376 667.664 653.067814 639.820489 0.001497759
8.98256 669.02734 653.282755 640.235515 0.001494707
8.99137 670.14667 653.512296 640.648798 0.001492211
9.00017 671.59381 653.755688 641.060296 0.001488995
9.00897 672.40466 654.012268 641.469972 0.0014872
9.01777 672.84906 654.281584 641.877916 0.001486217
9.02657 674.06671 654.563225 642.284092 0.001483533
9.03538 675.70087 654.856954 642.688505 0.001479945
9.04418 676.82843 655.162664 643.091121 0.001477479
9.05298 677.88879 655.480552 643.492028 0.001475168
9.06178 678.82971 655.810931 643.891191 0.001473124
9.07058 679.81708 656.154296 644.288577 0.001470984
9.07939 681.00964 656.511422 644.684273 0.001468408
9.08819 681.85382 656.883018 645.078245 0.00146659
9.09699 680.91583 657.269673 645.470461 0.00146861
9.10579 679.79108 657.671798 645.861008 0.00147104
9.11460 679.74274 658.089124 646.249853 0.001471145
9.12340 679.77014 658.520496 646.636965 0.001471086
9.13220 679.29315 658.963598 647.022429 0.001472118
9.14100 678.95831 659.414161 647.406215 0.001472844
9.14980 678.36969 659.865895 647.78829 0.001474122
9.15861 677.89832 660.311661 648.168742 0.001475147
9.16741 678.09631 660.746229 648.54754 0.001474717
9.17621 678.5332 661.169667 648.924692 0.001473767
9.18501 678.10028 661.587363 649.300168 0.001474708
9.19381 677.74365 662.007098 649.674053 0.001475484
9.20262 677.08569 662.435669 650.046318 0.001476918
9.21142 676.76941 662.87786 650.416935 0.001477608
9.22022 676.39331 663.336775 650.785988 0.00147843
9.22902 676.76929 663.81409 651.153448 0.001477608
9.23782 676.30267 664.31058 651.519283 0.001478628
9.24663 675.40033 664.826646 651.88359 0.001480603
9.25543 674.53961 665.362248 652.246329 0.001482493
9.26423 674.87946 665.917254 652.607473 0.001481746
9.27303 674.87079 666.491797 652.967112 0.001481765
9.28184 674.92957 667.086066 653.325222 0.001481636
9.29064 674.30145 667.70053 653.681803 0.001483016
9.29944 674.73389 668.335898 654.036829 0.001482066
9.30824 675.20221 668.993353 654.390392 0.001481038
9.31704 675.16632 669.674173 654.742465 0.001481117
9.32585 675.02936 670.379839 655.093012 0.001481417
9.33465 674.68036 671.112325 655.442126 0.001482183
9.34345 674.74866 671.873663 655.789779 0.001482033
9.35225 675.61487 672.666111 656.135947 0.001480133
9.36105 676.86957 673.492475 656.48071 0.00147739
9.36986 677.81775 674.355622 656.824045 0.001475323
9.37866 679.56622 675.258816 657.165928 0.001471527
9.38746 680.18909 676.205973 657.50644 0.001470179
9.39626 680.21814 677.201184 657.845558 0.001470117
9.40507 680.75122 678.249243 658.183292 0.001468965
9.41387 682.37799 679.355367 658.519622 0.001465463
9.42267 684.06177 680.525865 658.854626 0.001461856
9.43147 685.64685 681.767498 659.188282 0.001458477
9.44027 686.70233 683.088045 659.520568 0.001456235
9.44908 686.87994 684.496741 659.851565 0.001455859
9.45788 687.30884 686.003718 660.181249 0.00145495
9.46668 687.94006 687.620732 660.5096 0.001453615
9.47548 688.53802 689.361776 660.836698 0.001452353
9.48428 688.72437 691.242564 661.16252 0.00145196
9.49309 689.77032 693.281368 661.487046 0.001449758
9.50189 690.67291 695.50013 661.810355 0.001447863
9.51069 691.94818 697.924208 662.132425 0.001445195
9.51949 694.05328 700.583494 662.453271 0.001440812
9.52829 696.6297 703.513611 662.772871 0.001435483
9.53710 700.23077 706.758177 663.091304 0.001428101
9.54590 703.50372 710.369557 663.40855 0.001421457
9.55470 707.71991 714.413017 663.724589 0.001412988
9.56350 712.43378 718.973797 664.0395 0.001403639
9.57231 718.61206 724.16494 664.353262 0.001391571
9.58111 726.50244 730.143227 664.665853 0.001376458
9.58991 737.0249 737.138961 664.977361 0.001356806
9.59871 748.65503 745.491527 665.287756 0.001335729
9.60751 762.92224 755.710204 665.59702 0.00131075
9.61632 780.09381 768.554705 665.905237 0.001281897
9.62512 802.06201 785.122839 666.212388 0.001246786
9.63392 828.82782 806.940342 666.518479 0.001206523
9.64272 860.08997 836.014897 666.823494 0.001162669
9.65152 895.75153 874.838245 667.127514 0.001116381
9.66033 941.83868 926.231173 667.430521 0.001061753
9.66913 996.487 993.067201 667.732489 0.001003525
9.67793 1066.1241 1077.846163 668.033503 0.000937977
9.68673 1150.5793 1182.071394 668.333541 0.000869127
9.69553 1260.5637 1305.50575 668.632588 0.000793296
9.70434 1382.3468 1445.30971 668.930717 0.000723407
9.71314 1525.0699 1594.766884 669.227913 0.000655708
9.72194 1680.8444 1741.770709 669.524158 0.000594939
9.73074 1829.5143 1867.957413 669.819527 0.000546593
9.73955 1951.2834 1950.775922 670.114003 0.000512483
9.74835 2034.3062 1971.303543 670.4076 0.000491568
9.75715 2041.7427 1924.359907 670.700302 0.000489778
9.76595 1952.9856 1821.78272 670.992183 0.000512037
9.77475 1798.7662 1685.234526 671.283226 0.000555937
9.78356 1609.5658 1536.160683 671.573416 0.000621286
9.79236 1420.6221 1390.341254 671.862825 0.000703917
9.80116 1251.0135 1257.493471 672.15144 0.000799352
9.80996 1112.4358 1142.580538 672.439242 0.000898928
9.81876 1005.5763 1047.233916 672.726306 0.000994455
9.82757 930.20215 970.88264 673.012616 0.001075035
9.83637 874.89844 911.546278 673.298157 0.00114299
9.84517 834.26123 866.495012 673.583001 0.001198665
9.85397 803.17651 832.837315 673.867132 0.001245056
9.86278 780.48981 807.866025 674.150565 0.001281247
9.87158 762.16296 789.284312 674.433285 0.001312055
9.88038 747.04956 775.281865 674.715362 0.001338599
9.88918 735.33685 764.522046 674.996784 0.001359921
9.89798 726.88708 756.060944 675.277534 0.00137573
9.90679 720.37408 749.252427 675.557683 0.001388168
9.91559 713.81226 743.668181 675.837218 0.001400929
9.92439 708.45587 739.023229 676.11612 0.001411521
9.93319 704.94073 735.123942 676.39447 0.001418559
9.94199 702.12622 731.837807 676.672243 0.001424245
9.95080 700.27197 729.069672 676.949425 0.001428017
9.95960 698.2973 726.747916 677.226093 0.001432055
9.96840 696.14795 724.819317 677.502233 0.001436476
9.97720 694.46674 723.242988 677.777851 0.001439954
9.98600 693.87506 721.988715 678.052933 0.001441182
9.99481 693.74207 721.035196 678.327556 0.001441458
10.00361 694.00024 720.371113 678.601714 0.001440922
10.01241 694.27063 719.995356 678.875353 0.001440361
10.02121 694.98376 719.918247 679.148604 0.001438883
10.03002 695.46619 720.164256 679.421388 0.001437884
10.03882 696.52722 720.773362 679.693719 0.001435694
10.04762 698.2843 721.802788 679.965702 0.001432081
10.05642 699.95563 723.3256 680.237259 0.001428662
10.06522 702.41473 725.427662 680.508434 0.00142366
10.07403 706.21021 728.201011 680.77924 0.001416009
10.08283 710.30798 731.735084 681.049722 0.00140784
10.09163 715.01135 736.103718 681.319831 0.001398579
10.10043 721.4693 741.356507 681.589581 0.00138606
10.10923 727.77875 747.508426 681.859076 0.001374044
10.11804 736.60309 754.521399 682.128239 0.001357583
10.12684 746.33521 762.294543 682.397113 0.001339881
10.13564 757.51648 770.671275 682.66571 0.001320103
10.14444 772.12122 779.538059 682.934075 0.001295133
10.15325 790.98309 789.049233 683.202129 0.00126425
10.16205 812.14862 799.89391 683.469977 0.001231302
10.17085 838.80573 813.30789 683.737631 0.001192171
10.17965 871.47211 830.785061 684.005012 0.001147484
10.18845 905.19391 853.717349 684.272256 0.001104736
10.19726 942.74445 883.071625 684.539284 0.001060733
10.20606 978.87604 919.20364 684.806168 0.00102158
10.21486 1010.0467 961.599185 685.072832 0.000990053
10.22366 1038.3088 1008.636638 685.339377 0.000963105
10.23246 1064.3052 1057.134793 685.605818 0.00093958
10.24127 1079.7386 1101.964064 685.872074 0.00092615
10.25007 1101.177 1136.313556 686.13828 0.000908119
10.25887 1109.4122 1153.379172 686.404357 0.000901378
10.26767 1109.7977 1149.597417 686.670347 0.000901065
10.27647 1106.8378 1126.89854 686.936263 0.000903475
10.28528 1079.5204 1091.618464 687.202116 0.000926337
10.29408 1048.3701 1051.293053 687.46792 0.000953862
10.30288 1012.1917 1012.135005 687.733684 0.000987955
10.31168 975.59857 978.32279 687.999452 0.001025012
10.32048 946.7818 952.152722 688.265145 0.00105621
10.32929 925.38049 934.418179 688.530894 0.001080637
10.33809 909.42859 924.670835 688.796622 0.001099592
10.34689 900.91235 921.314413 689.062369 0.001109986
10.35569 897.35443 921.69374 689.328148 0.001114387
10.36450 897.70105 922.297638 689.593968 0.001113957
10.37330 899.44672 919.511496 689.859873 0.001111795
10.38210 897.65533 910.872804 690.125783 0.001114013
10.39090 890.8847 896.093366 690.391828 0.00112248
10.39971 878.83893 876.842267 690.657931 0.001137865
10.40851 863.8728 855.529307 690.924101 0.001157578
10.41731 845.25891 834.283035 691.19044 0.001183069
10.42611 828.52234 814.598157 691.456868 0.001206968
10.43491 813.70642 797.354904 691.723427 0.001228944
10.44371 802.14758 783.011855 691.990126 0.001246653
10.45252 794.10529 771.726329 692.257006 0.001259279
10.46132 788.297 763.488228 692.524017 0.001268557
10.47012 784.70502 758.190749 692.79117 0.001274364
10.47892 784.67334 755.708516 693.058565 0.001274416
10.48773 786.73737 755.950287 693.326121 0.001271072
10.49653 790.77704 758.868716 693.59388 0.001264579
10.50533 795.90302 764.445943 693.86185 0.001256434
10.51413 802.41809 772.643926 694.130042 0.001246233
10.52293 809.77252 783.344452 694.398464 0.001234915
10.53174 815.99939 796.249851 694.667128 0.001225491
10.54054 820.53674 810.790775 694.936072 0.001218714
10.54934 826.3985 825.964993 695.205215 0.00121007
10.55814 833.45764 840.223654 695.474688 0.001199821
10.56695 838.99725 851.446557 695.744408 0.001191899
10.57575 844.92072 857.358624 696.014416 0.001183543
10.58455 846.64264 856.44149 696.284719 0.001181136
10.59335 843.30389 848.772603 696.555327 0.001185812
10.60215 833.60345 835.96662 696.82628 0.001199611
10.61096 820.09949 820.294618 697.097494 0.001219364
10.61976 803.64282 803.785014 697.3691 0.001244334
10.62856 787.40454 787.886073 697.641014 0.001269995
10.63736 772.62903 773.47895 697.913276 0.001294282
10.64616 759.97046 761.008927 698.185894 0.001315841
10.65497 749.30316 750.62269 698.458876 0.001334573
10.66377 740.95398 742.249333 698.732229 0.001349611
10.67257 733.80359 735.686618 699.005963 0.001362762
10.68137 728.43274 730.658414 699.280115 0.00137281
10.69017 723.83087 726.868023 699.554631 0.001381538
10.69898 719.55481 724.035734 699.82955 0.001389748
10.70778 715.89813 721.919708 700.104879 0.001396847
10.71658 713.15027 720.327479 700.380625 0.001402229
10.72538 711.5802 719.112637 700.656797 0.001405323
10.73419 710.6875 718.170237 700.9334 0.001407088
10.74299 709.96686 717.426948 701.210473 0.001408516
10.75179 708.26062 716.832952 701.487929 0.00141191
10.76059 707.32605 716.354288 701.7659 0.001413775
10.76939 707.37085 715.967913 702.044299 0.001413686
10.77820 707.06274 715.657664 702.323132 0.001414302
10.78700 706.29669 715.411673 702.6025 0.001415836
10.79580 705.71973 715.221029 702.882314 0.001416993
10.80460 705.26215 715.07877 703.162645 0.001417912
10.81340 705.03882 714.979247 703.443403 0.001418362
10.82221 705.40869 714.91785 703.724689 0.001417618
10.83101 705.90131 714.890682 704.006509 0.001416629
10.83981 706.13452 714.894618 704.288772 0.001416161
10.84861 705.80835 714.92697 704.571614 0.001416815
10.85741 706.4588 714.985477 704.854942 0.001415511
10.86622 707.90863 715.068341 705.138795 0.001412612
10.87502 708.98889 715.173996 705.423177 0.001410459
10.88382 709.21808 715.30129 705.708094 0.001410004
10.89262 709.80487 715.44924 705.99355 0.001408838
10.90142 710.41107 715.617196 706.279551 0.001407636
10.91023 711.43561 715.804771 706.566134 0.001405609
10.91903 712.78931 716.011711 706.853238 0.001402939
10.92783 713.73926 716.238148 707.1409 0.001401072
10.93663 714.61267 716.484387 707.429126 0.001399359
10.94544 715.19916 716.751132 707.717918 0.001398212
10.95424 715.40686 717.039368 708.007282 0.001397806
10.96304 715.68933 717.350577 708.297221 0.001397254
10.97184 715.83679 717.686934 708.587772 0.001396966
10.98064 716.6416 718.051277 708.87884 0.001395398
10.98945 716.86182 718.448182 709.170561 0.001394969
10.99825 716.62646 718.88385 709.462839 0.001395427
11.00705 717.38214 719.367942 709.755711 0.001393957
11.01585 717.95837 719.914623 710.04918 0.001392838
11.02465 719.30475 720.544775 710.343249 0.001390231
11.03346 719.95599 721.288697 710.637955 0.001388974
11.04226 721.59821 722.187744 710.9332 0.001385813
11.05106 722.95276 723.298202 711.229122 0.001383216
11.05986 724.91107 724.689574 711.525622 0.00137948
11.06867 725.91888 726.445234 711.822736 0.001377564
11.07747 727.2005 728.655524 712.120468 0.001375137
11.08627 729.8349 731.408737 712.418819 0.001370173
11.09507 733.1167 734.778813 712.717791 0.001364039
11.10387 736.0636 738.805743 713.017388 0.001358578
11.11268 738.05945 743.479637 713.317644 0.001354904
11.12148 740.21539 748.710568 713.61846 0.001350958
11.13028 744.01172 754.307105 713.91994 0.001344065
11.13908 748.19977 759.93602 714.222085 0.001336541
11.14789 751.63275 765.086377 714.524829 0.001330437
11.15669 754.14825 769.100358 714.828208 0.001325999
11.16549 756.27484 771.311074 715.132222 0.001322271
11.17429 757.44177 771.315295 715.436907 0.001320234
11.18309 758.57697 769.187152 715.742161 0.001318258
11.19190 757.18573 765.435955 716.048089 0.00132068
11.20070 754.24579 760.747784 716.354692 0.001325828
11.20950 749.11267 755.749981 716.661865 0.001334913
11.21830 744.14697 750.89511 716.96975 0.001343821
11.22710 740.87109 746.476811 717.278242 0.001349762
11.23591 738.05231 742.652461 717.587376 0.001354918
11.24471 735.47107 739.486092 717.897152 0.001359673
11.25351 733.09308 736.972738 718.207572 0.001364083
11.26231 731.64386 735.059753 718.51867 0.001366785
11.27111 730.66003 733.669639 718.830339 0.001368626
11.27992 729.99164 732.711248 719.142723 0.001369879
11.28872 729.69861 732.096965 719.455714 0.001370429
11.29752 729.53168 731.747379 719.769347 0.001370742
11.30632 728.90125 731.597344 720.083622 0.001371928
11.31513 728.59747 731.596199 720.398539 0.0013725
11.32393 728.34998 731.706555 720.714096 0.001372966
11.33273 727.57263 731.902374 721.030293 0.001374433
11.34153 726.85345 732.166113 721.347165 0.001375793
11.35033 727.72632 732.486544 721.664603 0.001374143
11.35914 728.43524 732.857156 721.98275 0.001372806
11.36794 729.17737 733.27445 722.301497 0.001371408
11.37674 729.61823 733.73764 722.620878 0.00137058
11.38554 730.00055 734.248073 722.940893 0.001369862
11.39434 730.38531 734.809416 723.261539 0.00136914
11.40315 731.44598 735.427934 723.582852 0.001367155
11.41195 732.33289 736.112727 723.904721 0.001365499
11.42075 733.67358 736.877102 724.227289 0.001363004
11.42955 734.68298 737.738247 724.550445 0.001361131
11.43835 736.16882 738.718252 724.874188 0.001358384
11.44716 737.9317 739.844699 725.198625 0.001355139
11.45596 740.08759 741.149321 725.523643 0.001351191
11.46476 742.62714 742.668594 725.849278 0.001346571
11.47356 745.69189 744.442745 726.175527 0.001341036
11.48237 748.94293 746.514594 726.502424 0.001335215
11.49117 752.66071 748.928261 726.829856 0.00132862
11.49997 756.76929 751.728641 727.157931 0.001321407
11.50877 761.70892 754.955987 727.486648 0.001312837
11.51757 766.39038 758.637468 727.815927 0.001304818
11.52638 771.65179 762.780048 728.145805 0.001295921
11.53518 776.83508 767.36578 728.476277 0.001287275
11.54398 784.34259 772.368868 728.807379 0.001274953
11.55278 792.4342 777.793136 729.138994 0.001261934
11.56158 800.78632 783.700451 729.471232 0.001248773
11.57039 807.354 790.182888 729.80409 0.001238614
11.57919 814.41827 797.278092 730.13745 0.00122787
11.58799 819.91772 804.892441 730.471462 0.001219635
11.59679 825.87506 812.720929 730.806006 0.001210837
11.60559 830.06824 820.216594 731.141119 0.00120472
11.61440 833.68347 826.639057 731.476795 0.001199496
11.62320 836.66968 831.241384 731.813031 0.001195215
11.63200 838.60718 833.592195 732.149862 0.001192453
11.64080 838.60553 833.802126 732.487168 0.001192456
11.64961 837.33698 832.452713 732.825099 0.001194262
11.65841 833.61176 830.284192 733.163536 0.001199599
11.66721 828.44995 827.903107 733.502512 0.001207074
11.67601 824.8667 825.64924 733.842023 0.001212317
11.68481 821.4892 823.627066 734.182065 0.001217301
11.69362 819.4295 821.834952 734.522634 0.001220361
11.70242 819.68665 820.363899 734.863725 0.001219978
11.71122 821.71326 819.531275 735.205372 0.00121697
11.72002 824.96716 819.879365 735.547454 0.001212169
11.72883 829.45087 822.060026 735.890121 0.001205617
11.73763 835.92023 826.704706 736.233253 0.001196286
11.74643 844.48492 834.360575 736.576883 0.001184154
11.75523 855.05792 845.435671 736.921006 0.001169511
11.76403 867.61908 860.170802 737.265618 0.00115258
11.77284 880.76825 878.576064 737.610752 0.001135372
11.78164 897.04791 900.361062 737.956285 0.001114768
11.79044 916.34351 924.859847 738.30237 0.001091294
11.79924 936.92175 950.875368 738.648883 0.001067325
11.80804 959.54041 976.594755 738.995819 0.001042166
11.81685 981.3219 999.540864 739.343291 0.001019034
11.82565 1001.088 1016.860361 739.691175 0.000998913
11.83445 1014.9858 1026.14253 740.039505 0.000985235
11.84325 1024.3413 1026.431191 740.388275 0.000976237
11.85206 1024.4619 1018.686715 740.73752 0.000976122
11.86086 1017.3737 1005.269915 741.087154 0.000982923
11.86966 1003.0615 988.880155 741.437172 0.000996948
11.87846 985.7168 971.814067 741.787687 0.00101449
11.88726 970.46643 955.757574 742.138574 0.001030432
11.89607 956.5683 941.978062 742.489867 0.001045404
11.90487 947.1015 931.58698 742.841561 0.001055853
11.91367 940.57043 925.659904 743.193688 0.001063185
11.92247 937.8783 925.195592 743.546124 0.001066236
11.93127 939.76392 930.935221 743.898982 0.001064097
11.94008 945.76196 943.28343 744.252255 0.001057349
11.94888 955.70428 962.203953 744.605819 0.001046349
11.95768 971.33716 987.207775 744.959827 0.001029509
11.96648 992.54456 1017.251301 745.314152 0.001007511
11.97528 1019.5681 1050.618669 745.668868 0.000980807
11.98409 1051.4225 1084.756149 746.023849 0.000951092
11.99289 1086.5505 1116.186532 746.379209 0.000920344
12.00169 1119.0054 1140.743154 746.734941 0.000893651
12.01049 1144.4421 1154.447476 747.090919 0.000873788
12.01929 1159.5801 1154.976586 747.447296 0.000862381
12.02810 1160.5325 1142.67356 747.803947 0.000861673
12.03690 1145.4293 1120.302328 748.160904 0.000873035
12.04570 1119.2024 1091.665741 748.51816 0.000893493
12.05450 1085.1003 1060.277297 748.87571 0.000921574
12.06330 1049.0156 1028.626888 749.233547 0.000953275
12.07211 1014.8507 998.139714 749.591665 0.000985367
12.08091 982.48029 969.412879 749.950096 0.001017832
12.08971 955.39624 942.608447 750.308754 0.001046686
12.09851 931.51196 917.825585 750.667672 0.001073524
12.10732 911.16559 895.253434 751.026843 0.001097495
12.11612 892.90167 875.133379 751.386261 0.001119944
12.12492 876.36676 857.60775 751.74592 0.001141075
12.13372 859.97443 842.668588 752.105811 0.001162825
12.14252 845.53113 830.165197 752.46597 0.001182689
12.15133 833.50006 819.872108 752.826267 0.00119976
12.16013 823.48859 811.520882 753.186858 0.001214346
12.16893 814.98541 804.849068 753.547615 0.001227016
12.17773 807.72717 799.59885 753.90853 0.001238042
12.18653 801.39636 795.526528 754.269719 0.001247822
12.19534 796.79761 792.405686 754.631053 0.001255024
12.20414 793.27679 790.021261 754.992606 0.001260594
12.21294 789.96478 788.174038 755.354249 0.001265879
12.22174 787.26343 786.682161 755.716139 0.001270223
12.23055 785.2948 785.397564 756.078146 0.001273407
12.23935 783.12659 784.2208 756.440262 0.001276933
12.24815 781.63129 783.110012 756.802605 0.001279376
12.25695 780.11249 782.072092 757.165044 0.001281866
12.26575 779.0224 781.139636 757.527614 0.00128366
12.27456 777.755 780.35168 757.890306 0.001285752
12.28336 776.47644 779.74254 758.253157 0.001287869
12.29216 775.8241 779.338171 758.616034 0.001288952
12.30096 776.19055 779.154346 758.979055 0.001288343
12.30977 777.29993 779.196453 759.342213 0.001286505
12.31857 777.17975 779.457799 759.705419 0.001286704
12.32737 776.01178 779.918701 760.068707 0.00128864
12.33617 775.21484 780.543961 760.43207 0.001289965
12.34497 775.96973 781.281272 760.795542 0.00128871
12.35378 776.81635 782.057203 761.158992 0.001287306
12.36258 776.65381 782.778564 761.522539 0.001287575
12.37138 776.4903 783.340231 761.886174 0.001287846
12.38018 777.0202 783.647824 762.249767 0.001286968
12.38898 777.5849 783.650854 762.613477 0.001286033
12.39779 778.05084 783.362725 762.977173 0.001285263
12.40659 777.99237 782.852665 763.340888 0.00128536
12.41539 777.88123 782.21599 763.704618 0.001285543
12.42419 777.45374 781.544998 764.068353 0.00128625
12.43299 777.35809 780.913509 764.432089 0.001286408
12.44180 777.34094 780.374996 764.795818 0.001286437
12.45060 777.03101 779.964107 765.159575 0.00128695
12.45940 776.92004 779.701258 765.52327 0.001287134
12.46820 777.87787 779.594064 765.886939 0.001285549
12.47701 778.94067 779.640772 766.250574 0.001283795
12.48581 779.99451 779.831718 766.614168 0.00128206
12.49461 781.08716 780.151176 766.977716 0.001280267
12.50341 782.08118 780.579209 767.341211 0.00127864
12.51221 783.07928 781.092611 767.704687 0.00127701
12.52102 783.73975 781.666775 768.068015 0.001275934
12.52982 785.34003 782.279566 768.431352 0.001273334
12.53862 787.8302 782.917487 768.794568 0.001269309
12.54742 789.96344 783.585071 769.157658 0.001265881
12.55622 792.18121 784.311163 769.520738 0.001262337
12.56503 794.57751 785.14734 769.883678 0.00125853
12.57383 796.1969 786.160816 770.246555 0.001255971
12.58263 798.02423 787.424654 770.609238 0.001253095
12.59143 799.77295 789.011134 770.971886 0.001250355
12.60023 803.22083 790.984304 771.33437 0.001244988
12.60904 807.4726 793.394406 771.696683 0.001238432
12.61784 811.74677 796.272034 772.058942 0.001231911
12.62664 814.71277 799.618244 772.421019 0.001227426
12.63544 818.41199 803.397079 772.782947 0.001221878
12.64424 821.59241 807.527048 773.144721 0.001217149
12.65305 825.77985 811.866757 773.506377 0.001210977
12.66185 829.3833 816.202663 773.867784 0.001205715
12.67065 832.5896 820.24517 774.229061 0.001201072
12.67945 834.84735 823.644214 774.590201 0.001197824
12.68826 836.20074 826.058162 774.951116 0.001195885
12.69706 836.38391 827.264727 775.311843 0.001195623
12.70586 836.43842 827.253844 775.672375 0.001195545
12.71466 835.45795 826.232613 776.032747 0.001196948
12.72346 834.29456 824.532551 776.392831 0.001198617
12.73227 832.08801 822.491647 776.752744 0.001201796
12.74107 830.53131 820.376796 777.112481 0.001204049
12.74987 829.37036 818.352042 777.471914 0.001205734
12.75867 827.14404 816.482638 777.8312 0.001208979
12.76747 825.31091 814.752602 778.190212 0.001211665
12.77628 823.4198 813.099484 778.548985 0.001214447
12.78508 822.24188 811.456818 778.907515 0.001216187
12.79388 820.35504 809.797737 779.265795 0.001218984
12.80268 817.65887 808.146855 779.623862 0.001223004
12.81148 814.73175 806.564213 779.981588 0.001227398
12.82029 812.59076 805.114573 780.339131 0.001230632
12.82909 811.38715 803.851109 780.696365 0.001232457
12.83789 810.729 802.807031 781.053324 0.001233458
12.84669 809.38678 802.000134 781.410004 0.001235503
12.85550 808.11285 801.437029 781.7664 0.001237451
12.86430 807.90332 801.116757 782.122507 0.001237772
12.87310 808.08813 801.034818 782.478322 0.001237489
12.88190 808.95709 801.185036 782.833879 0.00123616
12.89070 810.00897 801.563385 783.189053 0.001234554
12.89951 810.95984 802.170819 783.544001 0.001233107
12.90831 812.24927 803.016622 783.898597 0.001231149
12.91711 813.172 804.122374 784.252878 0.001229752
12.92591 814.35718 805.524621 784.606839 0.001227962
12.93472 816.39764 807.277982 784.960476 0.001224893
12.94352 819.04968 809.455196 785.313825 0.001220927
12.95232 821.83502 812.146347 785.666762 0.001216789
12.96112 824.67212 815.456804 786.019442 0.001212603
12.96992 828.52698 819.498089 786.371742 0.001206961
12.97873 833.32916 824.3793 786.723658 0.001200006
12.98753 837.76422 830.196444 787.075306 0.001193653
12.99633 842.66528 837.013771 787.426563 0.001186711
13.00513 848.68073 844.849401 787.777464 0.001178299
13.01393 854.7359 853.66215 788.128006 0.001169952
13.02274 860.99634 863.328821 788.478225 0.001161445
13.03154 867.63159 873.628252 788.828039 0.001152563
13.04034 874.89813 884.220134 789.177444 0.00114299
13.04914 881.84222 894.635241 789.526556 0.00113399
13.05795 890.22638 904.28059 789.875252 0.00112331
13.06675 897.61578 912.525824 790.223569 0.001114062
13.07555 903.5575 918.876076 790.571504 0.001106736
13.08435 910.55328 923.176226 790.919093 0.001098233
13.09315 916.42456 925.72197 791.266216 0.001091197
13.10196 920.75085 927.183282 791.612986 0.00108607
13.11076 926.23407 928.380624 791.959403 0.001079641
13.11956 932.94659 930.072708 792.305344 0.001071873
13.12836 938.05389 932.829011 792.650965 0.001066037
13.13716 945.25983 936.976509 792.996145 0.00105791
13.14597 952.39807 942.597089 793.340959 0.001049981
13.15477 960.96606 949.522597 793.685289 0.001040619
13.16357 970.13885 957.380698 794.029249 0.00103078
13.17237 978.94623 965.673406 794.372837 0.001021507
13.18117 986.3894 973.943172 794.715933 0.001013798
13.18998 995.49695 981.956665 795.058692 0.001004523
13.19878 1003.8356 989.79736 795.400994 0.000996179
13.20758 1009.9874 997.811676 795.742876 0.000990111
13.21638 1017.2641 1006.44311 796.084337 0.000983029
13.22518 1023.5756 1016.009186 796.425375 0.000976967
13.23399 1031.8699 1026.564533 796.765988 0.000969114
13.24279 1039.7523 1037.836784 797.106175 0.000961768
13.25159 1048.4404 1049.251523 797.445972 0.000953798
13.26039 1057.3109 1060.12005 797.7853 0.000945796
13.26920 1068.8507 1069.92785 798.124198 0.000935584
13.27800 1079.6267 1078.637243 798.462663 0.000926246
13.28680 1089.8677 1086.744575 798.800694 0.000917543
13.29560 1098.8555 1095.075018 799.138291 0.000910038
13.30440 1108.8326 1104.413184 799.475452 0.000901849
13.31321 1114.8431 1115.175641 799.812214 0.000896987
13.32201 1120.9221 1127.22207 800.148462 0.000892123
13.33081 1127.1331 1139.786732 800.484347 0.000887207
13.33961 1133.1187 1151.489379 800.819755 0.00088252
13.34841 1133.676 1160.528488 801.154685 0.000882086
13.35722 1133.1594 1165.096556 801.48925 0.000882488
13.36602 1128.9907 1163.95522 801.823335 0.000885747
13.37482 1124.7781 1156.912541 802.157017 0.000889064
13.38362 1116.0627 1144.837158 802.49018 0.000896007
13.39243 1104.9482 1129.230546 802.822977 0.00090502
13.40123 1090.1075 1111.651689 803.155294 0.000917341
13.41003 1076.4025 1093.319261 803.48713 0.000929021
13.41883 1061.9348 1074.975821 803.818598 0.000941677
13.42763 1050.6423 1056.981471 804.149586 0.000951799
13.43644 1041.7977 1039.485931 804.480131 0.000959879
13.44524 1036.031 1022.556077 804.810234 0.000965222
13.45404 1026.5979 1006.235829 805.139931 0.000974091
13.46284 1013.565 990.497376 805.469112 0.000986617
13.47164 998.16071 975.227897 805.797889 0.001001843
13.48045 980.54883 960.301548 806.126262 0.001019837
13.48925 961.72766 945.687844 806.45412 0.001039795
13.49805 944.09277 931.486984 806.781613 0.001059218
13.50685 924.5506 917.920436 807.108629 0.001081607
13.51566 907.42651 905.22495 807.435244 0.001102018
13.52446 891.51324 893.599739 807.761347 0.001121688
13.53326 879.62842 883.160742 808.087051 0.001136844
13.54206 869.79535 873.95775 808.412357 0.001149696
13.55086 861.31488 865.983283 808.737154 0.001161016
13.55967 854.05859 859.180488 809.061592 0.00117088
13.56847 847.65991 853.469811 809.385562 0.001179718
13.57727 843.01923 848.746683 809.709101 0.001186213
13.58607 838.78729 844.898306 810.03221 0.001192197
13.59487 836.50824 841.807496 810.354893 0.001195445
13.60368 834.3183 839.361881 810.677149 0.001198583
13.61248 832.39496 837.457495 810.998981 0.001201353
13.62128 830.64868 836.002326 811.320427 0.001203878
13.63008 830.03656 834.919568 811.641415 0.001204766
13.63889 828.97235 834.146714 811.961985 0.001206313
13.64769 828.02362 833.636417 812.282137 0.001207695
13.65649 827.93298 833.354594 812.601874 0.001207827
13.66529 829.16046 833.280142 812.921199 0.001206039
13.67409 829.78094 833.402608 813.240113 0.001205137
13.68290 829.49573 833.721699 813.558654 0.001205552
13.69170 830.15656 834.244962 813.876717 0.001204592
13.70050 831.64697 834.987144 814.194448 0.001202433
13.70930 832.98596 835.968453 814.511742 0.0012005
13.71810 833.89221 837.212999 814.8286 0.001199196
13.72691 834.72351 838.750706 815.145135 0.001198001
13.73571 836.85651 840.613184 815.46124 0.001194948
13.74451 838.62018 842.835163 815.776989 0.001192435
13.75331 839.73358 845.443632 816.092279 0.001190854
13.76211 840.9743 848.452754 816.407255 0.001189097
13.77092 842.52899 851.85012 816.721814 0.001186903
13.77972 844.13947 855.587924 817.035957 0.001184638
13.78852 845.92712 859.579324 817.349795 0.001182135
13.79732 848.59442 863.681694 817.663224 0.001178419
13.80612 851.54803 867.699413 817.976283 0.001174332
13.81493 853.99554 871.377443 818.288975 0.001170966
13.82373 857.2973 874.421278 818.60134 0.001166456
13.83253 859.98212 876.543129 818.913273 0.001162815
13.84133 862.00012 877.536499 819.224885 0.001160093
13.85014 862.88782 877.34424 819.53618 0.001158899
13.85894 863.75555 876.083051 819.847089 0.001157735
13.86774 863.09076 874.000288 820.157653 0.001158627
13.87654 862.6972 871.398491 820.467874 0.001159155
13.88534 860.979 868.564078 820.777792 0.001161469
13.89415 858.6134 865.727931 821.087305 0.001164669
13.90295 856.38904 863.051503 821.396522 0.001167694
13.91175 854.8125 860.627914 821.705447 0.001169847
13.92055 852.70819 858.492301 822.013979 0.001172734
13.92935 852.09589 856.626724 822.322263 0.001173577
13.93816 851.20496 854.978614 822.630196 0.001174805
13.94696 850.95782 853.479965 822.937818 0.001175146
13.95576 851.6626 852.06639 823.245134 0.001174174
13.96456 853.79901 850.693201 823.552148 0.001171236
13.97337 856.39758 849.337658 823.858899 0.001167682
13.98217 859.2182 847.998512 824.165286 0.001163849
13.99097 861.1366 846.689051 824.471453 0.001161256
13.99977 860.35095 845.433683 824.777301 0.001162316
14.00857 856.08234 844.261118 825.082868 0.001168112
14.01738 849.95062 843.198565 825.38816 0.001176539
14.02618 845.00397 842.269044 825.69318 0.001183426
14.03498 841.47412 841.488992 825.997934 0.001188391
14.04378 839.20856 840.868781 826.302426 0.001191599
14.05259 837.88037 840.413144 826.606695 0.001193488
14.06139 837.4342 840.122162 826.910643 0.001194124
14.07019 836.42535 839.991641 827.214412 0.001195564
14.07899 836.29382 840.014049 827.517903 0.001195752
14.08779 836.64893 840.179085 827.821157 0.001195244
14.09660 836.75598 840.473846 828.124178 0.001195092
14.10540 836.75928 840.883558 828.426971 0.001195087
14.11420 837.27045 841.391244 828.729575 0.001194357
14.12300 837.18866 841.977675 829.031893 0.001194474
14.13180 837.18622 842.621348 829.334067 0.001194477
14.14061 837.40118 843.29737 829.635998 0.001194171
14.14941 838.83563 843.977756 829.937693 0.001192129
14.15821 839.57794 844.632716 830.239259 0.001191075
14.16701 840.02051 845.233426 830.540598 0.001190447
14.17581 841.04346 845.758293 830.841751 0.001188999
14.18462 841.31287 846.199049 831.142722 0.001188618
14.19342 841.79858 846.563934 831.443551 0.001187933
14.20222 842.43372 846.875938 831.744175 0.001187037
14.21102 843.39935 847.167641 832.044599 0.001185678
14.21983 845.69409 847.475751 832.344931 0.001182461
14.22863 847.1145 847.837629 832.645074 0.001180478
14.23743 847.27289 848.291257 832.945068 0.001180257
14.24623 847.44843 848.876487 833.244919 0.001180013
14.25503 848.33032 849.637325 833.544631 0.001178786
14.26384 848.90088 850.624357 833.84421 0.001177994
14.27264 849.73389 851.897409 834.143662 0.001176839
14.28144 850.64508 853.52692 834.443026 0.001175578
14.29024 852.79211 855.594547 834.742207 0.001172619
14.29904 855.94684 858.194083 835.041345 0.001168297
14.30785 858.65808 861.426971 835.340344 0.001164608
14.31665 861.57861 865.39885 835.639244 0.00116066
14.32545 865.05176 870.211241 835.93805 0.001156
14.33425 869.9704 875.954354 836.236769 0.001149464
14.34305 875.84558 882.692 836.535439 0.001141754
14.35186 883.35278 890.449422 836.833965 0.001132051
14.36066 891.53961 899.20412 837.132488 0.001121655
14.36946 901.01044 908.865476 837.430912 0.001109865
14.37826 912.05756 919.265502 837.729276 0.001096422
14.38706 922.3988 930.141974 838.027588 0.00108413
14.39587 933.37146 941.129219 838.325851 0.001071385
14.40467 946.0401 951.736542 838.624072 0.001057038
14.41347 958.92865 961.360891 838.922256 0.00104283
14.42227 969.3299 969.313757 839.220444 0.001031641
14.43108 978.04041 974.918593 839.518574 0.001022453
14.43988 980.37744 977.654872 839.816684 0.001020015
14.44868 979.63177 977.307567 840.114781 0.001020792
14.45748 975.24756 974.037498 840.41287 0.001025381
14.46628 967.22119 968.334042 840.710957 0.00103389
14.47509 958.0423 960.870342 841.009049 0.001043795
14.48389 948.89508 952.360075 841.307184 0.001053857
14.49269 939.3222 943.454164 841.605266 0.001064597
14.50149 931.09338 934.693775 841.903438 0.001074006
14.51029 923.4043 926.52204 842.201603 0.001082949
14.51910 915.32727 919.279377 842.499766 0.001092505
14.52790 908.40735 913.229351 842.798036 0.001100828
14.53670 904.73029 908.567796 843.096315 0.001105302
14.54550 902.53418 905.426756 843.394645 0.001107991
14.55430 900.5033 903.883461 843.69303 0.00111049
14.56311 899.22772 903.959674 843.991476 0.001112065
14.57191 899.17126 905.63611 844.290023 0.001112135
14.58071 901.13214 908.844575 844.588574 0.001109715
14.58951 904.77533 913.478093 844.887272 0.001105247
14.59832 908.44727 919.381388 845.186019 0.001100779
14.60712 913.49615 926.346802 845.484855 0.001094695
14.61592 919.78534 934.11183 845.783786 0.00108721
14.62472 928.13513 942.348106 846.082817 0.001077429
14.63352 936.57977 950.679168 846.381955 0.001067715
14.64233 945.49213 958.692445 846.681203 0.00105765
14.65113 954.69531 965.977153 846.980603 0.001047455
14.65993 965.4751 972.150273 847.280057 0.001035759
14.66873 977.66895 976.87446 847.579707 0.001022841
14.67754 989.30933 979.858973 847.879455 0.001010806
14.68634 996.10431 980.885994 848.179343 0.001003911
14.69514 997.38776 979.864395 848.479374 0.001002619
14.70394 994.13635 976.891057 848.779554 0.001005898
14.71274 986.3764 972.277625 849.079923 0.001013812
14.72155 976.9563 966.509884 849.380383 0.001023587
14.73035 967.60828 960.160621 849.681076 0.001033476
14.73915 958.3736 953.805703 849.981906 0.001043434
14.74795 951.66962 947.960987 850.28291 0.001050785
14.75675 946.8703 943.056776 850.584095 0.001056111
14.76556 943.63092 939.42605 850.885465 0.001059736
14.77436 942.40057 937.312681 851.187025 0.00106112
14.78316 942.01147 936.868728 851.488781 0.001061558
14.79196 942.65723 938.159774 851.790771 0.001060831
14.80077 944.93494 941.164257 852.092932 0.001058274
14.80957 948.30914 945.772786 852.395269 0.001054508
14.81837 952.44397 951.797574 852.69789 0.001049931
14.82717 958.32697 958.95647 853.000695 0.001043485
14.83597 965.5614 966.886391 853.303725 0.001035667
14.84478 972.12744 975.141781 853.606984 0.001028672
14.85358 978.7063 983.198421 853.910511 0.001021757
14.86238 984.46088 990.483552 854.214207 0.001015784
14.87118 989.51343 996.437516 854.518181 0.001010598
14.87998 994.21661 1000.601167 854.822436 0.001005817
14.88879 997.3045 1002.727312 855.126873 0.001002703
14.89759 998.29492 1002.85408 855.431636 0.001001708
14.90639 998.38751 1001.298504 855.736624 0.001001615
14.91519 997.72144 998.573984 856.041911 0.001002284
14.92399 995.48962 995.269981 856.347398 0.001004531
14.93280 992.9978 991.945241 856.653192 0.001007052
14.94160 991.01086 989.065498 856.959298 0.001009071
14.95040 989.05176 986.97302 857.265615 0.001011069
14.95920 986.93262 985.87698 857.572286 0.00101324
14.96800 985.71539 985.854537 857.879212 0.001014492
14.97681 985.47559 986.85164 858.186429 0.001014738
14.98561 985.39099 988.692613 858.493944 0.001014826
14.99441 986.52551 991.103123 858.801758 0.001013659
15.00321 988.99902 993.756638 859.109876 0.001011123
15.01201 990.94659 996.341556 859.418301 0.001009136
15.02082 993.42792 998.623252 859.727071 0.001006616
15.02962 995.44507 1000.476388 860.036121 0.001004576
15.03842 996.37231 1001.865672 860.345488 0.001003641
15.04722 996.27576 1002.788502 860.655176 0.001003738
15.05603 996.44672 1003.209178 860.965188 0.001003566
15.06483 996.94147 1003.01622 861.275528 0.001003068
15.07363 995.20184 1002.014531 861.586197 0.001004821
15.08243 995.04449 999.960061 861.897235 0.00100498
15.09123 991.66132 996.629223 862.208538 0.001008409
15.10004 991.31927 991.899998 862.520251 0.001008757
15.10884 986.5545 985.81436 862.83227 0.001013629
15.11764 985.12891 978.583712 863.144599 0.001015096
15.12644 979.68188 970.536133 863.457345 0.00102074
15.13524 978.83862 962.048269 863.770406 0.001021619
15.14405 972.72998 953.478116 864.083854 0.001028035
15.15285 968.47162 945.129251 864.397585 0.001032555
15.16165 960.56476 937.235034 864.711744 0.001041054
15.17045 955.31726 929.967741 865.026227 0.001046773
15.17925 946.3645 923.44355 865.341035 0.001056675
15.18806 940.59735 917.729074 865.656277 0.001063154
15.19686 934.53363 912.854588 865.971849 0.001070052
15.20566 930.78552 908.819133 866.287788 0.001074361
15.21446 926.63568 905.595087 866.604095 0.001079173
15.22327 922.66888 903.140184 866.920809 0.001083812
15.23207 919.78107 901.401249 867.237823 0.001087215
15.24087 918.16382 900.321708 867.555246 0.00108913
15.24967 918.20844 899.848591 867.873081 0.001089077
15.25848 917.0177 899.932842 868.191256 0.001090491
15.26728 916.54614 900.532253 868.509808 0.001091053
15.27608 916.16785 901.608307 868.82874 0.001091503
15.28488 917.37695 903.125351 869.148087 0.001090064
15.29368 918.46936 905.046713 869.467743 0.001088768
15.30249 921.23846 907.334207 869.787817 0.001085495
15.31129 923.659 909.945146 870.108309 0.001082651
15.32009 926.8642 912.826779 870.429112 0.001078907
15.32889 928.95709 915.919561 870.750372 0.001076476
15.33769 932.63715 919.149405 871.07198 0.001072228
15.34650 935.83398 922.436887 871.393972 0.001068566
15.35530 940.91766 925.705087 871.71635 0.001062792
15.36410 942.93787 928.895895 872.039113 0.001060515
15.37290 947.36029 931.987574 872.362298 0.001055565
15.38170 948.97192 935.001954 872.685795 0.001053772
15.39051 951.02521 937.999112 873.009751 0.001051497
15.39931 949.47876 941.056394 873.334055 0.001053209
15.40811 949.06726 944.243606 873.658745 0.001053666
15.41691 945.55658 947.60688 873.983819 0.001057578
15.42572 944.87817 951.152414 874.309277 0.001058337
15.43452 942.87598 954.841201 874.635118 0.001060585
15.44332 942.79999 958.594036 874.961343 0.00106067
15.45212 941.92865 962.292531 875.287987 0.001061652
15.46092 942.66284 965.804082 875.614937 0.001060825
15.46973 944.3139 969.013864 875.942342 0.00105897
15.47853 946.50745 971.865262 876.270089 0.001056516
15.48733 949.85858 974.403962 876.598215 0.001052788
15.49613 952.97803 976.787503 876.926716 0.001049342
15.50493 957.31476 979.269869 877.255593 0.001044589
15.51374 962.26459 982.153455 877.584881 0.001039215
15.52254 969.54266 985.738542 877.914467 0.001031414
15.53134 976.62677 990.283557 878.244498 0.001023933
15.54014 984.05579 995.9678 878.57486 0.001016203
15.54894 991.96436 1002.887423 878.905551 0.001008101
15.55775 1000.909 1011.037689 879.236682 0.000999092
15.56655 1010.5109 1020.302462 879.568137 0.000989598
15.57535 1021.8785 1030.4526 879.899954 0.00097859
15.58415 1032.6886 1041.131918 880.232128 0.000968346
15.59296 1043.7506 1051.867708 880.564695 0.000958083
15.60176 1053.6454 1062.063884 880.89754 0.000949086
15.61056 1062.3016 1071.06641 881.230772 0.000941352
15.61936 1069.5286 1078.216747 881.56439 0.000934991
15.62816 1072.2959 1082.959903 881.898315 0.000932578
15.63697 1072.1034 1084.945595 882.232581 0.000932746
15.64577 1067.2454 1084.070603 882.567186 0.000936992
15.65457 1059.2372 1080.457515 882.902164 0.000944076
15.66337 1048.8217 1074.39002 883.237398 0.000953451
15.67217 1039.5826 1066.218201 883.572998 0.000961925
15.68098 1029.2675 1056.326224 883.908962 0.000971565
15.68978 1018.1599 1045.109454 884.24517 0.000982164
15.69858 1005.8889 1032.971457 884.581773 0.000994146
15.70738 994.60577 1020.333635 884.91865 0.001005423
15.71618 984.20483 1007.594236 885.255838 0.001016049
15.72499 974.0368 995.117036 885.593331 0.001026655
15.73379 964.77124 983.199741 885.931126 0.001036515
15.74259 956.09186 972.068693 886.269256 0.001045925
15.75139 948.33386 961.880626 886.607602 0.001054481
15.76020 941.22595 952.719549 886.946313 0.001062444
15.76900 935.34625 944.62134 887.28527 0.001069123
15.77780 930.75043 937.571973 887.624505 0.001074402
15.78660 927.05994 931.524208 887.964014 0.001078679
15.79540 924.7467 926.409634 888.303792 0.001081377
15.80421 923.4472 922.141108 888.643834 0.001082899
15.81301 923.81873 918.625522 888.984135 0.001082463
15.82181 925.84302 915.766565 889.324728 0.001080097
15.83061 929.86841 913.472307 889.665492 0.001075421
15.83942 936.14191 911.654633 890.006576 0.001068214
15.84822 943.51038 910.235661 890.347859 0.001059872
15.85702 948.88562 909.145948 890.689373 0.001053868
15.86582 948.28204 908.325991 891.031112 0.001054539
15.87462 940.86536 907.726277 891.373071 0.001062851
15.88343 931.17041 907.30604 891.715282 0.001073917
15.89223 923.36792 907.033091 892.057623 0.001082992
15.90103 918.0141 906.882187 892.400243 0.001089308
15.90983 914.99359 906.83477 892.743019 0.001092904
15.91863 913.71362 906.877572 893.085945 0.001094435
15.92744 912.51477 907.002153 893.42913 0.001095873
15.93624 911.74591 907.204154 893.772452 0.001096797
15.94504 911.99072 907.482729 894.115942 0.001096502
15.95384 911.90234 907.840365 894.459594 0.001096609
15.96265 912.38287 908.2824 894.803439 0.001096031
15.97145 912.93164 908.8168 895.147393 0.001095372
15.98025 914.3042 909.453929 895.491449 0.001093728
15.98905 914.98944 910.206595 895.835715 0.001092909
15.99785 915.94971 911.089144 896.180068 0.001091763
16.00665 917.55365 912.117494 896.52454 0.001089855
16.01546 919.80847 913.308803 896.869122 0.001087183
16.02426 921.79468 914.680574 897.213846 0.00108484
16.03306 923.74933 916.248993 897.558627 0.001082545
16.04186 925.91595 918.032248 897.903495 0.001080012
16.05066 928.27252 920.043465 898.248403 0.00107727
16.05947 930.52948 922.294702 898.593421 0.001074657
16.06827 932.88959 924.792994 898.938542 0.001071938
16.07707 935.40314 927.539269 899.283679 0.001069058
16.08588 937.80988 930.528067 899.628901 0.001066314
16.09468 941.47797 933.744022 899.974123 0.00106216
16.10348 944.54901 937.162544 900.319295 0.001058706
16.11228 947.76648 940.753014 900.664606 0.001055112
16.12108 951.05963 944.475481 901.00989 0.001051459
16.12989 954.88251 948.291697 901.355217 0.001047249
16.13869 958.4021 952.164216 901.700498 0.001043403
16.14749 963.37848 956.063407 902.045805 0.001038014
16.15629 966.9585 959.960369 902.391048 0.001034171
16.16509 971.04919 963.827772 902.73618 0.001029814
16.17390 974.21875 967.637012 903.081388 0.001026464
16.18270 978.37048 971.35042 903.426505 0.001022108
16.19150 981.17047 974.930955 903.7716 0.001019191
16.20030 984.57037 978.336104 904.116585 0.001015671
16.20911 986.97003 981.525727 904.46153 0.001013202
16.21790 989.79321 984.45685 904.806267 0.001010312
16.22671 990.06348 987.093704 905.150983 0.001010036
16.23551 991.16608 989.406469 905.495628 0.001008913
16.24431 992.00616 991.379484 905.840115 0.001008058
16.25312 993.0141 993.017652 906.184512 0.001007035
16.26192 992.71802 994.347532 906.52873 0.001007335
16.27072 993.21375 995.41087 906.872837 0.001006833
16.27952 993.05762 996.253563 907.216667 0.001006991
16.28832 992.6145 996.90937 907.560405 0.00100744
16.29713 992.19708 997.385291 907.904 0.001007864
16.30593 991.7179 997.661198 908.247366 0.001008351
16.31473 990.46552 997.689444 908.590568 0.001009626
16.32353 989.73267 997.413746 908.933519 0.001010374
16.33233 988.66931 996.784072 909.276208 0.001011461
16.34114 987.74384 995.780756 909.618702 0.001012408
16.34994 986.76233 994.430497 909.960951 0.001013415
16.35874 985.40753 992.813497 910.302983 0.001014809
16.36754 984.37738 991.060574 910.644709 0.001015871
16.37635 982.4361 989.337651 910.986196 0.001017878
16.38515 981.89392 987.825423 911.327355 0.00101844
16.39395 980.59137 986.701701 911.668175 0.001019793
16.40275 980.40344 986.125842 912.008723 0.001019988
16.41155 980.06201 986.228909 912.348948 0.001020344
16.42036 981.19275 987.113227 912.688877 0.001019168
16.42916 982.50098 988.84043 913.028422 0.001017811
16.43796 985.19098 991.437412 913.367648 0.001015032
16.44676 987.39679 994.881556 913.70639 0.001012764
16.45556 990.17004 999.109355 914.044868 0.001009928
16.46437 994.20569 1004.006184 914.382915 0.001005828
16.47317 1000.18 1009.404359 914.720558 0.00099982
16.48197 1006.0084 1015.090012 915.057825 0.000994027
16.49077 1011.9438 1020.790856 915.394626 0.000988197
16.49958 1017.8128 1026.1956 915.731026 0.000982499
16.50838 1023.902 1030.956398 916.06686 0.000976656
16.51718 1030.1853 1034.724046 916.402346 0.000970699
16.52598 1034.859 1037.181525 916.737319 0.000966315
16.53478 1037.5085 1038.097568 917.071805 0.000963848
16.54359 1038.3613 1037.368966 917.40583 0.000963056
16.55239 1038.2345 1035.038608 917.739305 0.000963174
16.56119 1035.7362 1031.281263 918.07222 0.000965497
16.56999 1031.7595 1026.36352 918.404636 0.000969218
16.57879 1025.7394 1020.597499 918.736542 0.000974906
16.58760 1017.672 1014.297473 919.067851 0.000982635
16.59640 1009.3588 1007.75438 919.398587 0.000990728
16.60520 1001.6498 1001.217513 919.728775 0.000998353
16.61400 993.40674 994.901849 920.058329 0.001006637
16.62280 986.84833 988.97667 920.387236 0.001013327
16.63161 981.9903 983.576751 920.715558 0.00101834
16.64041 977.06024 978.80677 921.043283 0.001023478
16.64921 972.31464 974.741014 921.370323 0.001028474
16.65801 968.9541 971.429314 921.696704 0.001032041
16.66681 966.3775 968.894338 922.022449 0.001034792
16.67562 963.61383 967.141094 922.347399 0.00103776
16.68442 961.77466 966.151179 922.671763 0.001039745
16.69322 961.65009 965.890181 922.995379 0.001039879
16.70202 961.59808 966.31015 923.31831 0.001039936
16.71082 961.54456 967.349001 923.640469 0.001039993
16.71963 961.72754 968.935632 923.96188 0.001039796
16.72843 963.10901 970.987125 924.282566 0.001038304
16.73723 965.09155 973.411559 924.602371 0.001036171
16.74603 967.20813 976.109005 924.921499 0.001033904
16.75483 969.29047 978.968194 925.239791 0.001031682
16.76364 973.09418 981.87568 925.557309 0.00102765
16.77244 977.98114 984.718367 925.873966 0.001022515
16.78124 981.46887 987.397107 926.189787 0.001018881
16.79004 986.05865 989.833782 926.504722 0.001014138
16.79885 991.01373 991.981606 926.818832 0.001009068
16.80765 995.29968 993.8195 927.132102 0.001004723
16.81645 997.95813 995.346561 927.444448 0.001002046
16.82525 998.9787 996.567464 927.75593 0.001001022
16.83405 998.47272 997.482036 928.066464 0.00100153
16.84286 998.57544 998.076119 928.376072 0.001001427
16.85166 997.97955 998.323193 928.684706 0.001002025
16.86046 996.24042 998.191902 928.992425 0.001003774
16.86926 995.284 997.655833 929.299215 0.001004738
16.87806 994.14355 996.709289 929.604994 0.001005891
16.88687 992.5813 995.372392 929.909818 0.001007474
16.89567 991.10785 993.678458 930.213607 0.001008972
16.90447 990.26764 991.727773 930.516312 0.001009828
16.91327 989.72388 989.583347 930.818095 0.001010383
16.92207 988.98944 987.327746 931.118803 0.001011133
16.93088 988.80365 985.039995 931.418494 0.001011323
16.93968 987.02881 982.796688 931.717087 0.001013142
16.94848 985.08734 980.671965 932.014637 0.001015138
16.95728 983.18866 978.739721 932.311063 0.001017099
16.96608 981.58588 977.072716 932.606322 0.00101876
16.97489 979.44415 975.739933 932.900567 0.001020987
16.98369 978.72736 974.807335 933.193653 0.001021735
16.99249 978.83301 974.333938 933.485633 0.001021625
17.00129 979.89465 974.371849 933.776429 0.001020518
17.01010 981.20789 974.965542 934.066096 0.001019152
17.01890 982.21686 976.151395 934.354488 0.001018105
17.02770 984.24774 977.958983 934.641759 0.001016004
17.03650 986.50995 980.409239 934.927864 0.001013675
17.04530 989.90698 983.513871 935.212724 0.001010196
17.05411 993.45313 987.276027 935.496393 0.00100659
17.06291 998.49072 991.68644 935.778795 0.001001512
17.07171 1002.893 996.724183 936.059949 0.000997115
17.08051 1008.6777 1002.353043 936.339813 0.000991397
17.08931 1015.7695 1008.519204 936.618437 0.000984475
17.09812 1023.4459 1015.154 936.895811 0.000977091
17.10692 1030.8783 1022.162053 937.171859 0.000970047
17.11572 1040.2938 1029.435939 937.446632 0.000961267
17.12452 1048.7051 1036.851585 937.720056 0.000953557
17.13333 1057.6427 1044.287121 937.992121 0.000945499
17.14213 1065.7828 1051.633471 938.262876 0.000938277
17.15093 1074.1809 1058.801697 938.53228 0.000930942
17.15973 1080.683 1065.736507 938.800351 0.000925341
17.16853 1087.1198 1072.400856 939.067017 0.000919862
17.17734 1091.1487 1078.777421 939.332328 0.000916465
17.18614 1094.2101 1084.826959 939.596213 0.000913901
17.19494 1096.4153 1090.539924 939.85866 0.000912063
17.20374 1099.6871 1095.856283 940.119719 0.00090935
17.21254 1100.6022 1100.728452 940.379349 0.000908593
17.22135 1102.6885 1105.132482 940.637568 0.000906874
17.23015 1105.1974 1109.081993 940.894307 0.000904816
17.23895 1107.6254 1112.643709 941.149614 0.000902832
17.24775 1109.3552 1115.936693 941.403363 0.000901425
17.25656 1112.4066 1119.099018 941.655715 0.000898952
17.26536 1115.8582 1122.261701 941.906547 0.000896171
17.27416 1120.1053 1125.527661 942.155876 0.000892773
17.28296 1126.0155 1128.943102 942.403719 0.000888087
17.29177 1130.463 1132.489575 942.650012 0.000884593
17.30057 1136.1296 1136.078591 942.894744 0.000880181
17.30937 1141.7174 1139.558167 943.137961 0.000875873
17.31817 1150.9982 1142.727906 943.379652 0.000868811
17.32697 1156.5321 1145.353371 943.619754 0.000864654
17.33578 1166.441 1147.208412 943.858284 0.000857309
17.34458 1168.5715 1148.097824 944.095259 0.000855746
17.35338 1175.9108 1147.899863 944.330616 0.000850405
17.36218 1172.8785 1146.583228 944.564347 0.000852603
17.37098 1176.2318 1144.224775 944.796495 0.000850173
17.37979 1165.9852 1141.008266 945.027051 0.000857644
17.38859 1162.577 1137.203798 945.255954 0.000860158
17.39739 1148.7205 1133.144669 945.48322 0.000870534
17.40619 1143.6564 1129.174473 945.708867 0.000874388
17.41499 1130.2314 1125.66747 945.932783 0.000884775
17.42380 1126.5233 1122.923016 946.155115 0.000887687
17.43260 1118.2412 1121.199986 946.37575 0.000894261
17.44140 1117.678 1120.691914 946.594731 0.000894712
17.45020 1115.3828 1121.518008 946.812001 0.000896553
17.45901 1120.5117 1123.725032 947.027576 0.000892449
17.46781 1125.1184 1127.280857 947.241472 0.000888795
17.47661 1133.0875 1132.076092 947.453585 0.000882544
17.48541 1139.9471 1137.927997 947.664052 0.000877234
17.49421 1149.3873 1144.571279 947.87277 0.000870029
17.50302 1158.5328 1151.675859 948.079777 0.000863161
17.51182 1169.6587 1158.840712 948.285021 0.00085495
17.52062 1181.24 1165.65004 948.488517 0.000846568
17.52942 1193.6956 1171.665017 948.690235 0.000837735
17.53822 1203.2369 1176.497784 948.890215 0.000831092
17.54703 1211.7333 1179.849477 949.088449 0.000825264
17.55583 1217.6583 1181.546547 949.284885 0.000821248
17.56463 1220.9446 1181.551178 949.479562 0.000819038
17.57343 1221.0792 1179.949198 949.672429 0.000818948
17.58224 1217.4614 1176.903991 949.863502 0.000821381
17.59104 1208.9714 1172.620708 950.052753 0.000827149
17.59984 1195.6351 1167.297434 950.24022 0.000836376
17.60864 1181.6891 1161.0973 950.425896 0.000846246
17.61744 1167.0327 1154.146665 950.609734 0.000856874
17.62625 1152.959 1146.519273 950.791748 0.000867334
17.63505 1139.5869 1138.265191 950.971955 0.000877511
17.64385 1126.8843 1129.42556 951.150267 0.000887403
17.65265 1112.8933 1120.047847 951.326801 0.000898559
17.66145 1099.8381 1110.221795 951.501471 0.000909225
17.67026 1087.8762 1100.064077 951.674313 0.000919222
17.67906 1075.8998 1089.730538 951.845282 0.000929455
17.68786 1064.1031 1079.387755 952.014394 0.000939759
17.69666 1052.6477 1069.202761 952.181662 0.000949985
17.70546 1040.3668 1059.33581 952.347009 0.000961199
17.71427 1030.2443 1049.90834 952.510542 0.000970644
17.72307 1021.1713 1041.027271 952.672182 0.000979268
17.73187 1013.3118 1032.765274 952.831963 0.000986863
17.74067 1005.3369 1025.172759 952.989844 0.000994691
17.74948 999.21082 1018.277431 953.145842 0.00100079
17.75828 993.46332 1012.086859 953.299934 0.00100658
17.76708 988.87836 1006.593176 953.452153 0.001011247
17.77588 984.57361 1001.776484 953.602495 0.001015668
17.78468 981.01563 997.605867 953.750924 0.001019352
17.79349 978.24487 994.040732 953.897471 0.001022239
17.80229 976.5589 991.034321 954.042099 0.001024004
17.81109 974.3667 988.535089 954.184824 0.001026308
17.81989 972.52191 986.488379 954.325627 0.001028254
17.82869 970.81818 984.83892 954.464538 0.001030059
17.83750 969.78821 983.532992 954.601555 0.001031153
17.84630 968.81482 982.518518 954.736646 0.001032189
17.85510 968.91467 981.746719 954.869839 0.001032083
17.86390 969.26581 981.171648 955.001103 0.001031709
17.87270 969.58142 980.751634 955.130437 0.001031373
17.88151 969.14526 980.448598 955.25787 0.001031837
17.89031 968.32813 980.229467 955.383387 0.001032708
17.89911 968.06927 980.067537 955.507 0.001032984
17.90791 967.95087 979.943265 955.628682 0.00103311
17.91672 968.25861 979.846179 955.748458 0.001032782
17.92552 968.23608 979.774906 955.866303 0.001032806
17.93432 968.09521 979.737227 955.982217 0.001032956
17.94312 968.83771 979.748051 956.096227 0.001032165
17.95192 969.65887 979.82752 956.208318 0.001031291
17.96073 970.00317 979.998919 956.318506 0.001030924
17.96953 970.25812 980.286087 956.426764 0.001030654
17.97833 971.31396 980.71282 956.53312 0.001029533
17.98713 972.64972 981.300646 956.637525 0.001028119
17.99593 973.83679 982.069621 956.740053 0.001026866
18.00474 974.8667 983.036469 956.840658 0.001025781
18.01354 976.24756 984.214647 956.939353 0.00102433
18.02234 978.3783 985.614679 957.036151 0.0010221
18.03114 981.03772 987.241745 957.131032 0.001019329
18.03995 983.6073 989.098124 957.224018 0.001016666
18.04875 986.14288 991.178753 957.315072 0.001014052
18.05755 989.06836 993.475556 957.404258 0.001011052
18.06635 992.10406 995.972116 957.491536 0.001007959
18.07515 995.94092 998.645596 957.576921 0.001004076
18.08396 999.255 1001.468059 957.660424 0.001000746
18.09276 1003.1369 1004.403773 957.74203 0.000996873
18.10156 1006.6828 1007.416279 957.821742 0.000993362
18.11036 1010.2893 1010.46952 957.899582 0.000989815
18.11916 1013.6863 1013.530927 957.975553 0.000986498
18.12797 1017.4708 1016.575151 958.049642 0.000982829
18.13677 1020.7034 1019.584029 958.121862 0.000979717
18.14557 1023.9557 1022.545457 958.192223 0.000976605
18.15437 1026.2614 1025.445144 958.260716 0.000974411
18.16317 1029.0266 1028.265152 958.327344 0.000971792
18.17198 1031.5598 1030.977154 958.392128 0.000969406
18.18078 1034.2305 1033.538601 958.455072 0.000966902
18.18958 1036.1183 1035.893116 958.516166 0.000965141
18.19838 1037.6896 1037.973327 958.575423 0.000963679
18.20719 1037.8915 1039.706335 958.632855 0.000963492
18.21599 1038.469 1041.020876 958.688442 0.000962956
18.22479 1039.1243 1041.859316 958.742227 0.000962349
18.23359 1040.0197 1042.183755 958.794191 0.00096152
18.24239 1039.0375 1041.985205 958.844346 0.000962429
18.25120 1038.097 1041.283355 958.892704 0.000963301
18.26000 1036.4098 1040.127531 958.93926 0.000964869
18.26880 1034.0374 1038.58603 958.984031 0.000967083
18.27760 1030.9485 1036.744178 959.027003 0.000969981
18.28640 1028.1963 1034.691112 959.068214 0.000972577
18.29521 1025.9584 1032.519099 959.107651 0.000974698
18.30401 1024.0942 1030.319868 959.145325 0.000976473
18.31281 1021.7875 1028.180864 959.181248 0.000978677
18.32161 1020.0352 1026.191204 959.215419 0.000980358
18.33041 1018.4413 1024.434982 959.247847 0.000981893
18.33922 1016.4539 1022.994227 959.278545 0.000983812
18.34802 1014.8126 1021.94698 959.307523 0.000985404
18.35682 1014.4608 1021.360855 959.33478 0.000985745
18.36562 1015.3058 1021.294543 959.360329 0.000984925
18.37443 1015.5453 1021.790515 959.38418 0.000984693
18.38323 1015.7656 1022.878157 959.406337 0.000984479
18.39203 1015.2354 1024.568107 959.426809 0.000984993
18.40083 1015.0972 1026.854448 959.445609 0.000985127
18.40963 1016.1889 1029.714961 959.462746 0.000984069
18.41844 1018.6614 1033.103754 959.478225 0.00098168
18.42724 1021.9518 1036.959765 959.492056 0.00097852
18.43604 1025.7894 1041.19777 959.504251 0.000974859
18.44484 1029.8363 1045.711176 959.514815 0.000971028
18.45364 1034.6093 1050.375889 959.523763 0.000966548
18.46245 1039.1017 1055.039799 959.531102 0.00096237
18.47125 1044.5935 1059.538395 959.536842 0.00095731
18.48005 1049.4305 1063.685945 959.540993 0.000952898
18.48885 1054.6926 1067.294709 959.543565 0.000948144
18.49766 1059.9258 1070.179218 959.544568 0.000943462
18.50646 1065.1321 1072.176274 959.544014 0.000938851
18.51526 1069.2626 1073.164715 959.541912 0.000935224
18.52406 1072.5665 1073.07785 959.538274 0.000932343
18.53286 1073.6335 1071.915752 959.533109 0.000931417
18.54167 1073.7383 1069.743251 959.52643 0.000931326
18.55047 1071.2509 1066.677114 959.518247 0.000933488
18.55927 1066.5553 1062.871459 959.508572 0.000937598
18.56807 1060.314 1058.497067 959.497415 0.000943117
18.57687 1053.9186 1053.726206 959.484786 0.00094884
18.58568 1045.6752 1048.727499 959.4707 0.00095632
18.59448 1039.2336 1043.65003 959.455166 0.000962248
18.60328 1033.4224 1038.631957 959.438198 0.000967659
18.61208 1028.0782 1033.788182 959.419807 0.000972689
18.62088 1022.4064 1029.218694 959.400007 0.000978085
18.62969 1018.8299 1025.003287 959.378805 0.000981518
18.63849 1016.2006 1021.202462 959.356214 0.000984058
18.64729 1014.1623 1017.862715 959.332251 0.000986035
18.65609 1011.9683 1015.00898 959.306922 0.000988173
18.66490 1010.6733 1012.654818 959.280246 0.000989439
18.67370 1010.0629 1010.797031 959.252236 0.000990037
18.68250 1009.7583 1009.422075 959.222898 0.000990336
18.69130 1010.2449 1008.508653 959.192248 0.000989859
18.70010 1011.183 1008.029123 959.160296 0.000988941
18.70891 1012.7486 1007.955731 959.127061 0.000987412
18.71771 1014.7162 1008.262645 959.092548 0.000985497
18.72651 1016.3455 1008.930643 959.05678 0.000983917
18.73531 1020.0167 1009.949166 959.019769 0.000980376
18.74411 1023.7288 1011.317481 958.98152 0.000976821
18.75292 1028.3895 1013.04268 958.94205 0.000972394
18.76172 1033.8269 1015.138892 958.901369 0.00096728
18.77052 1039.8936 1017.620892 958.8595 0.000961637
18.77932 1045.2064 1020.505064 958.816445 0.000956749
18.78812 1050.2081 1023.800225 958.772239 0.000952192
18.79693 1054.9316 1027.51222 958.726871 0.000947929
18.80573 1061.1588 1031.637224 958.680358 0.000942366
18.81453 1067.9845 1036.158782 958.632725 0.000936343
18.82333 1074.2072 1041.055135 958.583976 0.000930919
18.83214 1080.6196 1046.269389 958.534135 0.000925395
18.84094 1087.7913 1051.80854 958.483204 0.000919294
18.84974 1093.4141 1057.604097 958.431222 0.000914567
18.85854 1100.3961 1063.614096 958.378173 0.000908764
18.86734 1104.4296 1069.791762 958.324077 0.000905445
18.87615 1109.0566 1076.083342 958.268959 0.000901667
18.88495 1111.9323 1082.432531 958.212822 0.000899335
18.89375 1116.3297 1088.765815 958.155693 0.000895793
18.90255 1118.5892 1094.997674 958.097586 0.000893983
18.91135 1122.7681 1101.025689 958.038503 0.000890656
18.92016 1125.8424 1106.731805 957.978463 0.000888224
18.92896 1130.3534 1111.991452 957.917476 0.000884679
18.93776 1132.947 1116.679716 957.855568 0.000882654
18.94656 1136.2098 1120.688542 957.79274 0.000880119
18.95537 1136.9462 1123.935514 957.729021 0.000879549
18.96417 1136.2139 1126.375451 957.664425 0.000880116
18.97297 1133.1277 1128.003276 957.598953 0.000882513
18.98177 1130.1484 1128.850243 957.532626 0.00088484
18.99057 1125.9292 1128.969347 957.465451 0.000888155
18.99938 1122.896 1128.427066 957.397457 0.000890554
19.00818 1119.1852 1127.282287 957.328644 0.000893507
19.01698 1116.0416 1125.585081 957.259057 0.000896024
19.02578 1111.1281 1123.365378 957.188665 0.000899986
19.03458 1107.7053 1120.639384 957.117511 0.000902767
19.04339 1103.6199 1117.419118 957.045605 0.000906109
19.05219 1099.9574 1113.715251 956.97295 0.000909126
19.06099 1095.4622 1109.556082 956.899579 0.000912857
19.06979 1092.016 1104.981986 956.82549 0.000915737
19.07859 1087.4598 1100.058072 956.750729 0.000919574
19.08740 1083.6831 1094.856156 956.675262 0.000922779
19.09620 1079.0402 1089.458913 956.599136 0.00092675
19.10500 1073.8376 1083.944547 956.522357 0.00093124
19.11380 1067.9767 1078.3782 956.44493 0.00093635
19.12261 1062.6224 1072.812829 956.366888 0.000941068
19.13141 1057.4053 1067.280294 956.288245 0.000945711
19.14021 1053.1176 1061.79635 956.208997 0.000949562
19.14901 1048.8995 1056.365114 956.129159 0.00095338
19.15781 1044.1863 1050.986306 956.048762 0.000957684
19.16662 1038.5007 1045.658087 955.967811 0.000962927
19.17542 1033.6327 1040.384905 955.886312 0.000967462
19.18422 1028.7568 1035.182387 955.804296 0.000972047
19.19302 1024.467 1030.074564 955.721778 0.000976117
19.20182 1020.0535 1025.092589 955.638753 0.000980341
19.21063 1016.0556 1020.271428 955.555235 0.000984198
19.21943 1011.3816 1015.648765 955.471257 0.000988746
19.22823 1006.8344 1011.255809 955.386821 0.000993212
19.23703 1002.3753 1007.119891 955.301934 0.00099763
19.24583 998.26068 1003.263859 955.216646 0.001001742
19.25464 995.41064 999.699684 955.130914 0.001004611
19.26344 992.85767 996.438918 955.044789 0.001007194
19.27224 989.30658 993.483859 954.958266 0.001010809
19.28104 986.59326 990.835279 954.871376 0.001013589
19.28985 984.46332 988.487365 954.784125 0.001015782
19.29865 982.82538 986.43207 954.696514 0.001017475
19.30745 982.10388 984.658762 954.608597 0.001018222
19.31625 981.08331 983.152093 954.520326 0.001019281
19.32505 979.94434 981.897309 954.431755 0.001020466
19.33386 979.49493 980.876117 954.342877 0.001020934
19.34266 979.19073 980.070723 954.253723 0.001021251
19.35146 979.42761 979.461958 954.164297 0.001021005
19.36026 979.51489 979.03143 954.074622 0.001020914
19.36906 979.453 978.761075 953.984689 0.001020978
19.37787 979.5293 978.636069 953.89451 0.001020899
19.38667 979.79388 978.643128 953.804119 0.001020623
19.39547 978.94971 978.772747 953.713507 0.001021503
19.40427 978.74182 979.020938 953.622706 0.00102172
19.41307 979.10065 979.389237 953.531738 0.001021345
19.42188 979.61255 979.886316 953.440564 0.001020812
19.43068 979.37927 980.527553 953.349237 0.001021055
19.43948 979.41248 981.334404 953.257748 0.00102102
19.44828 979.86041 982.333878 953.166128 0.001020554
19.45709 980.11084 983.556496 953.074368 0.001020293
19.46589 981.01904 985.035335 952.982501 0.001019348
19.47469 982.51923 986.803358 952.890547 0.001017792
19.48349 983.78247 988.894332 952.798466 0.001016485
19.49229 985.45093 991.338534 952.706311 0.001014764
19.50110 987.0274 994.162829 952.61407 0.001013143
19.50990 989.60583 997.389469 952.521775 0.001010503
19.51870 992.82672 1001.034214 952.429417 0.001007225
19.52750 997.20276 1005.097181 952.337046 0.001002805
19.53630 1002.91 1009.594867 952.244622 0.000997098
19.54511 1009.6079 1014.508857 952.152164 0.000990484
19.55391 1016.9396 1019.818335 952.059703 0.000983343
19.56271 1025.2614 1025.490126 951.967229 0.000975361
19.57151 1033.5863 1031.478 951.874772 0.000967505
19.58032 1042.7737 1037.721124 951.78232 0.000958981
19.58912 1052.9305 1044.141987 951.689925 0.00094973
19.59792 1064.9071 1050.653299 951.597544 0.000939049
19.60672 1075.4365 1057.14852 951.505196 0.000929855
19.61552 1086.0045 1063.511665 951.412911 0.000920806
19.62433 1096.0697 1069.618927 951.320678 0.000912351
19.63313 1104.9794 1075.343486 951.228525 0.000904994
19.64193 1109.783 1080.558075 951.136462 0.000901077
19.65073 1114.3586 1085.144495 951.044476 0.000897377
19.65953 1115.7454 1088.986994 950.952586 0.000896262
19.66834 1115.8335 1091.980401 950.860789 0.000896191
19.67714 1113.6777 1094.031749 950.769115 0.000897926
19.68594 1110.9996 1095.065154 950.67755 0.00090009
19.69474 1106.8018 1095.026519 950.586124 0.000903504
19.70354 1101.974 1093.903101 950.494843 0.000907462
19.71235 1093.9805 1091.712832 950.403695 0.000914093
19.72115 1085.4171 1088.517509 950.312697 0.000921305
19.72995 1076.2994 1084.418022 950.221847 0.00092911
19.73875 1068.4183 1079.545099 950.131172 0.000935963
19.74756 1059.631 1074.04778 950.040658 0.000943725
19.75636 1051.3364 1068.083515 949.950354 0.00095117
19.76516 1043.6276 1061.80078 949.860204 0.000958196
19.77396 1037.0259 1055.342557 949.770256 0.000964296
19.78276 1030.2283 1048.833812 949.680507 0.000970659
19.79157 1023.9557 1042.38278 949.590953 0.000976605
19.80037 1018.8803 1036.080051 949.50162 0.00098147
19.80917 1013.6128 1029.999721 949.412494 0.00098657
19.81797 1008.5557 1024.202483 949.323621 0.000991517
19.82678 1004.3816 1018.730632 949.234948 0.000995638
19.83558 1000.4568 1013.61927 949.146519 0.000999543
19.84438 996.87415 1008.89006 949.058332 0.001003136
19.85318 994.11023 1004.553964 948.97038 0.001005925
19.86198 991.80725 1000.611489 948.88269 0.00100826
19.87079 989.53479 997.054187 948.795267 0.001010576
19.87959 987.61798 993.861889 948.708097 0.001012537
19.88839 986.02039 991.0095 948.621184 0.001014178
19.89719 984.54352 988.464917 948.534553 0.001015699
19.90599 982.79309 986.191561 948.4482 0.001017508
19.91480 981.72626 984.150757 948.36212 0.001018614
19.92360 980.56213 982.30393 948.276337 0.001019823
19.93240 979.6109 980.615206 948.190856 0.001020813
19.94120 978.35022 979.051936 948.105662 0.001022129
19.95001 977.04938 977.588292 948.020759 0.00102349
19.95881 975.90369 976.205135 947.936172 0.001024691
19.96761 974.20001 974.889506 947.851896 0.001026483
19.97641 972.99023 973.634809 947.767924 0.00102776
19.98521 972.83344 972.439725 947.684301 0.001027925
19.99402 972.12939 971.303208 947.600972 0.00102867
20.00282 970.81464 970.235345 947.517981 0.001030063
20.01162 970.04236 969.239479 947.435312 0.001030883
20.02042 969.45813 968.32283 947.35299 0.001031504
20.02922 969.01312 967.491971 947.271007 0.001031978
20.03803 968.51105 966.753495 947.189361 0.001032513
20.04683 967.75916 966.113352 947.108091 0.001033315
20.05563 967.38037 965.57597 947.027146 0.00103372
20.06443 966.74017 965.145444 946.946568 0.001034404
20.07324 966.5296 964.82396 946.866342 0.001034629
20.08204 967.22327 964.612749 946.786491 0.001033887
20.09084 967.86871 964.511213 946.70701 0.001033198
20.09964 968.52655 964.517357 946.627912 0.001032496
20.10844 968.65094 964.627646 946.549184 0.001032364
20.11725 968.37122 964.836826 946.47083 0.001032662
20.12605 968.66064 965.138085 946.392872 0.001032353
20.13485 969.4903 965.522937 946.315297 0.00103147
20.14365 970.89935 965.981317 946.238127 0.001029973
20.15245 971.95013 966.501753 946.161358 0.001028859
20.16126 972.2265 967.071441 946.085003 0.001028567
20.17006 972.44836 967.677326 946.009051 0.001028332
20.17886 973.61957 968.305818 945.933505 0.001027095
20.18766 975.18323 968.944004 945.858388 0.001025448
20.19646 976.54517 969.580128 945.783689 0.001024018
20.20527 977.23328 970.20403 945.709429 0.001023297
20.21407 977.75922 970.80694 945.635623 0.001022747
20.22287 978.08667 971.381948 945.562234 0.001022404
20.23167 978.76434 971.922523 945.489301 0.001021696
20.24047 979.10583 972.422306 945.416814 0.00102134
20.24928 978.56342 972.874879 945.344795 0.001021906
20.25808 977.96954 973.273076 945.273235 0.001022527
20.26688 978.15302 973.60975 945.202157 0.001022335
20.27568 979.15808 973.877881 945.131575 0.001021286
20.28449 979.49774 974.072311 945.061456 0.001020931
20.29329 979.52222 974.19045 944.991839 0.001020906
20.30209 979.39117 974.23368 944.922717 0.001021042
20.31089 979.05768 974.208285 944.854114 0.00102139
20.31969 979.00336 974.125498 944.786021 0.001021447
20.32850 978.72327 974.00121 944.718478 0.001021739
20.33730 978.86414 973.85474 944.651456 0.001021592
20.34610 978.45453 973.707974 944.584972 0.00102202
20.35490 978.5498 973.583722 944.51905 0.00102192
20.36370 979.27655 973.505209 944.453685 0.001021162
20.37251 980.02509 973.494749 944.388903 0.001020382
20.38131 979.77985 973.574109 944.324699 0.001020637
20.39011 980.12378 973.763277 944.261115 0.001020279
20.39891 980.90466 974.081178 944.198124 0.001019467
20.40771 981.10693 974.545444 944.135748 0.001019257
20.41652 980.58673 975.171289 944.074012 0.001019798
20.42532 980.64832 975.973145 944.012915 0.001019734
20.43412 981.40002 976.962791 943.952486 0.001018952
20.44292 982.26373 978.15094 943.892737 0.001018057
20.45172 982.63318 979.546919 943.833671 0.001017674
20.46053 983.61621 981.157918 943.775309 0.001016657
20.46933 984.34943 982.990561 943.71766 0.001015899
20.47813 984.89044 985.048898 943.660754 0.001015341
20.48693 986.26367 987.336684 943.604595 0.001013928
20.49574 987.87299 989.854451 943.549214 0.001012276
20.50454 989.16064 992.601972 943.494629 0.001010958
20.51334 990.96606 995.576527 943.440846 0.001009116
20.52214 992.33234 998.772486 943.387891 0.001007727
20.53094 994.1839 1002.181727 943.33578 0.00100585
20.53975 996.93152 1005.794555 943.284544 0.001003078
20.54855 999.86609 1009.599509 943.234196 0.001000134
20.55735 1002.5928 1013.584001 943.18478 0.000997414
20.56615 1005.5489 1017.739593 943.136286 0.000994482
20.57495 1009.3599 1022.053849 943.088761 0.000990727
20.58376 1013.7226 1026.518085 943.042226 0.000986463
20.59256 1017.5307 1031.123957 942.9967 0.000982771
20.60136 1021.4179 1035.856363 942.952223 0.000979031
20.61016 1025.6698 1040.700248 942.908812 0.000974973
20.61896 1030.6945 1045.626528 942.866516 0.00097022
20.62777 1034.4701 1050.602262 942.825337 0.000966678
20.63657 1038.1549 1055.578392 942.785324 0.000963247
20.64537 1041.572 1060.49344 942.746505 0.000960087
20.65417 1045.5542 1065.27489 942.70891 0.000956431
20.66298 1050.7976 1069.837433 942.672582 0.000951658
20.67178 1056.5864 1074.090792 942.637556 0.000946444
20.68058 1062.7745 1077.945142 942.603861 0.000940933
20.68938 1069.3662 1081.312332 942.571536 0.000935133
20.69818 1075.9744 1084.118905 942.540628 0.00092939
20.70699 1084.1346 1086.308263 942.511173 0.000922395
20.71579 1092.1855 1087.847295 942.483211 0.000915595
20.72459 1096.3379 1088.723806 942.456791 0.000912128
20.73339 1096.569 1088.946276 942.431957 0.000911935
20.74219 1095.7314 1088.536485 942.40875 0.000912632
20.75100 1094.3628 1087.525819 942.387218 0.000913774
20.75980 1092.422 1085.94607 942.367415 0.000915397
20.76860 1090.5182 1083.833132 942.349389 0.000916995
20.77741 1088.446 1081.216926 942.333191 0.000918741
20.78620 1084.4115 1078.133276 942.318881 0.000922159
20.79501 1079.5219 1074.613149 942.306504 0.000926336
20.80381 1074.0585 1070.69939 942.296124 0.000931048
20.81261 1068.2216 1066.436351 942.287797 0.000936135
20.82141 1061.1931 1061.878804 942.281585 0.000942336
20.83022 1054.598 1057.08453 942.27755 0.000948229
20.83902 1048.4537 1052.113075 942.275756 0.000953786
20.84782 1041.7253 1047.029217 942.276267 0.000959946
20.85662 1035.417 1041.887085 942.279154 0.000965794
20.86542 1029.2964 1036.741492 942.284484 0.000971537
20.87423 1023.8423 1031.638817 942.292331 0.000976713
20.88303 1018.9135 1026.61798 942.302767 0.000981438
20.89183 1013.7637 1021.7112 942.315867 0.000986423
20.90063 1009.6251 1016.945174 942.331708 0.000990467
20.90943 1006.6287 1012.337425 942.350374 0.000993415
20.91824 1003.1503 1007.904049 942.371948 0.00099686
20.92704 1000.0765 1003.6583 942.396509 0.000999924
20.93584 997.86218 999.609054 942.42415 0.001002142
20.94465 995.50525 995.763028 942.454953 0.001004515
20.95345 993.39233 992.12721 942.489013 0.001006652
20.96225 991.25134 988.706318 942.526419 0.001008826
20.97105 988.69543 985.504981 942.567276 0.001011434
20.97985 986.67816 982.527835 942.611684 0.001013502
20.98866 984.77362 979.779474 942.659735 0.001015462
20.99746 983.0838 977.262809 942.711543 0.001017207
21.00626 981.32141 974.981216 942.767203 0.001019034
21.01506 980.30511 972.93715 942.826817 0.001020091
21.02386 979.21802 971.131215 942.890532 0.001021223
21.03267 977.43182 969.565664 942.958434 0.001023089
21.04147 976.47577 968.241656 943.030658 0.001024091
21.05027 975.83533 967.160785 943.107307 0.001024763
21.05907 974.73383 966.324778 943.188514 0.001025921
21.06788 974.46381 965.735424 943.274416 0.001026205
21.07668 974.70392 965.395544 943.365102 0.001025953
21.08548 974.22693 965.307914 943.460767 0.001026455
21.09428 974.61279 965.475429 943.561506 0.001026049
21.10308 975.31604 965.901609 943.667481 0.001025309
21.11189 975.65002 966.588835 943.778813 0.001024958
21.12069 976.83569 967.5398 943.895658 0.001023714
21.12949 977.76434 968.755596 944.018152 0.001022741
21.13829 979.39581 970.236389 944.146477 0.001021038
21.14709 981.20001 971.980115 944.280793 0.00101916
21.15590 982.57416 973.982478 944.421229 0.001017735
21.16470 984.28027 976.236384 944.567981 0.001015971
21.17350 987.03009 978.731418 944.721185 0.00101314
21.18230 989.25665 981.453295 944.881029 0.00101086
21.19110 991.75964 984.384164 945.04767 0.001008309
21.19991 994.36383 987.501846 945.221325 0.001005668
21.20871 997.07336 990.780284 945.402182 0.001002935
21.21751 999.37305 994.186054 945.590386 0.001000627
21.22631 1001.0258 997.684253 945.786175 0.000998975
21.23512 1002.2969 1001.231354 945.989698 0.000997708
21.24392 1004.4525 1004.781525 946.201156 0.000995567
21.25272 1006.4059 1008.283974 946.420801 0.000993635
21.26152 1008.4003 1011.682726 946.64882 0.00099167
21.27032 1010.7581 1014.919793 946.885454 0.000989356
21.27913 1012.8075 1017.935092 947.130869 0.000987354
21.28793 1014.5532 1020.670108 947.385345 0.000985656
21.29673 1015.9949 1023.06838 947.649051 0.000984257
21.30553 1017.3436 1025.079827 947.922219 0.000982952
21.31433 1018.8157 1026.663286 948.205149 0.000981532
21.32314 1020.5038 1027.787613 948.498054 0.000979908
21.33194 1021.2177 1028.434965 948.801217 0.000979223
21.34074 1021.7563 1028.601165 949.114822 0.000978707
21.34954 1022.031 1028.296339 949.439202 0.000978444
21.35834 1021.2746 1027.544507 949.774467 0.000979169
21.36715 1019.8924 1026.380322 950.121118 0.000980496
21.37595 1018.0926 1024.84868 950.479274 0.000982229
21.38475 1015.613 1023.000616 950.849257 0.000984627
21.39355 1013.323 1020.891271 951.231396 0.000986852
21.40236 1011.1125 1018.57609 951.625898 0.00098901
21.41116 1008.2419 1016.109531 952.033149 0.000991825
21.41996 1005.9293 1013.543014 952.453265 0.000994106
21.42876 1004.345 1010.920848 952.886842 0.000995674
21.43756 1002.3047 1008.284408 953.334004 0.000997701
21.44637 1000.4396 1005.667922 953.795123 0.000999561
21.45517 999.04797 1003.098806 954.270581 0.001000953
21.46397 998.72168 1000.601317 954.760606 0.00100128
21.47277 998.36908 998.192872 955.265536 0.001001634
21.48157 998.01367 995.887301 955.785833 0.00100199
21.49038 997.14526 993.696407 956.321857 0.001002863
21.49918 996.46265 991.628772 956.873849 0.00100355
21.50798 996.3158 989.692008 957.442238 0.001003698
21.51678 995.55664 987.891692 958.027466 0.001004463
21.52558 995.11017 986.233237 958.629646 0.001004914
21.53439 994.92828 984.718811 959.249578 0
21.54319 994.06055 0 0 0
21.55199 993.33588 0 0 0
21.56079 992.28412 0 0 0
21.56959 992.13232 0 0 0
21.57840 991.75519 0 0 0
21.58720 991.30914 0 0 0
21.59600 991.00873 0 0 0
21.60480 990.31586 0 0 0
21.61360 990.53174 0 0 0
21.62241 990.85748 0 0 0
21.63121 990.49438 0 0 0
21.64001 989.75562 0 0 0
21.64881 989.9295 0 0 0
21.65762 990.06317 0 0 0
21.66642 989.23474 0 0 0
21.67522 988.44427 0 0 0
21.68402 987.50958 0 0 0
21.69282 987.42365 0 0 0
21.70163 986.97687 0 0 0
21.71043 986.45319 0 0 0
21.71923 986.08124 0 0 0
21.72803 985.76886 0 0 0
21.73683 985.00702 0 0 0
21.74564 985.12585 0 0 0
21.75444 985.26355 0 0 0
21.76324 984.71802 0 0 0
21.77204 984.00873 0 0 0
21.78085 982.5108 0 0 0
21.78965 981.17432 0 0 0
21.79845 980.5304 0 0 0
21.80725 980.03448 0 0 0
21.81605 979.04401 0 0 0
21.82486 976.99585 0 0 0
21.83366 975.87762 0 0 0
21.84246 974.80493 0 0 0
21.85126 974.14935 0 0 0
21.86006 973.58875 0 0 0
21.86887 971.62439 0 0 0
21.87767 970.01239 0 0 0
21.88647 969.50208 0 0 0
21.89527 968.65082 0 0 0
21.90408 967.37415 0 0 0
21.91288 966.79388 0 0 0
21.92168 965.85907 0 0 0
21.93048 965.3172 0 0 0
21.93928 965.67108 0 0 0
21.94809 966.17749 0 0 0
21.95689 966.24335 0 0 0
21.96569 965.90216 0 0 0
21.97449 965.80322 0 0 0
21.98329 965.58276 0 0 0
21.99210 964.69727 0 0 0
22.00090 963.53473 0 0 0
22.00970 962.367 0 0 0
22.01850 961.94318 0 0 0
22.02731 961.95648 0 0 0
22.03611 961.55774 0 0 0
22.04491 960.63947 0 0 0
22.05371 959.93689 0 0 0
22.06251 959.24164 0 0 0
22.07132 958.29883 0 0 0
22.08012 957.61487 0 0 0
22.08892 957.25507 0 0 0
22.09772 956.75751 0 0 0
22.10652 956.12762 0 0 0
22.11533 956.12622 0 0 0
22.12413 955.70947 0 0 0
22.13293 954.90503 0 0 0
22.14173 954.52155 0 0 0
22.15054 955.11993 0 0 0
22.15934 954.56628 0 0 0
22.16814 953.90961 0 0 0
22.17694 953.56616 0 0 0
22.18574 952.76563 0 0 0
22.19455 952.05011 0 0 0
22.20335 951.52197 0 0 0
22.21215 950.66357 0 0 0
22.22095 950.60992 0 0 0
22.22975 950.58142 0 0 0
22.23856 950.11768 0 0 0
22.24736 949.57562 0 0 0
22.25616 949.06592 0 0 0
22.26496 949.46021 0 0 0
22.27376 949.47058 0 0 0
22.28257 949.34644 0 0 0
22.29137 949.401 0 0 0
22.30017 949.46405 0 0 0
22.30897 949.20599 0 0 0
22.31778 949.01941 0 0 0
22.32658 949.21832 0 0 0
22.33538 949.42896 0 0 0
22.34418 949.88367 0 0 0
22.35298 950.33209 0 0 0
22.36179 949.82532 0 0 0
22.37059 950.49603 0 0 0
22.37939 951.30072 0 0 0
22.38819 951.38898 0 0 0
22.39699 951.5849 0 0 0
22.40580 951.20856 0 0 0
22.41460 951.72302 0 0 0
22.42340 953.33154 0 0 0
22.43220 954.12378 0 0 0
22.44100 954.2934 0 0 0
22.44981 954.34509 0 0 0
22.45861 954.34827 0 0 0
22.46741 954.35583 0 0 0
22.47621 954.32257 0 0 0
22.48502 954.01727 0 0 0
22.49382 953.95062 0 0 0
22.50262 954.17511 0 0 0
22.51142 954.42603 0 0 0
22.52022 954.80377 0 0 0
22.52903 955.54797 0 0 0
22.53783 956.37061 0 0 0
22.54663 956.69513 0 0 0
22.55543 957.44873 0 0 0
22.56423 957.6842 0 0 0
22.57304 957.8432 0 0 0
22.58184 957.81659 0 0 0
22.59064 957.81726 0 0 0
22.59944 958.07233 0 0 0
22.60825 958.6369 0 0 0
22.61705 959.53052 0 0 0
22.62585 960.62213 0 0 0
22.63465 961.30841 0 0 0
22.64345 963.07874 0 0 0
22.65226 964.51257 0 0 0
22.66106 965.00726 0 0 0
22.66986 965.25647 0 0 0
22.67866 965.74054 0 0 0
22.68746 967.90979 0 0 0
22.69627 970.22668 0 0 0
22.70507 971.37164 0 0 0
22.71387 972.06799 0 0 0
22.72267 972.85516 0 0 0
22.73147 974.0014 0 0 0
22.74028 975.5744 0 0 0
22.74908 976.90887 0 0 0
22.75788 978.07367 0 0 0
22.76668 979.42487 0 0 0
22.77549 981.2818 0 0 0
22.78429 982.52441 0 0 0
22.79309 984.48193 0 0 0
22.80189 986.80029 0 0 0
22.81069 989.24243 0 0 0
22.81950 991.76605 0 0 0
22.82830 995.11676 0 0 0
22.83710 998.04352 0 0 0
22.84590 1001.201 0 0 0
22.85470 1003.8683 0 0 0
22.86351 1006.8145 0 0 0
22.87231 1011.6842 0 0 0
22.88111 1016.9861 0 0 0
22.88991 1021.332 0 0 0
22.89871 1024.1047 0 0 0
22.90752 1026.8134 0 0 0
22.91632 1028.3898 0 0 0
22.92512 1029.385 0 0 0
22.93392 1030.8866 0 0 0
22.94273 1031.6493 0 0 0
22.95153 1029.8821 0 0 0
22.96033 1027.1871 0 0 0
22.96913 1023.5412 0 0 0
22.97793 1019.865 0 0 0
22.98674 1014.6716 0 0 0
22.99554 1008.8643 0 0 0
23.00434 1003.5677 0 0 0
23.01314 998.91168 0 0 0
23.02194 994.61884 0 0 0
23.03075 989.81525 0 0 0
23.03955 985.95819 0 0 0
23.04835 983.19379 0 0 0
23.05715 980.86694 0 0 0
23.06596 977.82642 0 0 0
23.07476 974.78461 0 0 0
23.08356 972.4845 0 0 0
23.09236 970.04358 0 0 0
23.10116 968.03668 0 0 0
23.10997 966.02795 0 0 0
23.11877 963.77905 0 0 0
23.12757 962.44775 0 0 0
23.13637 961.51495 0 0 0
23.14517 960.7525 0 0 0
23.15398 959.64844 0 0 0
23.16278 958.2652 0 0 0
23.17158 957.13269 0 0 0
23.18038 956.26331 0 0 0
23.18918 955.66034 0 0 0
23.19799 955.68085 0 0 0
23.20679 955.38458 0 0 0
23.21559 953.98615 0 0 0
23.22439 953.2287 0 0 0
23.23320 952.98669 0 0 0
23.24200 953.05371 0 0 0
23.25080 953.75037 0 0 0
23.25960 953.1073 0 0 0
23.26840 951.75079 0 0 0
23.27721 951.25287 0 0 0
23.28601 950.73132 0 0 0
23.29481 949.82867 0 0 0
23.30361 949.31195 0 0 0
23.31241 949.63635 0 0 0
23.32122 949.89264 0 0 0
23.33002 949.93201 0 0 0
23.33882 949.85321 0 0 0
23.34762 948.85034 0 0 0
23.35642 948.46185 0 0 0
23.36523 948.43335 0 0 0
23.37403 948.08661 0 0 0
23.38283 948.10345 0 0 0
23.39163 948.11493 0 0 0
23.40044 948.6416 0 0 0
23.40924 949.99054 0 0 0
23.41804 950.82813 0 0 0
23.42684 950.85095 0 0 0
23.43564 950.65948 0 0 0
23.44445 950.12616 0 0 0
23.45325 950.23792 0 0 0
23.46205 951.59033 0 0 0
23.47085 952.55518 0 0 0
23.47965 953.18433 0 0 0
23.48846 953.75812 0 0 0
23.49726 954.43768 0 0 0
23.50606 955.21429 0 0 0
23.51486 956.26337 0 0 0
23.52367 956.73242 0 0 0
23.53247 957.70892 0 0 0
23.54127 958.84302 0 0 0
23.55007 960.8609 0 0 0
23.55887 962.23645 0 0 0
23.56768 963.22925 0 0 0
23.57648 963.88104 0 0 0
23.58528 964.3222 0 0 0
23.59408 964.63861 0 0 0
23.60288 964.80298 0 0 0
23.61169 965.44373 0 0 0
23.62049 965.92792 0 0 0
23.62929 965.33075 0 0 0
23.63809 965.40039 0 0 0
23.64689 966.11505 0 0 0
23.65570 966.5365 0 0 0
23.66450 966.7959 0 0 0
23.67330 966.83197 0 0 0
23.68210 967.08661 0 0 0
23.69091 966.73175 0 0 0
23.69971 966.65802 0 0 0
23.70851 966.5816 0 0 0
23.71731 966.21088 0 0 0
23.72611 966.37518 0 0 0
23.73492 967.28937 0 0 0
23.74372 967.21771 0 0 0
23.75252 966.58881 0 0 0
23.76132 966.32556 0 0 0
23.77012 966.07098 0 0 0
23.77893 966.15637 0 0 0
23.78773 965.61786 0 0 0
23.79653 965.64111 0 0 0
23.80533 966.44122 0 0 0
23.81414 967.09845 0 0 0
23.82294 967.5022 0 0 0
23.83174 968.58295 0 0 0
23.84054 969.63782 0 0 0
23.84934 970.28992 0 0 0
23.85815 970.62164 0 0 0
23.86695 971.32556 0 0 0
23.87575 971.83209 0 0 0
23.88455 972.16644 0 0 0
23.89335 972.69855 0 0 0
23.90216 973.23456 0 0 0
23.91096 973.0506 0 0 0
23.91976 972.58765 0 0 0
23.92856 970.87982 0 0 0
23.93736 968.97119 0 0 0
23.94617 968.14911 0 0 0
23.95497 967.81927 0 0 0
23.96377 967.62549 0 0 0
23.97257 966.32385 0 0 0
23.98137 964.80853 0 0 0
23.99018 963.8606 0 0 0
23.99898 963.2915 0 0 0
24.00778 962.55078 0 0 0
24.01658 962.17041 0 0 0
24.02539 961.59259 0 0 0
24.03419 960.57758 0 0 0
24.04299 959.90125 0 0 0
24.05179 959.84546 0 0 0
24.06059 960.81329 0 0 0
24.06940 961.34619 0 0 0
24.07820 962.11865 0 0 0
24.08700 962.45074 0 0 0
24.09580 962.00769 0 0 0
24.10460 962.04211 0 0 0
24.11341 962.85504 0 0 0
24.12221 963.7569 0 0 0
24.13101 964.62421 0 0 0
24.13981 965.45966 0 0 0
24.14862 966.19733 0 0 0
24.15742 966.85199 0 0 0
24.16622 968.44818 0 0 0
24.17502 969.89496 0 0 0
24.18382 970.55615 0 0 0
24.19263 971.05267 0 0 0
24.20143 971.82581 0 0 0
24.21023 973.47253 0 0 0
24.21903 974.56708 0 0 0
24.22783 974.95172 0 0 0
24.23664 975.32935 0 0 0
24.24544 976.69049 0 0 0
24.25424 977.36707 0 0 0
24.26304 977.59918 0 0 0
24.27184 977.44739 0 0 0
24.28065 978.1676 0 0 0
24.28945 979.03137 0 0 0
24.29825 978.80304 0 0 0
24.30705 978.64923 0 0 0
24.31586 979.13611 0 0 0
24.32466 980.35504 0 0 0
24.33346 980.67511 0 0 0
24.34226 980.53711 0 0 0
24.35106 981.21338 0 0 0
24.35987 981.4411 0 0 0
24.36867 980.69562 0 0 0
24.37747 980.41241 0 0 0
24.38627 980.23383 0 0 0
24.39507 979.67438 0 0 0
24.40388 978.92529 0 0 0
24.41268 978.38074 0 0 0
24.42148 978.52582 0 0 0
24.43029 979.40601 0 0 0
24.43908 979.26868 0 0 0
24.44789 978.84503 0 0 0
24.45669 979.76849 0 0 0
24.46549 979.78217 0 0 0
24.47430 980.16553 0 0 0
24.48310 982.20258 0 0 0
24.49190 984.62714 0 0 0
24.50070 985.95221 0 0 0
24.50950 986.70221 0 0 0
24.51831 987.99921 0 0 0
24.52711 990.87836 0 0 0
24.53591 993.80597 0 0 0
24.54471 996.77631 0 0 0
24.55351 999.02283 0 0 0
24.56232 1000.7545 0 0 0
24.57112 1002.854 0 0 0
24.57992 1004.9159 0 0 0
24.58872 1006.4761 0 0 0
24.59753 1007.0049 0 0 0
24.60633 1009.3527 0 0 0
24.61513 1011.6127 0 0 0
24.62393 1013.512 0 0 0
24.63273 1016.1472 0 0 0
24.64154 1018.685 0 0 0
24.65034 1019.8697 0 0 0
24.65914 1021.2285 0 0 0
24.66794 1021.9601 0 0 0
24.67674 1021.4702 0 0 0
24.68555 1021.0109 0 0 0
24.69435 1019.9178 0 0 0
24.70315 1018.1241 0 0 0
24.71195 1016.7676 0 0 0
24.72076 1015.1819 0 0 0
24.72956 1013.3282 0 0 0
24.73836 1012.0163 0 0 0
24.74716 1010.139 0 0 0
24.75596 1008.2946 0 0 0
24.76477 1006.343 0 0 0
24.77357 1004.356 0 0 0
24.78237 1001.9083 0 0 0
24.79117 998.2995 0 0 0
24.79997 995.04694 0 0 0
24.80878 991.76215 0 0 0
24.81758 988.54089 0 0 0
24.82638 985.76953 0 0 0
24.83518 982.80334 0 0 0
24.84398 980.53912 0 0 0
24.85279 978.46515 0 0 0
24.86159 976.63617 0 0 0
24.87039 975.74689 0 0 0
24.87919 975.11639 0 0 0
24.88800 973.48676 0 0 0
24.89680 972.59839 0 0 0
24.90560 972.76221 0 0 0
24.91440 972.89136 0 0 0
24.92320 972.92102 0 0 0
24.93201 972.77344 0 0 0
24.94081 972.67737 0 0 0
24.94961 973.44812 0 0 0
24.95841 974.41833 0 0 0
24.96721 976.01074 0 0 0
24.97602 978.48053 0 0 0
24.98482 980.60498 0 0 0
24.99362 981.94592 0 0 0
25.00242 983.22919 0 0 0
25.01122 984.77911 0 0 0
25.02003 986.9953 0 0 0
25.02883 988.35199 0 0 0
25.03763 988.57825 0 0 0
25.04643 988.33228 0 0 0
25.05523 987.62714 0 0 0
25.06404 987.99268 0 0 0
25.07284 988.12744 0 0 0
25.08164 989.151 0 0 0
25.09044 989.59064 0 0 0
25.09924 990.0733 0 0 0
25.10805 989.48169 0 0 0
25.11685 988.75018 0 0 0
25.12565 987.93237 0 0 0
25.13445 986.76318 0 0 0
25.14325 986.19568 0 0 0
25.15206 985.34692 0 0 0
25.16086 983.35828 0 0 0
25.16966 979.70349 0 0 0
25.17846 976.65588 0 0 0
25.18727 974.21338 0 0 0
25.19607 971.9624 0 0 0
25.20487 969.74976 0 0 0
25.21367 968.35138 0 0 0
25.22247 966.1535 0 0 0
25.23128 963.79401 0 0 0
25.24008 961.96661 0 0 0
25.24888 959.98853 0 0 0
25.25768 957.68091 0 0 0
25.26648 955.37573 0 0 0
25.27529 953.95862 0 0 0
25.28409 952.17627 0 0 0
25.29289 950.96027 0 0 0
25.30169 950.12653 0 0 0
25.31049 948.65472 0 0 0
25.31930 947.65253 0 0 0
25.32810 947.07574 0 0 0
25.33690 947.38153 0 0 0
25.34570 947.7865 0 0 0
25.35451 947.37299 0 0 0
25.36331 947.57391 0 0 0
25.37211 948.17889 0 0 0
25.38091 948.35602 0 0 0
25.38971 948.32379 0 0 0
25.39852 948.80017 0 0 0
25.40732 949.24902 0 0 0
25.41612 948.68042 0 0 0
25.42492 948.68628 0 0 0
25.43372 949.34314 0 0 0
25.44253 950.93311 0 0 0
25.45133 951.953 0 0 0
25.46013 952.31207 0 0 0
25.46893 953.50049 0 0 0
25.47774 954.58093 0 0 0
25.48654 955.09619 0 0 0
25.49534 956.60602 0 0 0
25.50414 958.26172 0 0 0
25.51294 958.32471 0 0 0
25.52175 959.39117 0 0 0
25.53055 959.81537 0 0 0
25.53935 960.27045 0 0 0
25.54815 961.06128 0 0 0
25.55695 960.84949 0 0 0
25.56576 960.43219 0 0 0
25.57456 960.6377 0 0 0
25.58336 960.69318 0 0 0
25.59216 959.61951 0 0 0
25.60096 958.96442 0 0 0
25.60977 958.6225 0 0 0
25.61857 958.15875 0 0 0
25.62737 957.75171 0 0 0
25.63618 956.96832 0 0 0
25.64498 956.17151 0 0 0
25.65378 955.28113 0 0 0
25.66258 954.62848 0 0 0
25.67138 953.55511 0 0 0
25.68019 951.66144 0 0 0
25.68899 950.66791 0 0 0
25.69779 949.94867 0 0 0
25.70659 948.71149 0 0 0
25.71539 947.75012 0 0 0
25.72420 946.63873 0 0 0
25.73300 945.22144 0 0 0
25.74180 944.08875 0 0 0
25.75060 943.96753 0 0 0
25.75940 942.6261 0 0 0
25.76821 941.34467 0 0 0
25.77701 941.02509 0 0 0
25.78581 941.18274 0 0 0
25.79461 940.87079 0 0 0
25.80342 939.75641 0 0 0
25.81222 939.48865 0 0 0
25.82102 938.7937 0 0 0
25.82982 939.45087 0 0 0
25.83862 941.23895 0 0 0
25.84743 941.45862 0 0 0
25.85623 942.10583 0 0 0
25.86503 942.18463 0 0 0
25.87383 941.96429 0 0 0
25.88263 943.27307 0 0 0
25.89144 944.0426 0 0 0
25.90024 944.30884 0 0 0
25.90904 945.53839 0 0 0
25.91784 946.78967 0 0 0
25.92664 948.01233 0 0 0
25.93545 949.36163 0 0 0
25.94425 950.65265 0 0 0
25.95305 952.22168 0 0 0
25.96185 953.57794 0 0 0
25.97066 954.34894 0 0 0
25.97946 956.57013 0 0 0
25.98826 957.87256 0 0 0
25.99706 959.44977 0 0 0
26.00586 959.99536 0 0 0
26.01467 961.39569 0 0 0
26.02347 963.78223 0 0 0
26.03227 964.30151 0 0 0
26.04107 966.43097 0 0 0
26.04987 967.37805 0 0 0
26.05868 969.08081 0 0 0
26.06748 968.37189 0 0 0
26.07628 967.3421 0 0 0
26.08508 966.36102 0 0 0
26.09388 966.14331 0 0 0
26.10269 964.33826 0 0 0
26.11149 962.49426 0 0 0
26.12029 961.44733 0 0 0
26.12909 958.93982 0 0 0
26.13790 957.73267 0 0 0
26.14670 955.72095 0 0 0
26.15550 954.46301 0 0 0
26.16430 953.03943 0 0 0
26.17310 951.42438 0 0 0
26.18191 949.56775 0 0 0
26.19071 947.61414 0 0 0
26.19951 946.68237 0 0 0
26.20831 945.33472 0 0 0
26.21711 943.94739 0 0 0
26.22592 943.50195 0 0 0
26.23472 943.07135 0 0 0
26.24352 941.34143 0 0 0
26.25232 939.9455 0 0 0
26.26113 938.98535 0 0 0
26.26993 937.51495 0 0 0
26.27873 937.66241 0 0 0
26.28753 937.0896 0 0 0
26.29633 935.19989 0 0 0
26.30514 934.89331 0 0 0
26.31394 936.26587 0 0 0
26.32274 937.04633 0 0 0
26.33154 936.80829 0 0 0
26.34034 936.63422 0 0 0
26.34915 936.90344 0 0 0
26.35795 937.16223 0 0 0
26.36675 936.9599 0 0 0
26.37555 937.83252 0 0 0
26.38435 938.64478 0 0 0
26.39316 938.66858 0 0 0
26.40196 939.32916 0 0 0
26.41076 940.5379 0 0 0
26.41956 941.50616 0 0 0
26.42837 941.0863 0 0 0
26.43717 939.95911 0 0 0
26.44597 939.81403 0 0 0
26.45477 939.60864 0 0 0
26.46357 938.93488 0 0 0
26.47238 938.96924 0 0 0
26.48118 939.49396 0 0 0
26.48998 940.159 0 0 0
26.49878 941.04626 0 0 0
26.50758 940.88385 0 0 0
26.51639 939.99939 0 0 0
26.52519 940.13226 0 0 0
26.53399 939.93182 0 0 0
26.54279 939.37531 0 0 0
26.55159 939.41431 0 0 0
26.56040 939.50684 0 0 0
26.56920 939.0318 0 0 0
26.57800 937.80817 0 0 0
26.58680 936.97101 0 0 0
26.59561 936.3797 0 0 0
26.60441 935.59894 0 0 0
26.61321 935.24481 0 0 0
26.62201 934.57568 0 0 0
26.63081 933.98553 0 0 0
26.63962 933.76318 0 0 0
26.64842 932.77191 0 0 0
26.65722 932.34082 0 0 0
26.66602 932.79895 0 0 0
26.67482 932.92542 0 0 0
26.68363 932.38654 0 0 0
26.69243 931.66559 0 0 0
26.70123 932.45343 0 0 0
26.71003 933.138 0 0 0
26.71884 932.69366 0 0 0
26.72764 933.34546 0 0 0
26.73644 933.96509 0 0 0
26.74524 934.87323 0 0 0
26.75404 936.39246 0 0 0
26.76285 936.42102 0 0 0
26.77165 937.22131 0 0 0
26.78045 938.4054 0 0 0
26.78925 939.45929 0 0 0
26.79805 940.75549 0 0 0
26.80686 941.66675 0 0 0
26.81566 941.8811 0 0 0
26.82446 941.73541 0 0 0
26.83326 942.27423 0 0 0
26.84206 943.50433 0 0 0
26.85087 943.57245 0 0 0
26.85967 943.9104 0 0 0
26.86847 946.1145 0 0 0
26.87727 947.62921 0 0 0
26.88608 948.50269 0 0 0
26.89488 948.65717 0 0 0
26.90368 948.25598 0 0 0
26.91248 948.30658 0 0 0
26.92128 948.38647 0 0 0
26.93009 948.22394 0 0 0
26.93889 948.08533 0 0 0
26.94769 947.65039 0 0 0
26.95649 947.82446 0 0 0
26.96529 948.09412 0 0 0
26.97410 946.703 0 0 0
26.98290 946.03473 0 0 0
26.99170 945.96375 0 0 0
27.00050 946.05701 0 0 0
27.00930 945.77637 0 0 0
27.01811 944.05511 0 0 0
27.02691 944.16876 0 0 0
27.03571 945.65961 0 0 0
27.04451 946.08954 0 0 0
27.05332 946.53711 0 0 0
27.06212 946.50061 0 0 0
27.07092 946.42871 0 0 0
27.07972 948.08051 0 0 0
27.08852 950.05383 0 0 0
27.09733 949.82855 0 0 0
27.10613 949.21307 0 0 0
27.11493 948.57214 0 0 0
27.12373 947.34418 0 0 0
27.13253 945.72162 0 0 0
27.14134 943.42981 0 0 0
27.15014 941.21497 0 0 0
27.15894 939.07721 0 0 0
27.16774 937.30414 0 0 0
27.17655 935.94482 0 0 0
27.18535 934.47321 0 0 0
27.19415 932.9248 0 0 0
27.20295 930.8194 0 0 0
27.21175 928.67065 0 0 0
27.22056 926.17853 0 0 0
27.22936 924.22449 0 0 0
27.23816 923.54706 0 0 0
27.24696 922.08502 0 0 0
27.25576 921.26349 0 0 0
27.26457 921.57593 0 0 0
27.27337 920.83014 0 0 0
27.28217 919.60559 0 0 0
27.29097 919.88379 0 0 0
27.29977 920.02167 0 0 0
27.30858 919.28076 0 0 0
27.31738 918.82849 0 0 0
27.32618 919.76135 0 0 0
27.33498 920.13782 0 0 0
27.34379 919.93109 0 0 0
27.35259 919.3468 0 0 0
27.36139 917.6767 0 0 0
27.37019 916.60889 0 0 0
27.37899 916.41864 0 0 0
27.38780 917.39813 0 0 0
27.39660 917.95593 0 0 0
27.40540 917.75647 0 0 0
27.41420 917.79803 0 0 0
27.42300 918.09979 0 0 0
27.43181 919.00555 0 0 0
27.44061 919.33307 0 0 0
27.44941 919.10645 0 0 0
27.45821 918.66785 0 0 0
27.46701 918.21558 0 0 0
27.47582 918.76056 0 0 0
27.48462 918.29095 0 0 0
27.49342 917.85992 0 0 0
27.50222 919.57813 0 0 0
27.51103 920.96124 0 0 0
27.51983 921.18719 0 0 0
27.52863 920.97778 0 0 0
27.53743 919.9104 0 0 0
27.54623 919.17328 0 0 0
27.55504 918.57739 0 0 0
27.56384 917.13745 0 0 0
27.57264 916.08496 0 0 0
27.58144 916.52753 0 0 0
27.59024 915.84229 0 0 0
27.59905 914.99261 0 0 0
27.60785 916.28265 0 0 0
27.61665 916.80542 0 0 0
27.62545 915.49536 0 0 0
27.63426 914.57831 0 0 0
27.64306 914.57306 0 0 0
27.65186 914.67682 0 0 0
27.66066 914.81805 0 0 0
27.66946 913.90137 0 0 0
27.67827 913.05481 0 0 0
27.68707 913.4903 0 0 0
27.69587 913.92603 0 0 0
27.70467 914.31812 0 0 0
27.71347 915.12653 0 0 0
27.72228 915.40637 0 0 0
27.73108 914.61108 0 0 0
27.73988 914.57281 0 0 0
27.74868 915.62561 0 0 0
27.75748 915.99445 0 0 0
27.76629 916.38922 0 0 0
27.77509 916.50763 0 0 0
27.78389 916.5885 0 0 0
27.79269 917.38727 0 0 0
27.80150 917.61743 0 0 0
27.81030 917.24487 0 0 0
27.81910 917.89893 0 0 0
27.82790 919.18011 0 0 0
27.83670 918.8772 0 0 0
27.84551 918.08582 0 0 0
27.85431 918.31238 0 0 0
27.86311 918.97522 0 0 0
27.87191 918.47101 0 0 0
27.88071 917.65643 0 0 0
27.88952 917.80865 0 0 0
27.89832 918.48737 0 0 0
27.90712 919.10931 0 0 0
27.91592 919.42157 0 0 0
27.92472 920.13348 0 0 0
27.93353 921.13599 0 0 0
27.94233 921.82416 0 0 0
27.95113 922.7254 0 0 0
27.95993 925.11725 0 0 0
27.96874 925.98547 0 0 0
27.97754 925.55194 0 0 0
27.98634 926.43518 0 0 0
27.99514 928.19312 0 0 0
28.00394 928.02155 0 0 0
28.01275 927.11188 0 0 0
28.02155 927.11005 0 0 0
28.03035 927.6972 0 0 0
28.03915 929.16449 0 0 0
28.04796 930.89075 0 0 0
28.05676 931.49316 0 0 0
28.06556 931.04651 0 0 0
28.07436 931.83508 0 0 0
28.08316 931.42328 0 0 0
28.09196 930.81921 0 0 0
28.10077 930.33356 0 0 0
28.10957 929.40289 0 0 0
28.11837 928.40765 0 0 0
28.12717 928.67102 0 0 0
28.13598 929.19043 0 0 0
28.14478 928.74994 0 0 0
28.15358 927.57648 0 0 0
28.16238 925.91211 0 0 0
28.17119 924.81049 0 0 0
28.17999 924.27747 0 0 0
28.18879 923.82965 0 0 0
28.19759 921.55975 0 0 0
28.20639 919.78156 0 0 0
28.21520 918.69 0 0 0
28.22400 918.03516 0 0 0
28.23280 918.28625 0 0 0
28.24160 917.32941 0 0 0
28.25040 914.51715 0 0 0
28.25921 913.08502 0 0 0
28.26801 913.62756 0 0 0
28.27681 914.01886 0 0 0
28.28561 912.89313 0 0 0
28.29442 911.3974 0 0 0
28.30322 911.55267 0 0 0
28.31202 911.99689 0 0 0
28.32082 911.7851 0 0 0
28.32962 906 0 0 0
28.33843 889.51636 0 0 0
28.34723 886.25409 0 0 0
28.35603 894.90887 0 0 0
28.36483 896.41284 0 0 0
28.37363 896.9931 0 0 0
28.38244 898.55243 0 0 0
28.39124 899.40662 0 0 0
28.40004 898.81226 0 0 0
28.40884 899.802 0 0 0
28.41765 900.0719 0 0 0
28.42645 900.22345 0 0 0
28.43525 900.65131 0 0 0
28.44405 900.67548 0 0 0
28.45285 900.98151 0 0 0
28.46166 900.14038 0 0 0
28.47046 900.2644 0 0 0
28.47926 900.82397 0 0 0
28.48806 900.65393 0 0 0
28.49686 900.37921 0 0 0
28.50567 900.29395 0 0 0
28.51447 901.29358 0 0 0
28.52327 901.31329 0 0 0
28.53207 900.96954 0 0 0
28.54087 902.58453 0 0 0
28.54968 903.53394 0 0 0
28.55848 902.11603 0 0 0
28.56728 901.62537 0 0 0
28.57608 903.95496 0 0 0
28.58488 905.07996 0 0 0
28.59369 904.35364 0 0 0
28.60249 903.52142 0 0 0
28.61129 904.94098 0 0 0
28.62009 907.70721 0 0 0
28.62889 907.95502 0 0 0
28.63770 907.85974 0 0 0
28.64650 908.88995 0 0 0
28.65530 908.28107 0 0 0
28.66410 908.6001 0 0 0
28.67291 911.15009 0 0 0
28.68171 912.21863 0 0 0
28.69051 911.36908 0 0 0
28.69931 912.37524 0 0 0
28.70811 914.28894 0 0 0
28.71692 914.20978 0 0 0
28.72572 913.46619 0 0 0
28.73452 912.39746 0 0 0
28.74332 913.01227 0 0 0
28.75212 915.0033 0 0 0
28.76093 915.89557 0 0 0
28.76973 917.1792 0 0 0
28.77853 919.3031 0 0 0
28.78733 919.5802 0 0 0
28.79613 919.37683 0 0 0
28.80494 921.5401 0 0 0
28.81374 922.96497 0 0 0
28.82254 922.82373 0 0 0
28.83134 921.9964 0 0 0
28.84014 922.05511 0 0 0
28.84895 922.43103 0 0 0
28.85775 921.78143 0 0 0
28.86655 922.66187 0 0 0
28.87535 924.09149 0 0 0
28.88416 921.41516 0 0 0
28.89296 919.46783 0 0 0
28.90176 919.58392 0 0 0
28.91056 916.87122 0 0 0
28.91936 914.09882 0 0 0
28.92817 912.677 0 0 0
28.93697 911.07916 0 0 0
28.94577 909.85083 0 0 0
28.95457 907.41431 0 0 0
28.96337 905.40222 0 0 0
28.97218 905.09229 0 0 0
28.98098 904.54517 0 0 0
28.98978 903.02594 0 0 0
28.99858 902.29437 0 0 0
29.00738 902.3042 0 0 0
29.01619 901.48279 0 0 0
29.02499 899.40015 0 0 0
29.03379 898.93323 0 0 0
29.04259 898.97986 0 0 0
29.05140 898.66968 0 0 0
29.06020 899.04303 0 0 0
29.06900 898.70099 0 0 0
29.07780 898.64594 0 0 0
29.08660 899.11963 0 0 0
29.09541 900.46362 0 0 0
29.10421 900.76923 0 0 0
29.11301 899.48431 0 0 0
29.12181 899.7417 0 0 0
29.13061 899.99878 0 0 0
29.13942 899.77032 0 0 0
29.14822 899.63849 0 0 0
29.15702 898.33832 0 0 0
29.16583 897.40442 0 0 0
29.17463 897.98743 0 0 0
29.18343 897.97101 0 0 0
29.19223 898.33063 0 0 0
29.20103 899.37103 0 0 0
29.20984 898.56311 0 0 0
29.21864 897.54797 0 0 0
29.22744 897.43604 0 0 0
29.23624 897.64404 0 0 0
29.24504 898.27069 0 0 0
29.25384 898.7265 0 0 0
29.26265 897.27264 0 0 0
29.27145 897.19238 0 0 0
29.28025 897.93774 0 0 0
29.28906 896.4754 0 0 0
29.29785 895.60498 0 0 0
29.30666 896.87378 0 0 0
29.31546 897.10754 0 0 0
29.32426 895.02661 0 0 0
29.33307 894.55414 0 0 0
29.34187 895.61426 0 0 0
29.35067 895.47174 0 0 0
29.35947 893.21576 0 0 0
29.36827 891.90405 0 0 0
29.37708 893.97522 0 0 0
29.38588 893.90759 0 0 0
29.39468 892.83624 0 0 0
29.40348 893.11731 0 0 0
29.41228 892.39178 0 0 0
29.42109 892.12585 0 0 0
29.42989 890.74139 0 0 0
29.43869 889.85614 0 0 0
29.44749 891.00665 0 0 0
29.45630 891.77429 0 0 0
29.46510 892.02283 0 0 0
29.47390 890.90356 0 0 0
29.48270 891.85577 0 0 0
29.49150 892.10779 0 0 0
29.50031 890.17596 0 0 0
29.50911 890.40033 0 0 0
29.51791 890.4375 0 0 0
29.52671 891.62476 0 0 0
29.53551 892.15167 0 0 0
29.54432 891.1795 0 0 0
29.55312 890.14648 0 0 0
29.56192 889.86511 0 0 0
29.57072 890.1333 0 0 0
29.57952 890.23505 0 0 0
29.58833 891.02936 0 0 0
29.59713 891.03516 0 0 0
29.60593 889.33557 0 0 0
29.61473 890.58746 0 0 0
29.62354 891.99243 0 0 0
29.63234 891.85345 0 0 0
29.64114 891.56067 0 0 0
29.64994 891.22308 0 0 0
29.65874 892.26257 0 0 0
29.66755 894.02545 0 0 0
29.67635 896.49768 0 0 0
29.68515 902.13861 0 0 0
29.69395 916.44324 0 0 0
29.70275 955.98547 0 0 0
29.71156 995.83356 0 0 0
29.72036 1007.2709 0 0 0
29.72916 1014.7219 0 0 0
29.73796 1019.9713 0 0 0
29.74676 1023.9823 0 0 0
29.75557 1010.3004 0 0 0
29.76437 989.75934 0 0 0
29.77317 972.46967 0 0 0
29.78197 946.63483 0 0 0
29.79078 927.72693 0 0 0
29.79958 915.83276 0 0 0
29.80838 909.25781 0 0 0
29.81718 907.69287 0 0 0
29.82598 906.12311 0 0 0
29.83479 906.19769 0 0 0
29.84359 906.99744 0 0 0
29.85239 907.54346 0 0 0
29.86119 909.29504 0 0 0
29.86999 909.42041 0 0 0
29.87880 908.97614 0 0 0
29.88760 910.32513 0 0 0
29.89640 910.84485 0 0 0
29.90520 911.41412 0 0 0
29.91400 911.66785 0 0 0
29.92281 910.97101 0 0 0
29.93161 911.22009 0 0 0
29.94041 910.58398 0 0 0
29.94921 910.38983 0 0 0
29.95801 910.6073 0 0 0
29.96682 910.82861 0 0 0
29.97562 909.94995 0 0 0
29.98442 908.41791 0 0 0
29.99322 908.13843 0 0 0
30.00203 907.53467 0 0 0
30.01083 907.61401 0 0 0
30.01963 907.74207 0 0 0
30.02843 908.15234 0 0 0
30.03723 907.56232 0 0 0
30.04604 908.29901 0 0 0
30.05484 906.97467 0 0 0
30.06364 902.30829 0 0 0
30.07244 901.38208 0 0 0
30.08124 902.13086 0 0 0
30.09005 902.83667 0 0 0
30.09885 902.38837 0 0 0
30.10765 902.07703 0 0 0
30.11645 904.04767 0 0 0
30.12526 903.68481 0 0 0
30.13406 901.46405 0 0 0
30.14286 901.24799 0 0 0
30.15166 899.34436 0 0 0
30.16046 897.33966 0 0 0
30.16927 898.74353 0 0 0
30.17807 898.79456 0 0 0
30.18687 898.93628 0 0 0
30.19567 899.61963 0 0 0
30.20447 900.91431 0 0 0
30.21328 900.39886 0 0 0
30.22208 899.97784 0 0 0
30.23088 900.27557 0 0 0
30.23968 899.85114 0 0 0
30.24849 899.46844 0 0 0
30.25729 899.44556 0 0 0
30.26609 900.79993 0 0 0
30.27489 901.4306 0 0 0
30.28369 901.22742 0 0 0
30.29250 902.76862 0 0 0
30.30130 901.47998 0 0 0
30.31010 901.27002 0 0 0
30.31890 903.71967 0 0 0
30.32770 903.29565 0 0 0
30.33651 900.48224 0 0 0
30.34531 900.13635 0 0 0
30.35411 901.13361 0 0 0
30.36291 901.69086 0 0 0
30.37172 903.65155 0 0 0
30.38052 902.50488 0 0 0
30.38932 899.06152 0 0 0
30.39812 899.83105 0 0 0
30.40692 903.7536 0 0 0
30.41573 903.0387 0 0 0
30.42453 902.39246 0 0 0
30.43333 903.51215 0 0 0
30.44213 902.58936 0 0 0
30.45093 902.7973 0 0 0
30.45974 904.78418 0 0 0
30.46854 904.23761 0 0 0
30.47734 903.7298 0 0 0
30.48614 904.41406 0 0 0
30.49494 904.31647 0 0 0
30.50375 903.12 0 0 0
30.51255 903.24316 0 0 0
30.52135 903.4621 0 0 0
30.53015 906.2644 0 0 0
30.53896 906.75439 0 0 0
30.54776 905.44055 0 0 0
30.55656 904.08344 0 0 0
30.56536 903.51678 0 0 0
30.57416 903.95331 0 0 0
30.58297 905.13342 0 0 0
30.59177 905.49792 0 0 0
30.60057 905.84442 0 0 0
30.60937 905.74921 0 0 0
30.61817 906.04895 0 0 0
30.62698 906.66492 0 0 0
30.63578 904.41785 0 0 0
30.64458 903.61157 0 0 0
30.65338 905.63196 0 0 0
30.66218 905.70642 0 0 0
30.67099 905.58197 0 0 0
30.67979 905.63641 0 0 0
30.68859 902.82416 0 0 0
30.69739 901.7923 0 0 0
30.70620 905.87598 0 0 0
30.71500 909.10101 0 0 0
30.72380 909.91553 0 0 0
30.73260 909.59351 0 0 0
30.74140 906.82898 0 0 0
30.75021 905.05383 0 0 0
30.75901 906.03638 0 0 0
30.76781 907.57263 0 0 0
30.77661 907.88464 0 0 0
30.78541 909.83136 0 0 0
30.79422 911.77972 0 0 0
30.80302 910.42084 0 0 0
30.81182 912.45087 0 0 0
30.82062 912.98315 0 0 0
30.82943 912.323 0 0 0
30.83823 913.92487 0 0 0
30.84703 913.73633 0 0 0
30.85583 911.64551 0 0 0
30.86463 911.12909 0 0 0
30.87344 912.50372 0 0 0
30.88224 911.08972 0 0 0
30.89104 910.59283 0 0 0
30.89984 910.97406 0 0 0
30.90864 910.28644 0 0 0
30.91745 909.88116 0 0 0
30.92625 909.28857 0 0 0
30.93505 908.60767 0 0 0
30.94385 908.34058 0 0 0
30.95265 906.46588 0 0 0
30.96146 903.4931 0 0 0
30.97026 902.47815 0 0 0
30.97906 903.02936 0 0 0
30.98786 902.65869 0 0 0
30.99667 900.85107 0 0 0
31.00547 899.60931 0 0 0
31.01427 898.38074 0 0 0
31.02307 898.27002 0 0 0
31.03187 897.85468 0 0 0
31.04068 896.60883 0 0 0
31.04948 896.3465 0 0 0
31.05828 894.21954 0 0 0
31.06708 892.24146 0 0 0
31.07588 893.83234 0 0 0
31.08469 893.4267 0 0 0
31.09349 891.81665 0 0 0
31.10229 890.8609 0 0 0
31.11109 889.98474 0 0 0
31.11989 890.32751 0 0 0
31.12870 888.5545 0 0 0
31.13750 887.02728 0 0 0
31.14630 886.88617 0 0 0
31.15510 884.8222 0 0 0
31.16391 882.93945 0 0 0
31.17271 884.74164 0 0 0
31.18151 885.41473 0 0 0
31.19031 884.64117 0 0 0
31.19911 886.93976 0 0 0
31.20792 886.15594 0 0 0
31.21672 883.1272 0 0 0
31.22552 881.28009 0 0 0
31.23432 884.10687 0 0 0
31.24312 885.21191 0 0 0
31.25193 882.68872 0 0 0
31.26073 881.4577 0 0 0
31.26953 880.87415 0 0 0
31.27833 880.83234 0 0 0
31.28714 881.05103 0 0 0
31.29594 881.60309 0 0 0
31.30474 882.21729 0 0 0
31.31354 881.79816 0 0 0
31.32234 882.79761 0 0 0
31.33115 885.11176 0 0 0
31.33995 887.30579 0 0 0
31.34875 886.96222 0 0 0
31.35755 883.56531 0 0 0
31.36635 883.52441 0 0 0
31.37516 885.52368 0 0 0
31.38396 884.44318 0 0 0
31.39276 882.40009 0 0 0
31.40156 883.38513 0 0 0
31.41036 884.6048 0 0 0
31.41917 885.4679 0 0 0
31.42797 885.16168 0 0 0
31.43677 884.64319 0 0 0
31.44557 886.18115 0 0 0
31.45438 888.86945 0 0 0
31.46318 890.84155 0 0 0
31.47198 893.09167 0 0 0
31.48078 894.24823 0 0 0
31.48958 894.9101 0 0 0
31.49839 893.61182 0 0 0
31.50719 890.57941 0 0 0
31.51599 888.12494 0 0 0
31.52479 888.73529 0 0 0
31.53359 887.7218 0 0 0
31.54240 883.7746 0 0 0
31.55120 881.4881 0 0 0
31.56000 883.39203 0 0 0
31.56880 885.40448 0 0 0
31.57760 883.89288 0 0 0
31.58641 881.82666 0 0 0
31.59521 881.74518 0 0 0
31.60401 884.12109 0 0 0
31.61281 883.18787 0 0 0
31.62162 881.37329 0 0 0
31.63042 879.3114 0 0 0
31.63922 878.50079 0 0 0
31.64802 880.59894 0 0 0
31.65682 880.48285 0 0 0
31.66563 882.41412 0 0 0
31.67443 883.30908 0 0 0
31.68323 879.84705 0 0 0
31.69203 877.50452 0 0 0
31.70083 875.49115 0 0 0
31.70964 876.62335 0 0 0
31.71844 879.69214 0 0 0
31.72724 877.12268 0 0 0
31.73604 875.16998 0 0 0
31.74485 877.7417 0 0 0
31.75365 884.26855 0 0 0
31.76245 887.12677 0 0 0
31.77125 881.00977 0 0 0
31.78005 876.38275 0 0 0
31.78886 876.27728 0 0 0
31.79766 876.08685 0 0 0
31.80646 872.16046 0 0 0
31.81526 871.62018 0 0 0
31.82406 873.38153 0 0 0
31.83287 870.48004 0 0 0
31.84167 866.99329 0 0 0
31.85047 870.27014 0 0 0
31.85927 875.94897 0 0 0
31.86807 874.24988 0 0 0
31.87688 876.19873 0 0 0
31.88568 876.13831 0 0 0
31.89448 870.36914 0 0 0
31.90328 871.1958 0 0 0
31.91209 871.8064 0 0 0
31.92089 870.38202 0 0 0
31.92969 869.56226 0 0 0
31.93849 870.55817 0 0 0
31.94729 869.90173 0 0 0
31.95610 867.04413 0 0 0
31.96490 865.84406 0 0 0
31.97370 864.66656 0 0 0
31.98250 864.65735 0 0 0
31.99130 865.95734 0 0 0
32.00011 864.56293 0 0 0
32.00891 863.3053 0 0 0
32.01771 860.43103 0 0 0
32.02651 860.68402 0 0 0
32.03532 862.06927 0 0 0
32.04412 858.44159 0 0 0
32.05292 855.12897 0 0 0
32.06172 856.71283 0 0 0
32.07052 859.94104 0 0 0
32.07933 863.97321 0 0 0
32.08813 861.86237 0 0 0
32.09693 854.62549 0 0 0
32.10573 860.31433 0 0 0
32.11454 855.7832 0 0 0
32.12334 855.11157 0 0 0
32.13214 858.93536 0 0 0
32.14094 854.76196 0 0 0
32.14974 853.42511 0 0 0
32.15855 848.61267 0 0 0
32.16735 851.94922 0 0 0
32.17615 855.22052 0 0 0
32.18495 851.8009 0 0 0
32.19375 852.83789 0 0 0
32.20256 851.05139 0 0 0
32.21136 844.12634 0 0 0
32.22016 849.5885 0 0 0
32.22896 850.22186 0 0 0
32.23776 848.24457 0 0 0
32.24657 847.6958 0 0 0
32.25537 843.67828 0 0 0
32.26417 846.19226 0 0 0
32.27297 852.96826 0 0 0
32.28178 853.91388 0 0 0
32.29058 846.46088 0 0 0
32.29938 840.86346 0 0 0
32.30818 841.0257 0 0 0
32.31698 843.82452 0 0 0
32.32579 842.43372 0 0 0
32.33459 837.70636 0 0 0
32.34339 834.12286 0 0 0
32.35219 837.13776 0 0 0
32.36099 840.36194 0 0 0
32.36980 839.33868 0 0 0
32.37860 842.1228 0 0 0
32.38740 837.54425 0 0 0
32.39620 827.2561 0 0 0
32.40500 833.10834 0 0 0
32.41381 837.25262 0 0 0
32.42261 836.07477 0 0 0
32.43141 838.38434 0 0 0
32.44021 831.30615 0 0 0
32.44902 831.06378 0 0 0
32.45782 838.6004 0 0 0
32.46662 838.35632 0 0 0
32.47542 833.07135 0 0 0
32.48422 834.54755 0 0 0
32.49303 834.64227 0 0 0
32.50183 819.01782 0 0 0
32.51063 814.46185 0 0 0
32.51943 813.88312 0 0 0
32.52823 823.8606 0 0 0
32.53704 832.23883 0 0 0
32.54584 817.75201 0 0 0
32.55464 817.1507 0 0 0
32.56344 829.87555 0 0 0
32.57225 822.28491 0 0 0
32.58105 796.53729 0 0 0
32.58985 789.42737 0 0 0
32.59865 790.01013 0 0 0
32.60745 790.9295 0 0 0
32.61626 799.59381 0 0 0
32.62506 805.31671 0 0 0
32.63386 805.57959 0 0 0
32.64266 798.42218 0 0 0
32.65146 806.07288 0 0 0
32.66027 805.09149 0 0 0
32.66907 794.22833 0 0 0
32.67787 789.76923 0 0 0
32.68667 780.77252 0 0 0
32.69547 785.8465 0 0 0
32.70428 774.54492 0 0 0
32.71308 762.71753 0 0 0
32.72188 754.68225 0 0 0
32.73068 742.66272 0 0 0
32.73949 729.49237 0 0 0
32.74829 714.8443 0 0 0
32.75709 712.7915 0 0 0
32.76589 706.20337 0 0 0
32.77469 683.59143 0 0 0
32.78350 668.78156 0 0 0
32.79230 637.81689 0 0 0
32.80110 593.35828 0 0 0
32.80990 558.43109 0 0 0
32.81870 494.45782 0 0 0
32.82751 402.23743 0 0 0
32.83631 272.17944 0 0 0
32.84511 190.60292 0 0 0
32.85391 186.57886 0 0 0
32.86271 183.24104 0 0 0
32.87152 179.52469 0 0 0
32.88032 177.38507 0 0 0
32.88912 186.08952 0 0 0
32.89792 194.16388 0 0 0
32.90673 195.05479 0 0 0
32.91553 199.62579 0 0 0
32.92433 195.31267 0 0 0
32.93313 192.07196 0 0 0
32.94193 191.47916 0 0 0
32.95074 193.84772 0 0 0
32.95954 184.8154 0 0 0
32.96834 174.36464 0 0 0
32.97714 179.32947 0 0 0
32.98594 197.14877 0 0 0
32.99475 214.68857 0 0 0
33.00355 220.99011 0 0 0
33.01235 208.88002 0 0 0
33.02115 192.68596 0 0 0
33.02996 187.99698 0 0 0
33.03876 181.76775 0 0 0
33.04756 186.8837 0 0 0
33.05636 195.7469 0 0 0
33.06516 195.17845 0 0 0
33.07397 191.18819 0 0 0
33.08277 189.94377 0 0 0
33.09157 194.41005 0 0 0
33.10037 187.35745 0 0 0
33.10917 179.8036 0 0 0
33.11798 178.10326 0 0 0
33.12678 171.39944 0 0 0
33.13558 172.16751 0 0 0
33.14438 183.98175 0 0 0
33.15318 194.19116 0 0 0
33.16199 199.73256 0 0 0
33.17079 201.60649 0 0 0
33.17959 204.86621 0 0 0
33.18839 200.64711 0 0 0
33.19720 196.82491 0 0 0
33.20600 195.20006 0 0 0
33.21480 190.6443 0 0 0
33.22360 178.72687 0 0 0
33.23240 180.80527 0 0 0
33.24121 194.40308 0 0 0
33.25001 197.53947 0 0 0
33.25881 199.52998 0 0 0
33.26761 198.42676 0 0 0
33.27641 200.59085 0 0 0
33.28522 204.75963 0 0 0
33.29402 210.03381 0 0 0
33.30282 207.36159 0 0 0
33.31162 210.42734 0 0 0
33.32042 205.25287 0 0 0
33.32923 192.39027 0 0 0
33.33803 187.07782 0 0 0
33.34683 193.52744 0 0 0
33.35563 207.73 0 0 0
33.36444 208.48535 0 0 0
33.37324 195.95641 0 0 0
33.38204 184.24934 0 0 0
33.39084 175.60474 0 0 0
33.39964 173.01398 0 0 0
33.40845 178.35712 0 0 0
33.41725 184.80864 0 0 0
33.42605 195.66508 0 0 0
33.43485 212.58121 0 0 0
33.44365 218.79607 0 0 0
33.45246 212.28232 0 0 0
33.46126 203.29669 0 0 0
33.47006 203.29332 0 0 0
33.47886 210.49266 0 0 0
33.48766 202.45477 0 0 0
33.49647 186.71381 0 0 0
33.50527 178.32112 0 0 0
33.51407 184.17073 0 0 0
33.52287 201.74924 0 0 0
33.53168 210.73389 0 0 0
33.54048 202.73914 0 0 0
33.54928 199.72655 0 0 0
33.55808 197.32649 0 0 0
33.56688 199.20953 0 0 0
33.57569 198.66399 0 0 0
33.58449 192.71138 0 0 0
33.59329 192.57005 0 0 0
33.60209 194.45985 0 0 0
33.61089 202.18161 0 0 0
33.61970 196.13684 0 0 0
33.62850 184.95895 0 0 0
33.63730 188.70924 0 0 0
33.64610 194.63086 0 0 0
33.65491 205.61023 0 0 0
33.66371 219.4902 0 0 0
33.67251 219.29875 0 0 0
33.68131 215.09088 0 0 0
33.69011 202.64629 0 0 0
33.69892 198.80011 0 0 0
33.70772 199.94994 0 0 0
33.71652 204.2688 0 0 0
33.72532 209.54926 0 0 0
33.73412 212.98988 0 0 0
33.74293 201.67059 0 0 0
33.75173 188.24707 0 0 0
33.76053 187.42799 0 0 0
33.76933 185.13245 0 0 0
33.77813 183.064 0 0 0
33.78694 192.72643 0 0 0
33.79574 202.57422 0 0 0
33.80454 210.3006 0 0 0
33.81334 203.87448 0 0 0
33.82215 193.73277 0 0 0
33.83095 191.15556 0 0 0
33.83975 200.34805 0 0 0
33.84855 201.70844 0 0 0
33.85735 201.23067 0 0 0
33.86616 192.20583 0 0 0
33.87496 178.9679 0 0 0
33.88376 186.51772 0 0 0
33.89256 200.48149 0 0 0
33.90136 206.54933 0 0 0
33.91017 210.65564 0 0 0
33.91897 213.24353 0 0 0
33.92777 212.79723 0 0 0
33.93657 206.81927 0 0 0
33.94537 197.69177 0 0 0
33.95418 186.25018 0 0 0
33.96298 179.18416 0 0 0
33.97178 184.91769 0 0 0
33.98058 193.95059 0 0 0
33.98939 200.86247 0 0 0
33.99819 206.51114 0 0 0
34.00699 203.60246 0 0 0
34.01579 191.18521 0 0 0
34.02459 196.11241 0 0 0
34.03340 216.5029 0 0 0
34.04220 214.96289 0 0 0
34.05100 205.99197 0 0 0
34.05980 202.24449 0 0 0
34.06860 207.89041 0 0 0
34.07741 215.00891 0 0 0
34.08621 212.05647 0 0 0
34.09501 197.009 0 0 0
34.10381 186.98134 0 0 0
34.11262 196.53259 0 0 0
34.12142 202.10849 0 0 0
34.13022 205.21478 0 0 0
34.13902 203.38237 0 0 0
34.14782 197.52061 0 0 0
34.15663 200.37349 0 0 0
34.16543 205.96698 0 0 0
34.17423 201.56166 0 0 0
34.18303 189.63196 0 0 0
34.19183 182.20271 0 0 0
34.20064 194.26202 0 0 0
34.20944 219.71942 0 0 0
34.21824 229.21248 0 0 0
34.22704 219.49467 0 0 0
34.23584 200.0668 0 0 0
34.24465 186.70961 0 0 0
34.25345 188.00352 0 0 0
34.26225 186.98534 0 0 0
34.27105 191.25627 0 0 0
34.27986 193.25305 0 0 0
34.28866 189.12988 0 0 0
34.29746 183.92105 0 0 0
34.30626 186.58513 0 0 0
34.31506 195.11462 0 0 0
34.32387 213.08089 0 0 0
34.33267 219.80933 0 0 0
34.34147 209.03679 0 0 0
34.35027 201.09438 0 0 0
34.35907 202.14273 0 0 0
34.36788 204.39095 0 0 0
34.37668 208.97859 0 0 0
34.38548 213.24666 0 0 0
34.39428 209.87697 0 0 0
34.40308 204.52831 0 0 0
34.41189 191.70209 0 0 0
34.42069 178.77864 0 0 0
34.42949 180.64867 0 0 0
34.43829 197.37129 0 0 0
34.44710 212.73865 0 0 0
34.45590 216.26706 0 0 0
34.46470 203.36208 0 0 0
34.47350 195.98018 0 0 0
34.48230 202.72148 0 0 0
34.49111 208.36693 0 0 0
34.49991 204.02396 0 0 0
34.50871 201.70261 0 0 0
34.51751 207.91193 0 0 0
34.52631 211.13838 0 0 0
34.53512 210.57303 0 0 0
34.54392 208.93739 0 0 0
34.55272 205.94133 0 0 0
34.56152 206.60594 0 0 0
34.57033 209.52846 0 0 0
34.57913 208.24286 0 0 0
34.58793 207.30617 0 0 0
34.59673 204.33409 0 0 0
34.60553 199.84813 0 0 0
34.61434 206.35913 0 0 0
34.62314 209.11392 0 0 0
34.63194 207.43782 0 0 0
34.64074 203.82703 0 0 0
34.64954 198.06145 0 0 0
34.65835 197.1053 0 0 0
34.66715 193.41434 0 0 0
34.67595 203.05623 0 0 0
34.68475 217.43776 0 0 0
34.69355 210.54994 0 0 0
34.70236 206.49081 0 0 0
34.71116 206.43549 0 0 0
34.71996 210.85928 0 0 0
34.72876 213.75742 0 0 0
34.73757 207.6185 0 0 0
34.74637 205.41072 0 0 0
34.75517 199.92313 0 0 0
34.76397 205.10861 0 0 0
34.77277 195.82188 0 0 0
34.78158 203.51421 0 0 0
34.79038 207.06143 0 0 0
34.79918 201.79988 0 0 0
34.80798 195.17346 0 0 0
34.81678 201.10162 0 0 0
34.82559 204.80595 0 0 0
34.83439 193.94351 0 0 0
34.84319 188.53078 0 0 0
34.85199 186.82532 0 0 0
34.86079 194.26003 0 0 0
34.86960 188.886 0 0 0
34.87840 185.80511 0 0 0
34.88720 207.73715 0 0 0
34.89600 221.69695 0 0 0
34.90481 216.66692 0 0 0
34.91361 210.96713 0 0 0
34.92241 219.47926 0 0 0
34.93121 199.51373 0 0 0
34.94001 187.81367 0 0 0
34.94882 191.62247 0 0 0
34.95762 200.61842 0 0 0
34.96642 208.76947 0 0 0
34.97522 209.96144 0 0 0
34.98402 213.00813 0 0 0
34.99283 218.27872 0 0 0
35.00163 220.07222 0 0 0
35.01043 216.67738 0 0 0
35.01923 212.11569 0 0 0
35.02804 213.55649 0 0 0
35.03684 211.6698 0 0 0
35.04564 215.81088 0 0 0
35.05444 208.87091 0 0 0
35.06324 204.11911 0 0 0
35.07205 202.4498 0 0 0
35.08085 214.22919 0 0 0
35.08965 224.95457 0 0 0
35.09845 232.02486 0 0 0
35.10725 225.09503 0 0 0
35.11606 216.08391 0 0 0
35.12486 215.63213 0 0 0
35.13366 215.97505 0 0 0
35.14246 219.82805 0 0 0
35.15126 216.02463 0 0 0
35.16007 200.72334 0 0 0
35.16887 200.30325 0 0 0
35.17767 208.58453 0 0 0
35.18647 218.66725 0 0 0
35.19528 215.16791 0 0 0
35.20408 210.51022 0 0 0
loop_
_gsas_i100_meas
1.22
9.49
7.36
0.08
6.01
0.57
100.00
8.40
73.95
21.99
72.20
38.66
2.62
0.09
71.25
62.63
3.40
45.60
18.16
15.62
4.31
0.10
1.53
8.48
3.67
28.01
4.60
43.54
7.71
0.63
0.96
0.05
0.35
6.25
2.03
0.18
11.60
6.38
5.89
19.76
34.38
8.31
7.53
0.24
5.08
1.24
0.59
0.49
16.97
0.40
5.17
12.57
0.75
16.60
10.38
14.26
0.45
4.77
8.48
21.77
0.08
7.90
0.02
0.25
0.96
1.39
2.13
2.46
5.02
0.76
2.15
5.36
0.46
0.01
17.17
0.54
0.00
4.95
5.75
0.25
1.37
8.18
0.14
15.23
0.38
13.10
15.48
2.89
26.90
1.84
0.76
9.66
4.19
0.18
0.86
3.70
0.05
3.11
0.36
5.16
0.56
0.90
2.16
0.60
0.07
17.46
0.75
2.47
0.76
6.06
2.43
19.60
10.75
3.54
0.58
2.23
4.61
0.06
0.03
0.08
0.59
0.84
0.61
0.17
0.02
8.27
20.95
1.73
1.85
0.78
0.02
0.00
0.00
0.09
1.84
3.60
0.15
0.35
0.55
0.57
5.02
0.00
0.00
6.92
11.78
0.10
10.26
0.10
2.18
0.34
2.09
2.15
0.22
0.39
0.08
1.93
1.28
5.18
3.04
0.62
3.47
0.80
0.84
