#------------------------------------------------------------------------------
#$Date: 2021-02-05 01:04:31 +0200 (Fri, 05 Feb 2021) $
#$Revision: 261628 $
#$URL: file:///home/coder/svn-repositories/cod/cif/7/24/18/7241832.cif $
#------------------------------------------------------------------------------
#
# This file is available in the Crystallography Open Database (COD),
# http://www.crystallography.net/
#
# All data on this site have been placed in the public domain by the
# contributors.
#
data_7241832
loop_
_publ_author_name
'Gu\'nka, Piotr A.'
'Hanfland, Michael'
'Chen, Yu-Sheng'
'Zachara, Janusz'
_publ_section_title
;
 High-pressure and low-temperature structural study of claudetite I, a
 monoclinic layered As2O3 polymorph
;
_journal_issue                   3
_journal_name_full               CrystEngComm
_journal_page_first              638
_journal_page_last               644
_journal_paper_doi               10.1039/D0CE01401J
_journal_volume                  23
_journal_year                    2021
_chemical_formula_moiety         'As2 O3'
_chemical_formula_sum            'As2 O3'
_chemical_formula_weight         197.84
_chemical_name_common            'claudetite I'
_chemical_name_systematic
;
arsenic(III) oxide
;
_space_group_IT_number           14
_space_group_name_Hall           '-P 2yn'
_space_group_name_H-M_alt        'P 1 21/n 1'
_symmetry_cell_setting           monoclinic
_symmetry_space_group_name_H-M   'P 1 21/n 1'
_audit_creation_date             2020-10-21T11:41
_audit_creation_method           'created in GSAS-II'
_audit_update_record
;
2020-10-22 deposited with the CCDC.	2020-12-10 downloaded from the CCDC.
;
_cell_angle_alpha                90
_cell_angle_beta                 94.569(4)
_cell_angle_gamma                90
_cell_formula_units_Z            4
_cell_length_a                   4.8892(5)
_cell_length_b                   12.10248(20)
_cell_length_c                   4.2841(3)
_cell_measurement_pressure       8.73e6(5)
_cell_measurement_temperature    293
_cell_volume                     252.69(3)
_computing_data_reduction        Fit2D
_computing_structure_refinement
'GSAS-II (Toby & Von Dreele, J. Appl. Cryst. 46, 544-549, 2013)'
_diffrn_ambient_pressure         8.73e6(5)
_diffrn_ambient_temperature      293
_diffrn_detector                 'Mar555 flat panel'
_diffrn_detector_type            'Mar555 flat panel'
_diffrn_measurement_device_type  'ESRF ID09A beamline'
_diffrn_radiation_monochromator  Si
_diffrn_radiation_polarisn_ratio 0.9900
_diffrn_radiation_probe          x-ray
_diffrn_radiation_wavelength     0.41421
_diffrn_source                   'ESRF ID09A'
_diffrn_source_type              synchrotron
_exptl_crystal_colour            colourless
_exptl_crystal_density_diffrn    5.2004
_exptl_crystal_description       'white powder'
_pd_block_id                     2020-10-21T11:41|clau1_012rietveld||id09a
_pd_calc_method                  'Rietveld Refinement'
_pd_meas_number_of_points        4000
_pd_phase_name                   claudetiteI
_pd_prep_pressure                100.0(1)
_pd_prep_temperature             293
_pd_proc_info_datetime           2020-10-21T11:41
_pd_proc_ls_background_function
;
Background function: "chebyschev" function with 15 terms:
    733.6(16), 423(7), 2.7(3)e2, -2.65(6)e3, 2.71(16)e3, 1.712(12)e4, 
    -3.246(21)e4, -45592(27), 1.0801(10)e5, 5.812(10)e4, -1.6580(18)e5, 
    -3.544(8)e4, 1.2220(22)e5, 8.28(11)e3, -3.500(22)e4, 
;
_pd_proc_ls_pref_orient_corr
;
Simple spherical harmonic correction Order = 6
    Coefficients:  0:0:C(6,6) = 0.130(21); 0:0:C(4,4) = 0.700(23); 
    0:0:C(6,-2) = -0.057(29); 0:0:C(2,-2) = 0.179(13); 0:0:C(4,-4) = 0.055(20); 
    0:0:C(2,2) = 0.534(17); 0:0:C(4,0) = -0.000(19); 0:0:C(6,-6) = -0.470(30); 
    0:0:C(6,4) = 0.113(25); 0:0:C(4,2) = -0.070(19); 0:0:C(6,2) = 0.297(27); 
    0:0:C(6,-4) = -0.091(22); 0:0:C(6,0) = 0.161(31); 0:0:C(2,0) = 0.815(16); 
    0:0:C(4,-2) = -0.296(19); 
;
_pd_proc_ls_profile_function
;
Finger-Cox-Jephcoat function parameters U, V, W, X, Y, SH/L:
  peak variance(Gauss) = Utan(Th)^2^+Vtan(Th)+W:
  peak HW(Lorentz) = X/cos(Th)+Ytan(Th); SH/L = S/L+H/L
  U, V, W in (centideg)^2^, X & Y in centideg
    5.7(7)e2, -82(13), 4.5(6), 5.63(15), 15(4), 0.002, 
  Crystallite size in microns with "isotropic" model:
  parameters: Size, G/L mix
    1.000, 1.000, 
  Microstrain, "isotropic" model (10^6^ * delta Q/Q)
    parameters: Mustrain, G/L mix
    1000.000, 1.000, 

;
_pd_proc_ls_prof_R_factor        0.01752
_pd_proc_ls_prof_wR_expected     0.03493
_pd_proc_ls_prof_wR_factor       0.02773
_refine_ls_goodness_of_fit_all   0.811
_refine_ls_matrix_type           full
_refine_ls_number_parameters     57
_refine_ls_R_Fsqd_factor         0.18398
_refine_ls_shift/su_max          0.0003
_refine_ls_wR_factor_obs         0.02792
_reflns_d_resolution_high        1.138
_reflns_d_resolution_low         6.051
_reflns_limit_h_max              4
_reflns_limit_h_min              0
_reflns_limit_k_max              10
_reflns_limit_k_min              0
_reflns_limit_l_max              3
_reflns_limit_l_min              -3
_reflns_number_total             180
_cod_data_source_file            d0ce01401j3.cif
_cod_data_source_block           clau1_012rietveld
_cod_depositor_comments
'Adding full bibliography for 7241824--7241862.cif.'
_cod_original_cell_volume        252.692(13)
_cod_database_code               7241832
_refine_ls_r_f_factor            0.06110
_gsas_proc_ls_prof_r_b_factor    0.03225
_gsas_proc_ls_prof_wr_b_factor   0.05268
loop_
_space_group_symop_id
_space_group_symop_operation_xyz
1 x,y,z
2 1/2-x,1/2+y,1/2-z
3 -x,-y,-z
4 1/2+x,1/2-y,1/2+z
loop_
_atom_site_label
_atom_site_type_symbol
_atom_site_fract_x
_atom_site_fract_y
_atom_site_fract_z
_atom_site_occupancy
_atom_site_adp_type
_atom_site_U_iso_or_equiv
_atom_site_symmetry_multiplicity
As1 As 0.2651(10) 0.09020(23) 0.0625(8) 1.000 Uiso 0.0017(13) 4
As2 As 0.3327(7) 0.35734(26) 0.0240(8) 1.000 Uiso 0.0017 4
O3 O 0.4371(31) 0.2194(5) 0.114(5) 1.000 Uiso 0.0017 4
O4 O 0.6604(22) 0.4026(13) 0.1660(21) 1.000 Uiso 0.0017 4
O5 O -0.0506(26) 0.1482(17) 0.1474(26) 1.000 Uiso 0.0017 4
loop_
_atom_type_symbol
_atom_type_number_in_cell
_atom_type_scat_Cromer_Mann_a1
_atom_type_scat_Cromer_Mann_a2
_atom_type_scat_Cromer_Mann_a3
_atom_type_scat_Cromer_Mann_a4
_atom_type_scat_Cromer_Mann_b1
_atom_type_scat_Cromer_Mann_b2
_atom_type_scat_Cromer_Mann_b3
_atom_type_scat_Cromer_Mann_b4
_atom_type_scat_Cromer_Mann_c
_atom_type_scat_length_neutron
_atom_type_scat_source
_atom_type_scat_dispersion_real
_atom_type_scat_dispersion_imag
_atom_type_scat_dispersion_source
As 8 16.6723 6.0701 3.4313 4.2779 2.6345 0.2647 12.9479 47.7972 2.531 0.658
https://subversion.xray.aps.anl.gov/pyGSAS/trunk/atmdata.py 0.283 0.775
https://subversion.xray.aps.anl.gov/pyGSAS/trunk/atmdata.py
O 12 3.0485 2.2868 1.5463 0.867 13.2771 5.7011 0.3239 32.9089 0.2508 0.5805
https://subversion.xray.aps.anl.gov/pyGSAS/trunk/atmdata.py 0.002 0.002
https://subversion.xray.aps.anl.gov/pyGSAS/trunk/atmdata.py
loop_
_geom_angle_atom_site_label_1
_geom_angle_atom_site_label_2
_geom_angle_atom_site_label_3
_geom_angle
_geom_angle_site_symmetry_1
_geom_angle_site_symmetry_2
_geom_angle_site_symmetry_3
_geom_angle_publ_flag
O3 As1 O4 100.2(9) 1_555 1_555 4_454 yes
O3 As1 O5 92.2(9) 1_555 1_555 1_555 yes
O4 As1 O5 89.3(6) 4_454 1_555 1_555 yes
O3 As2 O4 88.8(6) 1_555 1_555 1_555 yes
O3 As2 O5 93.1(11) 1_555 1_555 4_554 yes
O4 As2 O5 88.6(6) 1_555 1_555 4_554 yes
As1 O3 As2 132.2(7) 1_555 1_555 1_555 yes
As1 O4 As2 123.0(7) 4_555 1_555 1_555 yes
As1 O5 As2 122.0(7) 1_555 1_555 4_455 yes
loop_
_geom_bond_atom_site_label_1
_geom_bond_atom_site_label_2
_geom_bond_distance
_geom_bond_site_symmetry_1
_geom_bond_site_symmetry_2
_geom_bond_publ_flag
As1 O3 1.781(7) 1_555 1_555 yes
As1 O4 1.737(7) 1_555 4_454 yes
As1 O5 1.760(7) 1_555 1_555 yes
As2 O3 1.779(7) 1_555 1_555 yes
As2 O4 1.756(7) 1_555 1_555 yes
As2 O5 1.755(7) 1_555 4_554 yes
loop_
_pd_meas_2theta_scan
_pd_meas_intensity_total
_pd_calc_intensity_total
_pd_proc_intensity_bkg_calc
_pd_proc_ls_weight
0.00440 105.28541 0 0 0
0.01320 105.99973 0 0 0
0.02201 104.7246 0 0 0
0.03081 106.49332 0 0 0
0.03961 110.68564 0 0 0
0.04841 109.33684 0 0 0
0.05721 107.5942 0 0 0
0.06602 107.34148 0 0 0
0.07482 109.89842 0 0 0
0.08362 109.57164 0 0 0
0.09242 108.23521 0 0 0
0.10122 107.00256 0 0 0
0.11003 107.8729 0 0 0
0.11883 107.74401 0 0 0
0.12763 105.76357 0 0 0
0.13643 103.8648 0 0 0
0.14523 102.65057 0 0 0
0.15404 101.72054 0 0 0
0.16284 102.21438 0 0 0
0.17164 102.60788 0 0 0
0.18044 102.60666 0 0 0
0.18925 101.99015 0 0 0
0.19805 102.70938 0 0 0
0.20685 103.82135 0 0 0
0.21565 105.93761 0 0 0
0.22445 107.45695 0 0 0
0.23326 107.16641 0 0 0
0.24206 105.71277 0 0 0
0.25086 106.44608 0 0 0
0.25966 107.24075 0 0 0
0.26846 107.0117 0 0 0
0.27727 107.40265 0 0 0
0.28607 109.03117 0 0 0
0.29487 108.951 0 0 0
0.30367 109.63934 0 0 0
0.31248 110.05944 0 0 0
0.32128 111.78313 0 0 0
0.33008 111.63513 0 0 0
0.33888 110.93357 0 0 0
0.34768 110.06979 0 0 0
0.35649 110.00047 0 0 0
0.36529 110.63921 0 0 0
0.37409 109.50564 0 0 0
0.38289 108.17583 0 0 0
0.39169 109.09412 0 0 0
0.40050 110.64358 0 0 0
0.40930 110.827 0 0 0
0.41810 109.80094 0 0 0
0.42690 109.91776 0 0 0
0.43570 109.4595 0 0 0
0.44451 109.73767 0 0 0
0.45331 109.16378 0 0 0
0.46211 108.61047 0 0 0
0.47091 107.33556 0 0 0
0.47972 107.25993 0 0 0
0.48852 106.47939 0 0 0
0.49732 106.42934 0 0 0
0.50612 106.70479 0 0 0
0.51492 107.96744 0 0 0
0.52373 108.18933 0 0 0
0.53253 108.14769 0 0 0
0.54133 108.37029 0 0 0
0.55013 108.31692 0 0 0
0.55893 108.68736 0 0 0
0.56774 109.18172 0 0 0
0.57654 109.79251 0 0 0
0.58534 109.20967 0 0 0
0.59414 109.41292 0 0 0
0.60295 109.94828 0 0 0
0.61175 110.34483 0 0 0
0.62055 110.68255 0 0 0
0.62935 110.30354 0 0 0
0.63815 109.51029 0 0 0
0.64696 109.52142 0 0 0
0.65576 109.54585 0 0 0
0.66456 109.38045 0 0 0
0.67336 110.21313 0 0 0
0.68216 111.09435 0 0 0
0.69097 111.09484 0 0 0
0.69977 110.99118 0 0 0
0.70857 111.44693 0 0 0
0.71737 112.74427 0 0 0
0.72617 113.38658 0 0 0
0.73498 112.68673 0 0 0
0.74378 110.91502 0 0 0
0.75258 110.96095 0 0 0
0.76138 111.17266 0 0 0
0.77019 110.4118 0 0 0
0.77899 109.78028 0 0 0
0.78779 109.9012 0 0 0
0.79659 110.01041 0 0 0
0.80539 111.30991 0 0 0
0.81420 113.4439 0 0 0
0.82300 113.79029 0 0 0
0.83180 112.90231 0 0 0
0.84060 112.03966 0 0 0
0.84940 112.97081 0 0 0
0.85821 112.97474 0 0 0
0.86701 112.86664 0 0 0
0.87581 113.6816 0 0 0
0.88461 115.20577 0 0 0
0.89342 116.0791 0 0 0
0.90222 115.65468 0 0 0
0.91102 117.71896 0 0 0
0.91982 120.17104 0 0 0
0.92862 121.6321 0 0 0
0.93743 121.73759 0 0 0
0.94623 125.72335 0 0 0
0.95503 129.28656 0 0 0
0.96383 130.24976 0 0 0
0.97263 130.28691 0 0 0
0.98144 131.82567 0 0 0
0.99024 130.59134 0 0 0
0.99904 131.65927 0 0 0
1.00784 136.25058 0 0 0
1.01664 142.41209 0 0 0
1.02545 148.99457 0 0 0
1.03425 159.6772 0 0 0
1.04305 167.93684 0 0 0
1.05185 175.97687 0 0 0
1.06066 178.87305 0 0 0
1.06946 186.92749 0 0 0
1.07826 191.33086 0 0 0
1.08706 199.1279 0 0 0
1.09586 204.73415 0 0 0
1.10467 208.77502 0 0 0
1.11347 214.01822 0 0 0
1.12227 220.42516 0 0 0
1.13107 227.38448 0 0 0
1.13987 230.75948 0 0 0
1.14868 233.28206 0 0 0
1.15748 235.63173 0 0 0
1.16628 238.12808 0 0 0
1.17508 240.90128 0 0 0
1.18389 243.72073 0 0 0
1.19269 246.58044 0 0 0
1.20149 248.8033 0 0 0
1.21029 250.2415 0 0 0
1.21909 251.15652 0 0 0
1.22790 252.97414 0 0 0
1.23670 255.95268 0 0 0
1.24550 258.99344 0 0 0
1.25430 261.2092 0 0 0
1.26310 262.59634 0 0 0
1.27191 262.88004 0 0 0
1.28071 264.09064 0 0 0
1.28951 265.9057 0 0 0
1.29831 268.02499 0 0 0
1.30711 268.88657 0 0 0
1.31592 270.74884 0 0 0
1.32472 271.71393 0 0 0
1.33352 273.38895 0 0 0
1.34232 275.13382 0 0 0
1.35113 278.14273 0 0 0
1.35993 279.3064 0 0 0
1.36873 279.99704 0 0 0
1.37753 281.03836 0 0 0
1.38633 281.77167 0 0 0
1.39514 283.08966 0 0 0
1.40394 284.92123 0 0 0
1.41274 286.49286 0 0 0
1.42154 287.34607 0 0 0
1.43034 288.63742 0 0 0
1.43915 290.13956 0 0 0
1.44795 291.22366 0 0 0
1.45675 291.40323 0 0 0
1.46555 291.7012 0 0 0
1.47436 292.27719 0 0 0
1.48316 293.27689 0 0 0
1.49196 294.88419 0 0 0
1.50076 295.43683 0 0 0
1.50956 295.89099 0 0 0
1.51837 296.81873 0 0 0
1.52717 299.00238 0 0 0
1.53597 300.68002 0 0 0
1.54477 301.60516 0 0 0
1.55357 302.39502 0 0 0
1.56238 303.29791 0 0 0
1.57118 304.55505 0 0 0
1.57998 305.43756 0 0 0
1.58878 306.19019 0 0 0
1.59758 307.10645 0 0 0
1.60639 307.50467 0 0 0
1.61519 307.90051 0 0 0
1.62399 308.71417 0 0 0
1.63279 309.17111 0 0 0
1.64160 310.51132 0 0 0
1.65040 311.75961 0 0 0
1.65920 312.13342 0 0 0
1.66800 312.08078 0 0 0
1.67680 312.81168 0 0 0
1.68561 314.54916 0 0 0
1.69441 316.04736 0 0 0
1.70321 315.82156 0 0 0
1.71201 315.91861 0 0 0
1.72081 317.18018 0 0 0
1.72962 318.88574 0 0 0
1.73842 320.25012 0 0 0
1.74722 320.47705 0 0 0
1.75602 321.45032 0 0 0
1.76483 322.3147 0 0 0
1.77363 323.03769 0 0 0
1.78243 324.21567 0 0 0
1.79123 325.68719 0 0 0
1.80003 325.19754 0 0 0
1.80884 323.92432 0 0 0
1.81764 324.47433 0 0 0
1.82644 324.93991 0 0 0
1.83524 325.64975 0 0 0
1.84404 325.79352 0 0 0
1.85285 327.09201 0 0 0
1.86165 328.09393 0 0 0
1.87045 329.10379 0 0 0
1.87925 329.92578 0 0 0
1.88805 330.43701 0 0 0
1.89686 331.5249 0 0 0
1.90566 332.95944 0 0 0
1.91446 333.60443 0 0 0
1.92326 332.79178 0 0 0
1.93207 332.83359 0 0 0
1.94087 334.10278 0 0 0
1.94967 335.28903 0 0 0
1.95847 336.11154 0 0 0
1.96727 336.0542 0 0 0
1.97608 336.41647 0 0 0
1.98488 336.5195 0 0 0
1.99368 337.96805 0 0 0
2.00248 337.60474 0 0 0
2.01128 338.3739 0 0 0
2.02009 338.7789 0 0 0
2.02889 341.2728 0 0 0
2.03769 342.53122 0 0 0
2.04649 343.55817 0 0 0
2.05530 342.88327 0 0 0
2.06410 342.96533 0 0 0
2.07290 343.24658 0 0 0
2.08170 344.12073 0 0 0
2.09050 344.86151 0 0 0
2.09931 346.45728 0 0 0
2.10811 346.38342 0 0 0
2.11691 346.54868 0 0 0
2.12571 345.36328 0 0 0
2.13451 345.22629 0 0 0
2.14332 346.26971 0 0 0
2.15212 348.87161 0 0 0
2.16092 349.94022 0 0 0
2.16972 349.34286 0 0 0
2.17852 348.98004 0 0 0
2.18733 349.99335 0 0 0
2.19613 350.8262 0 0 0
2.20493 351.39554 0 0 0
2.21373 351.69879 0 0 0
2.22254 352.20261 0 0 0
2.23134 352.81146 0 0 0
2.24014 353.55142 0 0 0
2.24894 353.68689 0 0 0
2.25774 354.35046 0 0 0
2.26655 355.02164 0 0 0
2.27535 355.92825 0 0 0
2.28415 356.39789 0 0 0
2.29295 356.96585 0 0 0
2.30175 356.74902 0 0 0
2.31056 356.42297 0 0 0
2.31936 357.28427 0 0 0
2.32816 357.5939 0 0 0
2.33696 357.4173 0 0 0
2.34576 357.76309 0 0 0
2.35457 357.90289 0 0 0
2.36337 358.16409 0 0 0
2.37217 359.58536 0 0 0
2.38097 361.25375 0 0 0
2.38978 361.49951 0 0 0
2.39858 361.68283 0 0 0
2.40738 362.44376 0 0 0
2.41618 362.74509 0 0 0
2.42498 363.03351 0 0 0
2.43379 363.03665 0 0 0
2.44259 362.76791 0 0 0
2.45139 362.78543 0 0 0
2.46019 363.18518 0 0 0
2.46899 364.0065 0 0 0
2.47780 365.25888 0 0 0
2.48660 365.56039 0 0 0
2.49540 365.96844 0 0 0
2.50420 366.94336 0 0 0
2.51301 367.35684 0 0 0
2.52181 367.46851 0 0 0
2.53061 368.16992 0 0 0
2.53941 368.11179 0 0 0
2.54821 367.9902 0 0 0
2.55702 367.73688 0 0 0
2.56582 367.90988 0 0 0
2.57462 368.28986 0 0 0
2.58342 369.815 0 0 0
2.59222 370.40695 0 0 0
2.60103 370.08286 0 0 0
2.60983 370.64215 0 0 0
2.61863 371.24637 0 0 0
2.62743 372.04153 0 0 0
2.63624 372.65988 0 0 0
2.64504 373.16583 0 0 0
2.65384 373.25095 0 0 0
2.66264 373.82272 0 0 0
2.67144 374.57202 0 0 0
2.68025 374.5199 0 0 0
2.68905 374.15103 0 0 0
2.69785 375.33969 0 0 0
2.70665 376.24933 0 0 0
2.71545 377.38098 0 0 0
2.72426 376.61218 372.563143 372.540505 0.002655251
2.73306 375.60574 373.459955 373.437158 0.002662366
2.74186 374.96323 374.316676 374.293719 0.002666928
2.75066 375.48288 375.134931 375.111812 0.002663237
2.75946 376.83798 375.916272 375.892989 0.00265366
2.76827 378.43637 376.662285 376.638836 0.002642452
2.77707 379.04379 377.374433 377.350816 0.002638218
2.78587 379.06921 378.054157 378.030371 0.002638041
2.79467 378.48941 378.702862 378.678905 0.002642082
2.80348 378.80081 379.321929 379.297799 0.00263991
2.81228 379.21289 379.912681 379.888376 0.002637041
2.82108 379.42578 380.476396 380.451914 0.002635562
2.82988 379.49155 381.014304 380.989643 0.002635105
2.83868 379.98074 381.52765 381.502809 0.002631712
2.84749 380.34219 382.017589 381.992565 0.002629211
2.85629 380.8833 382.485258 382.460048 0.002625476
2.86509 382.18146 382.931752 382.906356 0.002616558
2.87389 382.46439 383.35814 383.332555 0.002614623
2.88269 382.45914 383.765466 383.739689 0.002614658
2.89150 382.811 384.154727 384.128758 0.002612255
2.90030 383.71469 384.52689 384.500725 0.002606103
2.90910 383.392 384.882877 384.856515 0.002608296
2.91790 383.47202 385.22362 385.197058 0.002607752
2.92670 384.3963 385.549982 385.523217 0.002601482
2.93551 384.86072 385.862809 385.83584 0.002598343
2.94431 385.01093 386.16291 386.135734 0.002597329
2.95311 384.5863 386.451094 386.423708 0.002600197
2.96191 385.60538 386.728109 386.700512 0.002593325
2.97072 386.134 386.994698 386.966887 0.002589775
2.97952 385.89966 387.251567 387.223539 0.002591347
2.98832 385.66464 387.499391 387.471144 0.002592926
2.99712 386.0509 387.738845 387.710376 0.002590332
3.00592 385.74969 387.970556 387.941862 0.002592355
3.01473 386.54388 388.195134 388.166213 0.002587028
3.02353 387.48752 388.413159 388.384008 0.002580728
3.03233 388.42963 388.62521 388.595827 0.002574469
3.04113 388.18481 388.831824 388.802205 0.002576093
3.04993 387.39832 389.033518 389.00366 0.002581323
3.05874 387.49146 389.230793 389.200694 0.002580702
3.06754 387.65091 389.424134 389.39379 0.002579641
3.07634 387.56079 389.613999 389.583408 0.00258024
3.08514 388.91257 389.800827 389.769986 0.002571272
3.09395 389.32813 389.985034 389.95394 0.002568527
3.10275 390.3049 390.167034 390.135683 0.0025621
3.11155 390.27789 390.352018 390.315596 0.002562277
3.12035 390.01733 390.530761 390.494045 0.002563989
3.12915 389.27008 390.708392 390.67138 0.002568911
3.13796 390.25702 390.885247 390.847933 0.002562414
3.14676 391.80072 391.061645 391.024027 0.002552318
3.15556 392.53671 391.23789 391.199963 0.002547532
3.16436 392.86978 391.414266 391.376027 0.002545373
3.17316 392.26917 391.59104 391.552484 0.00254927
3.18197 391.03482 391.76848 391.729604 0.002557317
3.19077 390.79361 391.946824 391.907624 0.002558895
3.19957 391.13019 392.126303 392.086775 0.002556693
3.20837 392.97852 392.307128 392.267266 0.002544668
3.21717 393.22003 392.489513 392.449314 0.002543105
3.22598 394.0535 392.673643 392.633103 0.002537726
3.23478 393.4837 392.859701 392.818815 0.002541401
3.24358 393.40704 393.047853 393.006616 0.002541897
3.25238 393.08313 393.238248 393.196657 0.002543991
3.26119 393.33093 393.431046 393.389094 0.002542388
3.26999 394.04333 393.626373 393.584057 0.002537792
3.27879 395.09976 393.824355 393.781669 0.002531006
3.28759 395.78406 394.025098 393.982039 0.00252663
3.29639 396.07803 394.228722 394.185283 0.002524755
3.30520 396.30127 394.435312 394.391488 0.002523333
3.31400 396.68933 394.644959 394.600745 0.002520864
3.32280 396.22086 394.857734 394.813124 0.002523845
3.33160 396.30829 395.073712 395.028702 0.002523288
3.34040 396.40466 395.292954 395.247538 0.002522675
3.34921 397.30188 395.515512 395.469683 0.002516978
3.35801 397.47394 395.74143 395.695183 0.002515888
3.36681 397.41238 395.970738 395.924068 0.002516278
3.37561 397.97525 396.203483 396.156383 0.002512719
3.38442 398.63766 396.43968 396.392143 0.002508544
3.39322 398.80139 396.679349 396.63137 0.002507514
3.40202 399.39413 396.922496 396.874068 0.002503792
3.41082 400.23657 397.169132 397.120249 0.002498522
3.41962 400.83011 397.419258 397.369913 0.002494823
3.42843 400.67352 397.672865 397.623051 0.002495798
3.43723 399.94162 397.929933 397.879642 0.002500365
3.44603 399.69379 398.190462 398.139687 0.002501915
3.45483 399.58215 398.454421 398.403156 0.002502614
3.46363 400.20016 398.72594 398.670023 0.00249875
3.47244 400.69186 398.996696 398.940246 0.002495683
3.48124 401.54172 399.270801 399.21381 0.002490401
3.49004 401.32178 399.548202 399.490662 0.002491766
3.49884 401.33792 399.828864 399.770766 0.002491666
3.50764 400.84528 400.112737 400.054073 0.002494728
3.51645 401.30341 400.39976 400.340521 0.00249188
3.52525 402.21878 400.689901 400.630076 0.002486209
3.53405 402.94687 400.983091 400.922672 0.002481717
3.54285 403.43372 401.279273 401.21825 0.002478722
3.55166 403.47208 401.578373 401.516735 0.002478486
3.56046 403.81015 401.880347 401.818084 0.002476411
3.56926 404.42618 402.185113 402.122214 0.002472639
3.57806 405.21341 402.492609 402.429062 0.002467835
3.58686 405.50565 402.802752 402.738547 0.002466057
3.59567 405.46924 403.115478 403.050603 0.002466278
3.60447 405.41388 403.430713 403.365154 0.002466615
3.61327 405.12912 403.748374 403.682119 0.002468349
3.62207 404.45267 404.068384 404.001419 0.002472477
3.63087 404.75543 404.390649 404.32296 0.002470628
3.63968 405.45807 404.715111 404.646683 0.002466346
3.64848 405.99762 405.041671 404.972489 0.002463069
3.65728 406.33765 405.370254 405.300301 0.002461007
3.66608 406.66617 405.700763 405.630021 0.002459019
3.67489 406.54523 406.033123 405.961574 0.002459751
3.68369 406.8204 406.367249 406.294873 0.002458087
3.69249 406.18695 406.70305 406.629826 0.002461921
3.70129 406.49084 407.040428 406.966333 0.00246008
3.71009 407.23447 407.379319 407.304326 0.002455588
3.71890 408.09766 407.719623 407.643707 0.002450394
3.72770 408.93369 408.061251 407.98438 0.002445384
3.73650 409.67453 408.404117 408.326257 0.002440962
3.74530 409.5567 408.748145 408.669258 0.002441664
3.75410 409.63171 409.093241 409.013282 0.002441217
3.76291 409.74951 409.439328 409.358248 0.002440515
3.77171 410.48016 409.786323 409.704061 0.002436171
3.78051 410.91626 410.134135 410.050621 0.002433586
3.78931 411.74335 410.482714 410.397863 0.002428697
3.79811 411.58661 410.83198 410.745685 0.002429622
3.80692 411.18756 411.18187 411.094 0.00243198
3.81572 410.38065 411.532325 411.442709 0.002436762
3.82452 410.47348 411.883333 411.791748 0.002436211
3.83332 410.73721 412.234879 412.141015 0.002434647
3.84213 411.44928 412.587037 412.490433 0.002430433
3.85093 412.22897 412.940063 412.839906 0.002425836
3.85973 414.00586 413.294805 413.189361 0.002415425
3.86853 414.59586 413.653438 413.538717 0.002411987
3.87733 414.69498 414.020437 413.887886 0.002411411
3.88614 414.21268 414.402448 414.236788 0.002414219
3.89494 416.01968 414.805008 414.585333 0.002403732
3.90374 422.10016 415.225814 414.933464 0.002369106
3.91254 431.88644 415.64678 415.281089 0.002315423
3.92134 439.81406 416.031122 415.628139 0.002273688
3.93015 438.82562 416.351232 415.974528 0.00227881
3.93895 431.6329 416.628637 416.320194 0.002316784
3.94775 423.90985 416.901565 416.665065 0.002358992
3.95655 419.35623 417.190805 417.009066 0.002384607
3.96535 417.16553 417.500362 417.352115 0.00239713
3.97416 415.80679 417.825233 417.694168 0.002404963
3.98296 415.49802 418.158475 418.035147 0.00240675
3.99176 415.73083 418.49508 418.374982 0.002405403
4.00056 415.99585 418.83799 418.713618 0.00240387
4.00937 416.41818 419.175036 419.050981 0.002401432
4.01817 416.79822 419.511279 419.387034 0.002399242
4.02697 417.2323 419.846458 419.721683 0.002396746
4.03577 417.22235 420.180444 420.054891 0.002396804
4.04457 417.18042 420.513148 420.386623 0.002397044
4.05338 417.30917 420.844432 420.716782 0.002396305
4.06218 417.31653 421.174241 421.045336 0.002396263
4.07098 417.49066 421.502522 421.372255 0.002395263
4.07978 417.48227 421.829179 421.697455 0.002395311
4.08858 417.99231 422.154185 422.020918 0.002392389
4.09739 418.3927 422.477452 422.342567 0.002390099
4.10619 418.94336 422.798953 422.662379 0.002386958
4.11499 419.43964 423.118653 422.980323 0.002384133
4.12379 419.69098 423.436476 423.296326 0.002382705
4.13260 419.59055 423.752404 423.61037 0.002383276
4.14140 420.26547 424.066407 423.922431 0.002379448
4.15020 420.57166 424.378419 424.232439 0.002377716
4.15900 420.52316 424.688441 424.540399 0.00237799
4.16780 420.79459 424.996409 424.846245 0.002376456
4.17661 420.91345 425.302305 425.149958 0.002375785
4.18541 421.0629 425.606122 425.451532 0.002374942
4.19421 421.4454 425.907802 425.750909 0.002372787
4.20301 422.26526 426.207351 426.048091 0.00236818
4.21181 422.0358 426.504716 426.343025 0.002369467
4.22062 422.26025 426.799893 426.635707 0.002368208
4.22942 422.49423 427.092886 426.926137 0.002366896
4.23822 422.86694 427.383637 427.214258 0.00236481
4.24702 422.49783 427.672154 427.500074 0.002366876
4.25582 422.54395 427.958439 427.783586 0.002366618
4.26463 423.11426 428.242454 428.064752 0.002363428
4.27343 424.33655 428.524215 428.343589 0.00235662
4.28223 425.15729 428.80415 428.620057 0.002352071
4.29103 425.00824 429.08135 428.894168 0.002352896
4.29984 424.73969 429.356282 429.165927 0.002354383
4.30864 425.5831 429.628916 429.435299 0.002349717
4.31744 425.66504 429.899283 429.702315 0.002349265
4.32624 424.68558 430.167359 429.966945 0.002354683
4.33504 424.32059 430.433156 430.2292 0.002356709
4.34385 425.66086 430.696699 430.489099 0.002349288
4.35265 426.52673 430.957968 430.74662 0.002344519
4.36145 427.29175 431.216981 431.001777 0.002340321
4.37025 427.43259 431.473768 431.254594 0.00233955
4.37905 427.55426 431.728312 431.505052 0.002338884
4.38786 427.37256 431.98066 431.753192 0.002339879
4.39666 427.91125 432.230793 431.998991 0.002336933
4.40546 427.89432 432.478747 432.242479 0.002337026
4.41426 427.71393 432.724557 432.483685 0.002338011
4.42307 427.32147 432.968217 432.7226 0.002340159
4.43187 427.86774 433.209775 432.959264 0.002337171
4.44067 428.71274 433.44923 433.19367 0.002332564
4.44947 429.31253 433.686626 433.425855 0.002329305
4.45827 428.88718 433.921999 433.655849 0.002331616
4.46708 429.23212 434.155357 433.883651 0.002329742
4.47588 430.36264 434.386746 434.109301 0.002323622
4.48468 430.90503 434.616209 434.332832 0.002320697
4.49348 431.13486 434.843757 434.554248 0.00231946
4.50228 430.57693 435.069455 434.773603 0.002322465
4.51109 430.80981 435.293318 434.990903 0.00232121
4.51989 430.60748 435.515396 435.206187 0.002322301
4.52869 430.9906 435.735745 435.419501 0.002320236
4.53749 431.34918 435.987492 435.630856 0.002318307
4.54630 431.91043 436.204704 435.840306 0.002315295
4.55510 432.492 436.420306 436.047864 0.002312181
4.56390 432.9346 436.63436 436.25358 0.002309818
4.57270 433.34818 436.846933 436.457504 0.002307613
4.58150 433.36383 437.058051 436.659647 0.00230753
4.59031 433.20724 437.267786 436.860062 0.002308364
4.59911 432.87161 437.476207 437.058802 0.002310154
4.60791 433.85361 437.683356 437.255888 0.002304925
4.61671 434.57956 437.889314 437.45138 0.002301075
4.62551 434.92365 438.094126 437.645302 0.002299254
4.63432 434.91986 438.297874 437.837712 0.002299274
4.64312 435.09006 438.500637 438.028661 0.002298375
4.65192 435.0307 438.702468 438.218177 0.002298688
4.66072 435.33221 438.903457 438.406318 0.002297096
4.66952 436.00491 439.10369 438.593141 0.002293552
4.67833 436.78625 439.30323 438.778673 0.002289449
4.68713 437.02969 439.502188 438.962986 0.002288174
4.69593 437.14877 439.700631 439.146112 0.002287551
4.70473 436.90485 439.898662 439.328106 0.002288828
4.71354 437.1105 440.096391 439.509035 0.002287751
4.72234 437.74033 440.293901 439.688928 0.002284459
4.73114 438.56177 440.491322 439.867862 0.002280181
4.73994 438.95184 440.688742 440.045866 0.002278154
4.74874 438.63571 440.886293 440.223006 0.002279796
4.75755 438.39868 441.084111 440.399348 0.002281029
4.76635 438.80591 441.28231 440.574928 0.002278912
4.77515 439.51349 441.481034 440.749809 0.002275243
4.78395 440.43066 441.680447 440.924058 0.002270505
4.79275 440.78052 441.880688 441.097715 0.002268703
4.80156 440.68793 442.102662 441.270854 0.002269179
4.81036 440.6142 442.305217 441.443514 0.002269559
4.81916 440.33923 442.509149 441.615765 0.002270976
4.82796 441.04855 442.714677 441.787671 0.002267324
4.83676 442.38464 442.930885 441.959275 0.002260476
4.84557 442.34906 443.140324 442.130655 0.002260658
4.85437 442.19049 443.352067 442.301853 0.002261469
4.86317 442.07932 443.566404 442.472935 0.002262038
4.87197 442.50583 443.783663 442.643972 0.002259857
4.88078 442.61725 444.004163 442.815009 0.002259288
4.88958 442.38547 444.22829 442.98611 0.002260472
4.89838 442.26044 444.456476 443.15735 0.002261111
4.90718 441.69897 444.689155 443.32877 0.002263985
4.91598 442.40488 444.926875 443.500452 0.002260373
4.92479 443.8797 445.17018 443.672434 0.002252863
4.93359 445.09006 445.419735 443.84479 0.002246736
4.94239 445.33731 445.676289 444.017591 0.002245489
4.95119 445.52179 445.940645 444.190881 0.002244559
4.95999 445.41156 446.213781 444.364737 0.002245115
4.96880 445.62137 446.496754 444.539205 0.002244058
4.97760 446.55685 446.790835 444.714357 0.002239357
4.98640 447.62607 447.097493 444.890261 0.002234008
4.99520 447.98431 447.56357 445.066962 0.002232221
5.00401 448.05704 447.901595 445.244532 0.002231859
5.01281 448.78067 448.258221 445.42304 0.00222826
5.02161 448.54117 448.63618 445.602528 0.00222945
5.03041 448.13464 449.038835 445.78308 0.002231472
5.03921 448.38696 449.47013 445.964738 0.002230217
5.04802 450.24643 449.934927 446.147568 0.002221006
5.05682 451.1597 450.439182 446.331646 0.00221651
5.06562 451.16309 451.010546 446.51701 0.002216493
5.07442 451.67599 451.617503 446.703744 0.002213976
5.08322 452.89273 452.291704 446.891885 0.002208028
5.09203 453.7171 453.047767 447.081503 0.002204017
5.10083 455.44711 453.904519 447.272672 0.002195645
5.10963 456.70517 454.886347 447.465429 0.002189596
5.11843 457.93939 456.02578 447.659842 0.002183695
5.12723 459.47385 457.366506 447.855984 0.002176402
5.13604 462.59769 458.968182 448.053891 0.002161706
5.14484 465.98618 460.914643 448.253642 0.002145986
5.15364 471.00189 463.325677 448.455273 0.002123134
5.16244 479.17126 466.382273 448.658857 0.002086937
5.17125 493.02982 470.389125 448.864457 0.002028275
5.18005 514.92303 475.972922 449.072109 0.001942038
5.18885 546.31714 484.690955 449.281882 0.001830439
5.19765 591.62115 500.473433 449.493846 0.001690271
5.20645 651.71991 531.785824 449.708027 0.001534401
5.21526 724.28473 592.284983 449.924509 0.001380672
5.22406 817.63568 695.351863 450.143322 0.001223039
5.23286 919.47919 840.043805 450.364529 0.001087572
5.24166 1074.1128 991.446498 450.588199 0.000931001
5.25046 1083.8641 1066.80241 450.81436 0.000922625
5.25927 951.11963 1002.354884 451.043091 0.001051392
5.26807 760.78192 853.991368 451.274415 0.001314437
5.27687 632.20386 707.272741 451.508399 0.001581768
5.28567 548.12897 600.898906 451.745106 0.001824388
5.29448 511.37854 537.790611 451.984563 0.001955499
5.30328 490.70142 505.113196 452.226827 0.002037899
5.31208 479.95663 488.916039 452.471966 0.002083522
5.32088 473.80826 480.280982 452.720001 0.002110558
5.32968 470.87842 474.987778 452.971004 0.00212369
5.33849 469.2724 471.353267 453.224997 0.002130958
5.34729 467.75327 468.704801 453.482042 0.002137879
5.35609 466.0141 466.722088 453.742195 0.002145858
5.36489 465.58237 465.21776 454.005475 0.002147848
5.37369 465.6037 464.067824 454.271956 0.002147749
5.38250 465.77313 463.186531 454.541655 0.002146968
5.39130 465.16409 462.512475 454.814624 0.002149779
5.40010 464.7612 462.000983 455.090924 0.002151643
5.40890 464.5849 461.619032 455.370566 0.002152459
5.41770 464.70636 461.34165 455.65361 0.002151897
5.42651 464.53693 461.149766 455.940106 0.002152681
5.43531 464.75143 461.028673 456.230065 0.002151688
5.44411 465.26611 460.966801 456.523557 0.002149308
5.45291 466.2157 460.95503 456.820592 0.00214493
5.46172 466.81302 460.986045 457.121216 0.002142185
5.47052 466.83398 461.053967 457.425487 0.002142089
5.47932 466.33133 461.154018 457.73341 0.002144398
5.48812 465.9729 461.28229 458.045046 0.002146048
5.49692 466.29044 461.435562 458.3604 0.002144586
5.50573 467.37668 461.611183 458.679525 0.002139602
5.51453 467.97519 461.806945 459.002465 0.002136865
5.52333 467.68607 462.020995 459.329219 0.002138186
5.53213 467.9223 462.251803 459.659836 0.002137107
5.54093 468.57632 462.498102 459.994369 0.002134124
5.54974 468.97559 462.758787 460.332803 0.002132307
5.55854 469.26624 463.032998 460.675207 0.002130986
5.56734 468.71304 463.319976 461.021574 0.002133502
5.57614 468.74942 463.619123 461.371943 0.002133336
5.58495 468.3754 463.929983 461.726364 0.00213504
5.59375 469.56137 464.252152 462.084821 0.002129647
5.60255 469.94644 464.585401 462.447384 0.002127902
5.61135 470.59222 464.929512 462.814028 0.002124982
5.62015 470.99585 465.28443 463.184798 0.002123161
5.62896 471.60422 465.650186 463.559739 0.002120422
5.63776 471.80258 466.026868 463.938832 0.002119531
5.64656 471.9917 466.414702 464.322111 0.002118681
5.65536 471.82434 466.814054 464.709621 0.002119433
5.66416 471.76468 467.225367 465.10134 0.002119701
5.67297 471.9957 467.649295 465.497322 0.002118663
5.68177 472.12811 468.086626 465.897543 0.002118069
5.69057 472.47949 468.538419 466.302045 0.002116494
5.69937 472.93646 469.006366 466.710857 0.002114449
5.70817 474.04742 469.491407 467.123952 0.002109494
5.71698 474.93198 469.99604 467.541365 0.002105565
5.72578 475.51657 470.523014 467.963138 0.002102976
5.73458 475.6272 471.075738 468.389225 0.002102487
5.74338 475.90857 471.658791 468.819688 0.002101244
5.75219 476.40967 472.278005 469.254489 0.002099034
5.76099 476.6846 472.941237 469.693665 0.002097823
5.76979 477.07132 473.659047 470.13724 0.002096123
5.77859 477.45599 474.445731 470.585176 0.002094434
5.78739 479.13138 475.321436 471.037529 0.00208711
5.79620 480.06604 476.314653 471.494259 0.002083047
5.80500 480.57144 477.467732 471.955384 0.002080856
5.81380 481.09714 478.848494 472.42094 0.002078582
5.82260 482.35291 480.584698 472.890883 0.002073171
5.83140 484.04053 482.973756 473.365229 0.002065943
5.84021 486.63028 486.768291 473.844013 0.002054948
5.84901 490.79425 493.68607 474.327184 0.002037514
5.85781 498.43826 506.789961 474.814787 0.002006267
5.86661 516.24768 529.693364 475.30677 0.001937055
5.87541 557.85034 563.666535 475.803157 0.001792595
5.88422 618.58405 602.827336 476.30398 0.001616595
5.89302 662.90613 628.76187 476.809167 0.001508509
5.90182 646.29407 620.5405 477.318774 0.001547283
5.91062 590.13629 586.250311 477.832745 0.001694524
5.91943 539.48639 549.158435 478.35109 0.001853615
5.92823 512.51447 521.302775 478.873836 0.001951164
5.93703 501.01151 504.477638 479.400917 0.001995962
5.94583 495.65073 495.802111 479.932358 0.00201755
5.95463 492.21967 491.700979 480.468168 0.002031613
5.96344 490.77432 489.753539 481.008281 0.002037596
5.97224 489.76913 488.770941 481.552748 0.002041778
5.98104 489.28442 488.268124 482.101499 0.002043801
5.98984 488.73367 488.050202 482.65454 0.002046104
5.99864 488.19064 488.02535 483.211896 0.00204838
6.00745 488.74219 488.140573 483.773494 0.002046069
6.01625 490.04248 488.361393 484.33937 0.002040639
6.02505 490.91553 488.664268 484.909449 0.00203701
6.03385 490.32489 489.032788 485.483754 0.002039464
6.04266 490.46619 489.455393 486.062285 0.002038877
6.05146 491.32898 489.92391 486.644965 0.002035296
6.06026 492.13882 490.43274 487.231808 0.002031947
6.06906 491.47128 490.978245 487.822834 0.002034707
6.07786 491.20166 491.558261 488.417941 0.002035824
6.08667 492.39191 492.172169 489.017182 0.002030903
6.09547 494.15494 492.820555 489.620466 0.002023657
6.10427 494.81006 493.505534 490.227811 0.002020978
6.11307 495.26898 494.23085 490.839216 0.002019105
6.12187 494.96732 495.002168 491.454591 0.002020335
6.13068 495.86102 495.828003 492.073983 0.002016694
6.13948 497.38538 496.72038 492.697301 0.002010513
6.14828 498.64816 497.696758 493.324541 0.002005422
6.15708 498.85754 498.782581 493.955718 0.00200458
6.16589 499.53101 500.015825 494.590739 0.002001878
6.17469 501.21939 501.458396 495.229598 0.001995134
6.18349 503.81223 503.228932 495.872308 0.001984866
6.19229 507.87347 505.604064 496.518775 0.001968994
6.20109 513.44739 509.277668 497.169026 0.001947619
6.20990 520.74158 515.799236 497.822964 0.001920338
6.21870 532.44739 527.844094 498.480594 0.00187812
6.22750 550.79602 548.437235 499.141928 0.001815554
6.23630 577.73956 578.222462 499.806844 0.001730884
6.24510 609.04889 611.418371 500.475352 0.001641904
6.25391 629.16449 630.940049 501.147464 0.001589409
6.26271 619.92432 620.511743 501.823054 0.0016131
6.27151 586.18005 590.391833 502.502171 0.00170596
6.28031 549.33545 559.982574 503.184702 0.001820381
6.28911 526.95276 538.020319 503.870656 0.001897703
6.29792 515.36945 525.165721 504.560019 0.001940356
6.30672 510.11469 518.732546 505.252685 0.001960343
6.31552 508.18469 515.79838 505.948692 0.001967789
6.32432 507.00266 514.493971 506.647932 0.001972376
6.33313 507.40604 513.930463 507.350388 0.001970808
6.34193 507.66284 513.747467 508.05607 0.001969811
6.35073 507.80954 513.796354 508.764864 0.001969242
6.35953 507.33945 514.003696 509.476754 0.001971067
6.36833 508.23959 514.325729 510.191747 0.001967576
6.37714 508.93903 514.733427 510.909729 0.001964872
6.38594 509.77945 515.206775 511.630722 0.001961633
6.39474 510.12277 515.731371 512.354611 0.001960312
6.40354 511.43927 516.29687 513.081392 0.001955266
6.41234 512.15497 516.895631 513.811073 0.001952534
6.42115 512.37109 517.521808 514.543509 0.00195171
6.42995 512.09454 518.171089 515.278749 0.001952764
6.43875 511.94525 518.840025 516.016663 0.001953334
6.44755 512.49414 519.526029 516.757256 0.001951242
6.45636 512.05493 520.227088 517.500509 0.001952915
6.46516 512.35974 520.941499 518.2463 0.001951754
6.47396 513.98962 521.668054 518.994632 0.001945565
6.48276 515.46179 522.40578 519.745484 0.001940008
6.49156 516.06256 523.153831 520.498734 0.00193775
6.50037 516.3183 523.911711 521.254418 0.00193679
6.50917 517.07813 524.67891 522.012413 0.001933944
6.51797 517.84955 525.45518 522.772695 0.001931063
6.52677 518.40283 526.240413 523.535268 0.001929002
6.53557 518.70392 527.034499 524.300005 0.001927882
6.54438 518.68237 527.837598 525.066927 0.001927962
6.55318 519.38635 528.649841 525.835906 0.001925349
6.56198 520.01263 529.471622 526.606936 0.00192303
6.57078 521.61804 530.303611 527.38002 0.001917112
6.57958 522.04407 531.146133 528.155003 0.001915547
6.58839 522.67419 532.000228 528.931886 0.001913238
6.59719 522.87366 532.867062 529.710663 0.001912508
6.60599 523.88586 533.747957 530.491203 0.001908813
6.61479 524.38568 534.644785 531.273527 0.001906993
6.62360 525.42993 535.598755 532.057504 0.001903203
6.63240 526.06512 536.534942 532.843134 0.001900905
6.64120 527.41779 537.495882 533.630393 0.00189603
6.65000 528.10278 538.486213 534.419149 0.001893571
6.65880 528.68536 539.512228 535.209439 0.001891484
6.66761 529.15277 540.581963 536.001131 0.001889813
6.67641 530.5329 541.706344 536.794197 0.001884897
6.68521 531.72742 542.908531 537.588641 0.001880663
6.69401 533.12903 544.192308 538.384328 0.001875719
6.70281 533.34326 545.594835 539.181232 0.001874965
6.71162 534.66467 547.158141 539.979355 0.001870331
6.72042 536.33398 548.946068 540.778562 0.00186451
6.72922 537.85968 551.068292 541.578872 0.001859221
6.73802 540.12183 553.75102 542.38015 0.001851434
6.74682 543.00452 557.542721 543.182388 0.001841605
6.75563 547.44342 563.75704 543.985588 0.001826673
6.76443 554.66333 575.024297 544.789586 0.001802895
6.77323 569.65814 595.17959 545.594384 0.001755439
6.78203 600.52789 627.273816 546.399973 0.001665202
6.79084 657.87787 669.237779 547.206218 0.001520039
6.79964 714.14648 707.259269 548.013138 0.001400273
6.80844 734.0213 715.007541 548.820596 0.001362358
6.81724 699.89215 685.87965 549.628594 0.001428792
6.82604 641.00195 644.6146 550.437106 0.001560058
6.83485 599.20483 610.290037 551.245995 0.001668878
6.84365 575.31696 588.069508 552.055299 0.001738172
6.85245 564.30042 576.004667 552.864881 0.001772106
6.86125 558.38177 570.19382 553.674716 0.001790889
6.87005 554.6239 567.52045 554.484805 0.001803024
6.87886 552.27216 566.282969 555.295011 0.001810701
6.88766 551.65326 565.738946 556.105309 0.001812733
6.89646 552.34198 565.587371 556.9157 0.001810473
6.90526 553.45056 565.692192 557.726037 0.001806846
6.91407 553.94257 565.978441 558.53637 0.001805241
6.92287 554.13629 566.398585 559.346535 0.00180461
6.93167 554.10974 566.92058 560.156532 0.001804697
6.94047 554.87933 567.522209 560.966356 0.001802194
6.94927 555.16449 568.18776 561.77587 0.001801268
6.95808 555.98956 568.906231 562.585094 0.001798595
6.96688 556.86578 569.669849 563.393894 0.001795765
6.97568 558.04053 570.473523 564.202271 0.001791985
6.98448 559.20807 571.314274 565.010201 0.001788243
6.99328 559.89581 572.190957 565.817549 0.001786047
7.00209 561.11273 573.104635 566.624316 0.001782173
7.01089 562.90363 574.059046 567.43048 0.001776503
7.01969 564.68982 575.062378 568.235905 0.001770884
7.02849 566.52942 576.133936 569.040631 0.001765133
7.03729 568.9942 577.321407 569.844524 0.001757487
7.04610 572.14514 578.738338 570.64756 0.001747808
7.05490 575.46387 580.607257 571.449743 0.001737729
7.06370 579.51813 583.242129 572.250939 0.001725572
7.07250 584.83502 586.87669 573.051172 0.001709884
7.08131 590.65515 591.300478 573.850307 0.001693035
7.09011 596.75653 595.299791 574.648341 0.001675725
7.09891 600.0235 596.70829 575.445278 0.001666601
7.10771 602.89502 595.216668 576.240959 0.001658664
7.11651 601.47052 592.926687 577.035389 0.001662592
7.12532 597.99719 591.306279 577.828563 0.001672249
7.13412 594.58594 590.714599 578.620351 0.001681843
7.14292 591.37524 590.976384 579.410777 0.001690974
7.15172 589.94867 591.781566 580.199712 0.001695063
7.16052 588.16986 592.894988 580.987159 0.001700189
7.16933 587.08539 594.196557 581.773099 0.00170333
7.17813 586.85083 595.642796 582.557404 0.001704011
7.18693 587.65149 597.227732 583.340114 0.001701689
7.19573 589.7453 598.962165 584.121104 0.001695647
7.20453 592.04224 600.867909 584.900352 0.001689069
7.21334 594.26831 602.977159 585.677865 0.001682742
7.22214 596.27704 605.33398 586.453518 0.001677073
7.23094 598.93671 607.998993 587.227291 0.001669625
7.23974 602.79926 611.055218 587.999192 0.001658927
7.24855 608.26843 614.616836 588.769087 0.001644011
7.25735 614.85791 618.845655 589.537029 0.001626392
7.26615 623.30933 623.973718 590.302867 0.00160434
7.27495 634.90906 630.351182 591.06661 0.001575029
7.28375 649.8985 638.555838 591.828258 0.001538702
7.29256 670.5498 649.715903 592.587689 0.001491314
7.30136 699.17126 666.456996 593.344886 0.001430265
7.31016 739.06268 695.069645 594.099859 0.001353065
7.31896 796.49902 748.636388 594.852487 0.001255494
7.32777 884.33685 847.739005 595.602797 0.001130791
7.33657 1016.3746 1012.231958 596.350671 0.000983889
7.34537 1173.8273 1240.148698 597.09612 0.000851914
7.35417 1317.3263 1471.966444 597.839126 0.000759113
7.36297 1387.6273 1563.914836 598.579575 0.000720655
7.37178 1398.0154 1430.77816 599.317511 0.0007153
7.38058 1297.412 1192.495536 600.052818 0.000770765
7.38938 1191.5498 978.026938 600.785483 0.000839243
7.39818 1036.1904 830.760817 601.515517 0.000965074
7.40698 908.5036 745.584955 602.242806 0.001100711
7.41579 807.64325 701.172666 602.967339 0.00123817
7.42459 744.14404 678.257707 603.689127 0.001343826
7.43339 701.94592 665.448236 604.408052 0.001424611
7.44219 675.52899 657.500185 605.124166 0.001480321
7.45099 659.76666 652.253613 605.837335 0.001515687
7.45980 650.8833 648.758094 606.547574 0.001536374
7.46860 646.37445 646.516895 607.254887 0.001547091
7.47740 643.30554 645.229837 607.959168 0.001554471
7.48620 641.82831 644.7068 608.660445 0.001558049
7.49501 641.42822 644.82742 609.358613 0.001559021
7.50381 641.93463 645.523614 610.053688 0.001557791
7.51261 644.43634 646.767675 610.745659 0.001551744
7.52141 647.12897 648.568654 611.434424 0.001545287
7.53021 649.89032 650.973992 612.119998 0.001538721
7.53902 653.65674 654.076682 612.802372 0.001529855
7.54782 657.93408 658.03023 613.481447 0.001519909
7.55662 663.48407 663.083547 614.157268 0.001507195
7.56542 671.68994 669.664066 614.829736 0.001488782
7.57422 683.54791 678.632654 615.498846 0.001462955
7.58303 700.14893 691.983932 616.164613 0.001428268
7.59183 726.18555 714.325245 616.826934 0.001377059
7.60063 766.24237 754.732079 617.485863 0.00130507
7.60943 828.91919 826.48737 618.141284 0.00120639
7.61823 934.71625 940.9754 618.793213 0.001069843
7.62704 1087.7711 1093.958044 619.441661 0.000919311
7.63584 1251.5573 1242.730342 620.086537 0.000799005
7.64464 1329.3013 1299.555989 620.727836 0.000752275
7.65344 1274.8547 1240.479356 621.365577 0.000784403
7.66225 1163.1852 1152.518306 621.99967 0.000859708
7.67105 1086.3611 1093.330049 622.63015 0.000920504
7.67985 1046.3839 1047.79605 623.256928 0.000955672
7.68865 1002.5925 979.521006 623.880023 0.000997414
7.69745 941.7403 899.047083 624.499436 0.001061864
7.70626 875.80554 832.956967 625.11508 0.001141806
7.71506 823.18079 790.277947 625.727005 0.0012148
7.72386 788.48975 768.850557 626.335125 0.001268247
7.73266 770.64905 762.78027 626.939443 0.001297608
7.74146 762.24316 766.859122 627.539979 0.001311917
7.75027 764.31543 778.316885 628.136653 0.00130836
7.75907 775.31586 796.661406 628.729466 0.001289797
7.76787 795.93213 823.174682 629.31844 0.001256389
7.77667 827.05865 861.263488 629.903491 0.001209104
7.78548 874.62561 918.970722 630.484674 0.001143346
7.79428 953.84918 1015.748806 631.061893 0.001048384
7.80308 1078.0305 1194.462235 631.635172 0.000927618
7.81188 1350.7991 1530.371878 632.204528 0.000740303
7.82068 1882.0259 2114.178062 632.769886 0.000531342
7.82949 2968.7427 2986.753551 633.331253 0.000336843
7.83829 4389.5498 4016.835543 633.888651 0.000227814
7.84709 5065.9312 4727.07571 634.442011 0.000197397
7.85589 4617.1079 4525.073666 634.991368 0.000216586
7.86469 3441.5659 3611.788336 635.536656 0.000290565
7.87350 2515.4766 2630.61989 636.077899 0.000397539
7.88230 1931.5377 1905.286812 636.615103 0.000517722
7.89110 1579.1097 1487.340286 637.148203 0.000633268
7.89990 1388.4305 1316.275028 637.67725 0.000720238
7.90870 1317.7799 1306.570585 638.202178 0.000758852
7.91751 1302.3865 1372.874991 638.722997 0.000767821
7.92631 1316.7156 1409.710095 639.239733 0.000759465
7.93511 1268.9329 1328.804397 639.752319 0.000788064
7.94391 1177.2303 1169.094894 640.260783 0.000849451
7.95272 1055.073 1014.344179 640.765133 0.000947802
7.96152 940.23114 900.330409 641.265312 0.001063568
7.97032 859.74146 828.450227 641.76137 0.00116314
7.97912 803.47583 786.933126 642.253251 0.001244593
7.98792 767.41901 763.196813 642.740966 0.001303069
7.99673 745.01544 748.953488 643.224544 0.001342254
8.00553 733.0141 740.094843 643.703957 0.00136423
8.01433 727.37 734.958031 644.179139 0.001374816
8.02313 725.83429 733.091892 644.650198 0.001377725
8.03193 726.80176 734.931886 645.117077 0.001375891
8.04074 732.6557 742.327314 645.579728 0.001364898
8.04954 745.16962 760.004987 646.038244 0.001341976
8.05834 770.53674 797.229603 646.492575 0.001297797
8.06714 824.21405 867.087013 646.942675 0.001213277
8.07594 924.68103 979.795481 647.388635 0.001081454
8.08475 1080.4498 1128.035989 647.830411 0.00092554
8.09355 1228.5732 1262.366754 648.267957 0.000813952
8.10235 1249.0306 1288.345106 648.701366 0.000800621
8.11115 1148.4359 1181.872856 649.130593 0.00087075
8.11996 1003.6774 1028.380811 649.555641 0.000996336
8.12876 894.92316 896.621304 649.976469 0.001117414
8.13756 829.81506 807.111856 650.393168 0.001205088
8.14636 787.2785 754.594763 650.805696 0.001270199
8.15516 759.96606 725.981356 651.214018 0.001315848
8.16397 741.2818 710.10337 651.618221 0.001349015
8.17277 727.57867 700.408618 652.018268 0.001374422
8.18157 717.13788 693.807672 652.414124 0.001394432
8.19037 709.43341 688.9646 652.805878 0.001409576
8.19917 703.20203 685.263563 653.193493 0.001422066
8.20798 699.13928 682.36762 653.576935 0.00143033
8.21678 695.6825 680.063352 653.956301 0.001437437
8.22558 693.92279 678.206534 654.331548 0.001441083
8.23438 693.05939 676.694855 654.702687 0.001442878
8.24319 691.28363 675.454324 655.069687 0.001446584
8.25199 690.25684 674.429719 655.432644 0.001448736
8.26079 690.10022 673.579863 655.791518 0.001449065
8.26959 689.69165 672.873154 656.146282 0.001449923
8.27839 688.56122 672.284757 656.497029 0.001452304
8.28720 687.50531 671.795361 656.843731 0.001454534
8.29600 687.32996 671.389523 657.186355 0.001454905
8.30480 686.83331 671.054624 657.524994 0.001455957
8.31360 686.94366 670.780546 657.859621 0.001455723
8.32240 687.22137 670.558932 658.190215 0.001455135
8.33121 686.83563 670.38264 658.516857 0.001455952
8.34001 686.17468 670.248984 658.839527 0.001457355
8.34881 686.26874 670.147311 659.158238 0.001457155
8.35761 686.26251 670.076228 659.472973 0.001457168
8.36641 686.57898 670.032217 659.783811 0.001456497
8.37522 686.16553 670.012277 660.090735 0.001457374
8.38402 685.82159 670.013815 660.39373 0.001458105
8.39282 685.17535 670.034573 660.692873 0.00145948
8.40162 685.5321 670.072631 660.98815 0.001458721
8.41043 685.15332 670.126317 661.279549 0.001459527
8.41923 684.99652 670.194184 661.567145 0.001459861
8.42803 684.55151 670.274998 661.850927 0.00146081
8.43683 685.36462 670.367695 662.130883 0.001459077
8.44563 684.78003 670.471404 662.40709 0.001460323
8.45444 683.89453 670.585382 662.679537 0.001462214
8.46324 684.51178 670.709067 662.948244 0.001460895
8.47204 684.98224 670.845172 663.213202 0.001459892
8.48084 684.36426 670.987247 663.474486 0.00146121
8.48964 684.04895 671.138379 663.732089 0.001461884
8.49845 683.65912 671.298786 663.986005 0.001462717
8.50725 682.81207 671.469057 664.236307 0.001464532
8.51605 682.60229 671.650161 664.48299 0.001464982
8.52485 682.90881 671.843712 664.726051 0.001464324
8.53366 683.13336 672.052301 664.965561 0.001463843
8.54246 682.78711 672.280098 665.201518 0.001464585
8.55126 682.75482 672.53463 665.433917 0.001464655
8.56006 683.38629 672.831908 665.662838 0.001463301
8.56886 683.61261 673.208881 665.888271 0.001462817
8.57767 684.3114 673.746771 666.110242 0.001461323
8.58647 685.75275 674.592978 666.32875 0.001458252
8.59527 688.44135 675.943834 666.543872 0.001452557
8.60407 691.35077 677.930679 666.755602 0.001446444
8.61287 694.39789 680.406063 666.963944 0.001440097
8.62168 696.18311 682.568195 667.16897 0.001436404
8.63048 696.73303 682.991162 667.370683 0.00143527
8.63928 694.44958 681.457559 667.569082 0.001439989
8.64808 690.87665 679.339512 667.76424 0.001447436
8.65689 687.57764 677.6141 667.956161 0.001454381
8.66569 685.16614 676.528506 668.144852 0.0014595
8.67449 683.0285 675.984172 668.330378 0.001464068
8.68329 681.12714 675.786477 668.512746 0.001468155
8.69209 679.21906 675.774505 668.691984 0.001472279
8.70090 678.67041 675.854659 668.8681 0.001473469
8.70970 678.62451 675.983469 669.041159 0.001473569
8.71850 678.44366 676.141976 669.211171 0.001473962
8.72730 678.13721 676.321559 669.378146 0.001474628
8.73610 678.00903 676.517664 669.542147 0.001474907
8.74491 678.16199 676.727515 669.703185 0.001474574
8.75371 677.49988 676.949385 669.861273 0.001476015
8.76251 677.35248 677.183889 670.016472 0.001476336
8.77131 677.14111 677.427292 670.168796 0.001476797
8.78011 677.45563 677.680917 670.318258 0.001476111
8.78892 676.96954 677.944889 670.464919 0.001477171
8.79772 676.64923 678.219446 670.608792 0.001477871
8.80652 676.11359 678.505041 670.749909 0.001479041
8.81532 676.17902 678.80225 670.888286 0.001478898
8.82413 676.90436 679.111927 671.02398 0.001477314
8.83293 677.34216 679.436519 671.157009 0.001476359
8.84173 677.89545 679.773972 671.287389 0.001475154
8.85053 677.73334 680.12718 671.415179 0.001475507
8.85933 677.86646 680.497544 671.540397 0.001475217
8.86814 676.80664 680.895003 671.66306 0.001477527
8.87694 677.08099 681.304881 671.783225 0.001476928
8.88574 677.26697 681.737558 671.900913 0.001476523
8.89454 677.49939 682.195393 672.01614 0.001476016
8.90334 677.29895 682.681262 672.128967 0.001476453
8.91215 677.50348 683.216395 672.23941 0.001476007
8.92095 677.61975 683.768165 672.347502 0.001475754
8.92975 677.66913 684.358665 672.453263 0.001475646
8.93855 678.55219 684.992789 672.556752 0.001473726
8.94736 678.59644 685.675913 672.657987 0.00147363
8.95616 678.64764 686.414261 672.756989 0.001473519
8.96496 678.92346 687.228614 672.853815 0.00147292
8.97376 679.3512 688.10108 672.948487 0.001471993
8.98256 679.52374 689.054778 673.041025 0.001471619
8.99137 680.2381 690.101892 673.131484 0.001470073
9.00017 681.125 691.256443 673.219888 0.001468159
9.00897 681.85339 692.538218 673.306261 0.001466591
9.01777 682.90436 693.96171 673.390653 0.001464334
9.02657 683.58838 695.554459 673.47309 0.001462869
9.03538 684.71722 697.346431 673.553604 0.001460457
9.04418 686.323 699.37425 673.632222 0.00145704
9.05298 688.60852 701.684057 673.708993 0.001452204
9.06178 690.90161 704.333046 673.783943 0.001447384
9.07058 694.32074 707.3933 673.857097 0.001440257
9.07939 698.92633 710.961671 673.928506 0.001430766
9.08819 703.38556 715.151469 673.998196 0.001421695
9.09699 708.20105 720.123578 674.066193 0.001412028
9.10579 714.61707 726.090147 674.132545 0.001399351
9.11460 723.16156 733.337017 674.197279 0.001382817
9.12340 733.32513 742.260732 674.260423 0.001363652
9.13220 748.60651 753.43029 674.322025 0.001335815
9.14100 767.7959 767.699627 674.382111 0.001302429
9.14980 794.2627 786.494131 674.440709 0.001259029
9.15861 832.62256 812.54324 674.497867 0.001201024
9.16741 887.29108 851.549779 674.553611 0.001127026
9.17621 969.62756 915.221514 674.607977 0.001031324
9.18501 1098.3824 1024.831942 674.660993 0.00091043
9.19381 1298.7266 1212.087391 674.712704 0.000769985
9.20262 1595.77 1511.360906 674.763138 0.000626657
9.21142 1978.0999 1934.210147 674.812325 0.000505536
9.22022 2356.9399 2418.591151 674.860309 0.000424279
9.22902 2725.7722 2819.998688 674.90712 0.000366869
9.23782 2941.6819 2997.216553 674.952785 0.000339942
9.24663 2848.9929 2811.27582 674.99735 0.000351001
9.25543 2416.3281 2326.072385 675.040844 0.000413851
9.26423 1886.447 1804.607444 675.083294 0.000530097
9.27303 1444.7524 1399.000297 675.124746 0.00069216
9.28184 1162.4828 1132.907221 675.165228 0.000860228
9.29064 989.49127 976.227491 675.204774 0.00101062
9.29944 885.05658 888.156477 675.243414 0.001129871
9.30824 820.11334 837.078438 675.28119 0.001219344
9.31704 776.93439 804.722413 675.318131 0.00128711
9.32585 749.16748 782.229547 675.354267 0.001334815
9.33465 730.01093 765.573863 675.38964 0.001369843
9.34345 718.07465 752.793628 675.424279 0.001392613
9.35225 708.90912 742.772232 675.458214 0.001410618
9.36105 702.35535 734.789376 675.491486 0.001423781
9.36986 697.24524 728.350901 675.524123 0.001434216
9.37866 693.21875 723.106405 675.556157 0.001442546
9.38746 690.47003 718.800171 675.587627 0.001448289
9.39626 688.11292 715.244018 675.618562 0.00145325
9.40507 686.64905 712.297654 675.648996 0.001456348
9.41387 685.74335 709.85422 675.678958 0.001458272
9.42267 685.01965 707.832557 675.708488 0.001459812
9.43147 683.62903 706.170714 675.737613 0.001462782
9.44027 682.75812 704.821669 675.766366 0.001464648
9.44908 682.73547 703.749615 675.794782 0.001464696
9.45788 683.00385 702.928471 675.822892 0.001464121
9.46668 683.25378 702.340235 675.850726 0.001463585
9.47548 682.78815 701.973728 675.87832 0.001464583
9.48428 682.66089 701.824571 675.905704 0.001464856
9.49309 682.58459 701.894817 675.932907 0.00146502
9.50189 683.0661 702.193389 675.959966 0.001463987
9.51069 683.79871 702.736831 675.98691 0.001462419
9.51949 684.62799 703.551074 676.01377 0.001460647
9.52829 686.15674 704.672915 676.040575 0.001457393
9.53710 688.49945 706.154207 676.067361 0.001452434
9.54590 690.14905 708.066244 676.094156 0.001448962
9.55470 693.28302 710.508816 676.120988 0.001442412
9.56350 697.492 713.623971 676.147894 0.001433708
9.57231 702.49304 717.617296 676.174901 0.001423502
9.58111 708.82172 722.791291 676.202036 0.001410792
9.58991 717.80463 729.589358 676.229336 0.001393137
9.59871 730.41577 738.680965 676.256828 0.001369083
9.60751 749.00208 751.207284 676.284537 0.00133511
9.61632 775.18146 769.470087 676.312501 0.001290021
9.62512 811.80249 798.491955 676.340745 0.001231827
9.63392 870.58453 848.706136 676.369298 0.001148654
9.64272 956.50842 937.207523 676.398187 0.001045469
9.65152 1089.1373 1082.852466 676.427446 0.000918158
9.66033 1283.605 1293.013486 676.457102 0.000779056
9.66913 1518.3203 1539.789877 676.487179 0.000658623
9.67793 1699.1353 1723.833647 676.517713 0.000588535
9.68673 1724.642 1709.442593 676.548727 0.00057983
9.69553 1581.0544 1514.354808 676.580248 0.000632489
9.70434 1380.3068 1282.194385 676.612308 0.000724477
9.71314 1197.2419 1103.177885 676.644933 0.000835253
9.72194 1069.5404 1001.151991 676.678146 0.000934981
9.73074 996.29022 966.484518 676.711981 0.001003724
9.73955 958.81085 972.394819 676.746461 0.001042959
9.74835 931.24872 979.032767 676.781614 0.001073827
9.75715 901.51929 950.86217 676.817462 0.001109239
9.76595 870.98114 893.886625 676.854039 0.00114813
9.77475 839.97253 835.412655 676.891367 0.001190515
9.78356 806.46167 789.66509 676.929467 0.001239985
9.79236 779.76172 758.792703 676.968374 0.001282443
9.80116 759.59399 739.786449 677.008109 0.001316493
9.80996 747.75372 728.477807 677.048693 0.001337339
9.81876 738.78058 721.587073 677.090159 0.001353582
9.82757 734.65564 717.191322 677.132527 0.001361182
9.83637 732.88324 714.356952 677.175818 0.001364474
9.84517 734.67004 712.681304 677.220065 0.001361155
9.85397 737.22089 712.027916 677.265286 0.001356446
9.86278 741.7066 712.426248 677.311507 0.001348242
9.87158 747.11023 714.109881 677.358745 0.001338491
9.88038 755.62054 717.720967 677.407034 0.001323416
9.88918 765.54852 724.743078 677.456391 0.001306253
9.89798 779.23468 738.158728 677.506835 0.00128331
9.90679 792.62848 762.682835 677.558398 0.001261625
9.91559 812.0874 803.646104 677.611097 0.001231395
9.92439 841.26611 863.467096 677.664949 0.001188685
9.93319 883.42828 935.251835 677.719987 0.001131954
9.94199 932.23846 992.374361 677.776226 0.001072687
9.95080 964.60535 994.244617 677.833682 0.001036693
9.95960 959.99756 938.764009 677.892388 0.001041669
9.96840 911.81836 865.839847 677.952359 0.00109671
9.97720 837.85419 803.726134 678.013614 0.001193525
9.98600 784.12756 760.336323 678.076168 0.001275303
9.99481 750.6344 733.614896 678.140055 0.001332206
10.00361 730.0686 718.272102 678.205289 0.001369734
10.01241 715.88678 709.446141 678.271875 0.001396869
10.02121 705.96729 703.990905 678.339859 0.001416496
10.03002 699.5733 700.28396 678.409238 0.001429443
10.03882 694.37146 697.56288 678.480031 0.001440151
10.04762 690.81335 695.475033 678.552279 0.001447569
10.05642 687.54083 693.831229 678.625977 0.001454459
10.06522 685.64838 692.514431 678.701151 0.001458474
10.07403 684.02875 691.444651 678.777818 0.001461927
10.08283 682.69946 690.566236 678.856004 0.001464773
10.09163 681.11578 689.838789 678.935709 0.001468179
10.10043 680.52698 689.232113 679.016949 0.001469449
10.10923 680.1955 688.72341 679.099769 0.001470166
10.11804 680.42828 688.295541 679.184157 0.001469663
10.12684 679.93188 687.935022 679.270137 0.001470736
10.13564 680.37708 687.634905 679.357727 0.001469773
10.14444 680.59338 687.379703 679.446951 0.001469306
10.15325 680.5094 687.166396 679.537794 0.001469487
10.16205 680.05817 686.990916 679.630301 0.001470462
10.17085 680.00336 686.84619 679.724488 0.001470581
10.17965 679.83856 686.730084 679.820337 0.001470937
10.18845 680.12958 686.639629 679.917904 0.001470308
10.19726 679.70563 686.572495 680.017172 0.001471225
10.20606 679.76941 686.526752 680.118175 0.001471087
10.21486 679.50421 686.500828 680.220894 0.001471661
10.22366 680.20532 686.493469 680.325374 0.001470144
10.23246 680.50079 686.503713 680.43163 0.001469506
10.24127 680.40277 686.530826 680.539637 0.001469718
10.25007 680.35577 686.574354 680.649456 0.001469819
10.25887 680.67041 686.633975 680.761063 0.00146914
10.26767 681.3667 686.709982 680.874481 0.001467638
10.27647 681.875 686.801928 680.989721 0.001466544
10.28528 682.72687 686.910558 681.106795 0.001464715
10.29408 683.64294 687.036558 681.225712 0.001462752
10.30288 684.08667 687.178928 681.346484 0.001461803
10.31168 683.56921 687.343062 681.469135 0.00146291
10.32048 683.87299 687.52867 681.593633 0.00146226
10.32929 685.00861 687.738247 681.720043 0.001459836
10.33809 686.28815 687.974718 681.848333 0.001457114
10.34689 687.24915 688.24209 681.978525 0.001455076
10.35569 688.27997 688.545443 682.110628 0.001452897
10.36450 689.40729 688.891371 682.244652 0.001450521
10.37330 691.21838 689.288741 682.380619 0.001446721
10.38210 693.70862 689.748897 682.518491 0.001441527
10.39090 697.85742 690.287826 682.658338 0.001432957
10.39971 702.24707 690.926648 682.800121 0.001424
10.40851 707.24225 691.695508 682.943846 0.001413943
10.41731 713.08093 692.638572 683.089569 0.001402365
10.42611 721.36792 693.824643 683.237247 0.001386255
10.43491 729.80707 695.378737 683.386903 0.001370225
10.44371 735.93835 697.562529 683.538544 0.001358809
10.45252 740.00476 700.903359 683.692192 0.001351343
10.46132 742.11664 706.466599 683.847818 0.001347497
10.47012 743.51947 715.988961 684.005427 0.001344955
10.47892 744.58453 731.58951 684.165078 0.001343031
10.48773 746.77496 754.72438 684.326721 0.001339091
10.49653 750.19922 784.179919 684.49038 0.001332979
10.50533 756.23553 812.543334 684.656057 0.001322339
10.51413 759.35376 824.280254 684.823757 0.001316909
10.52293 757.40894 810.155464 684.993485 0.001320291
10.53174 747.98737 781.774324 685.165242 0.001336921
10.54054 736.99377 754.056746 685.339052 0.001356864
10.54934 727.50739 733.542409 685.514859 0.001374556
10.55814 722.84119 721.108282 685.692745 0.00138343
10.56695 720.44452 715.180071 685.872652 0.001388032
10.57575 719.44287 713.319637 686.054603 0.001389964
10.58455 717.92505 712.795155 686.238598 0.001392903
10.59335 715.01074 711.142912 686.42464 0.00139858
10.60215 710.58417 707.883658 686.612752 0.001407293
10.61096 705.91827 704.289259 686.80287 0.001416595
10.61976 702.97931 701.340062 686.995082 0.001422517
10.62856 700.25427 699.24315 687.189323 0.001428053
10.63736 698.46722 697.928694 687.385615 0.001431706
10.64616 697.24445 697.178761 687.583957 0.001434217
10.65497 696.42578 696.786095 687.784351 0.001435903
10.66377 696.36823 696.607233 687.986796 0.001436022
10.67257 696.61157 696.560995 688.191291 0.00143552
10.68137 696.97766 696.605453 688.397858 0.001434766
10.69017 696.98279 696.718896 688.60645 0.001434756
10.69898 697.48016 696.888842 688.817089 0.001433733
10.70778 697.50067 697.107547 689.029774 0.00143369
10.71658 697.98273 697.369916 689.244501 0.0014327
10.72538 698.0451 697.67265 689.461271 0.001432572
10.73419 698.47675 698.013931 689.680079 0.001431687
10.74299 699.44897 698.392987 689.900949 0.001429697
10.75179 699.29755 698.80998 690.123803 0.001430006
10.76059 699.60498 699.266214 690.348738 0.001429378
10.76939 699.54913 699.763564 690.575676 0.001429492
10.77820 700.3241 700.305043 690.804612 0.00142791
10.78700 700.7406 700.894826 691.035622 0.001427062
10.79580 701.79449 701.538101 691.268622 0.001424919
10.80460 702.15704 702.241701 691.503662 0.001424183
10.81340 703.35309 703.014115 691.740657 0.001421761
10.82221 704.58868 703.866586 691.979684 0.001419268
10.83101 705.47595 704.8133 692.220737 0.001417483
10.83981 705.87842 705.872329 692.46373 0.001416675
10.84861 707.57367 707.071057 692.708768 0.00141328
10.85741 708.81158 708.435616 692.955763 0.001410812
10.86622 709.59265 710.010499 693.204736 0.001409259
10.87502 711.61194 711.865031 693.455682 0.00140526
10.88382 714.70001 714.098279 693.708596 0.001399188
10.89262 717.49512 716.891382 693.96347 0.001393738
10.90142 720.55609 720.579868 694.220299 0.001387817
10.91023 725.91986 725.800396 694.479106 0.001377563
10.91903 732.58685 733.640677 694.739826 0.001365026
10.92783 742.05225 745.714635 695.002479 0.001347614
10.93663 755.37048 764.015744 695.267061 0.001323854
10.94544 775.13629 790.307625 695.533562 0.001290096
10.95424 801.39655 824.405649 695.801977 0.001247822
10.96304 829.29266 861.808352 696.072297 0.001205847
10.97184 855.30951 896.256344 696.344545 0.001169167
10.98064 876.90686 923.412405 696.618621 0.001140372
10.98945 887.63446 931.618692 696.89464 0.00112659
10.99825 884.80365 908.427388 697.172501 0.001130194
11.00705 867.633 865.048539 697.452227 0.001152561
11.01585 840.94104 823.516487 697.733808 0.001189144
11.02465 815.46844 795.187834 698.017236 0.001226289
11.03346 796.98871 780.775663 698.302535 0.001254723
11.04226 785.96472 777.179634 698.589598 0.001272322
11.05106 783.78717 781.610447 698.878545 0.001275857
11.05986 791.32135 793.216721 699.16927 0.001263709
11.06867 809.10114 814.20237 699.461795 0.001235939
11.07747 842.82031 850.944595 699.75611 0.001186493
11.08627 901.0376 914.545788 700.052207 0.001109832
11.09507 1005.2791 1018.910076 700.350073 0.000994749
11.10387 1175.881 1174.577219 700.6497 0.000850426
11.11268 1414.3951 1376.921168 700.951111 0.000707016
11.12148 1622.394 1586.105006 701.254193 0.000616373
11.13028 1681.8552 1707.383916 701.559038 0.000594582
11.13908 1551.0089 1653.434572 701.865636 0.000644742
11.14789 1333.7406 1467.761756 702.173906 0.000749771
11.15669 1128.8574 1257.821565 702.483871 0.000885851
11.16549 985.25195 1084.629389 702.795522 0.001014969
11.17429 894.49609 963.820323 703.108881 0.001117948
11.18309 839.70392 889.244361 703.423831 0.001190896
11.19190 808.08075 847.412683 703.740467 0.0012375
11.20070 789.97986 825.828264 704.058777 0.001265855
11.20950 782.23602 816.259212 704.378642 0.001278387
11.21830 781.43536 814.729122 704.700194 0.001279696
11.22710 788.70282 820.534228 705.023313 0.001267905
11.23591 804.27142 835.818333 705.348022 0.001243361
11.24471 832.73224 865.990816 705.67431 0.001200866
11.25351 886.22626 920.217412 706.002163 0.00112838
11.26231 976.87354 1010.265939 706.331608 0.001023674
11.27111 1123.3125 1145.710835 706.662518 0.000890224
11.27992 1316.0487 1323.896847 706.995031 0.00075985
11.28872 1534.9932 1516.357284 707.329023 0.000651469
11.29752 1695.8431 1661.777329 707.664516 0.000589677
11.30632 1727.2466 1679.248402 708.001499 0.000578956
11.31513 1586.5492 1547.003326 708.339959 0.000630299
11.32393 1361.8896 1345.436543 708.679881 0.000734274
11.33273 1148.8867 1156.165878 709.021254 0.000870408
11.34153 1006.9506 1012.695243 709.364102 0.000993097
11.35033 927.07251 918.153934 709.708295 0.001078664
11.35914 881.20642 862.931421 710.053977 0.001134808
11.36794 855.38403 834.634378 710.401015 0.001169066
11.37674 840.27753 822.656306 710.749435 0.001190083
11.38554 834.08612 818.684984 711.099225 0.001198917
11.39434 829.92682 814.884861 711.450369 0.001204926
11.40315 824.67651 805.374253 711.802895 0.001212597
11.41195 811.94415 791.048761 712.156667 0.001231612
11.42075 794.72833 776.47361 712.511834 0.001258292
11.42955 778.9024 764.414831 712.868259 0.001283858
11.43835 766.94128 755.551776 713.225928 0.001303881
11.44716 758.54077 749.547351 713.58495 0.001318321
11.45596 753.05444 745.741011 713.945188 0.001327925
11.46476 749.88342 743.557499 714.306668 0.001333541
11.47356 746.71521 742.783468 714.669376 0.001339199
11.48237 745.59082 743.518407 715.033339 0.001341218
11.49117 745.90961 746.112494 715.398419 0.001340645
11.49997 747.69318 750.879633 715.764725 0.001337447
11.50877 750.521 757.665216 716.132243 0.001332408
11.51757 752.80121 765.15973 716.500876 0.001328372
11.52638 753.09985 770.092853 716.870649 0.001327845
11.53518 750.73499 768.799102 717.24155 0.001332028
11.54398 746.99097 761.910314 717.613605 0.001338704
11.55278 743.53467 753.371887 717.986672 0.001344927
11.56158 741.5376 745.914884 718.360865 0.001348549
11.57039 739.53363 740.436737 718.736168 0.001352204
11.57919 737.75989 736.8587 719.112439 0.001355455
11.58799 736.52319 734.712503 719.489834 0.001357731
11.59679 735.69073 733.490093 719.868211 0.001359267
11.60559 735.16962 732.809558 720.247596 0.00136023
11.61440 734.68274 732.442207 720.627976 0.001361132
11.62320 734.65326 732.272551 721.009335 0.001361186
11.63200 735.30902 732.237573 721.391702 0.001359972
11.64080 735.77899 732.312935 721.774932 0.001359104
11.64961 736.53662 732.485651 722.159184 0.001357706
11.65841 736.88794 732.750945 722.544312 0.001357058
11.66721 736.98987 733.110323 722.930346 0.001356871
11.67601 737.63647 733.571748 723.317271 0.001355681
11.68481 738.63892 734.151375 723.705071 0.001353841
11.69362 739.1106 734.882172 724.093732 0.001352977
11.70242 740.56299 735.812492 724.483239 0.001350324
11.71122 742.30707 737.059297 724.873621 0.001347151
11.72002 745.01141 738.854889 725.264732 0.001342261
11.72883 748.68091 741.641576 725.656733 0.001335683
11.73763 755.57971 746.134698 726.049476 0.001323487
11.74643 765.45911 753.258784 726.442992 0.001306406
11.75523 784.0976 763.815729 726.837265 0.001275351
11.76403 810.58435 777.860232 727.232282 0.001233678
11.77284 835.57629 793.657898 727.628071 0.001196779
11.78164 851.96832 806.019843 728.024483 0.001173753
11.79044 846.38727 807.724265 728.421685 0.001181492
11.79924 825.00452 798.0553 728.819526 0.001212115
11.80804 802.30212 783.613301 729.217992 0.001246413
11.81685 785.83514 770.02541 729.617203 0.001272532
11.82565 774.07153 759.616438 730.01701 0.00129187
11.83445 766.98773 752.707029 730.417443 0.001303802
11.84325 762.28357 748.665404 730.818488 0.001311848
11.85206 759.53351 746.601407 731.220176 0.001316598
11.86086 757.09534 745.786833 731.622402 0.001320838
11.86966 756.50421 745.776648 732.025151 0.00132187
11.87846 757.32501 746.399152 732.428546 0.001320437
11.88726 759.99402 747.727353 732.832436 0.0013158
11.89607 764.552 750.092431 733.236852 0.001307956
11.90487 771.05139 754.14572 733.641781 0.00129693
11.91367 781.37769 760.820374 734.047254 0.001279791
11.92247 793.55658 771.063871 734.453119 0.00126015
11.93127 812.07361 785.289405 734.859501 0.001231415
11.94008 828.04346 802.413065 735.266385 0.001207666
11.94888 840.14148 818.331151 735.67362 0.001190276
11.95768 840.32788 825.440464 736.081376 0.001190012
11.96648 835.45551 818.993495 736.489502 0.001196952
11.97528 820.79553 803.776423 736.898075 0.00121833
11.98409 808.79816 787.395208 737.306944 0.001236402
11.99289 796.12848 773.840728 737.716233 0.001256079
12.00169 786.76593 764.321535 738.125931 0.001271026
12.01049 778.73804 758.351778 738.535884 0.001284129
12.01929 773.36975 754.968498 738.946264 0.001293043
12.02810 768.93805 753.234775 739.356919 0.001300495
12.03690 765.23273 752.48944 739.767883 0.001306792
12.04570 762.29218 752.37957 740.179141 0.001311833
12.05450 759.85675 752.799485 740.590683 0.001316038
12.06330 759.50079 753.838681 741.002493 0.001316654
12.07211 760.86285 755.751745 741.414561 0.001314297
12.08091 764.33118 758.893051 741.826919 0.001308333
12.08971 770.34729 763.606835 742.239461 0.001298116
12.09851 780.39459 769.913287 742.652223 0.001281403
12.10732 791.76654 777.119684 743.06519 0.001262999
12.11612 796.85614 783.194185 743.478352 0.001254932
12.12492 792.96582 785.036244 743.891695 0.001261088
12.13372 784.07343 781.615034 744.305208 0.001275391
12.14252 775.9519 775.443897 744.718925 0.00128874
12.15133 769.66071 769.308146 745.132693 0.001299274
12.16013 765.19885 764.503227 745.546688 0.00130685
12.16893 762.74951 761.296059 745.960758 0.001311046
12.17773 761.47986 759.453833 746.374891 0.001313232
12.18653 761.55994 758.57504 746.789216 0.001313094
12.19534 761.38477 758.286886 747.20358 0.001313396
12.20414 761.62 758.315483 747.618067 0.001312991
12.21294 761.34192 758.484618 748.032523 0.00131347
12.22174 762.22198 758.687299 748.447126 0.001311954
12.23055 763.24707 758.873067 748.861723 0.001310192
12.23935 765.56494 759.061874 749.276303 0.001306225
12.24815 768.55347 759.390983 749.690997 0.001301146
12.25695 770.89221 760.172734 750.105653 0.001297198
12.26575 772.02252 761.756328 750.520306 0.001295299
12.27456 773.6225 764.227726 750.934946 0.00129262
12.28336 775.14398 767.578946 751.34961 0.001290083
12.29216 777.72534 772.000815 751.764146 0.001285801
12.30096 781.44989 777.905243 752.178685 0.001279673
12.30977 785.93933 785.65894 752.593217 0.001272363
12.31857 792.47321 795.199864 753.007637 0.001261872
12.32737 799.75684 805.457416 753.421983 0.00125038
12.33617 805.26276 813.655593 753.836245 0.001241831
12.34497 807.88556 816.307895 754.25046 0.001237799
12.35378 807.52277 813.279355 754.664477 0.001238355
12.36258 805.63098 808.170735 755.078428 0.001241263
12.37138 806.23169 804.319637 755.492303 0.001240338
12.38018 809.87341 803.485533 755.905952 0.001234761
12.38898 815.9812 806.531546 756.319555 0.001225518
12.39779 825.90344 813.982662 756.73296 0.001210795
12.40659 840.08704 826.309902 757.146205 0.001190353
12.41539 856.11273 843.965881 757.559283 0.00116807
12.42419 876.01447 866.983663 757.972184 0.001141534
12.43299 900.83661 894.47887 758.3849 0.001110079
12.44180 929.54901 926.31068 758.797422 0.001075791
12.45060 971.45966 965.14334 759.209789 0.001029379
12.45940 1029.7362 1012.079661 759.621898 0.000971123
12.46820 1084.0446 1060.284908 760.033788 0.000922471
12.47701 1125.9325 1095.631422 760.445452 0.000888153
12.48581 1146.6404 1114.196862 760.856882 0.000872113
12.49461 1146.3506 1133.696487 761.268069 0.000872333
12.50341 1163.5713 1173.203801 761.679006 0.000859423
12.51221 1202.8356 1235.101299 762.089732 0.000831369
12.52102 1246.9435 1299.053715 762.5001 0.000801961
12.52982 1298.723 1324.826956 762.910289 0.000769987
12.53862 1288.7441 1287.994135 763.320151 0.000775949
12.54742 1220.8518 1213.690372 763.729681 0.0008191
12.55622 1143.1946 1143.880141 764.13901 0.000874742
12.56503 1094.6101 1103.925528 764.547992 0.000913567
12.57383 1087.5859 1101.320288 764.956714 0.000919468
12.58263 1121.6891 1129.851273 765.365029 0.000891513
12.59143 1172.5382 1168.930195 765.773117 0.000852851
12.60023 1196.5244 1185.128046 766.180833 0.000835754
12.60904 1165.939 1155.767561 766.588169 0.000857678
12.61784 1085.9436 1094.535993 766.995259 0.000920858
12.62664 1001.2965 1030.056773 767.401958 0.000998705
12.63544 943.18018 979.642536 767.808307 0.001060243
12.64424 912.09363 947.84666 768.214299 0.001096379
12.65305 900.01361 930.677666 768.619976 0.001111094
12.66185 893.33142 918.436012 769.025193 0.001119405
12.67065 883.34473 902.211713 769.430083 0.001132061
12.67945 867.46228 881.615465 769.834642 0.001152788
12.68826 852.24371 861.629063 770.238771 0.001173373
12.69706 838.328 846.068156 770.642512 0.001192851
12.70586 829.92035 836.714816 771.045859 0.001204935
12.71466 824.87744 834.199285 771.448855 0.001212301
12.72346 825.72015 838.534542 771.851357 0.001211064
12.73227 833.14795 849.021006 772.253498 0.001200267
12.74107 848.00458 863.705108 772.655272 0.001179239
12.74987 863.09772 878.153886 773.05654 0.001158617
12.75867 868.73987 884.901133 773.457479 0.001151093
12.76747 860.75824 878.481459 773.857948 0.001161766
12.77628 846.56165 862.147929 774.257989 0.001181249
12.78508 831.4223 843.303702 774.657599 0.001202758
12.79388 818.3324 826.714094 775.056773 0.001221997
12.80268 808.74554 814.069554 775.455553 0.001236483
12.81148 802.00891 805.337845 775.8538 0.001246869
12.82029 797.20667 799.71053 776.251692 0.00125438
12.82909 793.70105 796.20947 776.649089 0.00125992
12.83789 791.41846 794.020702 777.046034 0.001263554
12.84669 789.74658 792.600702 777.442523 0.001266229
12.85550 788.6076 791.636276 777.838554 0.001268058
12.86430 787.37305 790.96476 778.234124 0.001270046
12.87310 786.67694 790.495419 778.629231 0.00127117
12.88190 786.88507 790.179604 779.023915 0.001270834
12.89070 786.44788 789.989371 779.418041 0.00127154
12.89951 785.53906 789.905806 779.811786 0.001273011
12.90831 784.95917 789.917059 780.205012 0.001273952
12.91711 785.44897 790.017129 780.597762 0.001273157
12.92591 786.55298 790.206462 780.990035 0.00127137
12.93472 787.19543 790.494642 781.381828 0.001270333
12.94352 788.01904 790.908259 781.773184 0.001269005
12.95232 789.19379 791.503153 782.163969 0.001267116
12.96112 789.7077 792.388037 782.554357 0.001266291
12.96992 790.95044 793.740894 782.944214 0.001264302
12.97873 793.40131 795.808376 783.33354 0.001260396
12.98753 796.33508 798.856001 783.722465 0.001255753
12.99633 800.19269 803.049638 784.110856 0.001249699
13.00513 804.01337 808.269967 784.498755 0.00124376
13.01393 807.92169 813.801777 784.886162 0.001237744
13.02274 811.86682 818.042641 785.27312 0.001231729
13.03154 814.71863 819.141509 785.659539 0.001227418
13.04034 814.99323 816.787628 786.04542 0.001227004
13.04914 813.16113 812.372291 786.430894 0.001229769
13.05795 808.97717 807.578757 786.815827 0.001236129
13.06675 805.68781 803.499226 787.200264 0.001241176
13.07555 801.9447 800.542648 787.584205 0.001246969
13.08435 799.45361 798.680013 787.967692 0.001250854
13.09315 798.0166 797.685132 788.350595 0.001253107
13.10196 797.52344 797.281839 788.733044 0.001253882
13.11076 796.76221 797.22009 789.11504 0.00125508
13.11956 796.18665 797.328393 789.496452 0.001255987
13.12836 795.73779 797.566137 789.877454 0.001256695
13.13716 796.4472 798.003188 790.257916 0.001255576
13.14597 798.00122 798.737433 790.637925 0.001253131
13.15477 800.74377 799.839505 791.017352 0.001248839
13.16357 804.09601 801.314382 791.396327 0.001243633
13.17237 807.01349 803.038888 791.77485 0.001239137
13.18117 808.48383 804.668647 792.152794 0.001236883
13.18998 808.91333 805.617614 792.53033 0.001236226
13.19878 808.17657 805.491125 792.907331 0.001237353
13.20758 805.92395 804.564314 793.283841 0.001240812
13.21638 802.73694 803.420878 793.659861 0.001245738
13.22518 800.953 802.445652 794.035392 0.001248513
13.23399 799.77203 801.786084 794.410434 0.001250356
13.24279 799.67389 801.447559 794.78499 0.00125051
13.25159 800.46985 801.373661 795.159103 0.001249266
13.26039 803.00208 801.488424 795.532689 0.001245327
13.26920 807.633 801.732751 795.905793 0.001238186
13.27800 811.19098 802.045273 796.278415 0.001232755
13.28680 811.55157 802.406148 796.650558 0.001232208
13.29560 809.41119 802.801704 797.022223 0.001235466
13.30440 808.07184 803.223762 797.393412 0.001237514
13.31321 804.70215 803.670179 797.764168 0.001242696
13.32201 803.74548 804.140559 798.134368 0.001244175
13.33081 803.85217 804.636845 798.504181 0.00124401
13.33961 804.86023 805.16262 798.873483 0.001242452
13.34841 806.4682 805.723002 799.242276 0.001239974
13.35722 808.7381 806.323475 799.610688 0.001236494
13.36602 811.64282 806.970011 799.978596 0.001232069
13.37482 815.55011 807.654069 800.346085 0.001226166
13.38362 819.40228 808.364936 800.713033 0.001220402
13.39243 820.73248 809.073754 801.079608 0.001218424
13.40123 819.67963 809.75374 801.445688 0.001219989
13.41003 817.18506 810.415215 801.811275 0.001223713
13.41883 815.78802 811.097471 802.176496 0.001225809
13.42763 814.24951 811.836454 802.541229 0.001228125
13.43644 812.91724 812.653748 802.905519 0.001230138
13.44524 811.8244 813.562996 803.269367 0.001231793
13.45404 810.65729 814.574502 803.632818 0.001233567
13.46284 811.10986 815.699977 803.99575 0.001232879
13.47164 812.15533 816.955757 804.35829 0.001231292
13.48045 812.53192 818.364302 804.72044 0.001230721
13.48925 812.82996 819.956414 805.082081 0.00123027
13.49805 813.85706 821.774625 805.443378 0.001228717
13.50685 815.22522 823.875393 805.804213 0.001226655
13.51566 817.2381 826.337086 806.164668 0.001223634
13.52446 819.68219 829.273207 806.524625 0.001219985
13.53326 823.68793 832.865705 806.88421 0.001214052
13.54206 829.36871 837.431682 807.243425 0.001205736
13.55086 836.00244 843.562462 807.60215 0.001196169
13.55967 843.7406 852.361469 807.960552 0.001185198
13.56847 855.76904 865.74045 808.318512 0.00116854
13.57727 872.78247 886.6182 808.676073 0.001145761
13.58607 900.45142 918.804212 809.033238 0.001110554
13.59487 949.14728 965.991827 809.390011 0.001053577
13.60368 1029.3726 1030.012366 809.746395 0.000971466
13.61248 1144.5758 1108.303778 810.102392 0.000873686
13.62128 1264.5323 1189.569933 810.458047 0.000790806
13.63008 1339.5266 1249.579548 810.813281 0.000746532
13.63889 1321.248 1259.202022 811.168139 0.00075686
13.64769 1233.8328 1213.084652 811.522623 0.000810483
13.65649 1116.88 1136.500977 811.876736 0.000895351
13.66529 1020.2518 1057.139045 812.230482 0.00098015
13.67409 955.50616 989.844528 812.583865 0.001046566
13.68290 914.84027 939.360683 812.936926 0.001093087
13.69170 888.85284 904.892713 813.28955 0.001125046
13.70050 872.56097 883.132345 813.6419 0.001146052
13.70930 862.13983 870.320394 813.993858 0.001159905
13.71810 855.87842 863.39332 814.345429 0.00116839
13.72691 853.16498 860.334683 814.696735 0.001172106
13.73571 852.93085 860.008799 815.04766 0.001172428
13.74451 855.11572 861.795188 815.398286 0.001169432
13.75331 859.51422 865.259959 815.748498 0.001163448
13.76211 866.00159 869.907909 816.098458 0.001154732
13.77092 873.93671 875.303316 816.448049 0.001144248
13.77972 884.34882 882.026176 816.797276 0.001130776
13.78852 899.77673 892.333262 817.14626 0.001111387
13.79732 923.32581 909.170609 817.494885 0.001083041
13.80612 954.11505 934.822266 817.843195 0.001048092
13.81493 993.54608 969.80284 818.191192 0.001006496
13.82373 1039.1115 1011.378357 818.53892 0.000962361
13.83253 1080.2988 1052.109476 818.886262 0.00092567
13.84133 1108.6583 1081.326291 819.233341 0.000901991
13.85014 1111.6132 1088.962332 819.580159 0.000899593
13.85894 1084.2992 1070.05303 819.926641 0.000922255
13.86774 1035.7549 1031.004729 820.272829 0.000965479
13.87654 982.26123 985.615186 820.618726 0.001018059
13.88534 937.1817 944.351372 820.964375 0.001067029
13.89415 904.14624 911.703805 821.309661 0.001106016
13.90295 881.01111 888.224861 821.654704 0.001135059
13.91175 866.27814 872.587516 821.999508 0.001154364
13.92055 856.86279 862.795815 822.343958 0.001167048
13.92935 850.8313 856.973957 822.688213 0.001175321
13.93816 847.34308 853.738372 823.032159 0.00118016
13.94696 846.67358 852.293959 823.375837 0.001181093
13.95576 847.42767 852.360792 823.719252 0.001180042
13.96456 849.04633 854.081958 824.062404 0.001177792
13.97337 851.48779 857.933148 824.405337 0.001174415
13.98217 856.19928 864.577943 824.747936 0.001167952
13.99097 863.84131 874.619109 825.090359 0.00115762
13.99977 873.90521 888.210615 825.432493 0.001144289
14.00857 884.86591 904.518657 825.774378 0.001130115
14.01738 896.53143 920.89443 826.116018 0.00111541
14.02618 907.26392 932.285818 826.457415 0.001102215
14.03498 913.08185 933.499446 826.798571 0.001095192
14.04378 912.23322 924.56294 827.139489 0.001096211
14.05259 906.71094 910.739819 827.48021 0.001102887
14.06139 898.14252 897.083196 827.82062 0.001113409
14.07019 887.15192 885.97869 828.160876 0.001127203
14.07899 878.42072 877.683695 828.500865 0.001138407
14.08779 871.95898 871.466466 828.840628 0.001146843
14.09660 867.97174 866.843202 829.180166 0.001152111
14.10540 865.66925 863.964044 829.519481 0.001155176
14.11420 865.64368 863.234926 829.858615 0.00115521
14.12300 868.7215 865.156893 830.197454 0.001151117
14.13180 875.80524 870.340773 830.536154 0.001141806
14.14061 887.29224 879.467729 830.874601 0.001127024
14.14941 905.11273 892.8837 831.212797 0.001104835
14.15821 928.73376 910.24011 831.55086 0.001076735
14.16701 950.02313 929.714988 831.888675 0.001052606
14.17581 960.88031 947.138991 832.226284 0.001040712
14.18462 959.79755 956.7044 832.563687 0.001041886
14.19342 949.42847 955.687356 832.900924 0.001053265
14.20222 937.19135 947.159215 833.237921 0.001067018
14.21102 925.83502 935.275936 833.574679 0.001080106
14.21983 913.39966 921.550181 833.911314 0.001094811
14.22863 901.78424 906.605548 834.247713 0.001108913
14.23743 891.39539 892.105482 834.583915 0.001121837
14.24623 882.88745 879.757216 834.919922 0.001132647
14.25503 875.888 870.228061 835.255735 0.001141698
14.26384 870.1593 863.380127 835.591354 0.001149215
14.27264 865.40472 858.755451 835.926782 0.001155529
14.28144 861.87689 855.833226 836.262056 0.001160259
14.29024 859.10101 854.162683 836.597065 0.001164007
14.29904 857.02875 853.413178 836.93196 0.001166822
14.30785 856.3623 853.372864 837.266629 0.00116773
14.31665 857.05341 853.912076 837.601111 0.001166788
14.32545 859.05316 854.92611 837.935405 0.001164072
14.33425 860.99213 856.256302 838.269513 0.001161451
14.34305 863.35516 857.606469 838.603473 0.001158272
14.35186 864.36371 858.512379 838.937172 0.00115692
14.36066 863.33032 858.591535 839.270762 0.001158305
14.36946 861.27008 857.931599 839.604129 0.001161076
14.37826 860.07312 856.976411 839.937313 0.001162692
14.38706 859.07556 856.107753 840.270312 0.001164042
14.39587 857.39056 855.523188 840.603127 0.00116633
14.40467 855.69092 855.282404 840.935758 0.001168646
14.41347 854.9718 855.375806 841.268205 0.001169629
14.42227 854.47705 855.750957 841.600506 0.001170306
14.43108 853.95776 856.358769 841.932586 0.001171018
14.43988 853.93671 857.159635 842.264481 0.001171047
14.44868 855.43719 858.132734 842.596191 0.001168993
14.45748 855.98944 859.271327 842.927716 0.001168239
14.46628 856.85034 860.598301 843.259056 0.001167065
14.47509 858.22058 862.137733 843.59021 0.001165202
14.48389 860.26636 863.935924 843.921215 0.001162431
14.49269 862.61768 866.0643 844.251958 0.001159262
14.50149 865.22211 868.643421 844.582588 0.001155773
14.51029 868.13452 871.883369 844.912992 0.001151895
14.51910 873.06238 876.154268 845.243169 0.001145394
14.52790 879.42169 882.098293 845.573231 0.001137111
14.53670 887.29156 890.719509 845.903063 0.001127025
14.54550 897.4408 903.429127 846.232703 0.00111428
14.55430 911.75049 921.901371 846.562149 0.001096791
14.56311 931.74536 947.697949 846.891401 0.001073255
14.57191 963.07306 981.654738 847.220493 0.001038343
14.58071 1007.0389 1022.885359 847.549314 0.00099301
14.58951 1057.1394 1067.350977 847.87801 0.000945949
14.59832 1094.2001 1106.323496 848.206468 0.00091391
14.60712 1106.522 1129.46705 848.534723 0.000903733
14.61592 1100.063 1134.026168 848.862775 0.000909039
14.62472 1095.892 1126.573012 849.190622 0.000912499
14.63352 1091.4347 1112.639952 849.518261 0.000916225
14.64233 1078.3958 1091.383624 849.845691 0.000927303
14.65113 1053.3757 1061.318021 850.172946 0.000949329
14.65993 1023.3589 1026.575902 850.499915 0.000977174
14.66873 994.59833 993.706811 850.826742 0.001005431
14.67754 970.60309 966.847661 851.153314 0.001030287
14.68634 953.37738 947.343659 851.479667 0.001048903
14.69514 942.91687 935.07505 851.805797 0.001060539
14.70394 938.84967 929.432622 852.131703 0.001065133
14.71274 940.80963 929.931043 852.457419 0.001062914
14.72155 948.8349 936.564995 852.782832 0.001053924
14.73035 964.33325 949.920159 853.108087 0.001036986
14.73915 990.96167 970.911762 853.433069 0.001009121
14.74795 1028.4579 1000.319028 853.757815 0.00097233
14.75675 1075.634 1038.062702 854.08232 0.000929684
14.76556 1133.9935 1082.316344 854.406582 0.000881839
14.77436 1199.4877 1128.391778 854.730597 0.000833689
14.78316 1253.212 1169.380706 855.054364 0.00079795
14.79196 1292.1301 1202.711112 855.377915 0.000773916
14.80077 1313.47 1236.933521 855.701174 0.000761342
14.80957 1342.6469 1286.308488 856.024138 0.000744797
14.81837 1417.3419 1359.734947 856.346913 0.000705546
14.82717 1540.7394 1454.961532 856.669386 0.000649039
14.83597 1661.9802 1554.806155 856.991591 0.000601692
14.84478 1714.1953 1624.905841 857.313524 0.000583364
14.85358 1660.2201 1627.383648 857.635217 0.00060233
14.86238 1517.949 1554.463738 857.956558 0.000658784
14.87118 1374.9048 1436.032795 858.277653 0.000727323
14.87998 1245.0767 1308.545871 858.598498 0.000803163
14.88879 1152.8717 1194.573167 858.918979 0.000867399
14.89759 1088.5383 1103.368886 859.239239 0.000918663
14.90639 1045.8397 1036.133338 859.559164 0.000956169
14.91519 1013.2377 989.566757 859.878824 0.000986935
14.92399 987.974 958.675544 860.198104 0.001012172
14.93280 967.31989 938.489498 860.517111 0.001033784
14.94160 951.07562 925.110673 860.835839 0.001051441
14.95040 937.63397 915.88607 861.154176 0.001066514
14.95920 926.62836 909.196409 861.472263 0.001079181
14.96800 918.5094 904.126754 861.789986 0.00108872
14.97681 911.7887 900.162975 862.107377 0.001096745
14.98561 905.83545 897.011398 862.424433 0.001103953
14.99441 900.78491 894.48863 862.741148 0.001110143
15.00321 896.70416 892.473023 863.057518 0.001115195
15.01201 893.23523 890.878508 863.373538 0.001119526
15.02082 891.28052 889.642238 863.68924 0.001121981
15.02962 889.25928 888.72067 864.004548 0.001124531
15.03842 887.48242 888.083979 864.319491 0.001126783
15.04722 885.97382 887.717392 864.634066 0.001128702
15.05603 885.52673 887.621998 864.948268 0.001129271
15.06483 885.38409 887.823341 865.262091 0.001129453
15.07363 886.38568 888.385526 865.575532 0.001128177
15.08243 887.71637 889.437046 865.88862 0.001126486
15.09123 889.72852 891.203363 866.201244 0.001123938
15.10004 891.9425 894.037904 866.513541 0.001121149
15.10884 894.39801 898.422139 866.825399 0.00111807
15.11764 897.17828 904.904936 867.136814 0.001114606
15.12644 901.03772 913.973858 867.447885 0.001109831
15.13524 905.62006 925.824115 867.758503 0.001104216
15.14405 910.82959 940.088374 868.068732 0.0010979
15.15285 916.12708 955.382263 868.378462 0.001091552
15.16165 922.5871 968.87388 868.687827 0.001083909
15.17045 930.14093 976.910483 868.996717 0.001075106
15.17925 936.72528 977.971666 869.305127 0.001067549
15.18806 941.59955 974.494611 869.613156 0.001062023
15.19686 945.00098 970.272661 869.920695 0.0010582
15.20566 947.90179 967.356806 870.227771 0.001054962
15.21446 951.78186 965.28783 870.534381 0.001050661
15.22327 956.64624 961.632222 870.840552 0.001045318
15.23207 961.73566 954.128488 871.146176 0.001039787
15.24087 965.07623 943.531876 871.451351 0.001036188
15.24967 966.78522 933.460511 871.756072 0.001034356
15.25848 966.89758 927.701976 872.060262 0.001034236
15.26728 965.95721 928.369246 872.363952 0.001035243
15.27608 964.86188 935.777518 872.667136 0.001036418
15.28488 966.53046 949.177967 872.969842 0.001034629
15.29368 974.37341 967.055983 873.271961 0.001026301
15.30249 985.84796 986.721583 873.573592 0.001014355
15.31129 996.64063 1003.737711 873.874727 0.001003371
15.32009 1003.3458 1012.951038 874.175259 0.000996665
15.32889 1001.569 1012.372665 874.475319 0.000998433
15.33769 996.66144 1005.190607 874.774798 0.00100335
15.34650 991.82996 996.179471 875.073725 0.001008237
15.35530 985.81775 987.889436 875.372093 0.001014386
15.36410 977.39124 980.122702 875.669898 0.001023132
15.37290 967.30719 971.69844 875.967166 0.001033798
15.38170 958.72632 962.670432 876.263792 0.001043051
15.39051 951.89886 954.044507 876.559903 0.001050532
15.39931 944.69531 946.136888 876.855394 0.001058542
15.40811 938.31079 938.928298 877.150291 0.001065745
15.41691 934.71906 933.074284 877.44459 0.00106984
15.42572 932.00146 929.656275 877.738284 0.00107296
15.43452 930.92505 929.642886 878.031367 0.0010742
15.44332 933.0542 933.813965 878.323833 0.001071749
15.45212 938.29456 942.780889 878.615711 0.001065763
15.46092 948.35687 956.850911 878.906894 0.001054455
15.46973 963.79578 975.710502 879.197509 0.001037564
15.47853 981.74542 997.857462 879.487452 0.001018594
15.48733 997.81781 1019.906478 879.776748 0.001002187
15.49613 1006.4488 1036.781549 880.065394 0.000993593
15.50493 1010.0013 1044.270884 880.353382 0.000990098
15.51374 1010.9437 1041.46349 880.64074 0.000989175
15.52254 1010.7715 1029.473515 880.927365 0.000989343
15.53134 1005.7879 1010.396529 881.213379 0.000994245
15.54014 996.31677 987.972512 881.498681 0.001003697
15.54894 980.69049 966.229046 881.783265 0.00101969
15.55775 963.86603 947.670935 882.067222 0.001037489
15.56655 948.70331 933.170856 882.35045 0.00105407
15.57535 936.1543 922.583356 882.632975 0.0010682
15.58415 925.50336 915.274606 882.914791 0.001080493
15.59296 916.62714 910.469333 883.195925 0.001090956
15.60176 910.32599 907.445515 883.476275 0.001098508
15.61056 906.89948 905.633854 883.755932 0.001102658
15.61936 904.58362 904.642933 884.03489 0.001105481
15.62816 902.66608 904.236618 884.31308 0.001107829
15.63697 901.68579 904.301485 884.590529 0.001109034
15.64577 901.5741 904.819643 884.86723 0.001109171
15.65457 902.89624 905.858398 885.14321 0.001107547
15.66337 904.82727 907.568632 885.41837 0.001105183
15.67217 907.65558 910.188466 885.692797 0.001101739
15.68098 912.30084 914.030456 885.966488 0.00109613
15.68978 919.70508 919.44958 886.239342 0.001087305
15.69858 929.12427 926.791379 886.511479 0.001076282
15.70738 941.94379 936.296438 886.782801 0.001061634
15.71618 957.42029 947.951693 887.053334 0.001044473
15.72499 972.21875 961.244516 887.323072 0.001028575
15.73379 982.72058 975.086651 887.592011 0.001017583
15.74259 988.46857 988.518562 887.860176 0.001011666
15.75139 995.08252 1001.648035 888.127471 0.001004942
15.76020 1002.7017 1014.981467 888.394012 0.000997306
15.76900 1006.6801 1027.63919 888.659703 0.000993364
15.77780 1006.8448 1037.072843 888.924571 0.000993202
15.78660 1001.1874 1040.543132 889.188609 0.000998814
15.79540 990.9436 1036.342117 889.451814 0.001009139
15.80421 977.68732 1024.244949 889.714181 0.001022822
15.81301 965.51978 1006.537475 889.975706 0.001035712
15.82181 954.54456 987.253502 890.236412 0.00104762
15.83061 945.81244 969.868388 890.496207 0.001057292
15.83942 938.61383 956.321697 890.755205 0.001065401
15.84822 933.88007 947.423314 891.013313 0.001070801
15.85702 931.62646 943.351149 891.270556 0.001073392
15.86582 932.85321 943.972821 891.52693 0.00107198
15.87462 937.77911 948.965194 891.78243 0.001066349
15.88343 945.1297 957.75741 892.037082 0.001058056
15.89223 953.82452 969.406526 892.290794 0.001048411
15.90103 965.23669 982.518768 892.543678 0.001036015
15.90983 978.63885 995.023554 892.795643 0.001021827
15.91863 990.52643 1003.747818 893.046687 0.001009564
15.92744 996.07611 1005.172567 893.29689 0.001003939
15.93624 993.13666 998.212738 893.546163 0.001006911
15.94504 981.64203 985.538262 893.794532 0.001018701
15.95384 967.8493 971.177636 894.041992 0.001033219
15.96265 955.05219 958.144771 894.288568 0.001047063
15.97145 943.06134 948.141318 894.5342 0.001060376
15.98025 935.51941 941.867078 894.778886 0.001068925
15.98905 932.34235 939.420247 895.022705 0.001072567
15.99785 932.71246 940.464938 895.265571 0.001072142
16.00665 936.14557 944.31372 895.507508 0.00106821
16.01546 943.48126 949.883891 895.748513 0.001059904
16.02426 950.20581 955.548628 895.988611 0.001052404
16.03306 954.30707 959.10302 896.227744 0.001047881
16.04186 953.89246 958.606199 896.465936 0.001048336
16.05066 950.20728 953.849964 896.703157 0.001052402
16.05947 946.04712 946.448977 896.93946 0.00105703
16.06827 945.04388 938.369306 897.17484 0.001058152
16.07707 946.16882 930.981417 897.409241 0.001056894
16.08588 947.80963 925.020968 897.642716 0.001055064
16.09468 949.40479 920.776398 897.875207 0.001053292
16.10348 948.76556 918.16246 898.106687 0.001054001
16.11228 945.34882 916.846699 898.337285 0.001057811
16.12108 941.12854 916.443802 898.566894 0.001062554
16.12989 937.56445 916.641308 898.795563 0.001066593
16.13869 934.18671 917.238844 899.023239 0.00107045
16.14749 931.92206 918.140989 899.249971 0.001073051
16.15629 931.22864 919.346552 899.475707 0.00107385
16.16509 931.04297 920.940774 899.700419 0.001074064
16.17390 932.80402 923.112824 899.924233 0.001072037
16.18270 936.27924 926.148951 900.147045 0.001068057
16.19150 941.41687 930.428743 900.368905 0.001062229
16.20030 948.23016 936.447108 900.589761 0.001054596
16.20911 958.65826 944.635347 900.809662 0.001043125
16.21790 970.95386 955.270319 901.028506 0.001029915
16.22671 987.25391 968.27404 901.246417 0.001012911
16.23551 1006.4362 982.937484 901.463369 0.000993605
16.24431 1024.639 997.587494 901.679312 0.000975953
16.25312 1036.5203 1009.352246 901.894293 0.000964766
16.26192 1039.4561 1014.944834 902.108264 0.000962042
16.27072 1034.2668 1013.077794 902.321271 0.000966869
16.27952 1027.9375 1005.930343 902.533218 0.000972822
16.28832 1019.1653 997.380376 902.744225 0.000981195
16.29713 1012.2631 990.75029 902.954267 0.000987885
16.30593 1008.4194 988.163676 903.163295 0.000991651
16.31473 1007.4172 990.744058 903.371358 0.000992637
16.32353 1011.264 998.752937 903.578407 0.000988861
16.33233 1020.1096 1011.606339 903.784443 0.000980287
16.34114 1033.4353 1027.722427 903.989512 0.000967646
16.34994 1052.5367 1044.229208 904.193591 0.000950086
16.35874 1071.3754 1057.050236 904.396704 0.00093338
16.36754 1080.3605 1062.611548 904.598804 0.000925617
16.37635 1075.4089 1060.908298 904.799937 0.000929879
16.38515 1066.2053 1055.985903 905.000059 0.000937906
16.39395 1059.7811 1053.312938 905.19917 0.000943591
16.40275 1062.9745 1057.93419 905.397315 0.000940756
16.41155 1073.8468 1074.387294 905.594474 0.000931232
16.42036 1096.4016 1106.954103 905.790668 0.000912075
16.42916 1133.917 1159.361274 905.985854 0.000881899
16.43796 1195.5908 1234.010246 906.180078 0.000836407
16.44676 1287.2074 1330.489755 906.373252 0.000776876
16.45556 1412.1617 1443.873904 906.565509 0.000708134
16.46437 1554.8413 1561.798921 906.756762 0.000643152
16.47317 1663.6415 1662.008779 906.947036 0.000601091
16.48197 1699.3104 1715.93103 907.136351 0.000588474
16.49077 1662.5651 1704.555961 907.324668 0.00060148
16.49958 1568.7747 1633.637913 907.51203 0.00063744
16.50838 1465.2042 1527.729326 907.698354 0.000682499
16.51718 1364.5448 1413.007166 907.883768 0.000732845
16.52598 1285.8516 1307.784156 908.06819 0.000777695
16.53478 1218.3414 1221.43467 908.251643 0.000820788
16.54359 1168.2397 1156.625107 908.434148 0.000855989
16.55239 1129.958 1111.731735 908.615668 0.000884989
16.56119 1101.87 1082.440158 908.796203 0.000907548
16.56999 1078.1947 1063.343469 908.975797 0.000927476
16.57879 1057.0828 1049.719271 909.154452 0.000946
16.58760 1037.281 1039.150885 909.33213 0.000964059
16.59640 1020.0514 1031.429919 909.508853 0.000980343
16.60520 1007.6945 1027.021659 909.684644 0.000992364
16.61400 998.24365 1025.947472 909.859464 0.001001759
16.62280 993.36304 1027.359008 910.033318 0.001006681
16.63161 992.45538 1029.480119 910.206246 0.001007602
16.64041 995.11517 1030.239525 910.378252 0.001004909
16.64921 997.08679 1028.838056 910.549298 0.001002922
16.65801 998.19135 1026.508636 910.719408 0.001001812
16.66681 1001.2347 1025.215586 910.888604 0.000998767
16.67562 1008.8207 1026.034556 911.056811 0.000991256
16.68442 1018.0772 1028.502342 911.224147 0.000982244
16.69322 1019.5797 1030.543061 911.39054 0.000980796
16.70202 1008.9116 1029.087849 911.556029 0.000991167
16.71082 993.04352 1022.041487 911.720581 0.001007005
16.71963 976.94781 1010.043793 911.884218 0.001023596
16.72843 963.76495 995.660913 912.046961 0.001037597
16.73723 953.74847 981.368293 912.208739 0.001048494
16.74603 946.45142 968.665697 912.369668 0.001056578
16.75483 940.5979 958.230882 912.529676 0.001063154
16.76364 935.8252 950.194315 912.688804 0.001068576
16.77244 932.1684 944.362216 912.847018 0.001072768
16.78124 929.69489 940.379134 913.004341 0.001075622
16.79004 928.47864 937.851767 913.160758 0.001077031
16.79885 927.40405 936.42392 913.316309 0.001078279
16.80765 927.2135 935.805922 913.470997 0.0010785
16.81645 927.1554 935.757065 913.624791 0.001078568
16.82525 927.5246 936.046647 913.777729 0.001078139
16.83405 927.79584 936.408158 913.929781 0.001077823
16.84286 928.40503 936.521093 914.080967 0.001077116
16.85166 928.83075 936.122167 914.231275 0.001076622
16.86046 928.74384 935.183017 914.380743 0.001076723
16.86926 928.88824 933.913696 914.529374 0.001076556
16.87806 929.25775 932.578744 914.677139 0.001076128
16.88687 929.10968 931.364512 914.824075 0.001076299
16.89567 928.67932 930.3691 914.970153 0.001076798
16.90447 926.57977 929.628051 915.11536 0.001079238
16.91327 925.04199 929.139015 915.259784 0.001081032
16.92207 923.58893 928.879666 915.403362 0.001082733
16.93088 922.29834 928.821095 915.546132 0.001084248
16.93968 921.10065 928.940659 915.688064 0.001085658
16.94848 921.10846 929.231459 915.829196 0.001085648
16.95728 922.14728 929.709321 915.969499 0.001084425
16.96608 922.78522 930.418243 916.108963 0.001083676
16.97489 923.78003 931.433887 916.24767 0.001082509
16.98369 924.89935 932.859092 916.385561 0.001081199
16.99249 926.74335 934.814503 916.522672 0.001079047
17.00129 928.45691 937.411139 916.658977 0.001077056
17.01010 930.40826 940.718323 916.794509 0.001074797
17.01890 933.26288 944.712335 916.929213 0.001071509
17.02770 936.97064 949.226959 917.063169 0.001067269
17.03650 940.04449 953.873074 917.196365 0.001063779
17.04530 942.42694 957.986775 917.328776 0.00106109
17.05411 944.45807 960.803099 917.460436 0.001058808
17.06291 947.67981 961.999727 917.591319 0.001055209
17.07171 952.12048 962.137071 917.721445 0.001050287
17.08051 957.89484 962.404853 917.850802 0.001043956
17.08931 965.69293 964.078004 917.979425 0.001035526
17.09812 977.34021 968.277195 918.107318 0.001023185
17.10692 992.20483 975.950596 918.234455 0.001007856
17.11572 1011.0143 987.819715 918.36087 0.000989106
17.12452 1034.5845 1004.229325 918.486537 0.000966572
17.13333 1062.5609 1024.893812 918.611462 0.000941123
17.14213 1094.7263 1048.625693 918.735676 0.00091347
17.15093 1127.2131 1073.061559 918.859169 0.000887144
17.15973 1157.7562 1094.555971 918.98196 0.00086374
17.16853 1179.7246 1108.61417 919.104024 0.000847655
17.17734 1190.0425 1111.693851 919.225393 0.000840306
17.18614 1182.8846 1103.302108 919.346044 0.000845391
17.19494 1158.6448 1086.072597 919.465979 0.000863077
17.20374 1125.2295 1064.151452 919.585231 0.000888708
17.21254 1093.1056 1041.667088 919.703789 0.000914825
17.22135 1066.3589 1021.725417 919.821671 0.000937771
17.23015 1044.8291 1006.184094 919.938853 0.000957094
17.23895 1027.604 995.909194 920.055365 0.000973138
17.24775 1016.1959 991.06354 920.171159 0.000984062
17.25656 1008.4652 991.262943 920.286317 0.000991606
17.26536 1006.0076 995.663534 920.400789 0.000994028
17.27416 1006.5281 1002.968032 920.514592 0.000993514
17.28296 1009.463 1011.418371 920.627743 0.000990626
17.29177 1011.5596 1018.799312 920.740218 0.000988572
17.30057 1010.4821 1022.605569 920.852021 0.000989627
17.30937 1004.9044 1020.865512 920.963182 0.00099512
17.31817 997.33075 1013.489942 921.073701 0.001002676
17.32697 988.09296 1002.399819 921.183558 0.001012051
17.33578 978.69458 990.073543 921.292768 0.001021769
17.34458 969.64221 978.359927 921.401345 0.001031308
17.35338 961.43695 968.280478 921.509269 0.00104011
17.36218 954.3717 960.233926 921.616541 0.00104781
17.37098 949.47949 954.220905 921.72319 0.001053209
17.37979 946.27509 950.010747 921.829216 0.001056775
17.38859 943.70929 947.272346 921.934599 0.001059648
17.39739 942.1781 945.669704 922.039352 0.00106137
17.40619 941.6684 944.928781 922.14349 0.001061945
17.41499 941.12183 944.868093 922.246968 0.001062562
17.42380 941.16986 945.4079 922.349858 0.001062507
17.43260 942.32178 946.572848 922.452116 0.001061209
17.44140 945.38983 948.495744 922.553766 0.001057765
17.45020 948.18567 951.427847 922.654787 0.001054646
17.45901 951.99841 955.747834 922.755192 0.001050422
17.46781 956.81915 961.955949 922.854995 0.00104513
17.47661 963.94904 970.624619 922.954151 0.001037399
17.48541 973.35754 982.302709 923.052729 0.001027372
17.49421 984.67523 997.325909 923.150685 0.001015563
17.50302 998.12079 1015.625049 923.248044 0.001001883
17.51182 1017.2031 1036.555968 923.344783 0.000983088
17.52062 1042.2972 1058.695002 923.440914 0.000959419
17.52942 1069.2986 1079.44611 923.536429 0.000935192
17.53822 1086.4734 1094.83688 923.631348 0.000920409
17.54703 1086.8723 1100.481296 923.725673 0.000920071
17.55583 1069.5084 1094.270496 923.819381 0.000935009
17.56463 1045.6843 1078.252491 923.912496 0.000956312
17.57343 1020.9258 1057.064673 924.004995 0.000979503
17.58224 1002.3281 1035.058114 924.09689 0.000997677
17.59104 986.92499 1015.047849 924.188169 0.001013248
17.59984 976.0943 998.442952 924.278854 0.001024491
17.60864 968.20978 985.720686 924.368944 0.001032834
17.61744 962.67889 976.759597 924.458418 0.001038768
17.62625 959.66956 971.130166 924.547285 0.001042025
17.63505 959.3786 968.326623 924.635555 0.001042341
17.64385 960.6275 967.946744 924.723187 0.001040986
17.65265 962.94482 969.802929 924.81024 0.001038481
17.66145 967.39117 973.962278 924.896672 0.001033708
17.67026 974.95551 980.737328 924.982503 0.001025688
17.67906 986.07037 990.600889 925.06771 0.001014126
17.68786 1001.8757 1004.076453 925.152303 0.000998128
17.69666 1024.6946 1021.556102 925.236289 0.000975901
17.70546 1057.2592 1043.102984 925.319628 0.000945842
17.71427 1095.1185 1068.232904 925.402376 0.000913143
17.72307 1133.5708 1095.62155 925.484491 0.000882168
17.73187 1166.1034 1123.177079 925.565991 0.000857557
17.74067 1190.713 1148.574418 925.646854 0.000839833
17.74948 1204.5131 1170.380828 925.727087 0.000830211
17.75828 1213.403 1189.065512 925.806679 0.000824129
17.76708 1219.2063 1207.036717 925.885644 0.000820206
17.77588 1235.886 1226.804468 925.96398 0.000809136
17.78468 1266.6166 1248.464629 926.041665 0.000789505
17.79349 1316.8916 1268.282723 926.118713 0.000759364
17.80229 1374.0238 1279.004348 926.195104 0.000727789
17.81109 1406.7268 1273.375267 926.270843 0.00071087
17.81989 1412.4626 1249.73421 926.345918 0.000707983
17.82869 1410.9851 1213.658136 926.420341 0.000708725
17.83750 1374.1099 1173.64365 926.494109 0.000727744
17.84630 1317.6106 1136.727172 926.5672 0.00075895
17.85510 1246.0802 1107.294091 926.639626 0.000802517
17.86390 1168.1964 1087.626353 926.711367 0.00085602
17.87270 1115.2791 1078.362769 926.782418 0.000896637
17.88151 1095.6943 1078.848038 926.852791 0.000912663
17.89031 1090.1696 1087.251048 926.922472 0.000917288
17.89911 1098.6936 1100.557053 926.991464 0.000910172
17.90791 1111.5536 1114.477431 927.059746 0.000899642
17.91672 1123.4004 1123.817997 927.127328 0.000890155
17.92552 1123.7091 1124.112653 927.19419 0.00088991
17.93432 1117.2844 1114.08767 927.260325 0.000895027
17.94312 1103.4908 1096.322038 927.325744 0.000906215
17.95192 1086.391 1075.325086 927.390431 0.000920479
17.96073 1066.476 1055.187631 927.45439 0.000937668
17.96953 1050.3568 1038.726779 927.517598 0.000952057
17.97833 1036.1895 1027.568625 927.580063 0.000965074
17.98713 1027.9348 1022.45606 927.641751 0.000972824
17.99593 1023.2282 1023.398708 927.702698 0.000977299
18.00474 1024.2013 1029.761441 927.762868 0.000976371
18.01354 1029.0153 1040.250664 927.822262 0.000971803
18.02234 1038.302 1052.782202 927.880878 0.000963111
18.03114 1047.781 1064.410026 927.938697 0.000954398
18.03995 1052.9972 1071.729281 927.995725 0.00094967
18.04875 1049.3563 1072.116989 928.051927 0.000952965
18.05755 1038.6278 1064.966779 928.107334 0.000962809
18.06635 1024.6812 1051.801717 928.161915 0.000975913
18.07515 1010.1095 1035.354551 928.215666 0.000989992
18.08396 996.84058 1018.355027 928.268586 0.001003169
18.09276 985.16144 1002.764327 928.320655 0.001015062
18.10156 976.29022 989.661307 928.371865 0.001024286
18.11036 970.11676 979.425715 928.422219 0.001030804
18.11916 966.05286 971.969159 928.471708 0.00103514
18.12797 962.14032 966.902027 928.520313 0.001039349
18.13677 958.49792 963.656292 928.568031 0.001043299
18.14557 955.13464 961.597469 928.614857 0.001046973
18.15437 952.4541 960.105097 928.660773 0.001049919
18.16317 950.68042 958.706601 928.70577 0.001051878
18.17198 948.88824 957.20331 928.749848 0.001053865
18.18078 946.81891 955.678748 928.792999 0.001056168
18.18958 945.45679 954.352878 928.835204 0.00105769
18.19838 945.08899 953.439974 928.876458 0.001058101
18.20719 944.59448 953.090281 928.916755 0.001058655
18.21599 944.27252 953.383542 928.95607 0.001059016
18.22479 945.34393 954.322314 928.994418 0.001057816
18.23359 946.41467 955.825324 929.031772 0.001056619
18.24239 947.78998 957.75544 929.068128 0.001055086
18.25120 949.58868 959.980453 929.103479 0.001053088
18.26000 951.71765 962.397073 929.137808 0.001050732
18.26880 953.69293 964.835783 929.171112 0.001048556
18.27760 956.0835 966.932025 929.203367 0.001045934
18.28640 957.65588 968.130368 929.234584 0.001044216
18.29521 958.01538 967.941797 929.264739 0.001043825
18.30401 957.70172 966.334353 929.293826 0.001044166
18.31281 956.28735 963.800283 929.321838 0.001045711
18.32161 954.02948 961.020098 929.348757 0.001048186
18.33041 952.14502 958.544045 929.374575 0.00105026
18.33922 949.98761 956.699399 929.399287 0.001052645
18.34802 948.47247 955.61918 929.422882 0.001054327
18.35682 947.54626 955.279868 929.445345 0.001055357
18.36562 947.94971 955.520092 929.466669 0.001054908
18.37443 949.01196 956.061244 929.486845 0.001053727
18.38323 949.15643 956.570304 929.505859 0.001053567
18.39203 948.09564 956.81632 929.5237 0.001054746
18.40083 947.61652 956.832922 929.540364 0.001055279
18.40963 948.01703 956.912655 929.555838 0.001054833
18.41844 948.89758 957.458593 929.57011 0.001053855
18.42724 950.19464 958.862953 929.583172 0.001052416
18.43604 951.8595 961.463992 929.595014 0.001050575
18.44484 954.95526 965.524042 929.605622 0.001047169
18.45364 960.6499 971.19578 929.614993 0.001040962
18.46245 968.3819 978.4647 929.623112 0.00103265
18.47125 977.94098 987.085018 929.629972 0.001022557
18.48005 990.13171 996.487712 929.635561 0.001009967
18.48885 1002.3796 1005.677241 929.63987 0.000997626
18.49766 1011.9399 1013.264702 929.642891 0.000988201
18.50646 1016.2935 1017.955308 929.644612 0.000983968
18.51526 1016.0109 1019.461469 929.645026 0.000984241
18.52406 1012.1476 1018.901317 929.644122 0.000987998
18.53286 1008.8301 1018.17572 929.641892 0.000991247
18.54167 1009.0263 1019.091444 929.638327 0.000991054
18.55047 1014.9059 1022.995088 929.633417 0.000985313
18.55927 1025.8904 1030.734524 929.627155 0.000974763
18.56807 1039.6887 1042.632346 929.619531 0.000961826
18.57687 1052.198 1058.468606 929.610536 0.000950391
18.58568 1064.0472 1077.640253 929.600163 0.000939808
18.59448 1076.2576 1099.571279 929.588403 0.000929146
18.60328 1093.3151 1123.646685 929.575249 0.000914649
18.61208 1115.4222 1148.507029 929.560694 0.000896522
18.62088 1139.9772 1171.085144 929.54473 0.000877211
18.62969 1159.9474 1186.549186 929.527348 0.000862108
18.63849 1165.8442 1190.037069 929.508539 0.000857748
18.64729 1154.8721 1179.815474 929.488301 0.000865897
18.65609 1133.0164 1158.626353 929.466623 0.0008826
18.66490 1102.9449 1131.515389 929.443502 0.000906664
18.67370 1074.6755 1103.015208 929.418934 0.000930513
18.68250 1052.3746 1076.273896 929.392907 0.000950232
18.69130 1036.0231 1053.402547 929.365417 0.000965229
18.70010 1024.8214 1035.747113 929.336456 0.00097578
18.70891 1019.4306 1023.957455 929.306025 0.00098094
18.71771 1019.5952 1018.011509 929.274112 0.000980781
18.72651 1023.555 1017.360498 929.24072 0.000976987
18.73531 1030.024 1021.023414 929.205845 0.000970851
18.74411 1039.8683 1027.601469 929.169476 0.00096166
18.75292 1050.8192 1035.192373 929.131612 0.000951638
18.76172 1059.9711 1041.401281 929.092245 0.000943422
18.77052 1063.222 1043.836568 929.051382 0.000940537
18.77932 1057.9829 1041.233626 929.00901 0.000945195
18.78812 1046.2458 1034.155443 928.965147 0.000955798
18.79693 1031.1172 1024.360122 928.919767 0.000969822
18.80573 1016.1733 1013.666473 928.872871 0.000984084
18.81453 1003.8865 1003.387113 928.82447 0.000996129
18.82333 993.6665 994.233033 928.774552 0.001006374
18.83214 985.22858 986.397671 928.723127 0.001014993
18.84094 978.86993 979.689719 928.670185 0.001021586
18.84974 973.46411 973.822258 928.615749 0.001027259
18.85854 968.20441 968.620334 928.559791 0.00103284
18.86734 963.37067 964.030187 928.502316 0.001038022
18.87615 959.17743 959.997206 928.443341 0.00104256
18.88495 955.01099 956.420835 928.382853 0.001047108
18.89375 951.53094 953.225696 928.32087 0.001050938
18.90255 948.9151 950.397204 928.257394 0.001053835
18.91135 946.60583 947.956485 928.192416 0.001056406
18.92016 945.0498 945.914245 928.125946 0.001058145
18.92896 944.66284 944.253215 928.057981 0.001058579
18.93776 943.19104 942.937508 927.988542 0.001060231
18.94656 941.74243 941.921626 927.917618 0.001061861
18.95537 940.91876 941.160995 927.845233 0.001062791
18.96417 940.17639 940.615653 927.771393 0.00106363
18.97297 940.44629 940.254597 927.696089 0.001063325
18.98177 941.927 940.058744 927.619337 0.001061653
18.99057 942.04785 940.023417 927.541137 0.001061517
18.99938 942.09473 940.162875 927.461514 0.001061464
19.00818 943.2254 940.514894 927.380462 0.001060192
19.01698 944.61926 941.147504 927.298028 0.001058628
19.02578 945.92853 942.165692 927.214165 0.001057162
19.03458 948.6463 943.712468 927.128923 0.001054134
19.04339 952.39972 945.967012 927.042306 0.001049979
19.05219 956.02551 949.126464 926.954314 0.001045997
19.06099 960.13367 953.376487 926.864982 0.001041522
19.06979 964.96906 958.845919 926.774304 0.001036303
19.07859 970.3606 965.546809 926.682336 0.001030545
19.08740 977.25751 973.31212 926.589029 0.001023272
19.09620 985.32214 981.689855 926.494443 0.001014897
19.10500 993.52472 989.866884 926.398584 0.001006517
19.11380 1002.6298 996.647631 926.301457 0.000997377
19.12261 1011.6739 1000.73094 926.203103 0.000988461
19.13141 1019.2839 1001.285917 926.10354 0.000981081
19.14021 1020.6379 998.355803 926.002767 0.000979779
19.14901 1013.455 992.679174 925.900802 0.000986724
19.15781 1001.2603 985.294432 925.79769 0.000998741
19.16662 988.8313 977.261009 925.693441 0.001011295
19.17542 979.06085 969.477493 925.588064 0.001021387
19.18422 970.84125 962.555788 925.481608 0.001030035
19.19302 965.36536 956.820747 925.374097 0.001035877
19.20182 961.19324 952.38065 925.26553 0.001040374
19.21063 958.17432 949.214412 925.155933 0.001043651
19.21943 956.63666 947.246596 925.045356 0.001045329
19.22823 955.49646 946.394974 924.933815 0.001046576
19.23703 954.63263 946.605658 924.821324 0.001047523
19.24583 954.24475 947.853699 924.707964 0.001047949
19.25464 955.09937 950.131725 924.593685 0.001047011
19.26344 957.32648 953.420595 924.478571 0.001044576
19.27224 961.10559 957.663933 924.362625 0.001040468
19.28104 966.76349 962.721212 924.245905 0.001034379
19.28985 973.51447 968.320516 924.128432 0.001027206
19.29865 980.01068 973.994302 924.010224 0.001020397
19.30745 984.40808 979.049662 923.89137 0.001015839
19.31625 985.96808 982.710785 923.771824 0.001014232
19.32505 983.58832 984.481722 923.651675 0.001016686
19.33386 979.00836 984.524053 923.530933 0.001021442
19.34266 974.72394 983.601772 923.409662 0.001025932
19.35146 971.88861 982.665593 923.287888 0.001028924
19.36026 970.17828 982.543734 923.165662 0.001030738
19.36906 970.50061 983.783517 923.042997 0.001030396
19.37787 972.80988 986.686395 922.919934 0.00102795
19.38667 977.17438 991.369494 922.796541 0.001023359
19.39547 982.55847 997.892258 922.672833 0.001017751
19.40427 989.2442 1006.435998 922.548881 0.001010873
19.41307 998.00031 1017.345614 922.424743 0.001002004
19.42188 1008.7805 1030.950741 922.300393 0.000991296
19.43068 1021.0013 1047.329857 922.175933 0.000979431
19.43948 1036.2261 1066.301776 922.051381 0.00096504
19.44828 1053.2079 1087.453676 921.926812 0.00094948
19.45709 1073.1898 1109.881404 921.802246 0.000931802
19.46589 1094.1079 1131.659871 921.67776 0.000913987
19.47469 1113.137 1149.492016 921.553417 0.000898362
19.48349 1124.0803 1159.288613 921.429196 0.000889616
19.49229 1126.4863 1158.070511 921.305206 0.000887716
19.50110 1119.1229 1146.1345 921.181469 0.000893557
19.50990 1107.6708 1127.072838 921.058066 0.000902795
19.51870 1092.2307 1105.685479 920.935022 0.000915557
19.52750 1077.3645 1086.102797 920.812448 0.000928191
19.53630 1064.114 1071.131265 920.690326 0.000939749
19.54511 1054.2437 1062.339214 920.568728 0.000948547
19.55391 1049.1169 1060.177313 920.447736 0.000953183
19.56271 1049.8779 1064.0925 920.32738 0.000952492
19.57151 1055.6641 1072.604025 920.207744 0.000947271
19.58032 1065.4685 1083.338956 920.088859 0.000938554
19.58912 1077.6849 1093.153256 919.970838 0.000927915
19.59792 1086.5969 1098.755593 919.853672 0.000920304
19.60672 1086.4254 1098.071064 919.737434 0.00092045
19.61552 1077.6539 1091.451957 919.622213 0.000927942
19.62433 1065.6493 1081.350406 919.508042 0.000938395
19.63313 1053.4491 1070.87016 919.395009 0.000949263
19.64193 1047.645 1062.639127 919.283175 0.000954522
19.65073 1047.1721 1058.424868 919.172578 0.000954953
19.65953 1053.3385 1059.112467 919.063294 0.000949362
19.66834 1067.5879 1064.688739 918.955372 0.000936691
19.67714 1091.8633 1074.286392 918.848903 0.000915866
19.68594 1121.3173 1086.16729 918.743926 0.000891808
19.69474 1142.3447 1097.651001 918.640529 0.000875393
19.70354 1143.4669 1105.263328 918.538776 0.000874533
19.71235 1122.5057 1105.702958 918.438711 0.000890864
19.72115 1094.0524 1097.483897 918.340411 0.000914033
19.72995 1065.3131 1081.819434 918.243929 0.000938691
19.73875 1041.5709 1061.667344 918.149355 0.000960088
19.74756 1022.4793 1040.093381 918.056733 0.000978015
19.75636 1007.3942 1019.379044 917.966171 0.00099266
19.76516 994.22412 1000.899682 917.877673 0.001005809
19.77396 983.91156 985.347658 917.791348 0.001016352
19.78276 976.23138 972.900688 917.707252 0.001024347
19.79157 970.14087 963.382161 917.625442 0.001030778
19.80037 965.44458 956.391048 917.546003 0.001035792
19.80917 961.4198 951.410638 917.468985 0.001040128
19.81797 957.49683 947.89256 917.394487 0.00104439
19.82678 954.06683 945.313127 917.322526 0.001048145
19.83558 951.38135 943.236562 917.253201 0.001051103
19.84438 949.88354 941.371821 917.186569 0.001052761
19.85318 948.44348 939.599155 917.122689 0.001054359
19.86198 946.59521 937.924817 917.061641 0.001056418
19.87079 945.42419 936.405491 917.003488 0.001057726
19.87959 944.5824 935.097316 916.948282 0.001058669
19.88839 944.19141 934.042369 916.896086 0.001059107
19.89719 943.38318 933.264234 916.846977 0.001060015
19.90599 943.22681 932.774964 916.801011 0.00106019
19.91480 943.82318 932.566171 916.758245 0.00105952
19.92360 944.34796 932.614603 916.718749 0.001058932
19.93240 945.3634 932.879301 916.682583 0.001057794
19.94120 947.08392 933.298957 916.649797 0.001055873
19.95001 948.75806 933.787428 916.620453 0.001054009
19.95881 950.13226 934.234812 916.594612 0.001052485
19.96761 951.27527 934.530549 916.572329 0.00105122
19.97641 953.65515 934.61108 916.553656 0.001048597
19.98521 956.37616 934.501066 916.538655 0.001045614
19.99402 959.58154 934.301692 916.527367 0.001042121
20.00282 963.4527 934.14894 916.51985 0.001037934
20.01162 967.80707 934.181954 916.516152 0.001033264
20.02042 971.38654 934.536779 916.516322 0.001029456
20.02922 974.37213 935.348887 916.520405 0.001026302
20.03803 976.74548 936.76777 916.528447 0.001023808
20.04683 978.49121 938.978656 916.540487 0.001021982
20.05563 979.12152 942.227261 916.556572 0.001021324
20.06443 980.23462 946.814545 916.576735 0.001020164
20.07324 982.27167 953.070452 916.601019 0.001018048
20.08204 984.57288 961.299442 916.629451 0.001015669
20.09084 988.54602 971.712906 916.662066 0.001011587
20.09964 994.51709 984.337957 916.698889 0.001005513
20.10844 1002.9627 998.926832 916.739957 0.000997046
20.11725 1015.0788 1014.824239 916.785293 0.000985145
20.12605 1029.7749 1030.840656 916.834911 0.000971086
20.13485 1045.4508 1045.13482 916.88884 0.000956525
20.14365 1060.4829 1055.381094 916.947083 0.000942967
20.15245 1067.8365 1059.530395 917.009659 0.000936473
20.16126 1063.5929 1056.932163 917.076569 0.000940209
20.17006 1049.0452 1048.820477 917.147834 0.000953248
20.17886 1030.871 1037.612967 917.223459 0.000970053
20.18766 1014.1216 1025.816987 917.303425 0.000986075
20.19646 1001.6263 1015.398218 917.387745 0.000998376
20.20527 993.17255 1007.683404 917.476391 0.001006874
20.21407 988.3504 1003.435998 917.569338 0.001011787
20.22287 986.93512 1002.950853 917.666623 0.001013238
20.23167 988.87665 1006.102491 917.76818 0.001011248
20.24047 993.87085 1012.356643 917.874008 0.001006167
20.24928 1000.7008 1020.775874 917.984051 0.0009993
20.25808 1008.1989 1030.14722 918.0983 0.000991868
20.26688 1015.3243 1039.271497 918.216687 0.000984907
20.27568 1023.8946 1047.300073 918.339152 0.000976663
20.28449 1035.1221 1053.738871 918.465714 0.00096607
20.29329 1046.1663 1058.124545 918.59626 0.000955871
20.30209 1051.473 1059.80473 918.730759 0.000951047
20.31089 1049.2802 1058.079941 918.869111 0.000953034
20.31969 1040.7607 1052.774552 919.011276 0.000960836
20.32850 1030.489 1044.636381 919.157106 0.000970413
20.33730 1021.02 1035.039417 919.306597 0.000979413
20.34610 1014.5511 1025.297258 919.459642 0.000985658
20.35490 1010.8986 1016.193108 919.616106 0.000989219
20.36370 1007.0565 1007.908512 919.775918 0.000992993
20.37251 1002.6577 1000.268104 919.938927 0.000997349
20.38131 998.47681 993.095603 920.105049 0.001001526
20.39011 994.5788 986.48721 920.27408 0.001005451
20.39891 989.03339 980.746092 920.445977 0.001011088
20.40771 983.62415 976.164846 920.620578 0.001016648
20.41652 978.49963 972.864104 920.797691 0.001021973
20.42532 976.28284 970.746018 920.977193 0.001024293
20.43412 974.94049 969.515723 921.158874 0.001025704
20.44292 974.24042 968.704634 921.342554 0.001026441
20.45172 973.58527 967.765341 921.528087 0.001027131
20.46053 972.21881 966.266004 921.715252 0.001028575
20.46933 971.80444 964.079898 921.903866 0.001029014
20.47813 968.90619 961.395113 922.093666 0.001032092
20.48693 964.9577 958.536655 922.284468 0.001036315
20.49574 961.35083 955.814759 922.475991 0.001040203
20.50454 958.08807 953.469539 922.667985 0.001043745
20.51334 955.02142 951.684258 922.860233 0.001047097
20.52214 953.24243 950.598544 923.052442 0.001049051
20.53094 952.84332 950.316581 923.244351 0.00104949
20.53975 952.96265 950.891407 923.43562 0.001049359
20.54855 953.88043 952.310709 923.625987 0.001048349
20.55735 955.5412 954.473137 923.815044 0.001046527
20.56615 958.95197 957.183788 924.002588 0.001042805
20.57495 963.5061 960.125055 924.188187 0.001037876
20.58376 968.6568 962.859135 924.371504 0.001032357
20.59256 970.79065 964.878717 924.552185 0.001030088
20.60136 969.84827 965.784169 924.729802 0.001031089
20.61016 965.97974 965.512236 924.903993 0.001035218
20.61896 962.4032 964.400873 925.074264 0.001039066
20.62777 959.78809 963.009347 925.2403 0.001041897
20.63657 957.95825 961.881601 925.401575 0.001043887
20.64537 956.77106 961.42532 925.557645 0.001045182
20.65417 956.9046 961.879416 925.708048 0.001045036
20.66298 958.12152 963.325808 925.852254 0.001043709
20.67178 960.87067 965.694019 925.98975 0.001040723
20.68058 964.98944 968.755563 926.120039 0.001036281
20.68938 970.07892 972.125682 926.242569 0.001030844
20.69818 973.82013 975.32101 926.356745 0.001026884
20.70699 976.7854 977.941253 926.461996 0.001023766
20.71579 978.19965 979.90821 926.557728 0.001022286
20.72459 978.95593 981.502868 926.643297 0.001021496
20.73339 979.39996 983.18826 926.71806 0.001021033
20.74219 980.71552 985.329493 926.781373 0.001019664
20.75100 982.16913 988.018018 926.832545 0.001018155
20.75980 983.79425 991.01345 926.870858 0.001016473
20.76860 983.84113 993.747108 926.895593 0.001016424
20.77741 981.86658 995.456575 926.905999 0.001018468
20.78620 979.23438 995.496592 926.901303 0.001021206
20.79501 977.02325 993.652511 926.880708 0.001023517
20.80381 974.35828 990.169066 926.843397 0.001026317
20.81261 970.43524 985.507207 926.788519 0.001030465
20.82141 964.83685 980.152259 926.715218 0.001036445
20.83022 959.31915 974.568719 926.622595 0.001042406
20.83902 954.74664 969.194837 926.509718 0.001047398
20.84782 951.23309 964.37681 926.375701 0.001051267
20.85662 948.88287 960.300583 926.219479 0.001053871
20.86542 947.08807 956.98221 926.040119 0.001055868
20.87423 944.91541 954.302995 925.836551 0.001058296
20.88303 943.68109 952.079421 925.607767 0.00105968
20.89183 943.22418 950.16413 925.35266 0.001060193
20.90063 943.05176 948.511363 925.070152 0.001060387
20.90943 942.80261 947.162767 924.759033 0.001060667
20.91824 943.46753 946.176187 924.41812 0.00105992
20.92704 944.74976 945.56988 924.046283 0.001058481
20.93584 946.67505 945.292066 923.642199 0.001056329
20.94465 949.11322 945.215212 923.204691 0.001053615
20.95345 950.86462 945.128482 922.732409 0.001051674
20.96225 950.73688 944.755849 922.224076 0.001051816
20.97105 949.18817 943.842016 921.678204 0.001053532
20.97985 946.78522 942.245866 921.093373 0.001056206
20.98866 944.00372 940.021625 920.468271 0.001059318
20.99746 940.71191 937.364981 919.801276 0.001063025
21.00626 937.47998 934.507427 919.091022 0.001066689
21.01506 934.75006 931.636942 918.336057 0.001069805
21.02386 933.1239 928.87744 917.534349 0.001071669
21.03267 932.40717 926.300645 916.684614 0.001072493
21.04147 931.75476 923.935176 915.784983 0.001073244
21.05027 931.20697 921.779922 914.833947 0.001073875
21.05907 931.02649 919.799805 913.829648 0.001074083
21.06788 930.79736 917.98463 912.770165 0.001074348
21.07668 930.36572 916.282551 911.654154 0.001074846
21.08548 930.91852 914.653334 910.478969 0
21.09428 932.46021 0 0 0
21.10308 933.53931 0 0 0
21.11189 933.8725 0 0 0
21.12069 934.66376 0 0 0
21.12949 935.55457 0 0 0
21.13829 936.80981 0 0 0
21.14709 937.99725 0 0 0
21.15590 938.53754 0 0 0
21.16470 938.2149 0 0 0
21.17350 938.35242 0 0 0
21.18230 938.17017 0 0 0
21.19110 938.4624 0 0 0
21.19991 938.51923 0 0 0
21.20871 939.15802 0 0 0
21.21751 940.1734 0 0 0
21.22631 940.79651 0 0 0
21.23512 941.40369 0 0 0
21.24392 943.08405 0 0 0
21.25272 943.59808 0 0 0
21.26152 941.94836 0 0 0
21.27032 940.13654 0 0 0
21.27913 939.00775 0 0 0
21.28793 937.61353 0 0 0
21.29673 936.83246 0 0 0
21.30553 937.35382 0 0 0
21.31433 937.76068 0 0 0
21.32314 937.69409 0 0 0
21.33194 937.7121 0 0 0
21.34074 938.15125 0 0 0
21.34954 939.01233 0 0 0
21.35834 938.90521 0 0 0
21.36715 939.86224 0 0 0
21.37595 941.51141 0 0 0
21.38475 943.2196 0 0 0
21.39355 945.16827 0 0 0
21.40236 947.0108 0 0 0
21.41116 949.98431 0 0 0
21.41996 952.43701 0 0 0
21.42876 953.43842 0 0 0
21.43756 954.25079 0 0 0
21.44637 955.7627 0 0 0
21.45517 956.44971 0 0 0
21.46397 956.54138 0 0 0
21.47277 956.8913 0 0 0
21.48157 957.33081 0 0 0
21.49038 958.9881 0 0 0
21.49918 962.61719 0 0 0
21.50798 966.91901 0 0 0
21.51678 972.2019 0 0 0
21.52558 978.48602 0 0 0
21.53439 986.40668 0 0 0
21.54319 997.19208 0 0 0
21.55199 1009.7933 0 0 0
21.56079 1022.7148 0 0 0
21.56959 1033.5139 0 0 0
21.57840 1040.3135 0 0 0
21.58720 1041.5417 0 0 0
21.59600 1036.9042 0 0 0
21.60480 1028.4594 0 0 0
21.61360 1017.8344 0 0 0
21.62241 1008.06 0 0 0
21.63121 999.32861 0 0 0
21.64001 993.88196 0 0 0
21.64881 990.5271 0 0 0
21.65762 990.64313 0 0 0
21.66642 995.57642 0 0 0
21.67522 1005.435 0 0 0
21.68402 1018.4655 0 0 0
21.69282 1037.1664 0 0 0
21.70163 1057.848 0 0 0
21.71043 1073.8872 0 0 0
21.71923 1080.5031 0 0 0
21.72803 1078.52 0 0 0
21.73683 1066.2251 0 0 0
21.74564 1045.8931 0 0 0
21.75444 1023.4167 0 0 0
21.76324 1002.3284 0 0 0
21.77204 983.17841 0 0 0
21.78085 969.84106 0 0 0
21.78965 960.53729 0 0 0
21.79845 953.7915 0 0 0
21.80725 948.64557 0 0 0
21.81605 945.45648 0 0 0
21.82486 942.43811 0 0 0
21.83366 940.20917 0 0 0
21.84246 938.75262 0 0 0
21.85126 937.38275 0 0 0
21.86006 937.20837 0 0 0
21.86887 937.50909 0 0 0
21.87767 936.95129 0 0 0
21.88647 937.03314 0 0 0
21.89527 937.98401 0 0 0
21.90408 939.10046 0 0 0
21.91288 940.85516 0 0 0
21.92168 942.94122 0 0 0
21.93048 945.94794 0 0 0
21.93928 949.87994 0 0 0
21.94809 954.1377 0 0 0
21.95689 958.64539 0 0 0
21.96569 961.76886 0 0 0
21.97449 962.19824 0 0 0
21.98329 961.08118 0 0 0
21.99210 957.59717 0 0 0
22.00090 953.91565 0 0 0
22.00970 951.03271 0 0 0
22.01850 949.37866 0 0 0
22.02731 947.54163 0 0 0
22.03611 946.06726 0 0 0
22.04491 944.5686 0 0 0
22.05371 943.58752 0 0 0
22.06251 943.14886 0 0 0
22.07132 943.57086 0 0 0
22.08012 943.95721 0 0 0
22.08892 944.67731 0 0 0
22.09772 945.49683 0 0 0
22.10652 947.3739 0 0 0
22.11533 950.13867 0 0 0
22.12413 952.7608 0 0 0
22.13293 956.6123 0 0 0
22.14173 960.56708 0 0 0
22.15054 964.45996 0 0 0
22.15934 967.16443 0 0 0
22.16814 969.13202 0 0 0
22.17694 970.62384 0 0 0
22.18574 972.60352 0 0 0
22.19455 973.77899 0 0 0
22.20335 975.92041 0 0 0
22.21215 978.88165 0 0 0
22.22095 981.1665 0 0 0
22.22975 983.0025 0 0 0
22.23856 985.09705 0 0 0
22.24736 987.29443 0 0 0
22.25616 988.15155 0 0 0
22.26496 987.59247 0 0 0
22.27376 984.90063 0 0 0
22.28257 981.85162 0 0 0
22.29137 977.30872 0 0 0
22.30017 975.57898 0 0 0
22.30897 974.25061 0 0 0
22.31778 975.3009 0 0 0
22.32658 977.57819 0 0 0
22.33538 982.22614 0 0 0
22.34418 988.34003 0 0 0
22.35298 996.60614 0 0 0
22.36179 1004.6591 0 0 0
22.37059 1014.7235 0 0 0
22.37939 1025.6118 0 0 0
22.38819 1037.7579 0 0 0
22.39699 1048.3873 0 0 0
22.40580 1057.8783 0 0 0
22.41460 1061.6564 0 0 0
22.42340 1065.6592 0 0 0
22.43220 1067.178 0 0 0
22.44100 1069.1533 0 0 0
22.44981 1068.5394 0 0 0
22.45861 1067.4563 0 0 0
22.46741 1059.3879 0 0 0
22.47621 1047.5724 0 0 0
22.48502 1032.5024 0 0 0
22.49382 1018.2654 0 0 0
22.50262 1005.4026 0 0 0
22.51142 993.74872 0 0 0
22.52022 986.01038 0 0 0
22.52903 980.22302 0 0 0
22.53783 977.14301 0 0 0
22.54663 973.76587 0 0 0
22.55543 972.37622 0 0 0
22.56423 972.04205 0 0 0
22.57304 972.63354 0 0 0
22.58184 972.414 0 0 0
22.59064 970.34802 0 0 0
22.59944 966.53162 0 0 0
22.60825 962.08099 0 0 0
22.61705 957.39349 0 0 0
22.62585 953.58392 0 0 0
22.63465 949.71088 0 0 0
22.64345 946.10242 0 0 0
22.65226 943.59039 0 0 0
22.66106 941.13904 0 0 0
22.66986 938.58014 0 0 0
22.67866 938.38239 0 0 0
22.68746 939.2077 0 0 0
22.69627 939.83319 0 0 0
22.70507 939.51428 0 0 0
22.71387 939.72351 0 0 0
22.72267 941.2149 0 0 0
22.73147 942.82788 0 0 0
22.74028 944.88116 0 0 0
22.74908 948.61444 0 0 0
22.75788 953.64282 0 0 0
22.76668 959.72052 0 0 0
22.77549 964.03931 0 0 0
22.78429 964.58685 0 0 0
22.79309 962.74017 0 0 0
22.80189 959.92474 0 0 0
22.81069 957.6181 0 0 0
22.81950 957.73309 0 0 0
22.82830 958.55481 0 0 0
22.83710 959.44904 0 0 0
22.84590 960.68188 0 0 0
22.85470 961.39868 0 0 0
22.86351 961.72522 0 0 0
22.87231 962.04547 0 0 0
22.88111 962.77142 0 0 0
22.88991 964.60822 0 0 0
22.89871 967.22101 0 0 0
22.90752 970.76007 0 0 0
22.91632 974.44739 0 0 0
22.92512 977.8313 0 0 0
22.93392 979.43451 0 0 0
22.94273 977.84808 0 0 0
22.95153 974.29065 0 0 0
22.96033 971.263 0 0 0
22.96913 970.84564 0 0 0
22.97793 974.38397 0 0 0
22.98674 980.75897 0 0 0
22.99554 991.28461 0 0 0
23.00434 1005.6946 0 0 0
23.01314 1021.8858 0 0 0
23.02194 1035.3158 0 0 0
23.03075 1045.3351 0 0 0
23.03955 1048.4637 0 0 0
23.04835 1044.0238 0 0 0
23.05715 1033.9043 0 0 0
23.06596 1022.132 0 0 0
23.07476 1011.3055 0 0 0
23.08356 1002.4494 0 0 0
23.09236 998.39026 0 0 0
23.10116 999.66608 0 0 0
23.10997 1005.8925 0 0 0
23.11877 1016.9376 0 0 0
23.12757 1028.7156 0 0 0
23.13637 1039.8524 0 0 0
23.14517 1046.7103 0 0 0
23.15398 1049.4418 0 0 0
23.16278 1048.7769 0 0 0
23.17158 1045.0796 0 0 0
23.18038 1039.8348 0 0 0
23.18918 1033.3832 0 0 0
23.19799 1026.4506 0 0 0
23.20679 1018.9391 0 0 0
23.21559 1011.5463 0 0 0
23.22439 1001.6613 0 0 0
23.23320 993.18488 0 0 0
23.24200 986.96368 0 0 0
23.25080 982.26245 0 0 0
23.25960 978.59094 0 0 0
23.26840 976.16589 0 0 0
23.27721 975.49695 0 0 0
23.28601 974.38757 0 0 0
23.29481 971.64325 0 0 0
23.30361 968.19971 0 0 0
23.31241 965.21802 0 0 0
23.32122 963.54761 0 0 0
23.33002 963.42828 0 0 0
23.33882 963.76776 0 0 0
23.34762 963.61816 0 0 0
23.35642 962.66498 0 0 0
23.36523 962.83295 0 0 0
23.37403 962.05328 0 0 0
23.38283 960.91559 0 0 0
23.39163 960.59521 0 0 0
23.40044 960.4967 0 0 0
23.40924 959.31555 0 0 0
23.41804 957.87543 0 0 0
23.42684 955.45288 0 0 0
23.43564 954.59424 0 0 0
23.44445 954.97247 0 0 0
23.45325 952.8703 0 0 0
23.46205 949.25342 0 0 0
23.47085 945.02081 0 0 0
23.47965 940.36249 0 0 0
23.48846 936.97711 0 0 0
23.49726 934.39465 0 0 0
23.50606 932.87299 0 0 0
23.51486 931.85645 0 0 0
23.52367 930.73505 0 0 0
23.53247 930.92047 0 0 0
23.54127 931.96661 0 0 0
23.55007 932.49805 0 0 0
23.55887 933.44452 0 0 0
23.56768 935.86316 0 0 0
23.57648 938.47906 0 0 0
23.58528 942.74426 0 0 0
23.59408 948.95752 0 0 0
23.60288 955.74017 0 0 0
23.61169 963.34839 0 0 0
23.62049 971.73895 0 0 0
23.62929 978.2749 0 0 0
23.63809 983.49005 0 0 0
23.64689 988.20221 0 0 0
23.65570 990.25098 0 0 0
23.66450 989.59015 0 0 0
23.67330 988.59369 0 0 0
23.68210 986.17334 0 0 0
23.69091 983.69037 0 0 0
23.69971 983.15552 0 0 0
23.70851 983.29474 0 0 0
23.71731 984.04846 0 0 0
23.72611 984.11066 0 0 0
23.73492 983.94641 0 0 0
23.74372 982.16418 0 0 0
23.75252 979.21106 0 0 0
23.76132 976.42499 0 0 0
23.77012 971.73438 0 0 0
23.77893 965.27441 0 0 0
23.78773 958.43811 0 0 0
23.79653 952.68091 0 0 0
23.80533 948.30872 0 0 0
23.81414 945.10883 0 0 0
23.82294 942.96008 0 0 0
23.83174 942.94873 0 0 0
23.84054 943.0885 0 0 0
23.84934 942.78699 0 0 0
23.85815 942.11102 0 0 0
23.86695 941.02399 0 0 0
23.87575 939.71216 0 0 0
23.88455 937.94525 0 0 0
23.89335 935.80829 0 0 0
23.90216 934.62469 0 0 0
23.91096 934.07465 0 0 0
23.91976 933.33911 0 0 0
23.92856 931.84406 0 0 0
23.93736 930.96246 0 0 0
23.94617 930.90747 0 0 0
23.95497 930.74371 0 0 0
23.96377 930.87189 0 0 0
23.97257 931.12732 0 0 0
23.98137 932.01691 0 0 0
23.99018 932.82782 0 0 0
23.99898 934.46381 0 0 0
24.00778 936.23718 0 0 0
24.01658 938.37311 0 0 0
24.02539 940.33801 0 0 0
24.03419 941.1333 0 0 0
24.04299 939.90588 0 0 0
24.05179 937.8479 0 0 0
24.06059 937.11115 0 0 0
24.06940 935.82788 0 0 0
24.07820 934.00385 0 0 0
24.08700 932.70801 0 0 0
24.09580 931.64166 0 0 0
24.10460 931.19269 0 0 0
24.11341 930.79352 0 0 0
24.12221 929.26019 0 0 0
24.13101 928.61389 0 0 0
24.13981 928.99103 0 0 0
24.14862 929.90588 0 0 0
24.15742 929.88965 0 0 0
24.16622 931.21582 0 0 0
24.17502 934.11804 0 0 0
24.18382 935.88373 0 0 0
24.19263 937.89105 0 0 0
24.20143 939.07202 0 0 0
24.21023 938.35455 0 0 0
24.21903 936.7016 0 0 0
24.22783 935.22784 0 0 0
24.23664 934.0528 0 0 0
24.24544 933.42322 0 0 0
24.25424 933.3772 0 0 0
24.26304 934.15643 0 0 0
24.27184 936.23737 0 0 0
24.28065 939.98102 0 0 0
24.28945 945.1701 0 0 0
24.29825 949.24072 0 0 0
24.30705 950.61951 0 0 0
24.31586 949.33099 0 0 0
24.32466 946.3291 0 0 0
24.33346 942.83777 0 0 0
24.34226 938.43939 0 0 0
24.35106 936.29309 0 0 0
24.35987 935.57251 0 0 0
24.36867 934.19446 0 0 0
24.37747 933.61591 0 0 0
24.38627 934.15118 0 0 0
24.39507 935.12073 0 0 0
24.40388 936.34503 0 0 0
24.41268 938.24091 0 0 0
24.42148 940.19312 0 0 0
24.43029 942.70538 0 0 0
24.43908 945.9422 0 0 0
24.44789 948.93634 0 0 0
24.45669 951.84979 0 0 0
24.46549 954.94238 0 0 0
24.47430 957.84009 0 0 0
24.48310 960.42041 0 0 0
24.49190 963.59845 0 0 0
24.50070 965.84625 0 0 0
24.50950 968.37811 0 0 0
24.51831 970.64972 0 0 0
24.52711 971.55737 0 0 0
24.53591 970.13287 0 0 0
24.54471 967.27844 0 0 0
24.55351 963.45245 0 0 0
24.56232 960.33649 0 0 0
24.57112 958.12561 0 0 0
24.57992 956.02679 0 0 0
24.58872 954.36859 0 0 0
24.59753 953.02411 0 0 0
24.60633 951.4679 0 0 0
24.61513 949.05188 0 0 0
24.62393 946.8819 0 0 0
24.63273 946.21515 0 0 0
24.64154 946.95221 0 0 0
24.65034 947.44452 0 0 0
24.65914 948.68994 0 0 0
24.66794 950.52356 0 0 0
24.67674 951.5694 0 0 0
24.68555 951.36359 0 0 0
24.69435 949.23248 0 0 0
24.70315 945.31207 0 0 0
24.71195 940.06152 0 0 0
24.72076 935.61694 0 0 0
24.72956 933.01807 0 0 0
24.73836 931.10431 0 0 0
24.74716 929.82538 0 0 0
24.75596 928.95819 0 0 0
24.76477 926.35895 0 0 0
24.77357 923.81958 0 0 0
24.78237 922.49384 0 0 0
24.79117 922.00262 0 0 0
24.79997 921.80939 0 0 0
24.80878 921.56647 0 0 0
24.81758 921.62946 0 0 0
24.82638 921.44611 0 0 0
24.83518 921.2984 0 0 0
24.84398 921.38025 0 0 0
24.85279 921.45551 0 0 0
24.86159 921.66553 0 0 0
24.87039 921.25378 0 0 0
24.87919 920.74243 0 0 0
24.88800 920.57629 0 0 0
24.89680 920.18695 0 0 0
24.90560 919.56934 0 0 0
24.91440 918.90466 0 0 0
24.92320 918.82843 0 0 0
24.93201 919.83344 0 0 0
24.94081 920.98676 0 0 0
24.94961 922.6889 0 0 0
24.95841 924.99158 0 0 0
24.96721 927.73242 0 0 0
24.97602 930.34796 0 0 0
24.98482 934.21216 0 0 0
24.99362 938.64215 0 0 0
25.00242 941.35089 0 0 0
25.01122 941.93713 0 0 0
25.02003 940.87183 0 0 0
25.02883 939.01483 0 0 0
25.03763 938.49237 0 0 0
25.04643 939.29858 0 0 0
25.05523 940.65399 0 0 0
25.06404 942.4386 0 0 0
25.07284 944.88232 0 0 0
25.08164 948.70441 0 0 0
25.09044 954.54089 0 0 0
25.09924 960.62195 0 0 0
25.10805 966.0918 0 0 0
25.11685 969.77295 0 0 0
25.12565 970.23871 0 0 0
25.13445 968.13403 0 0 0
25.14325 964.96466 0 0 0
25.15206 961.29736 0 0 0
25.16086 958.83801 0 0 0
25.16966 957.02661 0 0 0
25.17846 955.4425 0 0 0
25.18727 958.34698 0 0 0
25.19607 961.90222 0 0 0
25.20487 966.55933 0 0 0
25.21367 971.32318 0 0 0
25.22247 977.61694 0 0 0
25.23128 983.17865 0 0 0
25.24008 988.58484 0 0 0
25.24888 992.09875 0 0 0
25.25768 993.04163 0 0 0
25.26648 993.87146 0 0 0
25.27529 991.93365 0 0 0
25.28409 990.58478 0 0 0
25.29289 987.28186 0 0 0
25.30169 986.41742 0 0 0
25.31049 983.30457 0 0 0
25.31930 982.22876 0 0 0
25.32810 980.47974 0 0 0
25.33690 977.67639 0 0 0
25.34570 974.03156 0 0 0
25.35451 968.66608 0 0 0
25.36331 964.25854 0 0 0
25.37211 958.93146 0 0 0
25.38091 953.83545 0 0 0
25.38971 948.04041 0 0 0
25.39852 945.91296 0 0 0
25.40732 944.33496 0 0 0
25.41612 943.5177 0 0 0
25.42492 944.8266 0 0 0
25.43372 947.00439 0 0 0
25.44253 949.27606 0 0 0
25.45133 952.48755 0 0 0
25.46013 955.87982 0 0 0
25.46893 958.71765 0 0 0
25.47774 961.56476 0 0 0
25.48654 963.34216 0 0 0
25.49534 963.6377 0 0 0
25.50414 961.63348 0 0 0
25.51294 960.48138 0 0 0
25.52175 961.09863 0 0 0
25.53055 961.99487 0 0 0
25.53935 964.45483 0 0 0
25.54815 967.73132 0 0 0
25.55695 971.6319 0 0 0
25.56576 975.2879 0 0 0
25.57456 978.98914 0 0 0
25.58336 983.91736 0 0 0
25.59216 988.96729 0 0 0
25.60096 992.43994 0 0 0
25.60977 995.59229 0 0 0
25.61857 996.70624 0 0 0
25.62737 994.14899 0 0 0
25.63618 988.06842 0 0 0
25.64498 980.44647 0 0 0
25.65378 973.3996 0 0 0
25.66258 968.18677 0 0 0
25.67138 960.20978 0 0 0
25.68019 950.31323 0 0 0
25.68899 941.77783 0 0 0
25.69779 934.25403 0 0 0
25.70659 928.48383 0 0 0
25.71539 925.11438 0 0 0
25.72420 922.74854 0 0 0
25.73300 920.58746 0 0 0
25.74180 918.31085 0 0 0
25.75060 917.53784 0 0 0
25.75940 917.53485 0 0 0
25.76821 918.08008 0 0 0
25.77701 919.27734 0 0 0
25.78581 921.85181 0 0 0
25.79461 924.93958 0 0 0
25.80342 928.91901 0 0 0
25.81222 933.66901 0 0 0
25.82102 939.29346 0 0 0
25.82982 946.09454 0 0 0
25.83862 954.16809 0 0 0
25.84743 964.69092 0 0 0
25.85623 975.508 0 0 0
25.86503 988.75793 0 0 0
25.87383 998.56818 0 0 0
25.88263 1007.7078 0 0 0
25.89144 1009.717 0 0 0
25.90024 1006.4694 0 0 0
25.90904 999.35706 0 0 0
25.91784 989.35895 0 0 0
25.92664 980.22943 0 0 0
25.93545 966.67444 0 0 0
25.94425 954.50244 0 0 0
25.95305 943.22321 0 0 0
25.96185 935.94165 0 0 0
25.97066 928.8255 0 0 0
25.97946 923.90369 0 0 0
25.98826 919.66107 0 0 0
25.99706 915.25299 0 0 0
26.00586 913.01752 0 0 0
26.01467 910.19104 0 0 0
26.02347 907.69757 0 0 0
26.03227 906.33435 0 0 0
26.04107 906.94464 0 0 0
26.04987 906.09711 0 0 0
26.05868 906.1283 0 0 0
26.06748 907.03583 0 0 0
26.07628 907.82172 0 0 0
26.08508 908.86792 0 0 0
26.09388 910.04376 0 0 0
26.10269 912.06995 0 0 0
26.11149 914.65479 0 0 0
26.12029 917.97571 0 0 0
26.12909 921.3277 0 0 0
26.13790 924.32294 0 0 0
26.14670 928.90631 0 0 0
26.15550 932.06635 0 0 0
26.16430 934.21259 0 0 0
26.17310 936.36975 0 0 0
26.18191 937.52051 0 0 0
26.19071 937.64899 0 0 0
26.19951 936.28424 0 0 0
26.20831 934.91876 0 0 0
26.21711 932.72424 0 0 0
26.22592 928.93652 0 0 0
26.23472 925.21552 0 0 0
26.24352 922.62457 0 0 0
26.25232 920.79022 0 0 0
26.26113 919.85266 0 0 0
26.26993 920.1958 0 0 0
26.27873 921.2627 0 0 0
26.28753 921.50848 0 0 0
26.29633 921.9657 0 0 0
26.30514 923.12134 0 0 0
26.31394 923.73108 0 0 0
26.32274 925.36975 0 0 0
26.33154 927.44916 0 0 0
26.34034 928.95251 0 0 0
26.34915 929.86902 0 0 0
26.35795 929.40344 0 0 0
26.36675 928.23816 0 0 0
26.37555 927.31665 0 0 0
26.38435 924.82892 0 0 0
26.39316 920.51483 0 0 0
26.40196 917.59863 0 0 0
26.41076 916.97833 0 0 0
26.41956 916.89893 0 0 0
26.42837 917.52618 0 0 0
26.43717 920.29376 0 0 0
26.44597 923.09387 0 0 0
26.45477 925.5401 0 0 0
26.46357 928.2533 0 0 0
26.47238 930.08014 0 0 0
26.48118 930.98462 0 0 0
26.48998 929.73199 0 0 0
26.49878 928.4458 0 0 0
26.50758 927.42773 0 0 0
26.51639 927.35742 0 0 0
26.52519 927.5777 0 0 0
26.53399 926.83496 0 0 0
26.54279 926.27777 0 0 0
26.55159 923.76648 0 0 0
26.56040 919.26019 0 0 0
26.56920 915.23254 0 0 0
26.57800 912.1347 0 0 0
26.58680 909.36737 0 0 0
26.59561 907.33319 0 0 0
26.60441 906.06732 0 0 0
26.61321 904.68237 0 0 0
26.62201 903.40979 0 0 0
26.63081 902.11908 0 0 0
26.63962 901.84802 0 0 0
26.64842 902.37994 0 0 0
26.65722 902.45093 0 0 0
26.66602 901.81873 0 0 0
26.67482 901.73163 0 0 0
26.68363 901.52594 0 0 0
26.69243 901.4859 0 0 0
26.70123 902.43207 0 0 0
26.71003 902.84125 0 0 0
26.71884 901.93524 0 0 0
26.72764 900.75409 0 0 0
26.73644 900.10437 0 0 0
26.74524 899.04834 0 0 0
26.75404 898.34692 0 0 0
26.76285 898.50037 0 0 0
26.77165 897.72766 0 0 0
26.78045 896.58624 0 0 0
26.78925 896.98572 0 0 0
26.79805 896.66797 0 0 0
26.80686 895.13867 0 0 0
26.81566 894.68286 0 0 0
26.82446 895.17566 0 0 0
26.83326 896.47101 0 0 0
26.84206 898.77002 0 0 0
26.85087 900.89374 0 0 0
26.85967 902.24646 0 0 0
26.86847 902.53839 0 0 0
26.87727 902.4986 0 0 0
26.88608 902.88068 0 0 0
26.89488 900.95062 0 0 0
26.90368 896.85547 0 0 0
26.91248 894.24634 0 0 0
26.92128 893.04303 0 0 0
26.93009 891.64716 0 0 0
26.93889 890.72839 0 0 0
26.94769 890.10583 0 0 0
26.95649 890.05396 0 0 0
26.96529 889.78589 0 0 0
26.97410 889.38263 0 0 0
26.98290 889.06958 0 0 0
26.99170 888.33801 0 0 0
27.00050 889.19238 0 0 0
27.00930 890.22699 0 0 0
27.01811 890.7132 0 0 0
27.02691 892.65533 0 0 0
27.03571 894.23676 0 0 0
27.04451 894.54938 0 0 0
27.05332 896.328 0 0 0
27.06212 898.95581 0 0 0
27.07092 900.56165 0 0 0
27.07972 902.72839 0 0 0
27.08852 905.46661 0 0 0
27.09733 908.0918 0 0 0
27.10613 912.23022 0 0 0
27.11493 916.49072 0 0 0
27.12373 919.35754 0 0 0
27.13253 921.34692 0 0 0
27.14134 922.97705 0 0 0
27.15014 922.8913 0 0 0
27.15894 920.18262 0 0 0
27.16774 917.16974 0 0 0
27.17655 914.09998 0 0 0
27.18535 910.69794 0 0 0
27.19415 907.86719 0 0 0
27.20295 905.22211 0 0 0
27.21175 902.9259 0 0 0
27.22056 901.5542 0 0 0
27.22936 899.94568 0 0 0
27.23816 898.86035 0 0 0
27.24696 896.74524 0 0 0
27.25576 893.75317 0 0 0
27.26457 892.61902 0 0 0
27.27337 892.164 0 0 0
27.28217 891.67847 0 0 0
27.29097 891.93933 0 0 0
27.29977 892.60724 0 0 0
27.30858 892.49664 0 0 0
27.31738 891.68475 0 0 0
27.32618 891.90906 0 0 0
27.33498 893.23383 0 0 0
27.34379 894.62036 0 0 0
27.35259 895.52332 0 0 0
27.36139 895.53662 0 0 0
27.37019 895.46558 0 0 0
27.37899 896.52466 0 0 0
27.38780 898.25146 0 0 0
27.39660 899.97729 0 0 0
27.40540 902.27277 0 0 0
27.41420 904.56689 0 0 0
27.42300 907.12988 0 0 0
27.43181 910.57941 0 0 0
27.44061 915.17578 0 0 0
27.44941 919.72156 0 0 0
27.45821 923.51532 0 0 0
27.46701 927.40302 0 0 0
27.47582 933.32959 0 0 0
27.48462 941.1806 0 0 0
27.49342 948.02283 0 0 0
27.50222 954.10303 0 0 0
27.51103 960.427 0 0 0
27.51983 964.51697 0 0 0
27.52863 965.52338 0 0 0
27.53743 965.34906 0 0 0
27.54623 963.99811 0 0 0
27.55504 962.05261 0 0 0
27.56384 959.19818 0 0 0
27.57264 954.41827 0 0 0
27.58144 949.03906 0 0 0
27.59024 943.54779 0 0 0
27.59905 937.39331 0 0 0
27.60785 930.79492 0 0 0
27.61665 922.49402 0 0 0
27.62545 915.63007 0 0 0
27.63426 910.77228 0 0 0
27.64306 906.01038 0 0 0
27.65186 902.37213 0 0 0
27.66066 899.82446 0 0 0
27.66946 898.19989 0 0 0
27.67827 896.6546 0 0 0
27.68707 895.67786 0 0 0
27.69587 894.94763 0 0 0
27.70467 894.50983 0 0 0
27.71347 894.22046 0 0 0
27.72228 893.77472 0 0 0
27.73108 891.82831 0 0 0
27.73988 890.29083 0 0 0
27.74868 889.59644 0 0 0
27.75748 888.82819 0 0 0
27.76629 888.56842 0 0 0
27.77509 887.32129 0 0 0
27.78389 886.66736 0 0 0
27.79269 886.39014 0 0 0
27.80150 885.755 0 0 0
27.81030 885.68085 0 0 0
27.81910 886.52844 0 0 0
27.82790 887.70697 0 0 0
27.83670 887.63367 0 0 0
27.84551 887.30933 0 0 0
27.85431 887.91986 0 0 0
27.86311 888.04443 0 0 0
27.87191 888.53735 0 0 0
27.88071 890.22009 0 0 0
27.88952 892.34424 0 0 0
27.89832 893.68292 0 0 0
27.90712 894.3324 0 0 0
27.91592 896.15179 0 0 0
27.92472 897.83521 0 0 0
27.93353 897.50555 0 0 0
27.94233 896.62524 0 0 0
27.95113 895.97546 0 0 0
27.95993 895.19452 0 0 0
27.96874 894.50006 0 0 0
27.97754 894.84766 0 0 0
27.98634 895.8526 0 0 0
27.99514 897.1554 0 0 0
28.00394 897.63513 0 0 0
28.01275 897.87054 0 0 0
28.02155 899.33154 0 0 0
28.03035 900.58362 0 0 0
28.03915 902.70923 0 0 0
28.04796 904.68701 0 0 0
28.05676 905.80701 0 0 0
28.06556 907.74054 0 0 0
28.07436 910.86591 0 0 0
28.08316 914.18903 0 0 0
28.09196 916.7674 0 0 0
28.10077 918.04297 0 0 0
28.10957 917.95374 0 0 0
28.11837 919.50647 0 0 0
28.12717 922.32141 0 0 0
28.13598 923.56775 0 0 0
28.14478 924.93787 0 0 0
28.15358 925.66553 0 0 0
28.16238 924.04352 0 0 0
28.17119 922.29584 0 0 0
28.17999 920.71448 0 0 0
28.18879 918.52112 0 0 0
28.19759 915.99963 0 0 0
28.20639 914.0249 0 0 0
28.21520 912.98187 0 0 0
28.22400 912.12219 0 0 0
28.23280 912.65625 0 0 0
28.24160 912.64752 0 0 0
28.25040 912.24146 0 0 0
28.25921 913.11682 0 0 0
28.26801 914.73181 0 0 0
28.27681 916.28638 0 0 0
28.28561 916.8678 0 0 0
28.29442 916.87024 0 0 0
28.30322 916.11987 0 0 0
28.31202 914.026 0 0 0
28.32082 910.41833 0 0 0
28.32962 902.63379 0 0 0
28.33843 883.04486 0 0 0
28.34723 876.3371 0 0 0
28.35603 884.50397 0 0 0
28.36483 885.89508 0 0 0
28.37363 886.10297 0 0 0
28.38244 886.31805 0 0 0
28.39124 886.69391 0 0 0
28.40004 885.9173 0 0 0
28.40884 884.4184 0 0 0
28.41765 883.0282 0 0 0
28.42645 882.52313 0 0 0
28.43525 882.40283 0 0 0
28.44405 881.41168 0 0 0
28.45285 880.86035 0 0 0
28.46166 880.92828 0 0 0
28.47046 881.32422 0 0 0
28.47926 881.25519 0 0 0
28.48806 880.53571 0 0 0
28.49686 879.25665 0 0 0
28.50567 878.9679 0 0 0
28.51447 880.03571 0 0 0
28.52327 879.83881 0 0 0
28.53207 879.90009 0 0 0
28.54087 880.29144 0 0 0
28.54968 881.35303 0 0 0
28.55848 883.52557 0 0 0
28.56728 883.71216 0 0 0
28.57608 884.53815 0 0 0
28.58488 885.69373 0 0 0
28.59369 885.92285 0 0 0
28.60249 886.40881 0 0 0
28.61129 886.13928 0 0 0
28.62009 886.4718 0 0 0
28.62889 888.69342 0 0 0
28.63770 890.78918 0 0 0
28.64650 892.32922 0 0 0
28.65530 895.49402 0 0 0
28.66410 899.28723 0 0 0
28.67291 901.22528 0 0 0
28.68171 903.46954 0 0 0
28.69051 905.28217 0 0 0
28.69931 905.07373 0 0 0
28.70811 904.4433 0 0 0
28.71692 903.60272 0 0 0
28.72572 904.24103 0 0 0
28.73452 905.26105 0 0 0
28.74332 906.48975 0 0 0
28.75212 909.30219 0 0 0
28.76093 914.47876 0 0 0
28.76973 920.13129 0 0 0
28.77853 925.20007 0 0 0
28.78733 928.58643 0 0 0
28.79613 928.71735 0 0 0
28.80494 928.4104 0 0 0
28.81374 928.09802 0 0 0
28.82254 925.8559 0 0 0
28.83134 922.61707 0 0 0
28.84014 920.94843 0 0 0
28.84895 921.61584 0 0 0
28.85775 924.28156 0 0 0
28.86655 927.73383 0 0 0
28.87535 930.72742 0 0 0
28.88416 930.93927 0 0 0
28.89296 930.54028 0 0 0
28.90176 930.19977 0 0 0
28.91056 925.67993 0 0 0
28.91936 917.66565 0 0 0
28.92817 909.95636 0 0 0
28.93697 905.47583 0 0 0
28.94577 901.71307 0 0 0
28.95457 897.06018 0 0 0
28.96337 893.62042 0 0 0
28.97218 890.88123 0 0 0
28.98098 891.19299 0 0 0
28.98978 893.20319 0 0 0
28.99858 893.54614 0 0 0
29.00738 894.23047 0 0 0
29.01619 895.86377 0 0 0
29.02499 896.02643 0 0 0
29.03379 897.64819 0 0 0
29.04259 899.81464 0 0 0
29.05140 901.70996 0 0 0
29.06020 905.32013 0 0 0
29.06900 907.37891 0 0 0
29.07780 909.51038 0 0 0
29.08660 912.70471 0 0 0
29.09541 915.02557 0 0 0
29.10421 918.63422 0 0 0
29.11301 920.9574 0 0 0
29.12181 921.14935 0 0 0
29.13061 919.97198 0 0 0
29.13942 920.17468 0 0 0
29.14822 924.17279 0 0 0
29.15702 927.25623 0 0 0
29.16583 927.91589 0 0 0
29.17463 928.80347 0 0 0
29.18343 929.98718 0 0 0
29.19223 929.57086 0 0 0
29.20103 929.82727 0 0 0
29.20984 930.5072 0 0 0
29.21864 931.16364 0 0 0
29.22744 932.60016 0 0 0
29.23624 933.04523 0 0 0
29.24504 932.05103 0 0 0
29.25384 930.13153 0 0 0
29.26265 929.66913 0 0 0
29.27145 929.15424 0 0 0
29.28025 928.42346 0 0 0
29.28906 928.15552 0 0 0
29.29785 925.94092 0 0 0
29.30666 923.95074 0 0 0
29.31546 922.50623 0 0 0
29.32426 921.18359 0 0 0
29.33307 918.18823 0 0 0
29.34187 913.74847 0 0 0
29.35067 909.26746 0 0 0
29.35947 906.35516 0 0 0
29.36827 903.90222 0 0 0
29.37708 901.80695 0 0 0
29.38588 900.39752 0 0 0
29.39468 897.85596 0 0 0
29.40348 895.36145 0 0 0
29.41228 894.1178 0 0 0
29.42109 894.61346 0 0 0
29.42989 894.36359 0 0 0
29.43869 892.77118 0 0 0
29.44749 892.85999 0 0 0
29.45630 892.27856 0 0 0
29.46510 891.4599 0 0 0
29.47390 891.16187 0 0 0
29.48270 890.12213 0 0 0
29.49150 890.32428 0 0 0
29.50031 890.64478 0 0 0
29.50911 890.78534 0 0 0
29.51791 890.74304 0 0 0
29.52671 890.32324 0 0 0
29.53551 891.69446 0 0 0
29.54432 892.38696 0 0 0
29.55312 892.57135 0 0 0
29.56192 892.76746 0 0 0
29.57072 892.3136 0 0 0
29.57952 892.57648 0 0 0
29.58833 894.82404 0 0 0
29.59713 896.24573 0 0 0
29.60593 897.3327 0 0 0
29.61473 897.88153 0 0 0
29.62354 896.7243 0 0 0
29.63234 896.0437 0 0 0
29.64114 896.44299 0 0 0
29.64994 896.4549 0 0 0
29.65874 895.98499 0 0 0
29.66755 896.84851 0 0 0
29.67635 896.36737 0 0 0
29.68515 897.45245 0 0 0
29.69395 899.39819 0 0 0
29.70275 899.90131 0 0 0
29.71156 904.06317 0 0 0
29.72036 909.19464 0 0 0
29.72916 912.69904 0 0 0
29.73796 915.55591 0 0 0
29.74676 916.9364 0 0 0
29.75557 917.20697 0 0 0
29.76437 918.56036 0 0 0
29.77317 919.18506 0 0 0
29.78197 918.63293 0 0 0
29.79078 916.90625 0 0 0
29.79958 917.26392 0 0 0
29.80838 917.16449 0 0 0
29.81718 913.3949 0 0 0
29.82598 910.789 0 0 0
29.83479 909.06958 0 0 0
29.84359 904.62128 0 0 0
29.85239 901.38721 0 0 0
29.86119 900.20062 0 0 0
29.86999 899.47424 0 0 0
29.87880 897.31104 0 0 0
29.88760 896.03601 0 0 0
29.89640 897.30304 0 0 0
29.90520 898.245 0 0 0
29.91400 900.16248 0 0 0
29.92281 903.77307 0 0 0
29.93161 907.13605 0 0 0
29.94041 911.14642 0 0 0
29.94921 917.47986 0 0 0
29.95801 924.41992 0 0 0
29.96682 929.17145 0 0 0
29.97562 934.00482 0 0 0
29.98442 938.54419 0 0 0
29.99322 935.6933 0 0 0
30.00203 928.92657 0 0 0
30.01083 923.38403 0 0 0
30.01963 917.39532 0 0 0
30.02843 912.60992 0 0 0
30.03723 909.00244 0 0 0
30.04604 906.13824 0 0 0
30.05484 903.29077 0 0 0
30.06364 901.08545 0 0 0
30.07244 900.45117 0 0 0
30.08124 899.55151 0 0 0
30.09005 897.87811 0 0 0
30.09885 895.49707 0 0 0
30.10765 891.46387 0 0 0
30.11645 888.53186 0 0 0
30.12526 887.72107 0 0 0
30.13406 886.51233 0 0 0
30.14286 885.7359 0 0 0
30.15166 885.66333 0 0 0
30.16046 884.52393 0 0 0
30.16927 884.2038 0 0 0
30.17807 884.27362 0 0 0
30.18687 883.31903 0 0 0
30.19567 884.23639 0 0 0
30.20447 885.5351 0 0 0
30.21328 885.44208 0 0 0
30.22208 884.48407 0 0 0
30.23088 884.23712 0 0 0
30.23968 882.93262 0 0 0
30.24849 883.19202 0 0 0
30.25729 884.13232 0 0 0
30.26609 884.53394 0 0 0
30.27489 887.03174 0 0 0
30.28369 888.70825 0 0 0
30.29250 888.77466 0 0 0
30.30130 889.80981 0 0 0
30.31010 890.09314 0 0 0
30.31890 890.69672 0 0 0
30.32770 891.20282 0 0 0
30.33651 891.05566 0 0 0
30.34531 889.36737 0 0 0
30.35411 888.97705 0 0 0
30.36291 889.13843 0 0 0
30.37172 889.9754 0 0 0
30.38052 890.35754 0 0 0
30.38932 887.97986 0 0 0
30.39812 886.44275 0 0 0
30.40692 886.29803 0 0 0
30.41573 886.29572 0 0 0
30.42453 888.44672 0 0 0
30.43333 890.08704 0 0 0
30.44213 889.95123 0 0 0
30.45093 887.79675 0 0 0
30.45974 888.34607 0 0 0
30.46854 891.78101 0 0 0
30.47734 892.56348 0 0 0
30.48614 892.69122 0 0 0
30.49494 894.16675 0 0 0
30.50375 895.45111 0 0 0
30.51255 898.49011 0 0 0
30.52135 900.65601 0 0 0
30.53015 901.5047 0 0 0
30.53896 902.04791 0 0 0
30.54776 905.7807 0 0 0
30.55656 908.92975 0 0 0
30.56536 910.41992 0 0 0
30.57416 908.44763 0 0 0
30.58297 906.75061 0 0 0
30.59177 904.28931 0 0 0
30.60057 897.92987 0 0 0
30.60937 893.03369 0 0 0
30.61817 890.57416 0 0 0
30.62698 889.02313 0 0 0
30.63578 886.68762 0 0 0
30.64458 885.02802 0 0 0
30.65338 883.58301 0 0 0
30.66218 883.5058 0 0 0
30.67099 883.03302 0 0 0
30.67979 882.00885 0 0 0
30.68859 880.61493 0 0 0
30.69739 877.81476 0 0 0
30.70620 877.47363 0 0 0
30.71500 878.11963 0 0 0
30.72380 879.33411 0 0 0
30.73260 879.51984 0 0 0
30.74140 877.81116 0 0 0
30.75021 876.22284 0 0 0
30.75901 875.12781 0 0 0
30.76781 876.87146 0 0 0
30.77661 876.52557 0 0 0
30.78541 873.42468 0 0 0
30.79422 876.62653 0 0 0
30.80302 875.62952 0 0 0
30.81182 872.61469 0 0 0
30.82062 871.81268 0 0 0
30.82943 873.10486 0 0 0
30.83823 872.7229 0 0 0
30.84703 871.4986 0 0 0
30.85583 873.18652 0 0 0
30.86463 873.76794 0 0 0
30.87344 873.11963 0 0 0
30.88224 874.17847 0 0 0
30.89104 875.83167 0 0 0
30.89984 878.97491 0 0 0
30.90864 880.4201 0 0 0
30.91745 879.81531 0 0 0
30.92625 881.40308 0 0 0
30.93505 882.33887 0 0 0
30.94385 884.29102 0 0 0
30.95265 885.7514 0 0 0
30.96146 883.7558 0 0 0
30.97026 882.90717 0 0 0
30.97906 882.67578 0 0 0
30.98786 881.98639 0 0 0
30.99667 885.09283 0 0 0
31.00547 888.43542 0 0 0
31.01427 888.72614 0 0 0
31.02307 889.73383 0 0 0
31.03187 890.547 0 0 0
31.04068 889.06842 0 0 0
31.04948 886.73224 0 0 0
31.05828 886.06006 0 0 0
31.06708 890.72449 0 0 0
31.07588 892.90308 0 0 0
31.08469 892.89185 0 0 0
31.09349 895.42816 0 0 0
31.10229 899.02271 0 0 0
31.11109 903.82202 0 0 0
31.11989 907.586 0 0 0
31.12870 911.7738 0 0 0
31.13750 917.96143 0 0 0
31.14630 924.46918 0 0 0
31.15510 929.31177 0 0 0
31.16391 933.4209 0 0 0
31.17271 936.0675 0 0 0
31.18151 936.21716 0 0 0
31.19031 936.13214 0 0 0
31.19911 936.98682 0 0 0
31.20792 936.28442 0 0 0
31.21672 935.09302 0 0 0
31.22552 932.72791 0 0 0
31.23432 929.34271 0 0 0
31.24312 926.30347 0 0 0
31.25193 927.09894 0 0 0
31.26073 925.21771 0 0 0
31.26953 920.86273 0 0 0
31.27833 918.08368 0 0 0
31.28714 914.73853 0 0 0
31.29594 911.62445 0 0 0
31.30474 908.36945 0 0 0
31.31354 908.29071 0 0 0
31.32234 911.59479 0 0 0
31.33115 912.64288 0 0 0
31.33995 911.69 0 0 0
31.34875 910.36407 0 0 0
31.35755 908.13794 0 0 0
31.36635 898.25476 0 0 0
31.37516 890.89447 0 0 0
31.38396 887.9978 0 0 0
31.39276 884.88031 0 0 0
31.40156 882.12598 0 0 0
31.41036 880.24097 0 0 0
31.41917 879.65723 0 0 0
31.42797 875.97369 0 0 0
31.43677 875.21124 0 0 0
31.44557 876.38367 0 0 0
31.45438 876.72888 0 0 0
31.46318 877.61578 0 0 0
31.47198 876.52399 0 0 0
31.48078 874.48273 0 0 0
31.48958 873.23157 0 0 0
31.49839 870.96191 0 0 0
31.50719 871.6756 0 0 0
31.51599 871.46295 0 0 0
31.52479 870.38037 0 0 0
31.53359 868.93921 0 0 0
31.54240 868.85028 0 0 0
31.55120 870.58801 0 0 0
31.56000 870.68518 0 0 0
31.56880 869.04077 0 0 0
31.57760 869.26007 0 0 0
31.58641 870.26715 0 0 0
31.59521 871.92456 0 0 0
31.60401 869.62335 0 0 0
31.61281 863.54462 0 0 0
31.62162 861.82721 0 0 0
31.63042 866.33545 0 0 0
31.63922 867.75104 0 0 0
31.64802 866.82666 0 0 0
31.65682 868.95435 0 0 0
31.66563 874.66089 0 0 0
31.67443 876.3288 0 0 0
31.68323 877.68732 0 0 0
31.69203 875.06421 0 0 0
31.70083 873.7832 0 0 0
31.70964 876.79785 0 0 0
31.71844 874.61047 0 0 0
31.72724 872.05524 0 0 0
31.73604 872.88544 0 0 0
31.74485 870.81549 0 0 0
31.75365 865.21704 0 0 0
31.76245 861.33398 0 0 0
31.77125 859.13068 0 0 0
31.78005 858.8045 0 0 0
31.78886 857.90173 0 0 0
31.79766 854.10095 0 0 0
31.80646 854.09985 0 0 0
31.81526 854.75287 0 0 0
31.82406 850.82306 0 0 0
31.83287 846.58826 0 0 0
31.84167 847.9007 0 0 0
31.85047 851.34039 0 0 0
31.85927 847.44519 0 0 0
31.86807 844.75824 0 0 0
31.87688 849.76093 0 0 0
31.88568 847.89459 0 0 0
31.89448 844.34283 0 0 0
31.90328 849.24152 0 0 0
31.91209 854.67261 0 0 0
31.92089 854.35858 0 0 0
31.92969 851.13483 0 0 0
31.93849 849.01111 0 0 0
31.94729 848.70374 0 0 0
31.95610 851.09949 0 0 0
31.96490 854.85284 0 0 0
31.97370 855.01025 0 0 0
31.98250 851.44025 0 0 0
31.99130 852.29419 0 0 0
32.00011 857.1189 0 0 0
32.00891 861.69281 0 0 0
32.01771 864.18842 0 0 0
32.02651 862.95319 0 0 0
32.03532 860.03479 0 0 0
32.04412 857.22662 0 0 0
32.05292 854.63129 0 0 0
32.06172 854.72156 0 0 0
32.07052 854.95367 0 0 0
32.07933 855.16107 0 0 0
32.08813 853.91278 0 0 0
32.09693 856.32501 0 0 0
32.10573 858.88904 0 0 0
32.11454 859.40894 0 0 0
32.12334 860.64893 0 0 0
32.13214 859.56329 0 0 0
32.14094 858.03711 0 0 0
32.14974 856.92194 0 0 0
32.15855 855.04297 0 0 0
32.16735 854.42645 0 0 0
32.17615 850.36841 0 0 0
32.18495 847.86938 0 0 0
32.19375 847.32117 0 0 0
32.20256 846.3457 0 0 0
32.21136 844.73932 0 0 0
32.22016 839.96515 0 0 0
32.22896 844.48627 0 0 0
32.23776 846.60516 0 0 0
32.24657 841.9986 0 0 0
32.25537 838.61517 0 0 0
32.26417 836.85425 0 0 0
32.27297 838.09174 0 0 0
32.28178 832.92828 0 0 0
32.29058 831.83447 0 0 0
32.29938 842.45624 0 0 0
32.30818 846.29736 0 0 0
32.31698 846.78503 0 0 0
32.32579 846.23877 0 0 0
32.33459 843.07562 0 0 0
32.34339 835.63922 0 0 0
32.35219 837.12299 0 0 0
32.36099 838.13751 0 0 0
32.36980 831.00061 0 0 0
32.37860 832.44574 0 0 0
32.38740 823.4917 0 0 0
32.39620 822.34723 0 0 0
32.40500 824.1972 0 0 0
32.41381 817.8609 0 0 0
32.42261 816.58649 0 0 0
32.43141 818.28046 0 0 0
32.44021 812.4209 0 0 0
32.44902 808.06146 0 0 0
32.45782 811.51398 0 0 0
32.46662 809.6087 0 0 0
32.47542 803.70239 0 0 0
32.48422 810.32202 0 0 0
32.49303 811.94598 0 0 0
32.50183 803.92078 0 0 0
32.51063 801.33344 0 0 0
32.51943 799.01636 0 0 0
32.52823 798.31665 0 0 0
32.53704 799.36334 0 0 0
32.54584 804.17902 0 0 0
32.55464 808.5968 0 0 0
32.56344 804.39154 0 0 0
32.57225 799.57483 0 0 0
32.58105 800.25629 0 0 0
32.58985 797.29083 0 0 0
32.59865 796.49231 0 0 0
32.60745 793.94067 0 0 0
32.61626 788.02026 0 0 0
32.62506 783.75732 0 0 0
32.63386 775.74585 0 0 0
32.64266 778.25385 0 0 0
32.65146 775.55609 0 0 0
32.66027 768.15381 0 0 0
32.66907 762.51703 0 0 0
32.67787 754.80066 0 0 0
32.68667 754.29089 0 0 0
32.69547 745.82697 0 0 0
32.70428 743.71057 0 0 0
32.71308 737.0968 0 0 0
32.72188 718.02985 0 0 0
32.73068 709.70715 0 0 0
32.73949 704.59717 0 0 0
32.74829 700.76038 0 0 0
32.75709 686.9848 0 0 0
32.76589 680.0802 0 0 0
32.77469 669.39124 0 0 0
32.78350 641.79993 0 0 0
32.79230 605.0799 0 0 0
32.80110 572.5509 0 0 0
32.80990 530.58765 0 0 0
32.81870 461.42404 0 0 0
32.82751 385.09952 0 0 0
32.83631 264.40167 0 0 0
32.84511 190.93063 0 0 0
32.85391 195.39784 0 0 0
32.86271 188.56776 0 0 0
32.87152 186.94972 0 0 0
32.88032 192.76857 0 0 0
32.88912 192.45432 0 0 0
32.89792 181.75536 0 0 0
32.90673 175.84964 0 0 0
32.91553 179.10353 0 0 0
32.92433 184.0206 0 0 0
32.93313 179.05289 0 0 0
32.94193 183.59116 0 0 0
32.95074 189.77866 0 0 0
32.95954 183.91379 0 0 0
32.96834 174.6208 0 0 0
32.97714 174.38692 0 0 0
32.98594 185.33154 0 0 0
32.99475 194.67647 0 0 0
33.00355 196.21909 0 0 0
33.01235 196.93546 0 0 0
33.02115 199.56938 0 0 0
33.02996 195.81308 0 0 0
33.03876 190.53534 0 0 0
33.04756 185.43781 0 0 0
33.05636 183.34903 0 0 0
33.06516 180.84651 0 0 0
33.07397 176.6217 0 0 0
33.08277 187.01665 0 0 0
33.09157 192.94226 0 0 0
33.10037 196.76575 0 0 0
33.10917 206.16281 0 0 0
33.11798 208.39537 0 0 0
33.12678 202.64407 0 0 0
33.13558 201.34482 0 0 0
33.14438 198.35478 0 0 0
33.15318 186.46124 0 0 0
33.16199 178.24341 0 0 0
33.17079 181.62419 0 0 0
33.17959 193.20488 0 0 0
33.18839 196.21484 0 0 0
33.19720 192.10489 0 0 0
33.20600 189.12167 0 0 0
33.21480 198.35916 0 0 0
33.22360 191.25473 0 0 0
33.23240 169.80034 0 0 0
33.24121 161.44002 0 0 0
33.25001 176.88847 0 0 0
33.25881 194.03459 0 0 0
33.26761 203.09406 0 0 0
33.27641 206.33116 0 0 0
33.28522 201.50914 0 0 0
33.29402 190.81116 0 0 0
33.30282 186.52885 0 0 0
33.31162 188.3414 0 0 0
33.32042 185.8853 0 0 0
33.32923 178.28889 0 0 0
33.33803 180.29309 0 0 0
33.34683 187.13934 0 0 0
33.35563 196.03024 0 0 0
33.36444 195.59064 0 0 0
33.37324 196.35666 0 0 0
33.38204 190.90594 0 0 0
33.39084 179.77657 0 0 0
33.39964 183.17349 0 0 0
33.40845 189.51428 0 0 0
33.41725 193.45888 0 0 0
33.42605 200.78961 0 0 0
33.43485 204.05016 0 0 0
33.44365 199.77673 0 0 0
33.45246 195.1917 0 0 0
33.46126 204.84467 0 0 0
33.47006 209.75684 0 0 0
33.47886 203.75218 0 0 0
33.48766 193.06645 0 0 0
33.49647 194.866 0 0 0
33.50527 196.4921 0 0 0
33.51407 197.53546 0 0 0
33.52287 198.92482 0 0 0
33.53168 205.28732 0 0 0
33.54048 211.13898 0 0 0
33.54928 210.13155 0 0 0
33.55808 214.09865 0 0 0
33.56688 208.08994 0 0 0
33.57569 202.29698 0 0 0
33.58449 194.64313 0 0 0
33.59329 189.33467 0 0 0
33.60209 193.90292 0 0 0
33.61089 203.14952 0 0 0
33.61970 204.04025 0 0 0
33.62850 194.42413 0 0 0
33.63730 191.87425 0 0 0
33.64610 194.24686 0 0 0
33.65491 196.75714 0 0 0
33.66371 205.00589 0 0 0
33.67251 206.44153 0 0 0
33.68131 201.65887 0 0 0
33.69011 206.36954 0 0 0
33.69892 202.17468 0 0 0
33.70772 187.87845 0 0 0
33.71652 189.10323 0 0 0
33.72532 195.53413 0 0 0
33.73412 198.47574 0 0 0
33.74293 200.69838 0 0 0
33.75173 204.4138 0 0 0
33.76053 205.98656 0 0 0
33.76933 212.16415 0 0 0
33.77813 218.75198 0 0 0
33.78694 216.6123 0 0 0
33.79574 212.80772 0 0 0
33.80454 211.44759 0 0 0
33.81334 221.54979 0 0 0
33.82215 216.23106 0 0 0
33.83095 199.6113 0 0 0
33.83975 198.3315 0 0 0
33.84855 203.32942 0 0 0
33.85735 202.76114 0 0 0
33.86616 193.26212 0 0 0
33.87496 189.66949 0 0 0
33.88376 193.25148 0 0 0
33.89256 207.64999 0 0 0
33.90136 218.99739 0 0 0
33.91017 221.61775 0 0 0
33.91897 216.0864 0 0 0
33.92777 207.63393 0 0 0
33.93657 196.09741 0 0 0
33.94537 196.33318 0 0 0
33.95418 198.77834 0 0 0
33.96298 197.13837 0 0 0
33.97178 200.91658 0 0 0
33.98058 199.35332 0 0 0
33.98939 190.3102 0 0 0
33.99819 182.48071 0 0 0
34.00699 177.96605 0 0 0
34.01579 188.74168 0 0 0
34.02459 200.86108 0 0 0
34.03340 204.26515 0 0 0
34.04220 206.44989 0 0 0
34.05100 203.5183 0 0 0
34.05980 201.8223 0 0 0
34.06860 195.20741 0 0 0
34.07741 191.21857 0 0 0
34.08621 201.58588 0 0 0
34.09501 216.50185 0 0 0
34.10381 214.32927 0 0 0
34.11262 203.1114 0 0 0
34.12142 191.59108 0 0 0
34.13022 187.8033 0 0 0
34.13902 195.39806 0 0 0
34.14782 200.38635 0 0 0
34.15663 210.13269 0 0 0
34.16543 202.68283 0 0 0
34.17423 184.33072 0 0 0
34.18303 173.61069 0 0 0
34.19183 179.58276 0 0 0
34.20064 194.702 0 0 0
34.20944 210.2644 0 0 0
34.21824 216.82869 0 0 0
34.22704 218.05664 0 0 0
34.23584 214.24875 0 0 0
34.24465 204.7084 0 0 0
34.25345 201.27606 0 0 0
34.26225 202.34444 0 0 0
34.27105 207.7459 0 0 0
34.27986 222.80069 0 0 0
34.28866 220.00902 0 0 0
34.29746 212.44771 0 0 0
34.30626 199.22018 0 0 0
34.31506 200.93204 0 0 0
34.32387 196.17513 0 0 0
34.33267 196.19838 0 0 0
34.34147 200.67346 0 0 0
34.35027 197.30956 0 0 0
34.35907 197.39047 0 0 0
34.36788 199.53447 0 0 0
34.37668 202.87277 0 0 0
34.38548 204.38753 0 0 0
34.39428 208.0701 0 0 0
34.40308 207.38182 0 0 0
34.41189 197.99818 0 0 0
34.42069 196.96953 0 0 0
34.42949 199.56352 0 0 0
34.43829 200.86472 0 0 0
34.44710 199.0542 0 0 0
34.45590 195.78218 0 0 0
34.46470 193.07057 0 0 0
34.47350 202.52081 0 0 0
34.48230 208.21864 0 0 0
34.49111 202.99408 0 0 0
34.49991 194.87979 0 0 0
34.50871 197.55672 0 0 0
34.51751 205.69954 0 0 0
34.52631 217.56339 0 0 0
34.53512 210.55836 0 0 0
34.54392 208.43753 0 0 0
34.55272 213.44342 0 0 0
34.56152 211.2491 0 0 0
34.57033 204.34776 0 0 0
34.57913 194.26949 0 0 0
34.58793 195.81752 0 0 0
34.59673 202.66954 0 0 0
34.60553 201.78107 0 0 0
34.61434 210.495 0 0 0
34.62314 223.38179 0 0 0
34.63194 214.39584 0 0 0
34.64074 209.16225 0 0 0
34.64954 205.57599 0 0 0
34.65835 196.34332 0 0 0
34.66715 198.00534 0 0 0
34.67595 214.20528 0 0 0
34.68475 213.07156 0 0 0
34.69355 223.83778 0 0 0
34.70236 221.06387 0 0 0
34.71116 215.91441 0 0 0
34.71996 196.36421 0 0 0
34.72876 183.91321 0 0 0
34.73757 187.85652 0 0 0
34.74637 187.82973 0 0 0
34.75517 176.75305 0 0 0
34.76397 179.52229 0 0 0
34.77277 195.32257 0 0 0
34.78158 205.84746 0 0 0
34.79038 207.61612 0 0 0
34.79918 214.75896 0 0 0
34.80798 214.34279 0 0 0
34.81678 218.11559 0 0 0
34.82559 221.04146 0 0 0
34.83439 201.75223 0 0 0
34.84319 193.12396 0 0 0
34.85199 203.34906 0 0 0
34.86079 207.71075 0 0 0
34.86960 211.67375 0 0 0
34.87840 220.29225 0 0 0
34.88720 224.08931 0 0 0
34.89600 222.34268 0 0 0
34.90481 206.71771 0 0 0
34.91361 203.70839 0 0 0
34.92241 203.90041 0 0 0
34.93121 213.74179 0 0 0
34.94001 211.64076 0 0 0
34.94882 204.05257 0 0 0
34.95762 207.0386 0 0 0
34.96642 212.23958 0 0 0
34.97522 214.81494 0 0 0
34.98402 213.04991 0 0 0
34.99283 216.8389 0 0 0
35.00163 213.16429 0 0 0
35.01043 209.62216 0 0 0
35.01923 206.11951 0 0 0
35.02804 208.72757 0 0 0
35.03684 216.5452 0 0 0
35.04564 225.15636 0 0 0
35.05444 219.42906 0 0 0
35.06324 212.55841 0 0 0
35.07205 220.07468 0 0 0
35.08085 226.26128 0 0 0
35.08965 224.05855 0 0 0
35.09845 218.31082 0 0 0
35.10725 215.29036 0 0 0
35.11606 211.91817 0 0 0
35.12486 204.64207 0 0 0
35.13366 199.33104 0 0 0
35.14246 206.90924 0 0 0
35.15126 214.13686 0 0 0
35.16007 214.41988 0 0 0
35.16887 218.6355 0 0 0
35.17767 218.38396 0 0 0
35.18647 224.4969 0 0 0
35.19528 223.9196 0 0 0
35.20408 216.88933 0 0 0
loop_
_gsas_i100_meas
0.24
16.62
3.91
2.76
3.09
0.32
24.61
14.61
6.41
100.00
13.93
14.54
0.79
0.46
19.95
45.10
0.08
28.05
5.89
8.66
3.42
0.40
1.56
4.86
-0.48
26.00
3.88
24.97
1.62
0.99
-0.14
3.36
0.06
3.55
1.30
-0.17
1.34
1.39
7.26
14.91
10.71
2.25
2.49
0.66
0.19
0.02
0.29
0.03
15.01
0.54
3.02
6.64
2.79
0.40
3.57
1.33
0.33
6.81
4.72
0.00
0.75
7.60
28.42
0.15
2.30
2.46
-0.82
4.24
1.84
-0.42
0.56
0.29
3.40
2.65
1.49
0.05
1.90
2.49
0.29
3.28
2.10
-0.20
0.00
0.04
4.31
4.58
25.81
5.36
0.02
1.90
2.07
0.68
1.96
0.23
0.00
0.85
0.65
5.03
2.43
2.21
0.17
0.42
1.36
1.78
0.27
0.37
5.53
0.01
2.34
5.07
16.77
-0.32
3.08
4.69
3.04
1.93
0.04
0.30
0.01
0.18
0.82
0.35
2.48
0.05
0.04
1.62
9.18
0.80
4.30
0.29
0.01
0.67
0.20
0.06
2.83
1.02
-0.03
0.82
1.03
0.07
0.67
0.57
0.43
8.93
-0.16
0.07
6.39
0.24
0.34
0.00
7.10
1.24
0.39
0.52
0.04
-0.11
0.07
3.26
3.75
0.17
2.04
0.69
3.33
0.39
0.27
1.64
0.85
0.54
0.12
0.12
1.50
1.42
0.06
1.88
0.08
0.59
0.42
0.00
0.45
0.50
