#------------------------------------------------------------------------------
#$Date: 2021-02-05 01:04:31 +0200 (Fri, 05 Feb 2021) $
#$Revision: 261628 $
#$URL: file:///home/coder/svn-repositories/cod/cif/7/24/18/7241835.cif $
#------------------------------------------------------------------------------
#
# This file is available in the Crystallography Open Database (COD),
# http://www.crystallography.net/
#
# All data on this site have been placed in the public domain by the
# contributors.
#
data_7241835
loop_
_publ_author_name
'Gu\'nka, Piotr A.'
'Hanfland, Michael'
'Chen, Yu-Sheng'
'Zachara, Janusz'
_publ_section_title
;
 High-pressure and low-temperature structural study of claudetite I, a
 monoclinic layered As2O3 polymorph
;
_journal_issue                   3
_journal_name_full               CrystEngComm
_journal_page_first              638
_journal_page_last               644
_journal_paper_doi               10.1039/D0CE01401J
_journal_volume                  23
_journal_year                    2021
_chemical_formula_moiety         'As2 O3'
_chemical_formula_sum            'As2 O3'
_chemical_formula_weight         197.84
_chemical_name_common            'claudetite I'
_chemical_name_systematic
;
arsenic(III) oxide
;
_space_group_IT_number           14
_space_group_name_Hall           '-P 2yn'
_space_group_name_H-M_alt        'P 1 21/n 1'
_symmetry_cell_setting           monoclinic
_symmetry_space_group_name_H-M   'P 1 21/n 1'
_audit_creation_date             2020-10-21T15:11
_audit_creation_method           'created in GSAS-II'
_audit_update_record
;
2020-10-22 deposited with the CCDC.	2020-12-10 downloaded from the CCDC.
;
_cell_angle_alpha                90
_cell_angle_beta                 94.6135(25)
_cell_angle_gamma                90
_cell_formula_units_Z            4
_cell_length_a                   4.8883(3)
_cell_length_b                   12.1119(5)
_cell_length_c                   4.28963(21)
_cell_measurement_pressure       8.63e6(5)
_cell_measurement_temperature    293
_cell_volume                     253.15(2)
_computing_data_reduction        Fit2D
_computing_structure_refinement
'GSAS-II (Toby & Von Dreele, J. Appl. Cryst. 46, 544-549, 2013)'
_diffrn_ambient_pressure         8.63e6(5)
_diffrn_ambient_temperature      293
_diffrn_detector                 'Mar555 flat panel'
_diffrn_detector_type            'Mar555 flat panel'
_diffrn_measurement_device_type  'ESRF ID09A beamline'
_diffrn_radiation_monochromator  Si
_diffrn_radiation_polarisn_ratio 0.9900
_diffrn_radiation_probe          x-ray
_diffrn_radiation_wavelength     0.41421
_diffrn_source                   'ESRF ID09A'
_diffrn_source_type              synchrotron
_exptl_crystal_colour            colourless
_exptl_crystal_density_diffrn    5.1909
_exptl_crystal_description       'white powder'
_pd_block_id                     2020-10-21T15:11|clau1_028rietveld||id09a
_pd_calc_method                  'Rietveld Refinement'
_pd_meas_number_of_points        4000
_pd_phase_name                   claudetiteI
_pd_prep_pressure                100.0(1)
_pd_prep_temperature             293
_pd_proc_info_datetime           2020-10-21T15:11
_pd_proc_ls_background_function
;
Background function: "chebyschev" function with 25 terms:
    770.1(7), 320(3), -258(8), 4965(27), 13273(23), -1.2022(5)e5, 
    -260837(9), 1.392926(13)e6, 2.402296(20)e6, -9.44200(4)e6, 
    -1.2307983(17)e7, 3.988483(5)e7, 3.8329506(8)e7, -1.08494420(19)e8, 
    -7.6014360(13)e7, 1.92765894(28)e8, 9.7521198(20)e7, -2.2217619(6)e8, 
    -7.9844680(21)e7, 1.6001880(5)e8, 3.9604044(14)e7, -6.5428207(13)e7, 
    -1.0509871(7)e7, 1.159358(8)e7, 1.06757(3)e6, 
;
_pd_proc_ls_pref_orient_corr
;
Simple spherical harmonic correction Order = 6
    Coefficients:  0:0:C(6,6) = -0.078(20); 0:0:C(4,4) = 0.109(21); 
    0:0:C(6,-2) = -0.087(26); 0:0:C(2,-2) = 0.099(12); 0:0:C(4,-4) = -0.128(18); 
    0:0:C(2,2) = 0.571(14); 0:0:C(4,0) = -0.312(15); 0:0:C(6,-6) = -0.192(24); 
    0:0:C(6,4) = -0.026(24); 0:0:C(4,2) = -0.154(18); 0:0:C(6,2) = -0.091(23); 
    0:0:C(6,-4) = 0.026(20); 0:0:C(6,0) = -0.126(22); 0:0:C(2,0) = -0.234(13); 
    0:0:C(4,-2) = -0.096(17); 
;
_pd_proc_ls_profile_function
;
Finger-Cox-Jephcoat function parameters U, V, W, X, Y, SH/L:
  peak variance(Gauss) = Utan(Th)^2^+Vtan(Th)+W:
  peak HW(Lorentz) = X/cos(Th)+Ytan(Th); SH/L = S/L+H/L
  U, V, W in (centideg)^2^, X & Y in centideg
    3.23(20)e3, -5.6(3)e2, 26.5(15), 0.30(23), 30(6), 0.002, 
  Crystallite size in microns with "isotropic" model:
  parameters: Size, G/L mix
    1.000, 1.000, 
  Microstrain, "isotropic" model (10^6^ * delta Q/Q)
    parameters: Mustrain, G/L mix
    1000.000, 1.000, 

;
_pd_proc_ls_prof_R_factor        0.00725
_pd_proc_ls_prof_wR_expected     0.03549
_pd_proc_ls_prof_wR_factor       0.01135
_refine_ls_goodness_of_fit_all   0.325
_refine_ls_matrix_type           full
_refine_ls_number_parameters     67
_refine_ls_R_Fsqd_factor         0.04497
_refine_ls_shift/su_max          0.0012
_refine_ls_wR_factor_obs         0.01136
_reflns_d_resolution_high        1.078
_reflns_d_resolution_low         6.056
_reflns_limit_h_max              4
_reflns_limit_h_min              0
_reflns_limit_k_max              10
_reflns_limit_k_min              0
_reflns_limit_l_max              3
_reflns_limit_l_min              -3
_reflns_number_total             209
_cod_data_source_file            d0ce01401j3.cif
_cod_data_source_block           clau1_028rietveld
_cod_depositor_comments
'Adding full bibliography for 7241824--7241862.cif.'
_cod_original_cell_volume        253.154(13)
_cod_database_code               7241835
_refine_ls_r_f_factor            0.02693
_gsas_proc_ls_prof_r_b_factor    0.01318
_gsas_proc_ls_prof_wr_b_factor   0.02487
loop_
_space_group_symop_id
_space_group_symop_operation_xyz
1 x,y,z
2 1/2-x,1/2+y,1/2-z
3 -x,-y,-z
4 1/2+x,1/2-y,1/2+z
loop_
_atom_site_label
_atom_site_type_symbol
_atom_site_fract_x
_atom_site_fract_y
_atom_site_fract_z
_atom_site_occupancy
_atom_site_adp_type
_atom_site_U_iso_or_equiv
_atom_site_symmetry_multiplicity
As1 As 0.2768(8) 0.09132(25) 0.0535(5) 1.000 Uiso 0.0055(14) 4
As2 As 0.3395(6) 0.35752(28) 0.0171(6) 1.000 Uiso 0.0055 4
O3 O 0.4305(27) 0.2216(3) 0.137(4) 1.000 Uiso 0.0055 4
O4 O 0.6620(17) 0.4132(12) 0.1517(12) 1.000 Uiso 0.0055 4
O5 O -0.0637(15) 0.1237(18) 0.1309(12) 1.000 Uiso 0.0055 4
loop_
_atom_type_symbol
_atom_type_number_in_cell
_atom_type_scat_Cromer_Mann_a1
_atom_type_scat_Cromer_Mann_a2
_atom_type_scat_Cromer_Mann_a3
_atom_type_scat_Cromer_Mann_a4
_atom_type_scat_Cromer_Mann_b1
_atom_type_scat_Cromer_Mann_b2
_atom_type_scat_Cromer_Mann_b3
_atom_type_scat_Cromer_Mann_b4
_atom_type_scat_Cromer_Mann_c
_atom_type_scat_length_neutron
_atom_type_scat_source
_atom_type_scat_dispersion_real
_atom_type_scat_dispersion_imag
_atom_type_scat_dispersion_source
As 8 16.6723 6.0701 3.4313 4.2779 2.6345 0.2647 12.9479 47.7972 2.531 0.658
https://subversion.xray.aps.anl.gov/pyGSAS/trunk/atmdata.py 0.283 0.775
https://subversion.xray.aps.anl.gov/pyGSAS/trunk/atmdata.py
O 12 3.0485 2.2868 1.5463 0.867 13.2771 5.7011 0.3239 32.9089 0.2508 0.5805
https://subversion.xray.aps.anl.gov/pyGSAS/trunk/atmdata.py 0.002 0.002
https://subversion.xray.aps.anl.gov/pyGSAS/trunk/atmdata.py
loop_
_geom_angle_atom_site_label_1
_geom_angle_atom_site_label_2
_geom_angle_atom_site_label_3
_geom_angle
_geom_angle_site_symmetry_1
_geom_angle_site_symmetry_2
_geom_angle_site_symmetry_3
_geom_angle_publ_flag
O3 As1 O4 108.7(8) 1_555 1_555 4_454 yes
O3 As1 O5 98.9(9) 1_555 1_555 1_555 yes
O4 As1 O5 87.7(3) 4_454 1_555 1_555 yes
O3 As2 O4 93.6(6) 1_555 1_555 1_555 yes
O3 As2 O5 108.1(11) 1_555 1_555 4_554 yes
O4 As2 O5 87.6(3) 1_555 1_555 4_554 yes
As1 O3 As2 132.6(5) 1_555 1_555 1_555 yes
As1 O4 As2 120.7(4) 4_555 1_555 1_555 yes
As1 O5 As2 122.0(4) 1_555 1_555 4_455 yes
loop_
_geom_bond_atom_site_label_1
_geom_bond_atom_site_label_2
_geom_bond_distance
_geom_bond_site_symmetry_1
_geom_bond_site_symmetry_2
_geom_bond_publ_flag
As1 O3 1.7722(32) 1_555 1_555 yes
As1 O4 1.7700(31) 1_555 4_454 yes
As1 O5 1.767(3) 1_555 1_555 yes
As2 O3 1.770(3) 1_555 1_555 yes
As2 O4 1.768(3) 1_555 1_555 yes
As2 O5 1.7739(31) 1_555 4_554 yes
loop_
_pd_meas_2theta_scan
_pd_meas_intensity_total
_pd_calc_intensity_total
_pd_proc_intensity_bkg_calc
_pd_proc_ls_weight
0.00440 97.276337 0 0 0
0.01321 112.39535 0 0 0
0.02202 111.81138 0 0 0
0.03083 110.60407 0 0 0
0.03963 111.17843 0 0 0
0.04844 111.4449 0 0 0
0.05725 110.44319 0 0 0
0.06605 110.81485 0 0 0
0.07486 109.63596 0 0 0
0.08367 107.97226 0 0 0
0.09248 105.12094 0 0 0
0.10128 103.32869 0 0 0
0.11009 102.34551 0 0 0
0.11890 102.11839 0 0 0
0.12770 102.87366 0 0 0
0.13651 103.86729 0 0 0
0.14532 103.98026 0 0 0
0.15413 104.27477 0 0 0
0.16293 105.81602 0 0 0
0.17174 108.09274 0 0 0
0.18055 108.61747 0 0 0
0.18935 107.2041 0 0 0
0.19816 106.04993 0 0 0
0.20697 105.87321 0 0 0
0.21578 105.48641 0 0 0
0.22458 106.19856 0 0 0
0.23339 107.96475 0 0 0
0.24220 109.53003 0 0 0
0.25100 110.0738 0 0 0
0.25981 111.47158 0 0 0
0.26862 112.01457 0 0 0
0.27743 110.46452 0 0 0
0.28623 109.04722 0 0 0
0.29504 109.22678 0 0 0
0.30385 108.89333 0 0 0
0.31265 108.85132 0 0 0
0.32146 109.11768 0 0 0
0.33027 109.70639 0 0 0
0.33908 110.73919 0 0 0
0.34788 111.55887 0 0 0
0.35669 111.17153 0 0 0
0.36550 110.102 0 0 0
0.37430 107.75101 0 0 0
0.38311 106.93025 0 0 0
0.39192 107.47497 0 0 0
0.40073 108.15488 0 0 0
0.40953 107.85107 0 0 0
0.41834 108.26381 0 0 0
0.42715 108.76833 0 0 0
0.43595 108.5296 0 0 0
0.44476 107.93221 0 0 0
0.45357 108.57267 0 0 0
0.46238 108.73629 0 0 0
0.47118 108.01458 0 0 0
0.47999 106.89787 0 0 0
0.48880 106.1444 0 0 0
0.49760 106.02389 0 0 0
0.50641 106.89808 0 0 0
0.51522 107.25889 0 0 0
0.52403 108.00964 0 0 0
0.53283 107.70804 0 0 0
0.54164 108.0865 0 0 0
0.55045 108.53442 0 0 0
0.55926 109.13348 0 0 0
0.56806 109.44086 0 0 0
0.57687 109.35599 0 0 0
0.58568 108.69119 0 0 0
0.59448 108.21683 0 0 0
0.60329 107.29041 0 0 0
0.61210 107.43397 0 0 0
0.62091 108.45573 0 0 0
0.62971 109.03897 0 0 0
0.63852 108.86308 0 0 0
0.64733 108.68575 0 0 0
0.65613 108.81251 0 0 0
0.66494 109.44897 0 0 0
0.67375 110.06264 0 0 0
0.68256 109.53976 0 0 0
0.69136 109.06157 0 0 0
0.70017 108.36238 0 0 0
0.70898 108.39255 0 0 0
0.71778 108.3745 0 0 0
0.72659 109.07264 0 0 0
0.73540 109.4401 0 0 0
0.74421 110.48753 0 0 0
0.75301 111.66921 0 0 0
0.76182 111.67047 0 0 0
0.77063 110.71268 0 0 0
0.77943 110.27915 0 0 0
0.78824 110.56105 0 0 0
0.79705 111.2917 0 0 0
0.80586 111.22211 0 0 0
0.81466 111.45755 0 0 0
0.82347 112.56753 0 0 0
0.83228 113.12086 0 0 0
0.84108 113.65818 0 0 0
0.84989 113.8878 0 0 0
0.85870 114.53944 0 0 0
0.86751 114.91794 0 0 0
0.87631 115.85282 0 0 0
0.88512 116.50071 0 0 0
0.89393 117.89717 0 0 0
0.90273 119.96575 0 0 0
0.91154 119.92399 0 0 0
0.92035 120.7588 0 0 0
0.92916 120.23196 0 0 0
0.93796 119.82096 0 0 0
0.94677 121.72712 0 0 0
0.95558 125.30943 0 0 0
0.96438 129.50133 0 0 0
0.97319 131.59724 0 0 0
0.98200 130.48193 0 0 0
0.99081 126.17545 0 0 0
0.99961 122.16322 0 0 0
1.00842 125.96207 0 0 0
1.01723 135.29556 0 0 0
1.02604 142.82649 0 0 0
1.03484 148.81363 0 0 0
1.04365 155.26566 0 0 0
1.05246 165.99916 0 0 0
1.06126 171.38956 0 0 0
1.07007 180.88075 0 0 0
1.07888 185.86871 0 0 0
1.08769 191.74098 0 0 0
1.09649 198.77364 0 0 0
1.10530 207.37537 0 0 0
1.11411 214.69342 0 0 0
1.12291 220.79367 0 0 0
1.13172 227.23776 0 0 0
1.14053 231.97386 0 0 0
1.14934 234.84302 0 0 0
1.15814 238.63892 0 0 0
1.16695 239.4416 0 0 0
1.17576 240.1539 0 0 0
1.18456 242.43425 0 0 0
1.19337 246.61723 0 0 0
1.20218 248.80661 0 0 0
1.21099 250.53226 0 0 0
1.21979 253.11481 0 0 0
1.22860 254.36691 0 0 0
1.23741 256.55392 0 0 0
1.24621 257.94214 0 0 0
1.25502 260.67224 0 0 0
1.26383 263.59927 0 0 0
1.27264 265.68936 0 0 0
1.28144 267.40268 0 0 0
1.29025 269.18231 0 0 0
1.29906 270.19147 0 0 0
1.30786 271.29489 0 0 0
1.31667 272.87097 0 0 0
1.32548 274.40833 0 0 0
1.33429 275.36212 0 0 0
1.34309 276.69946 0 0 0
1.35190 278.78864 0 0 0
1.36071 281.03632 0 0 0
1.36951 281.52335 0 0 0
1.37832 282.66315 0 0 0
1.38713 283.29517 0 0 0
1.39594 284.52029 0 0 0
1.40474 285.34381 0 0 0
1.41355 286.48404 0 0 0
1.42236 287.73669 0 0 0
1.43116 290.38867 0 0 0
1.43997 291.24011 0 0 0
1.44878 292.55237 0 0 0
1.45759 293.67874 0 0 0
1.46639 294.93176 0 0 0
1.47520 296.0946 0 0 0
1.48401 296.17618 0 0 0
1.49281 295.18378 0 0 0
1.50162 296.13696 0 0 0
1.51043 298.88058 0 0 0
1.51924 300.57651 0 0 0
1.52804 300.98129 0 0 0
1.53685 302.65833 0 0 0
1.54566 303.87509 0 0 0
1.55446 304.38693 0 0 0
1.56327 305.19702 0 0 0
1.57208 307.45621 0 0 0
1.58089 308.58496 0 0 0
1.58969 308.47641 0 0 0
1.59850 309.39142 0 0 0
1.60731 311.49487 0 0 0
1.61612 313.20181 0 0 0
1.62492 313.95932 0 0 0
1.63373 314.09045 0 0 0
1.64254 314.07559 0 0 0
1.65134 315.01837 0 0 0
1.66015 316.15692 0 0 0
1.66896 317.43835 0 0 0
1.67777 318.53033 0 0 0
1.68657 319.06219 0 0 0
1.69538 319.13547 0 0 0
1.70419 317.79022 0 0 0
1.71299 318.3768 0 0 0
1.72180 320.23663 0 0 0
1.73061 322.58612 0 0 0
1.73942 323.98203 0 0 0
1.74822 324.04144 0 0 0
1.75703 324.26654 0 0 0
1.76584 324.67957 0 0 0
1.77464 324.76169 0 0 0
1.78345 324.88339 0 0 0
1.79226 325.06885 0 0 0
1.80107 326.36993 0 0 0
1.80987 328.12814 0 0 0
1.81868 328.80249 0 0 0
1.82749 329.30347 0 0 0
1.83629 329.85373 0 0 0
1.84510 330.93317 0 0 0
1.85391 331.48364 0 0 0
1.86272 332.00708 0 0 0
1.87152 333.46869 0 0 0
1.88033 334.05023 0 0 0
1.88914 334.36829 0 0 0
1.89794 334.90048 0 0 0
1.90675 336.53244 0 0 0
1.91556 338.40323 0 0 0
1.92437 338.31329 0 0 0
1.93317 337.67532 0 0 0
1.94198 337.22668 0 0 0
1.95079 337.88989 0 0 0
1.95959 338.45914 0 0 0
1.96840 339.3609 0 0 0
1.97721 340.9494 0 0 0
1.98602 341.75455 0 0 0
1.99482 342.09512 0 0 0
2.00363 342.46301 0 0 0
2.01244 343.43259 0 0 0
2.02124 343.50919 0 0 0
2.03005 344.04138 0 0 0
2.03886 344.21783 0 0 0
2.04767 344.59018 0 0 0
2.05647 345.58939 0 0 0
2.06528 346.3812 0 0 0
2.07409 346.89688 0 0 0
2.08289 347.33487 0 0 0
2.09170 348.56482 0 0 0
2.10051 348.83905 0 0 0
2.10932 348.79013 0 0 0
2.11812 350.45975 0 0 0
2.12693 351.40302 0 0 0
2.13574 351.81052 0 0 0
2.14455 350.42361 0 0 0
2.15335 350.59003 0 0 0
2.16216 352.08566 0 0 0
2.17097 353.38281 0 0 0
2.17977 354.01285 0 0 0
2.18858 354.09103 0 0 0
2.19739 354.58426 0 0 0
2.20620 355.9762 0 0 0
2.21500 356.01004 0 0 0
2.22381 355.88049 0 0 0
2.23262 355.60843 0 0 0
2.24142 357.04095 0 0 0
2.25023 357.83057 0 0 0
2.25904 358.90933 0 0 0
2.26785 359.85962 0 0 0
2.27665 360.6618 0 0 0
2.28546 360.48697 0 0 0
2.29427 360.8616 0 0 0
2.30307 361.27087 0 0 0
2.31188 361.52774 0 0 0
2.32069 360.6069 0 0 0
2.32950 360.98877 0 0 0
2.33830 361.56607 0 0 0
2.34711 362.25974 0 0 0
2.35592 362.23318 0 0 0
2.36472 362.61716 0 0 0
2.37353 363.00546 0 0 0
2.38234 364.79248 0 0 0
2.39115 366.47281 0 0 0
2.39995 366.28928 0 0 0
2.40876 365.76779 0 0 0
2.41757 366.46619 0 0 0
2.42637 367.50674 0 0 0
2.43518 367.87958 0 0 0
2.44399 368.61761 0 0 0
2.45280 368.11737 0 0 0
2.46160 366.78943 0 0 0
2.47041 366.34583 0 0 0
2.47922 367.30386 0 0 0
2.48802 368.46286 0 0 0
2.49683 369.42752 0 0 0
2.50564 369.79144 0 0 0
2.51445 370.66113 0 0 0
2.52325 371.42844 0 0 0
2.53206 372.02081 0 0 0
2.54087 372.15665 0 0 0
2.54967 373.35791 0 0 0
2.55848 374.02841 0 0 0
2.56729 375.24521 0 0 0
2.57610 374.30392 0 0 0
2.58490 373.57095 0 0 0
2.59371 373.11731 0 0 0
2.60252 374.42969 0 0 0
2.61132 376.38773 0 0 0
2.62013 377.32001 0 0 0
2.62894 377.40799 0 0 0
2.63775 377.07141 0 0 0
2.64655 376.42581 0 0 0
2.65536 377.25986 0 0 0
2.66417 378.16605 0 0 0
2.67298 378.65402 0 0 0
2.68178 378.33832 0 0 0
2.69059 378.8063 0 0 0
2.69940 379.14395 0 0 0
2.70820 379.12415 0 0 0
2.71701 380.4024 0 0 0
2.72582 381.75073 0 0 0
2.73463 382.30029 0 0 0
2.74343 382.27106 0 0 0
2.75224 381.93814 0 0 0
2.76105 381.49734 0 0 0
2.76985 382.2655 0 0 0
2.77866 382.90137 0 0 0
2.78747 383.61319 0 0 0
2.79628 383.55725 0 0 0
2.80508 383.36816 0 0 0
2.81389 383.4144 0 0 0
2.82270 383.905 0 0 0
2.83150 385.02283 0 0 0
2.84031 385.89029 0 0 0
2.84912 386.29999 0 0 0
2.85793 386.3338 0 0 0
2.86673 385.83124 0 0 0
2.87554 385.23752 0 0 0
2.88435 386.0173 0 0 0
2.89315 386.78708 0 0 0
2.90196 387.46835 0 0 0
2.91077 387.35367 0 0 0
2.91958 387.96259 0 0 0
2.92838 388.06256 0 0 0
2.93719 388.41492 0 0 0
2.94600 388.33408 0 0 0
2.95480 388.88446 0 0 0
2.96361 389.85245 0 0 0
2.97242 390.20428 0 0 0
2.98123 390.81116 0 0 0
2.99003 391.48801 0 0 0
2.99884 392.01691 0 0 0
3.00765 391.29474 0 0 0
3.01645 390.31421 0 0 0
3.02526 390.26871 0 0 0
3.03407 391.06442 0 0 0
3.04288 391.01978 0 0 0
3.05168 391.93188 0 0 0
3.06049 393.76608 0 0 0
3.06930 394.58539 0 0 0
3.07810 394.40668 0 0 0
3.08691 394.75699 0 0 0
3.09572 395.11377 0 0 0
3.10453 395.75186 0 0 0
3.11333 394.91544 0 0 0
3.12214 395.34732 0 0 0
3.13095 395.35391 0 0 0
3.13976 395.41782 0 0 0
3.14856 395.55585 0 0 0
3.15737 396.35254 0 0 0
3.16618 397.03421 0 0 0
3.17498 396.8559 0 0 0
3.18379 397.01944 0 0 0
3.19260 397.27881 0 0 0
3.20140 397.22794 0 0 0
3.21021 396.71429 0 0 0
3.21902 396.68631 0 0 0
3.22783 397.52832 0 0 0
3.23663 397.64127 0 0 0
3.24544 398.32608 0 0 0
3.25425 398.72464 0 0 0
3.26306 398.77985 0 0 0
3.27186 399.28915 0 0 0
3.28067 400.0748 0 0 0
3.28948 400.26166 0 0 0
3.29828 400.8096 0 0 0
3.30709 401.33392 0 0 0
3.31590 401.07602 0 0 0
3.32471 400.43045 0 0 0
3.33351 401.73322 0 0 0
3.34232 402.89847 0 0 0
3.35113 403.18011 0 0 0
3.35993 402.79974 0 0 0
3.36874 402.99316 0 0 0
3.37755 403.36563 395.71744 395.611653 0.00247914
3.38636 403.59595 398.37299 398.26642 0.00247773
3.39516 404.11154 400.679571 400.572202 0.00247456
3.40397 404.08725 402.66925 402.561066 0.00247471
3.41278 404.76868 404.371991 404.262974 0.00247055
3.42158 405.70306 405.815733 405.705865 0.00246486
3.43039 405.63486 407.02646 406.915721 0.00246527
3.43920 405.58481 408.028455 407.916826 0.00246558
3.44801 405.80515 408.844155 408.731614 0.00246424
3.45681 405.69522 409.494413 409.380937 0.0024649
3.46562 405.90689 409.998534 409.884099 0.00246362
3.47443 406.17889 410.374387 410.258968 0.00246197
3.48323 406.2608 410.638446 410.522015 0.00246147
3.49204 406.72116 410.805895 410.688424 0.00245869
3.50085 407.16498 410.890696 410.772153 0.00245601
3.50966 407.31799 410.905658 410.786011 0.00245508
3.51846 407.30481 410.862506 410.741718 0.00245516
3.52727 407.88092 410.771943 410.649977 0.0024517
3.53608 407.38147 410.643715 410.520531 0.0024547
3.54488 407.28378 410.486668 410.362221 0.00245529
3.55369 407.40494 410.308805 410.183048 0.00245456
3.56250 408.72202 410.127972 409.990225 0.00244665
3.57131 409.22928 409.929417 409.790209 0.00244362
3.58011 409.4176 409.729514 409.588781 0.00244249
3.58892 409.08862 409.533398 409.391075 0.00244446
3.59773 409.33261 409.345608 409.20162 0.002443
3.60653 410.01804 409.170117 409.024384 0.00243892
3.61534 410.3056 409.010384 408.862816 0.00243721
3.62415 409.91104 408.869385 408.719884 0.00243955
3.63296 410.03873 408.749649 408.598105 0.00243879
3.64176 410.72192 408.653294 408.499585 0.00243474
3.65057 411.38556 408.582056 408.426046 0.00243081
3.65938 411.7706 408.537325 408.37886 0.00242854
3.66818 412.12323 408.549033 408.359076 0.00242646
3.67699 411.86343 408.560347 408.367447 0.00242799
3.68580 411.78436 408.600522 408.404457 0.00242846
3.69461 412.54718 408.669824 408.470338 0.00242397
3.70341 413.18091 408.768309 408.56511 0.00242025
3.71222 413.28079 408.895835 408.688582 0.00241966
3.72103 413.33914 409.052088 408.840385 0.00241932
3.72984 413.23923 409.236608 409.019983 0.00241991
3.73864 413.46127 409.448822 409.226704 0.00241861
3.74745 413.57288 409.688069 409.45974 0.00241795
3.75626 413.22168 409.95366 409.718174 0.00242001
3.76506 413.7084 410.244955 410.000989 0.00241716
3.77387 414.78421 410.561486 410.307083 0.00241089
3.78268 415.55075 410.903154 410.635291 0.00240644
3.79149 414.75226 411.27047 410.98438 0.00241108
3.80029 414.91589 411.66489 411.353071 0.00241013
3.80910 415.35645 412.089142 411.740047 0.00240757
3.81791 414.9892 412.547458 412.143964 0.0024097
3.82671 414.8075 413.045529 412.563441 0.00241076
3.83552 415.41211 413.590061 412.997133 0.00240725
3.84433 416.59647 414.187588 413.443643 0.0024004
3.85314 416.83945 414.842738 413.901591 0.00239901
3.86194 416.52191 415.563478 414.369617 0.00240083
3.87075 416.16013 416.32943 414.846365 0.00240292
3.87956 417.14102 417.133314 415.3305 0.00239727
3.88836 418.01688 417.951628 415.820714 0.00239225
3.89717 418.30032 418.750524 416.315729 0.00239063
3.90598 418.68585 419.487853 416.814292 0.00238843
3.91479 419.50824 420.120532 417.315204 0.00238374
3.92359 419.65436 420.619667 417.81729 0.00238291
3.93240 418.90796 420.985133 418.319421 0.00238716
3.94121 418.85986 421.244957 418.820511 0.00238743
3.95001 419.34659 421.440321 419.319522 0.00238466
3.95882 420.34354 421.610743 419.815459 0.00237901
3.96763 421.07733 421.787203 420.307378 0.00237486
3.97644 421.7381 421.990646 420.794406 0.00237114
3.98524 421.58636 422.232481 421.275684 0.00237199
3.99405 421.8219 422.515944 421.750435 0.00237067
4.00286 421.41165 422.838048 422.217916 0.00237298
4.01166 421.55829 423.191916 422.677442 0.00237215
4.02047 421.73758 423.568934 423.128379 0.00237114
4.02928 422.21567 423.960502 423.570147 0.00236846
4.03809 422.81778 424.359105 424.00221 0.00236509
4.04689 422.72943 424.758792 424.4241 0.00236558
4.05570 422.66879 425.155179 424.835382 0.00236592
4.06451 422.45786 425.545226 425.235677 0.0023671
4.07331 422.56458 425.926908 425.624655 0.0023665
4.08212 423.24936 426.298907 426.002029 0.00236267
4.09093 423.99142 426.660383 426.36757 0.00235854
4.09974 423.76709 427.010777 426.721082 0.00235979
4.10854 423.70447 427.34972 427.062418 0.00236014
4.11735 423.94333 427.676967 427.391474 0.00235881
4.12616 424.50381 427.992356 427.708186 0.00235569
4.13496 425.34216 428.29579 428.012527 0.00235105
4.14377 425.45969 428.587234 428.30452 0.0023504
4.15258 425.12137 428.866692 428.584212 0.00235227
4.16139 424.71124 429.134215 428.851691 0.00235454
4.17019 425.0174 429.389879 429.107062 0.00235284
4.17900 425.62326 429.633841 429.35051 0.0023495
4.18781 426.45816 429.866248 429.582201 0.0023449
4.19661 427.10449 430.087294 429.802347 0.00234135
4.20542 427.12082 430.297206 430.011192 0.00234126
4.21423 427.28653 430.496235 430.208999 0.00234035
4.22304 427.6373 430.684661 430.396058 0.00233843
4.23184 427.42169 430.862786 430.572681 0.00233961
4.24065 427.66739 431.030935 430.739201 0.00233827
4.24946 427.83661 431.189452 430.895969 0.00233734
4.25826 427.71619 431.338706 431.043358 0.002338
4.26707 428.01224 431.479076 431.181753 0.00233638
4.27588 428.59784 431.61096 431.311556 0.00233319
4.28469 429.04257 431.734768 431.43318 0.00233077
4.29349 429.27426 431.850924 431.54705 0.00232951
4.30230 428.70078 431.959863 431.653605 0.00233263
4.31111 428.17871 432.06203 431.75329 0.00233547
4.31992 428.56012 432.157875 431.846557 0.00233339
4.32872 429.6405 432.247857 431.933865 0.00232753
4.33753 429.76486 432.332441 432.015679 0.00232685
4.34634 429.79596 432.412093 432.092466 0.00232669
4.35514 430.46362 432.487286 432.164698 0.00232308
4.36395 431.52875 432.558492 432.232846 0.00231734
4.37276 431.79254 432.626184 432.297382 0.00231593
4.38157 431.61023 432.690835 432.358777 0.00231691
4.39037 431.67917 432.752914 432.417501 0.00231654
4.39918 431.92578 432.812891 432.474018 0.00231521
4.40799 433.18195 432.87123 432.528794 0.0023085
4.41679 433.82101 432.928391 432.582284 0.0023051
4.42560 434.42874 432.984829 432.634941 0.00230187
4.43441 434.11356 433.04099 432.687207 0.00230354
4.44322 434.01755 433.09732 432.739526 0.00230405
4.45202 434.23438 433.15425 432.792327 0.0023029
4.46083 433.70508 433.212912 432.846028 0.00230571
4.46964 433.88943 433.272312 432.901044 0.00230473
4.47844 434.57172 433.33356 432.957776 0.00230112
4.48725 435.61679 433.397051 433.016615 0.0022956
4.49606 435.54056 433.463172 433.077941 0.002296
4.50487 435.2337 433.532295 433.142123 0.00229762
4.51367 434.66452 433.604783 433.209517 0.00230062
4.52248 434.40631 433.680987 433.280467 0.00230199
4.53129 434.79086 433.761242 433.355305 0.00229996
4.54009 435.22855 433.845875 433.434346 0.00229764
4.54890 436.22549 433.935197 433.517896 0.00229239
4.55771 436.94638 434.029504 433.606243 0.00228861
4.56652 437.50171 434.129083 433.699666 0.00228571
4.57532 438.49158 434.234204 433.798426 0.00228055
4.58413 438.24887 434.345124 433.902768 0.00228181
4.59294 437.17783 434.462086 434.012927 0.0022874
4.60174 436.97678 434.585319 434.12912 0.00228845
4.61055 437.76031 434.715037 434.251547 0.00228436
4.61936 438.09 434.851442 434.380402 0.00228264
4.62817 438.15723 434.994721 434.515854 0.00228229
4.63697 438.80441 435.145046 434.658063 0.00227892
4.64578 439.67868 435.302577 434.807171 0.00227439
4.65459 440.07031 435.467457 434.963307 0.00227236
4.66339 439.94397 435.639823 435.126586 0.00227302
4.67220 439.87491 435.81979 435.297107 0.00227337
4.68101 440.32922 436.007466 435.474955 0.00227103
4.68982 440.5643 436.202942 435.6602 0.00226982
4.69862 441.12766 436.4063 435.852898 0.00226692
4.70743 442.03137 436.617596 436.053081 0.00226228
4.71624 441.8212 436.836909 436.260796 0.00226336
4.72504 441.58359 437.064278 436.476053 0.00226458
4.73385 441.35892 437.299735 436.698851 0.00226573
4.74266 441.88638 437.543306 436.929178 0.00226303
4.75147 442.6593 437.795007 437.167012 0.00225907
4.76027 442.8396 438.054844 437.412314 0.00225815
4.76908 442.44806 438.322811 437.665033 0.00226015
4.77789 442.14938 438.598906 437.925116 0.00226168
4.78669 442.60779 438.883109 438.192486 0.00225934
4.79550 443.13745 439.1754 438.46706 0.00225664
4.80431 443.64462 439.475751 438.748744 0.00225406
4.81312 443.60684 439.784132 439.037435 0.00225425
4.82192 443.99274 440.100505 439.333013 0.00225229
4.83073 443.9407 440.424843 439.635361 0.00225255
4.83954 444.02112 440.75711 439.944341 0.00225215
4.84835 443.89246 441.097271 440.259811 0.0022528
4.85715 444.36597 441.445299 440.58162 0.0022504
4.86596 444.75357 441.801164 440.909604 0.00224844
4.87477 444.98328 442.164859 441.243603 0.00224728
4.88357 445.35794 442.536377 441.583439 0.00224538
4.89238 445.35205 442.915723 441.928929 0.00224541
4.90119 445.9516 443.302923 442.279886 0.0022424
4.91000 446.44666 443.698025 442.636115 0.00223991
4.91880 446.36044 444.101092 442.997411 0.00224034
4.92761 446.49609 444.512237 443.363577 0.00223966
4.93642 447.34119 444.931596 443.734398 0.00223543
4.94522 448.1333 445.359348 444.109658 0.00223148
4.95403 447.50568 445.795736 444.489139 0.00223461
4.96284 446.98749 446.24105 444.872613 0.0022372
4.97165 447.32779 446.69566 445.259843 0.0022355
4.98045 448.59778 447.160065 445.650628 0.00222917
4.98926 449.664 447.634838 446.044725 0.00222388
4.99807 450.53445 448.120684 446.441897 0.00221959
5.00687 450.2218 448.618483 446.841908 0.00222113
5.01568 450.3989 449.12931 447.244519 0.00222025
5.02449 450.64456 449.654472 447.649487 0.00221904
5.03330 451.04874 450.195594 448.056583 0.00221706
5.04210 451.23138 450.754657 448.465562 0.00221616
5.05091 451.99393 451.334095 448.876184 0.00221242
5.05972 452.58432 451.936951 449.28821 0.00220953
5.06852 453.22537 452.567008 449.701401 0.00220641
5.07733 453.31863 453.244469 450.115516 0.00220595
5.08614 453.81961 453.945147 450.530326 0.00220352
5.09495 454.18881 454.693262 450.945594 0.00220173
5.10375 454.58859 455.524411 451.361086 0.00219979
5.11256 454.87177 456.416178 451.776572 0.00219842
5.12137 456.07404 457.427678 452.191824 0.00219263
5.13017 457.85281 458.623302 452.606612 0.00218411
5.13898 459.74783 460.113423 453.020725 0.00217511
5.14779 461.28763 462.07841 453.433939 0.00216784
5.15660 463.82352 464.79434 453.84604 0.00215599
5.16540 468.43686 468.649809 454.256816 0.00213476
5.17421 473.14423 474.134652 454.666057 0.00211352
5.18302 478.62955 481.784125 455.073568 0.0020893
5.19182 485.82098 492.068349 455.479149 0.00205837
5.20063 495.99683 505.226018 455.882606 0.00201614
5.20944 509.02261 521.077599 456.28375 0.00196455
5.21825 528.73785 538.838706 456.6824 0.0018913
5.22705 555.70471 556.954053 457.078373 0.00179952
5.23586 587.39008 572.968848 457.471485 0.00170245
5.24467 624.28229 583.736113 457.861609 0.00160184
5.25347 638.67072 586.473347 458.248563 0.00156575
5.26228 618.08496 580.458036 458.632193 0.0016179
5.27109 575.3078 567.577001 459.01235 0.0017382
5.27990 538.52771 550.987135 459.388892 0.00185691
5.28870 513.43146 533.571556 459.761681 0.00194768
5.29751 497.49442 517.353498 460.130595 0.00201007
5.30632 486.34024 503.503523 460.495508 0.00205617
5.31513 479.26871 492.493992 460.856304 0.00208651
5.32393 473.80264 484.282825 461.212874 0.00211058
5.33274 469.9079 478.499135 461.565117 0.00212808
5.34155 467.95673 474.623382 461.912932 0.00213695
5.35035 466.81891 472.131267 462.25624 0.00214216
5.35916 465.91318 470.577115 462.594956 0.00214632
5.36797 465.13638 469.626049 462.929004 0.00214991
5.37678 464.10382 469.050097 463.258318 0.00215469
5.38558 463.54865 468.705196 463.582835 0.00215727
5.39439 462.95432 468.505195 463.902507 0.00216004
5.40320 463.04877 468.400309 464.217286 0.0021596
5.41200 463.75574 468.361638 464.527132 0.00215631
5.42081 464.33908 468.371798 464.832014 0.0021536
5.42962 464.64374 468.419527 465.131907 0.00215219
5.43843 463.92923 468.497038 465.426789 0.0021555
5.44723 463.94971 468.598543 465.716656 0.00215541
5.45604 463.74945 468.719502 466.001501 0.00215634
5.46485 464.2435 468.856363 466.281327 0.00215404
5.47365 464.43311 469.006149 466.556143 0.00215316
5.48246 464.92395 469.166493 466.825966 0.00215089
5.49127 464.81998 469.335444 467.090816 0.00215137
5.50008 465.05685 469.511403 467.350728 0.00215027
5.50888 465.55887 469.693016 467.605723 0.00214796
5.51769 465.71375 469.904144 467.85587 0.00214724
5.52650 465.82211 470.094131 468.101206 0.00214674
5.53530 466.64224 470.287073 468.341784 0.00214297
5.54411 467.13434 470.482374 468.577667 0.00214071
5.55292 467.22052 470.679572 468.808919 0.00214032
5.56173 467.27988 470.878319 469.03562 0.00214005
5.57053 467.49707 471.07835 469.257845 0.00213905
5.57934 467.7254 471.2795 469.47568 0.00213801
5.58815 468.29117 471.486986 469.689215 0.00213542
5.59695 468.67328 471.69022 469.898543 0.00213368
5.60576 469.23239 471.894563 470.103771 0.00213114
5.61457 469.39212 472.100165 470.305003 0.00213041
5.62338 469.24774 472.307262 470.502349 0.00213107
5.63218 469.56512 472.51618 470.695927 0.00212963
5.64099 470.32748 472.727339 470.885856 0.00212618
5.64980 470.80823 472.941268 471.072262 0.00212401
5.65860 470.89139 473.158627 471.255277 0.00212363
5.66741 470.92474 473.380213 471.435033 0.00212348
5.67622 471.06259 473.606999 471.61167 0.00212286
5.68503 471.16391 473.840174 471.785329 0.0021224
5.69383 471.53464 474.081179 471.956156 0.00212073
5.70264 471.58319 474.331775 472.1243 0.00212052
5.71145 471.91876 474.594158 472.289916 0.00211901
5.72025 472.09814 474.871054 472.45316 0.0021182
5.72906 472.99808 475.165979 472.614191 0.00211417
5.73787 473.27408 475.483643 472.773171 0.00211294
5.74668 473.08594 475.830845 472.930264 0.00211378
5.75548 472.90833 476.225913 473.085642 0.00211457
5.76429 473.45001 476.670944 473.239472 0.00211216
5.77310 474.66568 477.204382 473.391918 0.00210675
5.78190 475.14087 477.879581 473.543174 0.00210464
5.79071 475.69412 478.785549 473.693405 0.00210219
5.79952 475.91666 480.061283 473.842791 0.00210121
5.80833 477.17767 481.905211 473.99151 0.00209566
5.81713 478.62933 484.568498 474.139746 0.0020893
5.82594 481.0878 488.322008 474.28768 0.00207862
5.83475 483.38339 493.391446 474.435496 0.00206875
5.84356 487.47937 499.861803 474.583378 0.00205137
5.85236 494.51343 507.569304 474.731511 0.00202219
5.86117 505.38156 515.98919 474.88008 0.0019787
5.86998 519.30017 524.112633 475.029273 0.00192567
5.87878 535.15784 530.402672 475.179275 0.00186861
5.88759 544.01849 533.152018 475.330273 0.00183817
5.89640 540.83386 531.46476 475.482454 0.001849
5.90521 527.27148 525.992622 475.636 0.00189656
5.91401 513.14716 518.385457 475.791102 0.00194876
5.92282 501.84393 510.253905 475.947942 0.00199265
5.93163 494.8768 502.699929 476.106706 0.0020207
5.94043 490.30798 496.324843 476.267576 0.00203953
5.94924 487.67834 491.345554 476.430734 0.00205053
5.95805 485.44312 487.712702 476.596361 0.00205997
5.96686 484.2323 485.218523 476.764639 0.00206512
5.97566 484.11343 483.594293 476.935746 0.00206563
5.98447 484.32187 482.582846 477.109858 0.00206474
5.99328 484.2919 481.976295 477.28715 0.00206487
6.00208 483.86682 481.626175 477.467795 0.00206668
6.01089 484.01199 481.43645 477.651963 0.00206606
6.01970 484.0195 481.349333 477.839826 0.00206603
6.02851 483.84879 481.33165 478.03155 0.00206676
6.03731 484.28888 481.364777 478.227299 0.00206488
6.04612 484.10638 481.438041 478.427223 0.00206566
6.05493 484.65936 481.5451 478.631504 0.0020633
6.06373 485.27386 481.681967 478.840288 0.00206069
6.07254 486.38358 481.846165 479.053725 0.00205599
6.08135 486.67188 482.036279 479.271972 0.00205477
6.09016 486.41714 482.251731 479.495173 0.00205585
6.09896 486.63007 482.492815 479.723473 0.00205495
6.10777 487.55652 482.760792 479.957014 0.00205104
6.11658 487.8121 483.058297 480.19593 0.00204997
6.12538 487.97418 483.390166 480.440361 0.00204929
6.13419 487.79236 483.765225 480.690437 0.00205005
6.14300 488.22415 484.19959 480.946283 0.00204824
6.15181 488.91953 484.721919 481.208023 0.00204533
6.16061 490.67209 485.380828 481.475779 0.00203802
6.16942 492.3497 486.252921 481.749661 0.00203108
6.17823 493.22333 487.447245 482.029789 0.00202748
6.18703 494.12286 489.100377 482.316268 0.00202379
6.19584 495.39621 491.355935 482.609202 0.00201859
6.20465 497.23557 494.325621 482.908691 0.00201112
6.21346 500.24463 498.029128 483.21483 0.00199902
6.22226 504.89941 502.338015 483.527709 0.00198059
6.23107 511.33331 506.899157 483.847421 0.00195567
6.23988 518.53467 511.058064 484.174045 0.00192851
6.24868 524.76044 513.881984 484.507662 0.00190563
6.25749 525.2572 514.528032 484.848345 0.00190383
6.26630 520.10205 512.880201 485.19616 0.0019227
6.27511 513.25671 509.654068 485.55118 0.00194834
6.28391 507.78006 505.812514 485.913464 0.00196936
6.29272 503.19785 502.09044 486.283067 0.00198729
6.30153 500.27057 498.91018 486.660042 0.00199892
6.31033 498.88101 496.449461 487.044414 0.00200449
6.31914 498.88364 494.717411 487.43627 0.00200448
6.32795 498.86472 493.620072 487.835623 0.00200455
6.33676 498.86996 493.017775 488.242515 0.00200453
6.34556 498.73969 492.769191 488.656971 0.00200505
6.35437 498.24048 492.757289 489.079017 0.00200706
6.36318 497.97226 492.897382 489.508672 0.00200814
6.37198 498.52161 493.13424 489.945953 0.00200593
6.38079 499.70383 493.434611 490.390865 0.00200119
6.38960 499.76904 493.779413 490.843425 0.00200092
6.39841 499.94205 494.157776 491.303631 0.00200023
6.40721 500.73938 494.563354 491.771481 0.00199705
6.41602 501.1676 494.992169 492.246967 0.00199534
6.42483 500.92831 495.441533 492.730078 0.00199629
6.43364 501.26645 495.909483 493.220794 0.00199495
6.44244 501.75613 496.394568 493.719105 0.001993
6.45125 501.70364 496.895663 494.224981 0.00199321
6.46006 501.87161 497.411889 494.738395 0.00199254
6.46886 502.58908 497.94258 495.259312 0.0019897
6.47767 503.9263 498.487234 495.787691 0.00198442
6.48648 503.84726 499.045489 496.323501 0.00198473
6.49529 503.7392 499.617089 496.866691 0.00198515
6.50409 504.55853 500.202892 497.417211 0.00198193
6.51290 505.50674 500.800866 497.975008 0.00197821
6.52171 506.26715 501.415079 498.540024 0.00197524
6.53051 506.17242 502.039615 499.112191 0.00197561
6.53932 506.93573 502.67897 499.691457 0.00197264
6.54813 507.61288 503.331049 500.277745 0.00197001
6.55694 508.4458 503.997528 500.870983 0.00196678
6.56574 508.34628 504.679019 501.471093 0.00196716
6.57455 508.04489 505.37628 502.077996 0.00196833
6.58336 508.4187 506.090225 502.691573 0.00196688
6.59216 508.95566 506.822114 503.311797 0.00196481
6.60097 509.63 507.573413 503.938559 0.00196221
6.60978 510.23309 508.363678 504.571756 0.00195989
6.61859 510.91309 509.159812 505.211291 0.00195728
6.62739 512.24567 509.982386 505.857063 0.00195219
6.63620 513.40698 510.835055 506.508969 0.00194777
6.64501 513.59479 511.722516 507.166892 0.00194706
6.65381 513.42725 512.651064 507.83074 0.0019477
6.66262 514.44788 513.629354 508.50039 0.00194383
6.67143 515.4364 514.670273 509.175727 0.0019401
6.68024 515.64838 515.794747 509.856634 0.00193931
6.68904 516.03705 517.03876 510.54298 0.00193785
6.69785 517.1745 518.465946 511.234657 0.00193358
6.70666 519.13959 520.188589 511.931533 0.00192626
6.71546 520.22559 522.392529 512.633477 0.00192224
6.72427 522.0271 525.323599 513.340359 0.00191561
6.73308 524.50323 529.338758 514.052045 0.00190657
6.74189 527.18347 534.818857 514.768393 0.00189687
6.75069 530.85004 542.076941 515.489281 0.00188377
6.75950 537.10309 551.208243 516.214561 0.00186184
6.76831 548.16693 561.90505 516.944093 0.00182426
6.77711 565.81287 573.216953 517.677733 0.00176737
6.78592 588.19934 583.276638 518.415336 0.0017001
6.79473 603.6142 589.423584 519.156747 0.00165669
6.80354 604.69922 589.552836 519.901837 0.00165371
6.81234 588.08063 583.980469 520.650446 0.00170045
6.82115 569.13892 575.124743 521.402424 0.00175704
6.82996 553.38177 565.532614 522.157619 0.00180707
6.83877 543.80109 556.844781 522.91587 0.00183891
6.84757 538.77704 549.842681 523.676997 0.00185606
6.85638 535.31305 544.724196 524.440921 0.00186807
6.86519 532.31494 541.331072 525.207445 0.00187859
6.87399 530.89557 539.324586 525.97641 0.00188361
6.88280 530.68939 538.326224 526.747661 0.00188434
6.89161 530.91547 538.007598 527.521038 0.00188354
6.90041 531.41565 538.125729 528.296374 0.00188177
6.90922 531.84717 538.52148 529.073528 0.00188024
6.91803 532.36475 539.100365 529.852332 0.00187841
6.92684 533.4126 539.81026 530.632626 0.00187472
6.93564 534.00873 540.624303 531.414249 0.00187263
6.94445 535.58673 541.530154 532.197043 0.00186711
6.95326 537.32947 542.524471 532.980839 0.00186106
6.96207 539.59778 543.611213 533.765493 0.00185323
6.97087 541.33356 544.803105 534.550838 0.00184729
6.97968 544.00867 546.126728 535.336715 0.00183821
6.98849 546.29681 547.633499 536.122964 0.00183051
6.99729 549.0943 549.413714 536.909418 0.00182118
7.00610 552.37262 551.621821 537.695936 0.00181037
7.01491 556.66357 554.492091 538.482352 0.00179642
7.02372 560.97638 558.340071 539.268508 0.00178261
7.03252 566.72583 563.523707 540.05425 0.00176452
7.04133 573.72821 570.353656 540.839421 0.00174299
7.05014 580.85455 578.951823 541.623858 0.0017216
7.05894 588.80829 589.069559 542.407425 0.00169835
7.06775 598.19165 599.840454 543.189961 0.00167171
7.07656 608.23767 609.473669 543.971315 0.00164409
7.08537 613.78717 615.382969 544.751335 0.00162923
7.09417 612.68567 615.606425 545.529874 0.00163216
7.10298 605.66681 610.66187 546.306775 0.00165107
7.11179 596.91418 603.011201 547.081909 0.00167528
7.12059 587.96973 595.041424 547.855079 0.00170077
7.12940 580.98688 588.182329 548.626229 0.00172121
7.13821 576.48352 583.055678 549.395174 0.00173465
7.14702 573.99695 579.765614 550.161773 0.00174217
7.15582 571.58521 578.122598 550.925888 0.00174952
7.16463 571.19049 577.807355 551.687374 0.00175073
7.17344 572.01215 578.500013 552.446113 0.00174821
7.18224 573.97839 579.94915 553.201963 0.00174223
7.19105 575.70764 581.995753 553.954795 0.00173699
7.19986 578.71155 584.567714 554.704478 0.00172798
7.20867 583.1723 587.662318 555.450876 0.00171476
7.21747 589.97034 591.334087 556.193883 0.001695
7.22628 598.20532 595.695664 556.933367 0.00167167
7.23509 608.80103 600.935126 557.669207 0.00164257
7.24389 621.59552 607.375335 558.401284 0.00160876
7.25270 637.33575 615.584503 559.129483 0.00156903
7.26151 658.06158 626.577197 559.853681 0.00151961
7.27032 682.8197 642.097513 560.573783 0.00146452
7.27912 714.38977 664.93531 561.289672 0.0013998
7.28793 756.06293 699.098239 562.001241 0.00132264
7.29674 806.92334 749.543573 562.708386 0.00123928
7.30554 871.47638 821.213658 563.411005 0.00114748
7.31435 953.49866 917.30328 564.10899 0.00104877
7.32316 1048.9216 1036.746671 564.802261 0.00095336
7.33197 1161.7665 1170.7953 565.490716 0.00086076
7.34077 1269.4164 1298.297738 566.174263 0.00078776
7.34958 1345.6606 1383.526216 566.852813 0.00074313
7.35839 1358.3379 1391.307661 567.526272 0.00073619
7.36720 1294.5745 1318.336909 568.194572 0.00077245
7.37600 1181.8931 1196.763068 568.857624 0.0008461
7.38481 1064.0016 1063.891282 569.515313 0.00093985
7.39362 956.46478 943.270779 570.167638 0.00104552
7.40242 872.56195 845.250358 570.814489 0.00114605
7.41123 808.17004 771.856147 571.455795 0.00123736
7.42004 758.66962 720.400083 572.091483 0.0013181
7.42884 721.87408 686.073839 572.721502 0.00138528
7.43765 692.64978 663.848099 573.345783 0.00144373
7.44646 670.16492 649.544368 573.964268 0.00149217
7.45527 652.91193 640.191892 574.5769 0.0015316
7.46407 639.63464 633.911145 575.183627 0.00156339
7.47288 629.66736 629.608632 575.784391 0.00158814
7.48169 622.4306 626.677035 576.379158 0.0016066
7.49050 616.85364 624.782308 576.967876 0.00162113
7.49930 613.2041 623.740386 577.550504 0.00163078
7.50811 609.51196 623.451596 578.127002 0.00164066
7.51692 607.39868 623.872705 578.697334 0.00164637
7.52572 607.32605 625.011586 579.26146 0.00164656
7.53453 609.58258 626.935782 579.819363 0.00164047
7.54334 612.58685 629.800826 580.371007 0.00163242
7.55215 616.16931 633.902265 580.916368 0.00162293
7.56095 621.93048 639.749638 581.455423 0.0016079
7.56976 630.66034 648.15068 581.988146 0.00158564
7.57857 642.25067 660.281122 582.514534 0.00155702
7.58737 657.28265 677.686658 583.034565 0.00152142
7.59618 679.12555 702.198513 583.548228 0.00147248
7.60499 713.15735 735.704911 584.055514 0.00140222
7.61380 761.33948 779.674706 584.556417 0.00131347
7.62260 829.68329 834.102369 585.050928 0.00120528
7.63141 906.70972 896.014604 585.539058 0.00110289
7.64022 979.85132 959.760426 586.020803 0.00102056
7.64902 1033.6499 1021.355209 586.496167 0.00096745
7.65783 1077.0941 1079.681488 586.965131 0.00092842
7.66664 1132.9558 1128.236262 587.427757 0.00088265
7.67545 1173.2836 1149.250288 587.88403 0.00085231
7.68425 1164.2108 1125.407182 588.333961 0.00085895
7.69306 1088.9099 1060.520047 588.777576 0.00091835
7.70187 976.63721 976.760916 589.21489 0.00102392
7.71067 877.72192 894.761132 589.645924 0.00113931
7.71948 808.17017 825.463425 590.070702 0.00123736
7.72829 761.60992 772.44898 590.489252 0.00131301
7.73710 730.6709 735.24574 590.901597 0.00136861
7.74590 711.07324 711.456088 591.307777 0.00140632
7.75471 700.13391 698.236538 591.707822 0.0014283
7.76352 696.22766 693.322903 592.101766 0.00143631
7.77232 699.62799 695.565366 592.489648 0.00142933
7.78113 709.56281 705.025926 592.871502 0.00140932
7.78994 726.70142 722.704281 593.24738 0.00137608
7.79875 755.11639 749.896049 593.617321 0.0013243
7.80755 789.26117 787.382199 593.981371 0.00126701
7.81636 832.56433 834.275224 594.339578 0.00120111
7.82517 882.36017 886.389052 594.691992 0.00113332
7.83397 937.03992 934.244638 595.03866 0.00106719
7.84278 971.95172 964.440465 595.379644 0.00102886
7.85159 977.21106 970.410458 595.714995 0.00102332
7.86040 962.2149 962.481753 596.044771 0.00103927
7.86920 952.99396 960.211748 596.36903 0.00104932
7.87801 970.38843 979.838248 596.68783 0.00103052
7.88682 1025.3461 1030.232721 597.001239 0.00097528
7.89563 1111.5269 1112.400546 597.309319 0.00089966
7.90443 1219.9155 1217.328701 597.612133 0.00081973
7.91324 1319.4597 1321.216005 597.90975 0.00075789
7.92205 1373.7339 1384.08315 598.20222 0.00072794
7.93085 1356.1759 1370.179926 598.489647 0.00073737
7.93966 1272.9607 1282.685722 598.772081 0.00078557
7.94847 1148.8824 1158.662514 599.049602 0.00087041
7.95727 1020.51 1033.399408 599.32228 0.0009799
7.96608 913.78223 925.755114 599.59019 0.00109435
7.97489 831.08136 842.092241 599.853408 0.00120325
7.98370 774.88177 781.845441 600.11201 0.00129052
7.99250 735.70135 741.141197 600.366073 0.00135925
8.00131 708.71356 715.16692 600.615695 0.00141101
8.01012 691.47278 699.740737 600.860926 0.00144619
8.01893 681.27954 692.07687 601.10186 0.00146783
8.02773 675.57678 690.878824 601.338578 0.00148022
8.03654 677.80255 696.026753 601.571168 0.00147536
8.04535 688.48322 708.019721 601.79971 0.00145247
8.05415 704.4248 727.259808 602.02429 0.0014196
8.06296 741.12811 753.1758 602.244967 0.00134929
8.07177 774.92444 782.979571 602.461878 0.00129045
8.08057 809.27472 809.942653 602.675084 0.00123567
8.08938 833.65955 823.387861 602.884672 0.00119953
8.09819 811.85931 815.439118 603.09073 0.00123174
8.10700 785.15656 789.334582 603.293343 0.00127363
8.11580 741.72003 755.530682 603.492605 0.00134822
8.12461 704.04706 722.655801 603.688602 0.00142036
8.13342 678.09882 694.941412 603.881423 0.00147471
8.14223 658.8446 673.580487 604.071159 0.00151781
8.15103 646.88104 658.142372 604.257896 0.00154588
8.15984 639.64539 647.451846 604.441729 0.00156337
8.16865 633.69312 640.184165 604.622747 0.00157805
8.17745 629.48389 635.193535 604.801039 0.0015886
8.18626 626.49811 631.645387 604.976696 0.00159617
8.19507 624.38757 629.004079 605.149808 0.00160157
8.20388 623.0238 626.942218 605.320464 0.00160508
8.21268 621.24042 625.278175 605.488758 0.00160968
8.22149 620.11273 623.906892 605.654779 0.00161261
8.23030 620.56622 622.754209 605.818616 0.00161143
8.23910 620.90674 621.777765 605.980361 0.00161055
8.24791 620.32019 620.944323 606.140101 0.00161207
8.25672 619.94397 620.228922 606.297926 0.00161305
8.26553 620.20844 619.612125 606.453928 0.00161236
8.27433 619.78595 619.078394 606.608195 0.00161346
8.28314 618.70026 618.615422 606.760815 0.00161629
8.29195 618.43738 618.213219 606.911875 0.00161698
8.30075 619.13629 617.863528 607.061464 0.00161515
8.30956 620.00153 617.55964 607.20967 0.0016129
8.31837 620.2757 617.295984 607.356579 0.00161219
8.32718 619.74023 617.068977 607.502277 0.00161358
8.33598 618.87665 616.872454 607.646851 0.00161583
8.34479 618.21674 616.704858 607.790385 0.00161756
8.35360 618.40955 616.562735 607.932962 0.00161705
8.36240 618.93549 616.443235 608.074668 0.00161568
8.37121 619.35559 616.34576 608.215587 0.00161458
8.38002 618.92743 616.26749 608.355798 0.0016157
8.38883 618.68793 616.206972 608.495386 0.00161632
8.39763 618.7157 616.163833 608.634429 0.00161625
8.40644 619.12793 616.136041 608.773007 0.00161518
8.41525 618.88477 616.123501 608.911202 0.00161581
8.42406 618.81018 616.126377 609.04909 0.001616
8.43286 618.71222 616.146315 609.18675 0.00161626
8.44167 619.04559 616.177239 609.324256 0.00161539
8.45048 619.54584 616.222586 609.461683 0.00161409
8.45928 620.61365 616.28277 609.599109 0.00161131
8.46809 620.38159 616.358488 609.736606 0.00161191
8.47690 619.41534 616.450875 609.874246 0.00161443
8.48571 619.20685 616.561573 610.012101 0.00161497
8.49451 620.26758 616.692946 610.15024 0.00161221
8.50332 620.78693 616.848566 610.288732 0.00161086
8.51213 620.78253 617.033997 610.427648 0.00161087
8.52093 620.91254 617.257258 610.567053 0.00161053
8.52974 621.3606 617.532177 610.707013 0.00160937
8.53855 622.05103 617.884936 610.847593 0.00160759
8.54736 622.63611 618.359571 610.988857 0.00160607
8.55616 623.15088 619.0261 611.130865 0.00160475
8.56497 624.99744 619.981827 611.273681 0.00160001
8.57378 627.20697 621.346874 611.417365 0.00159437
8.58258 628.7973 623.233306 611.561974 0.00159034
8.59139 630.39716 625.69672 611.707566 0.0015863
8.60020 631.99854 628.648022 611.854181 0.00158228
8.60900 633.38245 631.70833 612.001907 0.00157882
8.61781 634.51532 634.04247 612.15078 0.00157601
8.62662 634.58136 634.62154 612.300852 0.00157584
8.63543 633.34753 633.197291 612.452177 0.00157891
8.64423 631.49536 630.602853 612.604803 0.00158354
8.65304 629.9444 627.83208 612.758778 0.00158744
8.66185 628.11023 625.44297 612.91415 0.00159208
8.67066 626.53619 623.617291 613.070964 0.00159608
8.67946 625.45886 622.347056 613.229263 0.00159883
8.68827 624.68512 621.536992 613.389094 0.00160081
8.69708 624.69214 621.064304 613.550496 0.00160079
8.70588 624.46021 620.821046 613.71351 0.00160138
8.71469 624.05884 620.725576 613.878176 0.00160241
8.72350 624.12384 620.727538 614.044528 0.00160225
8.73231 624.17609 620.792948 614.212607 0.00160211
8.74111 624.38995 620.898768 614.382447 0.00160156
8.74992 624.4613 621.038613 614.55408 0.00160138
8.75873 624.50549 621.20684 614.72754 0.00160127
8.76753 625.32635 621.398476 614.902857 0.00159916
8.77634 626.26599 621.61188 615.080059 0.00159677
8.78515 626.0658 621.845328 615.259178 0.00159728
8.79396 626.52008 622.096358 615.440239 0.00159612
8.80276 626.55554 622.365128 615.623268 0.00159603
8.81157 626.76971 622.651294 615.808289 0.00159548
8.82038 626.8222 622.954789 615.995323 0.00159535
8.82918 627.50671 623.275847 616.184397 0.00159361
8.83799 627.64136 623.614847 616.375527 0.00159327
8.84680 627.80823 623.972562 616.568733 0.00159284
8.85561 627.88812 624.349599 616.764034 0.00159264
8.86441 629.10107 624.747161 616.961445 0.00158957
8.87322 629.78821 625.166496 617.16098 0.00158784
8.88203 629.68878 625.609124 617.362656 0.00158809
8.89083 630.45544 626.077014 617.566485 0.00158615
8.89964 631.0882 626.571832 617.772478 0.00158456
8.90845 631.87543 627.096131 617.980646 0.00158259
8.91726 632.61981 627.65268 618.190996 0.00158073
8.92606 632.79785 628.247583 618.403535 0.00158028
8.93487 632.68848 628.878681 618.618274 0.00158056
8.94368 633.80499 629.553177 618.835216 0.00157777
8.95249 634.55371 630.27608 619.054366 0.00157591
8.96129 634.98267 631.054383 619.275726 0.00157485
8.97010 635.87152 631.892376 619.499295 0.00157264
8.97891 635.82452 632.799418 619.725081 0.00157276
8.98771 635.92548 633.784918 619.95308 0.00157251
8.99652 636.06793 634.860181 620.183291 0.00157216
9.00533 637.8844 636.038732 620.41571 0.00156768
9.01414 638.05194 637.336847 620.650336 0.00156727
9.02294 639.20538 638.773999 620.887161 0.00156444
9.03175 639.82013 640.375844 621.126184 0.00156294
9.04056 641.68152 642.16909 621.367396 0.00155841
9.04936 643.50031 644.191756 621.61079 0.001554
9.05817 645.91235 646.489852 621.856358 0.0015482
9.06698 647.94312 649.121653 622.104089 0.00154335
9.07579 651.2533 652.161364 622.353971 0.0015355
9.08459 655.70142 655.708036 622.605998 0.00152508
9.09340 660.4624 659.887553 622.860155 0.00151409
9.10221 665.40161 664.88245 623.116429 0.00150285
9.11101 671.50037 670.950002 623.374806 0.0014892
9.11982 680.41364 678.499022 623.635268 0.00146969
9.12863 691.78528 688.197614 623.897807 0.00144554
9.13743 706.35541 701.161767 624.162374 0.00141572
9.14624 724.65601 719.215925 624.429005 0.00137997
9.15505 750.0506 745.145559 624.69766 0.00133324
9.16386 783.92505 782.822556 624.968319 0.00127563
9.17266 829.65143 836.959543 625.240961 0.00120533
9.18147 891.78278 912.223141 625.515566 0.00112135
9.19028 972.47955 1011.225789 625.792115 0.0010283
9.19909 1081.2107 1130.35971 626.070582 0.00092489
9.20789 1211.0184 1253.94104 626.350952 0.00082575
9.21670 1356.6041 1354.936725 626.6332 0.00073713
9.22551 1466.2349 1410.013833 626.917301 0.00068202
9.23431 1500.1844 1405.942543 627.203234 0.00066658
9.24312 1429.4323 1336.726122 627.490969 0.00069958
9.25193 1276.1398 1219.75532 627.78049 0.00078361
9.26074 1089.522 1090.678102 628.071767 0.00091783
9.26954 939.10559 975.89075 628.364775 0.00106484
9.27835 837.26929 885.218943 628.659488 0.00119436
9.28716 774.29773 818.611973 628.955879 0.00129149
9.29596 736.97784 771.979875 629.253919 0.00135689
9.30477 712.05096 740.219561 629.553586 0.00140439
9.31358 695.94305 718.688108 629.854849 0.0014369
9.32239 683.6438 703.818676 630.157681 0.00146275
9.33119 675.00873 693.191203 630.462053 0.00148146
9.34000 668.44458 685.294395 630.767937 0.00149601
9.34881 664.29401 679.232726 631.075301 0.00150536
9.35761 661.01349 674.473187 631.384122 0.00151283
9.36642 658.11072 670.687755 631.694367 0.0015195
9.37523 655.73834 667.656788 632.006007 0.001525
9.38404 654.31372 665.228074 632.319012 0.00152832
9.39284 653.67999 663.29053 632.633349 0.0015298
9.40165 653.30963 661.760214 632.948995 0.00153067
9.41046 652.60315 660.573557 633.265916 0.00153232
9.41926 652.49554 659.682513 633.584082 0.00153258
9.42807 653.258 659.050665 633.903463 0.00153079
9.43688 653.34271 658.650865 634.224028 0.00153059
9.44569 652.59924 658.463671 634.545743 0.00153233
9.45449 653.20978 658.476284 634.868585 0.0015309
9.46330 653.97974 658.682663 635.19252 0.0015291
9.47211 654.73553 659.079492 635.517518 0.00152733
9.48092 655.72491 659.670783 635.843547 0.00152503
9.48972 656.71515 660.466539 636.170579 0.00152273
9.49853 657.26648 661.482784 636.498579 0.00152145
9.50734 658.30945 662.742832 636.827523 0.00151904
9.51614 660.22998 664.279345 637.157379 0.00151462
9.52495 662.74683 666.136348 637.488117 0.00150887
9.53376 665.28638 668.373566 637.819706 0.00150311
9.54257 668.22656 671.070962 638.152114 0.0014965
9.55137 671.7453 674.338504 638.485318 0.00148866
9.56018 676.97156 678.331697 638.819285 0.00147717
9.56899 683.86414 683.272915 639.153987 0.00146228
9.57779 692.8938 689.518527 639.489395 0.00144322
9.58660 704.53516 697.651406 639.82548 0.00141938
9.59541 717.16705 708.655287 640.16221 0.00139438
9.60422 735.0387 724.137088 640.499564 0.00136047
9.61302 759.87366 746.545762 640.837512 0.00131601
9.62183 789.61505 779.236378 641.176026 0.00126644
9.63064 830.90625 826.12866 641.515078 0.00120351
9.63944 888.14435 890.719344 641.854642 0.00112594
9.64825 958.9436 974.133946 642.194689 0.00104281
9.65706 1049.9983 1071.464343 642.535198 0.00095238
9.66587 1148.7697 1165.242646 642.876142 0.0008705
9.67467 1208.4022 1222.068245 643.217455 0.00082754
9.68348 1239.9927 1212.879998 643.559191 0.00080646
9.69229 1191.1802 1146.189399 643.901286 0.0008395
9.70109 1106.3683 1058.121027 644.243717 0.00090386
9.70990 1012.1268 977.809955 644.586459 0.00098802
9.71871 927.17334 917.903303 644.929485 0.00107855
9.72752 876.81061 880.370416 645.272782 0.0011405
9.73632 850.47717 860.994179 645.616322 0.00117581
9.74513 836.17719 850.778647 645.960084 0.00119592
9.75394 826.86395 838.324422 646.304046 0.00120939
9.76274 811.65332 817.182726 646.648184 0.00123205
9.77155 790.23181 790.253682 646.992485 0.00126545
9.78036 769.10266 763.671417 647.336925 0.00130022
9.78917 750.23334 741.079181 647.681486 0.00133292
9.79797 736.76489 723.488007 648.026148 0.00135729
9.80678 727.47198 710.588567 648.370894 0.00137462
9.81559 720.97961 701.567504 648.715701 0.001387
9.82439 715.42181 695.511866 649.06056 0.00139778
9.83320 713.23993 691.634451 649.40545 0.00140205
9.84201 711.81909 689.375659 649.750356 0.00140485
9.85082 711.30841 688.423629 650.095263 0.00140586
9.85962 712.75098 688.704763 650.440154 0.00140301
9.86843 716.02747 690.388193 650.785011 0.00139659
9.87724 719.96704 693.915238 651.129829 0.00138895
9.88604 724.98364 700.027036 651.474591 0.00137934
9.89485 732.05786 709.738086 651.819283 0.00136601
9.90366 740.81403 724.176822 652.163894 0.00134987
9.91247 753.74225 744.247373 652.508408 0.00132671
9.92127 767.72595 769.975856 652.852822 0.00130255
9.93008 784.4046 799.226514 653.197121 0.00127485
9.93889 799.90399 825.607112 653.541296 0.00125015
9.94769 809.87903 838.33355 653.885337 0.00123475
9.95650 806.84833 830.049426 654.229236 0.00123939
9.96531 790.0282 805.465982 654.57298 0.00126578
9.97412 767.51526 775.566092 654.916571 0.00130291
9.98292 747.41528 748.028243 655.259997 0.00133794
9.99173 730.28217 725.810512 655.603251 0.00136933
10.00054 716.92059 709.24244 655.946332 0.00139485
10.00934 707.51685 697.53168 656.289219 0.00141339
10.01815 699.37744 689.522894 656.63192 0.00142984
10.02696 692.53174 684.102553 656.974429 0.00144398
10.03577 688.02655 680.385273 657.316782 0.00145343
10.04457 685.25092 677.758344 657.658899 0.00145932
10.05338 682.35278 675.83448 658.000816 0.00146552
10.06219 679.23877 674.381671 658.342531 0.00147224
10.07099 676.88147 673.261965 658.684043 0.00147736
10.07980 674.84424 672.389949 659.025389 0.00148182
10.08861 673.56842 671.709129 659.366493 0.00148463
10.09742 672.89142 671.180828 659.707393 0.00148612
10.10622 671.8067 670.77353 660.048089 0.00148852
10.11503 670.31958 670.466203 660.388584 0.00149183
10.12384 669.86993 670.241254 660.728879 0.00149283
10.13265 670.25299 670.086044 661.069014 0.00149197
10.14145 669.86206 669.988515 661.408917 0.00149284
10.15026 669.65851 669.940396 661.748628 0.0014933
10.15907 669.48401 669.934876 662.088152 0.00149369
10.16787 669.40948 669.966248 662.427492 0.00149385
10.17668 668.74518 670.02991 662.766692 0.00149534
10.18549 668.27313 670.121827 663.105681 0.00149639
10.19430 667.021 670.239096 663.444503 0.0014992
10.20310 667.53009 670.378709 663.783125 0.00149806
10.21191 668.85529 670.538587 664.12163 0.00149509
10.22072 669.66125 670.716828 664.459988 0.00149329
10.22952 669.09192 670.911994 664.798244 0.00149456
10.23833 669.11194 671.122847 665.13633 0.00149452
10.24714 669.79871 671.348547 665.474291 0.00149299
10.25595 670.12048 671.587792 665.812137 0.00149227
10.26475 670.60449 671.840245 666.149876 0.00149119
10.27356 671.12195 672.105534 666.487557 0.00149004
10.28237 671.64899 672.383358 666.825112 0.00148887
10.29117 671.87036 672.673694 667.16259 0.00148838
10.29998 672.37128 672.976673 667.500002 0.00148727
10.30879 672.73267 673.292661 667.837357 0.00148647
10.31760 673.35803 673.622223 668.174668 0.00148509
10.32640 673.47729 673.966287 668.511983 0.00148483
10.33521 674.10291 674.325953 668.849239 0.00148345
10.34402 674.86694 674.702873 669.186484 0.00148177
10.35282 675.77698 675.099141 669.523732 0.00147978
10.36163 676.2002 675.517537 669.860996 0.00147885
10.37044 676.90289 675.961716 670.198325 0.00147732
10.37925 677.54376 676.4364 670.535657 0.00147592
10.38805 678.26141 676.948103 670.873042 0.00147436
10.39686 678.72809 677.505972 671.210496 0.00147334
10.40567 680.11945 678.123425 671.54803 0.00147033
10.41447 682.03674 678.821547 671.885659 0.0014662
10.42328 683.73004 679.634769 672.223435 0.00146257
10.43209 684.93329 680.619385 672.561296 0.00146
10.44090 685.89703 681.86436 672.899294 0.00145794
10.44970 687.89893 683.500046 673.237444 0.0014537
10.45851 690.63177 685.696335 673.575761 0.00144795
10.46732 693.44794 688.643499 673.914296 0.00144207
10.47612 697.12903 692.505804 674.25299 0.00143445
10.48493 700.37024 697.335699 674.591894 0.00142782
10.49374 704.20996 702.902104 674.931024 0.00142003
10.50255 708.42474 708.39185 675.270394 0.00141158
10.51135 711.96051 712.261874 675.61002 0.00140457
10.52016 711.88916 713.149458 675.949956 0.00140471
10.52897 709.79724 711.416198 676.29014 0.00140885
10.53777 706.76038 708.823276 676.630624 0.00141491
10.54658 703.62274 706.881131 676.971425 0.00142122
10.55539 701.64642 706.187924 677.312558 0.00142522
10.56420 701.22003 706.527834 677.654076 0.00142609
10.57300 701.2207 706.973631 677.995917 0.00142608
10.58181 699.63141 706.301064 678.338136 0.00142932
10.59062 697.43365 704.036942 678.680746 0.00143383
10.59943 694.90137 700.845852 679.023763 0.00143905
10.60823 693.04645 697.646552 679.367201 0.0014429
10.61704 691.5744 694.955171 679.711115 0.00144598
10.62585 690.34528 692.920388 680.055442 0.00144855
10.63465 689.46564 691.508215 680.400233 0.0014504
10.64346 688.79254 690.612548 680.745505 0.00145182
10.65227 688.1275 690.109221 681.091272 0.00145322
10.66108 688.31274 689.886252 681.437586 0.00145283
10.66988 688.76819 689.856403 681.784383 0.00145187
10.67869 688.74286 689.959243 682.131717 0.00145192
10.68750 688.242 690.156057 682.4796 0.00145298
10.69630 688.73077 690.423332 682.828047 0.00145195
10.70511 689.45831 690.746917 683.177109 0.00145041
10.71392 689.90289 691.118219 683.526722 0.00144948
10.72273 690.12683 691.531994 683.876937 0.00144901
10.73153 690.65942 691.985169 684.227767 0.00144789
10.74034 691.47174 692.476062 684.579184 0.00144619
10.74915 692.56927 693.004376 684.931279 0.0014439
10.75795 692.95831 693.570732 685.284066 0.00144309
10.76676 693.02161 694.17663 685.637476 0.00144296
10.77557 693.39532 694.824735 685.991559 0.00144218
10.78438 694.13324 695.51864 686.346326 0.00144065
10.79318 695.49603 696.263272 686.701789 0.00143782
10.80199 696.09198 697.064911 687.057998 0.00143659
10.81080 697.0744 697.931456 687.414882 0.00143457
10.81960 698.19055 698.87315 687.772491 0.00143227
10.82841 699.28259 699.903152 688.130835 0.00143004
10.83722 700.71393 701.038625 688.489922 0.00142712
10.84602 702.6908 702.302923 688.849762 0.0014231
10.85483 704.56519 703.728902 689.210403 0.00141932
10.86364 706.92273 705.36452 689.571772 0.00141458
10.87245 709.09888 707.283114 689.933917 0.00141024
10.88125 711.23077 709.596517 690.296846 0.00140601
10.89006 713.14294 712.472372 690.660565 0.00140224
10.89887 716.73529 716.151945 691.025121 0.00139522
10.90768 721.24597 720.958764 691.390439 0.00138649
10.91648 727.22723 727.295046 691.756565 0.00137509
10.92529 733.9353 735.592528 692.123505 0.00136252
10.93410 742.80951 746.189544 692.491263 0.00134624
10.94290 753.6701 759.071734 692.859844 0.00132684
10.95171 765.45856 773.565952 693.229294 0.00130641
10.96052 775.86871 788.418871 693.599532 0.00128888
10.96933 783.93018 802.283224 693.970603 0.00127562
10.97813 790.37042 813.362547 694.342511 0.00126523
10.98694 792.97815 819.132195 694.715257 0.00126107
10.99575 794.13538 818.483493 695.088886 0.00125923
11.00455 793.89966 813.037584 695.463314 0.00125961
11.01336 793.36505 805.240727 695.838585 0.00126045
11.02217 794.11005 797.474251 696.214699 0.00125927
11.03098 796.44751 792.294117 696.591656 0.00125558
11.03978 802.34973 791.983239 696.969456 0.00124634
11.04859 813.14752 798.371931 697.348142 0.00122979
11.05740 829.29346 813.152538 697.727624 0.00120585
11.06621 851.38379 838.040358 698.107946 0.00117456
11.07501 882.11652 874.547999 698.489104 0.00113364
11.08382 921.79785 923.23553 698.871097 0.00108484
11.09263 970.31824 982.25719 699.253964 0.00103059
11.10143 1023.0385 1044.560889 699.637614 0.00097748
11.11024 1069.9885 1094.70622 700.022088 0.00093459
11.11905 1088.4996 1112.383918 700.407381 0.0009187
11.12786 1072.4817 1088.646703 700.793487 0.00093242
11.13666 1026.1863 1035.797466 701.180402 0.00097448
11.14547 970.7168 974.094688 701.568163 0.00103017
11.15428 921.9057 917.273372 701.956677 0.00108471
11.16308 881.18213 871.018025 702.345979 0.00113484
11.17189 850.55994 836.371278 702.736064 0.0011757
11.18070 827.90753 812.270254 703.126924 0.00120786
11.18951 813.18286 796.94845 703.518594 0.00122974
11.19831 804.3548 788.710312 703.910977 0.00124323
11.20712 801.82745 786.38859 704.30411 0.00124715
11.21593 804.60352 789.570397 704.697981 0.00124285
11.22473 813.76965 798.574294 705.092582 0.00122885
11.23354 830.2561 814.244302 705.487903 0.00120445
11.24235 851.51251 837.588957 705.883976 0.00117438
11.25116 879.00635 869.149817 706.280702 0.00113765
11.25996 912.75806 908.079892 706.678114 0.00109558
11.26877 950.78473 950.55052 707.076199 0.00105176
11.27758 986.33368 988.060545 707.4749 0.00101386
11.28638 1009.2704 1008.284023 707.87434 0.00099081
11.29519 1004.3484 1001.885321 708.274371 0.00099567
11.30400 975.53699 971.296886 708.675023 0.00102508
11.31281 935.50037 928.774821 709.076282 0.00106895
11.32161 894.5744 886.070594 709.478136 0.00111785
11.33042 859.04553 849.557987 709.880613 0.00116408
11.33923 831.89575 821.398821 710.283609 0.00120207
11.34803 812.13306 801.532127 710.687152 0.00123133
11.35684 797.77979 788.913593 711.091228 0.00125348
11.36565 787.84033 782.066415 711.495821 0.00126929
11.37445 781.18176 779.287204 711.900912 0.00128011
11.38326 777.78204 778.578286 712.306533 0.00128571
11.39207 775.02954 777.5915 712.712574 0.00129027
11.40088 771.49164 774.384973 713.119062 0.00129619
11.40968 766.74622 768.692535 713.525982 0.00130421
11.41849 759.98816 761.788965 713.933313 0.00131581
11.42730 753.62549 755.075344 714.341085 0.00132692
11.43611 748.88965 749.337502 714.749186 0.00133531
11.44491 745.40253 744.845574 715.157643 0.00134156
11.45372 742.53876 741.607599 715.566438 0.00134673
11.46253 740.23645 739.52032 715.97555 0.00135092
11.47133 739.09723 738.447503 716.384961 0.001353
11.48014 739.55951 738.252113 716.794696 0.00135216
11.48895 739.68982 738.796681 717.204642 0.00135192
11.49776 740.41217 739.909021 717.614826 0.0013506
11.50656 740.27899 741.300116 718.025227 0.00135084
11.51537 740.22485 742.472284 718.435824 0.00135094
11.52418 739.61646 742.803583 718.846643 0.00135205
11.53299 739.66486 741.973536 719.25757 0.00135196
11.54179 738.0249 740.268794 719.668628 0.00135497
11.55060 736.75812 738.264141 720.079798 0.0013573
11.55941 734.9469 736.392396 720.491058 0.00136064
11.56821 733.78156 734.852513 720.902385 0.0013628
11.57702 733.45905 733.693276 721.313804 0.0013634
11.58583 733.49829 732.889287 721.7252 0.00136333
11.59464 732.23291 732.383757 722.136598 0.00136569
11.60344 731.35052 732.111588 722.547975 0.00136733
11.61225 731.20776 732.014015 722.959308 0.0013676
11.62106 731.62799 732.044777 723.370623 0.00136681
11.62986 731.47534 732.171309 723.781803 0.0013671
11.63867 731.71094 732.373088 724.192872 0.00136666
11.64748 731.80896 732.638786 724.603808 0.00136648
11.65629 732.34186 732.963796 725.014589 0.00136548
11.66509 732.83466 733.349457 725.42519 0.00136456
11.67390 733.18726 733.80343 725.835637 0.00136391
11.68271 733.94128 734.34129 726.245814 0.00136251
11.69151 734.60901 734.989611 726.655744 0.00136127
11.70032 735.56293 735.788749 727.065405 0.0013595
11.70913 736.67157 736.793511 727.474775 0.00135746
11.71794 737.9386 738.070359 727.883876 0.00135513
11.72674 739.1582 739.687904 728.292594 0.00135289
11.73555 741.25409 741.69961 728.700953 0.00134907
11.74436 742.95715 744.114135 729.108931 0.00134597
11.75316 744.04999 746.843847 729.516505 0.001344
11.76197 745.85413 749.618314 729.923652 0.00134074
11.77078 747.42761 751.926224 730.330398 0.00133792
11.77959 748.24994 753.18057 730.736628 0.00133645
11.78839 748.36975 753.149249 731.142366 0.00133624
11.79720 748.14862 752.145109 731.547591 0.00133663
11.80601 748.46588 750.730524 731.952281 0.00133607
11.81481 749.27026 749.392144 732.356414 0.00133463
11.82362 750.13776 748.430657 732.759971 0.00133309
11.83243 750.94873 747.994986 733.162929 0.00133165
11.84123 752.83643 748.159022 733.565267 0.00132831
11.85004 755.44269 748.986351 733.966967 0.00132373
11.85885 758.4989 750.57781 734.368051 0.00131839
11.86766 761.7793 753.097071 734.76841 0.00131272
11.87646 765.85828 756.776044 735.16807 0.00130572
11.88527 770.92072 761.888226 735.567009 0.00129715
11.89408 776.85791 768.682383 735.965209 0.00128724
11.90288 783.89502 777.27642 736.362652 0.00127568
11.91169 791.99023 787.487342 736.759362 0.00126264
11.92050 799.3631 798.51026 737.155232 0.001251
11.92931 805.74463 808.514228 737.550289 0.00124109
11.93811 808.37561 814.6651 737.944513 0.00123705
11.94692 807.75903 814.595049 738.337889 0.00123799
11.95573 801.45172 808.519557 738.730443 0.00124774
11.96454 793.84039 799.017115 739.122068 0.0012597
11.97334 786.59595 788.830339 739.512793 0.0012713
11.98215 779.60785 779.623869 739.902603 0.0012827
11.99096 773.54242 772.081639 740.29148 0.00129275
11.99976 769.21344 766.330596 740.679409 0.00130003
12.00857 765.66913 762.220114 741.066419 0.00130605
12.01738 762.69916 759.486062 741.452408 0.00131113
12.02619 760.32056 757.851673 741.837404 0.00131523
12.03499 758.86957 757.087513 742.221395 0.00131775
12.04380 758.28638 757.036893 742.604366 0.00131876
12.05261 758.34894 757.615192 742.986348 0.00131865
12.06142 758.60547 758.78453 743.367241 0.00131821
12.07022 759.4541 760.519895 743.747076 0.00131674
12.07903 761.75946 762.76271 744.125842 0.00131275
12.08784 764.39423 765.351832 744.503526 0.00130823
12.09664 767.61047 767.928985 744.880119 0.00130274
12.10545 769.70404 769.890386 745.255652 0.0012992
12.11426 769.60675 770.592628 745.63003 0.00129936
12.12307 768.52014 769.844325 746.003286 0.0013012
12.13187 765.98767 768.086544 746.37541 0.0013055
12.14068 763.00317 765.988454 746.746395 0.00131061
12.14949 761.12598 764.042886 747.116274 0.00131384
12.15829 760.35938 762.499208 747.484955 0.00131517
12.16710 759.86505 761.449622 747.852474 0.00131602
12.17591 758.84204 760.908203 748.218823 0.0013178
12.18472 758.84924 760.856734 748.583997 0.00131778
12.19352 759.7207 761.271153 748.947989 0.00131627
12.20233 760.88385 762.133166 749.310837 0.00131426
12.21114 761.9303 763.430074 749.672452 0.00131246
12.21994 763.20532 765.143539 750.032872 0.00131026
12.22875 764.61584 767.224109 750.392093 0.00130785
12.23756 766.60352 769.548172 750.750113 0.00130446
12.24637 768.02887 771.855217 751.106969 0.00130203
12.25517 770.29138 773.735236 751.462578 0.00129821
12.26398 771.47998 774.805866 751.816979 0.00129621
12.27279 772.87457 775.03195 752.170171 0.00129387
12.28159 773.21973 774.782397 752.522155 0.00129329
12.29040 772.95123 774.529238 752.872929 0.00129374
12.29921 773.69971 774.597351 753.222534 0.00129249
12.30802 775.43713 775.119025 753.570893 0.0012896
12.31682 777.62299 776.067291 753.918046 0.00128597
12.32563 780.36078 777.287299 754.263995 0.00128146
12.33444 782.96765 778.577588 754.608745 0.00127719
12.34324 784.39111 779.864501 754.952336 0.00127487
12.35205 785.18506 781.318688 755.294656 0.00127359
12.36086 786.46625 783.264065 755.635826 0.00127151
12.36966 788.59082 786.019828 755.975812 0.00126808
12.37847 791.66614 789.835615 756.31462 0.00126316
12.38728 795.79895 794.884653 756.652294 0.0012566
12.39609 800.85077 801.224261 756.988763 0.00124867
12.40489 806.32672 808.725288 757.324074 0.00124019
12.41370 813.05377 817.06469 757.658233 0.00122993
12.42251 820.29626 825.974624 757.99125 0.00121907
12.43131 828.36273 835.593303 758.323131 0.0012072
12.44012 837.63586 846.341514 758.653926 0.00119384
12.44893 847.10516 858.250715 758.983567 0.00118049
12.45774 855.8681 870.398237 759.312102 0.0011684
12.46654 863.99823 881.113481 759.639543 0.00115741
12.47535 870.09802 889.32923 759.965901 0.0011493
12.48416 876.7298 895.897225 760.291224 0.0011406
12.49297 884.95172 902.987801 760.61545 0.00113001
12.50177 895.89954 912.205318 760.93863 0.0011162
12.51058 909.33307 923.344436 761.260776 0.00109971
12.51939 923.95313 934.173866 761.581902 0.00108231
12.52819 932.3913 941.617129 761.902022 0.00107251
12.53700 934.70685 944.327699 762.221187 0.00106985
12.54581 931.76257 944.077546 762.53934 0.00107323
12.55462 929.18451 943.929896 762.856533 0.00107621
12.56342 929.64771 945.495125 763.172781 0.00107568
12.57223 932.10632 947.691096 763.488102 0.00107284
12.58104 932.56757 947.075547 763.802547 0.00107231
12.58985 927.13245 940.045718 764.116062 0.00107859
12.59865 916.36597 925.926583 764.428702 0.00109127
12.60746 900.59271 907.530545 764.740484 0.00111038
12.61627 884.80237 888.642182 765.051427 0.0011302
12.62507 871.33893 871.831293 765.36155 0.00114766
12.63388 860.10376 858.078233 765.670907 0.00116265
12.64269 851.86102 847.171486 765.979448 0.0011739
12.65150 844.66882 838.205893 766.287229 0.0011839
12.66030 838.79352 830.252692 766.59427 0.00119219
12.66911 832.48773 822.959564 766.900591 0.00120122
12.67792 826.21558 816.55308 767.20625 0.00121034
12.68672 819.91083 811.401894 767.511198 0.00121964
12.69553 815.59131 807.715152 767.815491 0.0012261
12.70434 812.22894 805.522063 768.119153 0.00123118
12.71315 809.61603 804.714509 768.422206 0.00123515
12.72195 807.85577 805.049426 768.724672 0.00123784
12.73076 808.22522 806.098164 769.02661 0.00123728
12.73957 808.76019 807.186088 769.327974 0.00123646
12.74837 808.05145 807.47222 769.628822 0.00123754
12.75718 805.72058 806.325173 769.929179 0.00124113
12.76599 801.8678 803.751852 770.229069 0.00124709
12.77480 797.34222 800.32139 770.528551 0.00125417
12.78360 793.97925 796.699543 770.827581 0.00125948
12.79241 791.6059 793.339311 771.126218 0.00126325
12.80122 788.93994 790.460749 771.424488 0.00126752
12.81002 786.85492 788.132118 771.722417 0.00127088
12.81883 785.7403 786.334922 772.02003 0.00127269
12.82764 784.58087 785.004285 772.317386 0.00127457
12.83645 783.62579 784.05764 772.614445 0.00127612
12.84525 784.06549 783.41091 772.911266 0.0012754
12.85406 784.62988 782.990335 773.207876 0.00127449
12.86287 784.59491 782.738078 773.504301 0.00127454
12.87167 784.49933 782.61246 773.800602 0.0012747
12.88048 784.78735 782.585818 774.096738 0.00127423
12.88929 784.83038 782.641924 774.392736 0.00127416
12.89809 785.18445 782.773572 774.68869 0.00127359
12.90690 785.87714 782.981533 774.984594 0.00127246
12.91571 786.66675 783.274506 775.280475 0.00127119
12.92452 787.55237 783.670361 775.576394 0.00126976
12.93332 788.94873 784.19718 775.872311 0.00126751
12.94213 790.03064 784.893846 776.168287 0.00126577
12.95094 791.62238 785.8082 776.464348 0.00126323
12.95974 793.74579 786.991663 776.760523 0.00125985
12.96855 795.87567 788.493145 777.056872 0.00125648
12.97736 797.68866 790.340354 777.353356 0.00125362
12.98617 799.72119 792.526002 777.650035 0.00125044
12.99497 802.54175 794.975863 777.946937 0.00124604
13.00378 805.66919 797.504486 778.244088 0.0012412
13.01259 807.99353 799.770646 778.541551 0.00123763
13.02140 809.71936 801.306003 778.839284 0.001235
13.03020 809.61365 801.730682 779.137347 0.00123516
13.03901 808.91962 801.031759 779.435769 0.00123622
13.04782 807.25909 799.58106 779.734576 0.00123876
13.05662 804.32556 797.864855 780.033794 0.00124328
13.06543 801.81201 796.256045 780.333483 0.00124718
13.07424 800.08429 794.973783 780.633604 0.00124987
13.08305 798.62146 794.122406 780.934214 0.00125216
13.09185 798.22656 793.738939 781.235342 0.00125278
13.10066 798.19427 793.821777 781.537012 0.00125283
13.10947 798.00214 794.354028 781.839284 0.00125313
13.11828 797.39044 795.320686 782.142116 0.00125409
13.12708 797.46216 796.706359 782.445567 0.00125398
13.13589 798.1543 798.47044 782.749661 0.00125289
13.14470 799.42377 800.511145 783.054425 0.0012509
13.15350 800.43005 802.622392 783.359881 0.00124933
13.16231 800.51001 804.460533 783.66609 0.0012492
13.17112 800.42957 805.593813 783.973006 0.00124933
13.17993 800.53845 805.710166 784.280686 0.00124916
13.18873 800.79279 804.840786 784.589156 0.00124876
13.19754 800.42444 803.330024 784.898437 0.00124934
13.20635 800.1413 801.58962 785.208588 0.00124978
13.21515 799.33441 799.923463 785.519561 0.00125104
13.22396 798.56598 798.497448 785.831413 0.00125224
13.23277 798.39801 797.381336 786.144166 0.00125251
13.24157 799.17377 796.585948 786.457841 0.00125129
13.25038 799.86206 796.089278 786.772459 0.00125022
13.25919 800.65753 795.853161 787.088078 0.00124897
13.26800 801.95551 795.836599 787.404644 0.00124695
13.27680 805.15833 796.00379 787.722215 0.00124199
13.28561 810.8512 796.330609 788.040809 0.00123327
13.29442 811.24316 796.806408 788.360446 0.00123268
13.30323 810.72327 797.433862 788.681181 0.00123347
13.31203 811.26404 798.226016 789.002958 0.00123264
13.32084 808.99115 799.201767 789.325833 0.00123611
13.32965 805.54944 800.379122 789.649821 0.00124139
13.33845 805.38867 801.76783 789.974941 0.00124164
13.34726 804.66034 803.358275 790.301208 0.00124276
13.35607 804.9173 805.107361 790.628676 0.00124236
13.36488 805.82721 806.916901 790.957285 0.00124096
13.37368 806.86108 808.613388 791.287088 0.00123937
13.38249 807.22522 809.962988 791.618098 0.00123881
13.39130 807.6723 810.768215 791.950331 0.00123813
13.40010 808.17975 811.001544 792.283835 0.00123735
13.40891 808.8385 810.831418 792.61855 0.00123634
13.41772 809.36273 810.506674 792.954525 0.00123554
13.42652 810.20551 810.236863 793.291733 0.00123425
13.43533 811.10364 810.15625 793.630262 0.00123289
13.44414 811.59735 810.33882 793.970085 0.00123214
13.45295 812.43353 810.822696 794.311249 0.00123087
13.46175 813.28857 811.631484 794.653688 0.00122958
13.47056 814.39362 812.784225 794.997449 0.00122791
13.47937 816.383 814.313424 795.342541 0.00122492
13.48818 819.10059 816.280448 795.68897 0.00122085
13.49698 821.81946 818.793862 796.036784 0.00121681
13.50579 825.77118 822.030211 796.38591 0.00121099
13.51460 830.3255 826.253609 796.736394 0.00120435
13.52340 836.10486 831.832601 797.088241 0.00119602
13.53221 844.00018 839.237766 797.441456 0.00118483
13.54102 855.49225 849.020302 797.796043 0.00116892
13.54983 870.96588 861.755507 798.152047 0.00114815
13.55863 890.51166 877.949767 798.509388 0.00112295
13.56744 913.59265 897.907536 798.868111 0.00109458
13.57625 944.38208 921.567291 799.228216 0.00105889
13.58505 980.3067 948.235059 799.589705 0.00102009
13.59386 1015.7723 976.220481 799.95262 0.00098447
13.60267 1048.0446 1002.390917 800.316878 0.00095416
13.61148 1063.9514 1022.125701 800.682519 0.00093989
13.62028 1061.9617 1030.595377 801.049542 0.00094165
13.62909 1046.0305 1025.42508 801.417946 0.000956
13.63790 1014.6445 1008.409427 801.787726 0.00098557
13.64671 978.24603 984.201376 802.158924 0.00102224
13.65551 945.03485 957.595231 802.531449 0.00105816
13.66432 915.30743 931.98729 802.90534 0.00109253
13.67313 892.93542 909.286174 803.280591 0.0011199
13.68193 876.45959 890.328841 803.657197 0.00114095
13.69074 864.49725 875.294375 804.035195 0.00115674
13.69955 855.45605 863.968606 804.414491 0.00116897
13.70835 849.73029 855.914747 804.79512 0.00117684
13.71716 845.59497 850.631866 805.177075 0.0011826
13.72597 842.8772 847.646156 805.560347 0.00118641
13.73478 841.89911 846.568221 805.944925 0.00118779
13.74358 842.07074 847.119086 806.330844 0.00118755
13.75239 842.93512 849.128384 806.718006 0.00118633
13.76120 844.87567 852.530372 807.106442 0.00118361
13.77000 847.69391 857.357565 807.49614 0.00117967
13.77881 851.64276 863.690482 807.887089 0.0011742
13.78762 856.56403 871.54064 808.27932 0.00116746
13.79643 863.29388 880.701913 808.672729 0.00115835
13.80523 872.09589 890.666764 809.067347 0.00114666
13.81404 882.91888 900.462634 809.463159 0.00113261
13.82285 895.00098 908.797149 809.860149 0.00111732
13.83166 904.7052 914.369012 810.258347 0.00110533
13.84046 908.44574 916.210319 810.657645 0.00110078
13.84927 904.6806 913.905086 811.058071 0.00110536
13.85808 896.77124 907.76589 811.459608 0.00111511
13.86688 886.00879 898.886426 811.862237 0.00112866
13.87569 874.36084 888.760796 812.265939 0.00114369
13.88450 864.63477 878.719696 812.670741 0.00115656
13.89331 856.89758 869.666225 813.076531 0.001167
13.90211 851.20587 862.07914 813.483334 0.0011748
13.91092 847.56421 856.158764 813.891129 0.00117985
13.91973 845.93762 851.939124 814.299894 0.00118212
13.92854 845.52106 849.371731 814.709655 0.0011827
13.93734 846.20367 848.380928 815.120295 0.00118175
13.94615 847.03143 848.897931 815.531838 0.00118059
13.95496 849.6449 850.869776 815.94426 0.00117696
13.96376 854.55817 854.25344 816.35749 0.0011702
13.97257 860.68915 858.993505 816.771598 0.00116186
13.98138 867.28534 864.973793 817.186559 0.00115302
13.99018 875.66321 871.967411 817.602254 0.00114199
13.99899 883.36877 879.544773 818.018703 0.00113203
14.00780 891.57281 886.965215 818.43588 0.00112161
14.01661 900.34943 893.173754 818.85376 0.00111068
14.02541 905.31366 896.965144 819.272361 0.00110459
14.03422 908.17169 897.556384 819.691562 0.00110111
14.04303 906.80267 895.099257 820.111382 0.00110278
14.05183 900.11816 890.603102 820.531793 0.00111097
14.06064 893.72162 885.371443 820.952766 0.00111892
14.06945 888.54022 880.521219 821.374272 0.00112544
14.07826 884.08203 876.841943 821.796331 0.00113112
14.08706 882.96704 874.866145 822.218816 0.00113255
14.09587 881.86346 874.944697 822.641745 0.00113396
14.10468 883.03455 877.296285 823.065088 0.00113246
14.11348 887.09906 882.02642 823.488815 0.00112727
14.12229 892.02344 889.106249 823.912942 0.00112105
14.13110 898.66907 898.3432 824.337342 0.00111276
14.13991 908.25391 909.285435 824.762032 0.00110101
14.14871 917.23273 921.130902 825.18698 0.00109024
14.15752 924.01941 932.714645 825.612155 0.00108223
14.16633 928.76392 942.728878 826.037523 0.0010767
14.17513 930.88458 950.1373 826.463101 0.00107425
14.18394 931.03137 954.357915 826.88876 0.00107408
14.19275 929.89862 955.083239 827.314515 0.00107539
14.20156 926.38354 951.963578 827.740333 0.00107947
14.21036 921.95508 944.961115 828.166181 0.00108465
14.21917 916.44098 934.788091 828.592075 0.00109118
14.22798 910.17511 922.836394 829.017883 0.00109869
14.23678 904.66205 910.599946 829.443621 0.00110539
14.24559 899.69415 899.214472 829.869255 0.00111149
14.25440 894.83197 889.360353 830.294751 0.00111753
14.26321 889.74689 881.348798 830.720075 0.00112392
14.27201 884.75372 875.239949 831.145242 0.00113026
14.28082 881.54572 870.941614 831.570121 0.00113437
14.28963 879.7774 868.256789 831.994726 0.00113665
14.29843 877.6698 866.914488 832.419023 0.00113938
14.30724 875.00507 866.60118 832.842978 0.00114285
14.31605 872.79956 866.935381 833.266605 0.00114574
14.32486 871.22797 867.478729 833.689774 0.00114781
14.33366 870.49023 867.770792 834.112498 0.00114878
14.34247 869.55109 867.444749 834.534743 0.00115002
14.35128 867.63257 866.368206 834.956475 0.00115256
14.36008 864.72876 864.677006 835.377661 0.00115643
14.36889 862.51367 862.654461 835.798314 0.0011594
14.37770 861.4173 860.580662 836.218305 0.00116088
14.38651 859.84088 858.657884 836.637647 0.00116301
14.39531 858.05286 857.004801 837.056307 0.00116543
14.40412 856.87097 855.679085 837.474252 0.00116704
14.41293 856.02106 854.697138 837.891495 0.0011682
14.42174 855.10864 854.048937 838.307908 0.00116944
14.43054 853.67621 853.709825 838.723507 0.0011714
14.43935 853.06018 853.649841 839.138257 0.00117225
14.44816 853.13684 853.841286 839.552126 0.00117214
14.45696 853.76892 854.265884 839.965081 0.00117128
14.46577 854.30219 854.919744 840.377138 0.00117055
14.47458 855.21912 855.816334 840.78817 0.00116929
14.48339 856.28839 856.990025 841.198192 0.00116783
14.49219 858.24396 858.496439 841.607172 0.00116517
14.50100 860.41504 860.411395 842.015034 0.00116223
14.50981 863.26105 862.82898 842.421884 0.0011584
14.51861 866.27954 865.853642 842.827554 0.00115436
14.52742 869.85443 869.59064 843.232058 0.00114962
14.53623 873.84076 874.132099 843.635368 0.00114437
14.54504 879.23853 879.535159 844.037452 0.00113735
14.55384 885.16986 885.792275 844.438327 0.00112973
14.56265 891.7287 892.787583 844.837873 0.00112142
14.57146 898.68182 900.25031 845.236106 0.00111274
14.58026 905.19397 907.72094 845.632998 0.00110474
14.58907 911.56042 914.605799 846.028521 0.00109702
14.59788 915.237 920.343558 846.422648 0.00109261
14.60669 918.26801 924.576629 846.815395 0.00108901
14.61549 918.27899 927.144947 847.206646 0.00108899
14.62430 918.75385 927.941534 847.59642 0.00108843
14.63311 917.01221 926.876098 847.984691 0.0010905
14.64191 914.42621 924.072929 848.371433 0.00109358
14.65072 908.78125 920.047322 848.756665 0.00110037
14.65953 903.72028 915.613485 849.140274 0.00110654
14.66834 900.07605 911.621194 849.522281 0.00111102
14.67714 898.72412 908.771616 849.902661 0.00111269
14.68595 897.43634 907.573771 850.281392 0.00111429
14.69476 898.49554 908.371629 850.65845 0.00111297
14.70356 901.37805 911.381831 851.033857 0.00110941
14.71237 906.38263 916.704759 851.407505 0.00110329
14.72118 914.82898 924.321411 851.779416 0.0010931
14.72999 926.0188 934.067429 852.149568 0.00107989
14.73879 940.22791 945.573487 852.517944 0.00106357
14.74760 956.71198 958.183203 852.884563 0.00104525
14.75641 973.40228 970.876006 853.249324 0.00102732
14.76521 990.60846 982.332973 853.612251 0.00100948
14.77402 1006.1929 991.288725 853.973325 0.00099385
14.78283 1016.3715 997.082558 854.332529 0.00098389
14.79164 1023.3334 999.957709 854.689847 0.0009772
14.80044 1027.267 1000.759287 855.045303 0.00097346
14.80925 1027.6584 1000.255796 855.398801 0.00097309
14.81806 1024.4113 998.645618 855.750366 0.00097617
14.82686 1016.145 995.470651 856.099984 0.00098411
14.83567 1002.5734 989.954033 856.447642 0.00099743
14.84448 986.33667 981.630214 856.793365 0.00101385
14.85329 968.6225 970.790884 857.137063 0.00103239
14.86209 951.27643 958.396257 857.478763 0.00105122
14.87090 935.87787 945.599426 857.818455 0.00106852
14.87971 921.9101 933.336339 858.156127 0.0010847
14.88851 910.11414 922.200975 858.49177 0.00109876
14.89732 901.46936 912.490431 858.825412 0.0011093
14.90613 894.84534 904.294946 859.15697 0.00111751
14.91494 889.02075 897.572701 859.486472 0.00112483
14.92374 883.64441 892.200814 859.813913 0.00113168
14.93255 879.51837 888.0084 860.139285 0.00113699
14.94136 877.99866 884.806967 860.462618 0.00113895
14.95017 876.67249 882.411072 860.783835 0.00114068
14.95897 875.41077 880.649286 861.102967 0.00114232
14.96778 874.23364 879.37738 861.420011 0.00114386
14.97659 873.67505 878.479543 861.734963 0.00114459
14.98539 873.42865 877.867542 862.04782 0.00114491
14.99420 873.18237 877.478125 862.358615 0.00114524
15.00301 872.71729 877.268925 862.667278 0.00114585
15.01182 873.23828 877.21354 862.973841 0.00114516
15.02062 873.74524 877.299679 863.278306 0.0011445
15.02943 874.62335 877.526628 863.580673 0.00114335
15.03824 876.16309 877.904348 863.880943 0.00114134
15.04704 877.88397 878.453624 864.179119 0.0011391
15.05585 878.35504 879.206248 864.475202 0.00113849
15.06466 879.0188 880.20424 864.769196 0.00113763
15.07347 880.54987 881.498783 865.061105 0.00113565
15.08227 882.92352 883.148212 865.350966 0.0011326
15.09108 884.86066 885.211652 865.638719 0.00113012
15.09989 887.02539 887.744069 865.924402 0.00112736
15.10869 890.43164 890.788359 866.208022 0.00112305
15.11750 893.60034 894.363114 866.489586 0.00111907
15.12631 896.43805 898.449205 866.769102 0.00111553
15.13512 899.90686 902.972491 867.046609 0.00111123
15.14392 903.9386 907.773045 867.322054 0.00110627
15.15273 908.44977 912.589428 867.595477 0.00110078
15.16154 912.93854 917.072031 867.866889 0.00109536
15.17034 916.92395 920.866361 868.1363 0.0010906
15.17915 919.0697 923.759107 868.403753 0.00108806
15.18796 919.86115 925.773653 868.669198 0.00108712
15.19677 920.77875 927.119321 868.932679 0.00108604
15.20557 922.03717 928.030063 869.194208 0.00108455
15.21438 924.19647 928.646409 869.453799 0.00108202
15.22319 925.67273 929.006494 869.711467 0.0010803
15.23199 925.86542 929.118708 869.967255 0.00108007
15.24080 925.70245 929.024591 870.221121 0.00108026
15.24961 925.48547 928.81514 870.47311 0.00108051
15.25842 925.77985 928.622164 870.723238 0.00108017
15.26722 927.22821 928.615018 870.971522 0.00107848
15.27603 929.26111 928.962057 871.218007 0.00107612
15.28484 931.47058 929.754042 871.462657 0.00107357
15.29364 935.94312 930.970376 871.705516 0.00106844
15.30245 940.6687 932.421315 871.946604 0.00106307
15.31126 944.11981 933.883423 872.185941 0.00105919
15.32007 946.21881 935.139019 872.423547 0.00105684
15.32887 947.29962 936.093498 872.659469 0.00105563
15.33768 946.97461 936.744532 872.893673 0.00105599
15.34649 945.91101 937.115148 873.126209 0.00105718
15.35529 943.86829 937.218779 873.357097 0.00105947
15.36410 941.23895 937.068504 873.586361 0.00106243
15.37291 938.09668 936.688267 873.814048 0.00106599
15.38172 936.57153 936.106337 874.04013 0.00106772
15.39052 936.05176 935.382777 874.264655 0.00106832
15.39933 936.51422 934.674782 874.487649 0.00106779
15.40814 937.85895 934.269119 874.709134 0.00106626
15.41695 939.85938 934.544763 874.929135 0.00106399
15.42575 942.72998 935.879433 875.147702 0.00106075
15.43456 947.21851 938.564675 875.364811 0.00105572
15.44337 953.20679 942.754988 875.580511 0.00104909
15.45217 960.2652 948.446683 875.794828 0.00104138
15.46098 969.0296 955.453242 876.007789 0.00103196
15.46979 976.97986 963.395354 876.219443 0.00102356
15.47860 985.46277 971.70484 876.429769 0.00101475
15.48740 991.50787 979.652156 876.638818 0.00100856
15.49621 996.80493 986.382071 876.846618 0.00100321
15.50502 1000.1937 990.964299 877.053194 0.00099981
15.51382 1002.215 992.525158 877.258576 0.00099779
15.52263 999.60266 990.538143 877.462813 0.0010004
15.53144 993.92651 985.105197 877.665888 0.00100611
15.54025 985.25476 976.963817 877.867851 0.00101497
15.54905 975.3186 967.18555 878.068731 0.00102531
15.55786 964.17151 956.808466 878.268556 0.00103716
15.56667 955.1228 946.639911 878.467377 0.00104699
15.57547 947.02875 937.22139 878.665156 0.00105593
15.58428 938.52161 928.863241 878.861988 0.00106551
15.59309 930.64789 921.712242 879.05788 0.00107452
15.60190 923.90527 915.800172 879.252861 0.00108236
15.61070 918.02264 911.078074 879.446981 0.0010893
15.61951 913.18951 907.448076 879.640226 0.00109506
15.62832 909.23694 904.788164 879.832648 0.00109982
15.63712 906.40668 902.972624 880.024274 0.00110326
15.64593 904.39575 901.88595 880.215134 0.00110571
15.65474 903.58453 901.433229 880.405258 0.0011067
15.66355 903.96057 901.542432 880.594695 0.00110624
15.67235 904.37323 902.162545 880.783432 0.00110574
15.68116 904.70178 903.258572 880.971519 0.00110534
15.68997 904.61322 904.80167 881.158985 0.00110544
15.69877 904.93042 906.760333 881.34586 0.00110506
15.70758 905.58484 909.089097 881.532193 0.00110426
15.71639 906.94562 911.722433 881.71797 0.0011026
15.72520 909.28162 914.575868 881.903241 0.00109977
15.73400 911.78998 917.544495 882.088034 0.00109674
15.74281 913.40845 920.498226 882.272379 0.0010948
15.75162 915.36188 923.27642 882.456303 0.00109246
15.76042 917.19293 925.695627 882.639854 0.00109028
15.76923 918.64044 927.58847 882.823019 0.00108857
15.77804 919.60156 928.835062 883.005847 0.00108743
15.78685 920.5722 929.423514 883.188365 0.00108628
15.79565 921.19196 929.373547 883.370599 0.00108555
15.80446 920.58661 928.784523 883.552598 0.00108626
15.81327 919.448 927.839471 883.734347 0.00108761
15.82207 919.02942 926.78924 883.915893 0.0010881
15.83088 918.71765 925.900861 884.097262 0.00108847
15.83969 919.29358 925.394751 884.27848 0.00108779
15.84850 920.05432 925.40881 884.459573 0.00108689
15.85730 920.54126 925.982186 884.640586 0.00108632
15.86611 922.4519 927.058162 884.821504 0.00108407
15.87492 925.1123 928.494151 885.002371 0.00108095
15.88373 927.57233 930.062387 885.183212 0.00107808
15.89253 928.78632 931.484016 885.36405 0.00107667
15.90134 929.7149 932.473753 885.544931 0.0010756
15.91015 929.76929 932.801537 885.725835 0.00107554
15.91895 929.86115 932.369103 885.906807 0.00107543
15.92776 928.84991 931.254443 886.087868 0.0010766
15.93657 927.48224 929.691828 886.269041 0.00107819
15.94538 925.19281 927.991514 886.450347 0.00108086
15.95418 923.91425 926.453157 886.631828 0.00108235
15.96299 923.55383 925.319034 886.813464 0.00108277
15.97180 924.18481 924.756959 886.995295 0.00108203
15.98060 924.80103 924.868637 887.177341 0.00108131
15.98941 926.26166 925.69079 887.359622 0.00107961
15.99822 928.54327 927.197378 887.542176 0.00107696
16.00702 931.35388 929.299426 887.724961 0.00107371
16.01583 934.45636 931.857579 887.908078 0.00107014
16.02464 937.32129 934.707727 888.09146 0.00106687
16.03345 939.96637 937.713552 888.275207 0.00106387
16.04225 941.10077 940.784701 888.459253 0.00106259
16.05106 942.5946 943.867038 888.643718 0.0010609
16.05987 943.87982 946.87612 888.828492 0.00105946
16.06868 946.55042 949.641535 889.013693 0.00105647
16.07748 950.15405 951.879101 889.199254 0.00105246
16.08629 953.77246 953.23707 889.385271 0.00104847
16.09510 955.83905 953.414433 889.571694 0.0010462
16.10391 957.01984 952.304593 889.758578 0.00104491
16.11271 955.56421 950.083999 889.945872 0.0010465
16.12152 952.21808 947.135111 890.133672 0.00105018
16.13032 948.39038 943.928189 890.321903 0.00105442
16.13913 944.16547 940.894596 890.510662 0.00105914
16.14794 941.0307 938.375335 890.699894 0.00106266
16.15675 939.19434 936.606852 890.88965 0.00106474
16.16555 937.14075 935.734789 891.079876 0.00106708
16.17436 937.12842 935.825785 891.270665 0.00106709
16.18317 937.89709 936.873196 891.461938 0.00106622
16.19198 938.58643 938.802276 891.65381 0.00106543
16.20078 940.13739 941.464846 891.846157 0.00106367
16.20959 943.20044 944.635802 892.039093 0.00106022
16.21840 946.24976 948.005368 892.232537 0.0010568
16.22721 948.48199 951.193121 892.426579 0.00105432
16.23601 950.42651 953.790627 892.621158 0.00105216
16.24482 951.66418 955.46826 892.816321 0.00105079
16.25363 952.94208 956.088849 893.012004 0.00104938
16.26243 953.6889 955.771557 893.208298 0.00104856
16.27124 953.59106 954.840437 893.405115 0.00104867
16.28005 952.33295 953.703229 893.602545 0.00105005
16.28886 952.89294 952.740692 893.800521 0.00104944
16.29766 953.00677 952.245196 893.999087 0.00104931
16.30647 955.94897 952.41109 894.198175 0.00104608
16.31528 958.56659 953.339315 894.397873 0.00104322
16.32408 962.77936 955.046314 894.598089 0.00103866
16.33289 965.81555 957.47421 894.79891 0.00103539
16.34170 972.11499 960.507123 895.000264 0.00102868
16.35051 976.80475 964.011518 895.202194 0.00102375
16.35931 983.03723 967.913708 895.404625 0.00101726
16.36812 986.28381 972.282273 895.607645 0.00101391
16.37693 992.67487 977.353271 895.811155 0.00100738
16.38573 998.00897 983.489774 896.015218 0.001002
16.39454 1006.3604 991.077917 896.219827 0.00099368
16.40335 1012.7823 1000.414013 896.424906 0.00098738
16.41215 1022.8616 1011.65158 896.630538 0.00097765
16.42096 1031.7896 1024.74007 896.836623 0.00096919
16.42977 1046.0669 1039.397014 897.043267 0.00095596
16.43858 1057.7994 1055.038747 897.250322 0.00094536
16.44738 1073.4091 1070.780276 897.457892 0.00093161
16.45619 1086.7466 1085.391921 897.665875 0.00092018
16.46500 1096.7091 1097.441864 897.874352 0.00091182
16.47380 1099.5464 1105.510221 898.083218 0.00090947
16.48261 1096.7047 1108.534973 898.292578 0.00091182
16.49142 1091.0066 1106.104061 898.502278 0.00091658
16.50023 1083.0425 1098.588077 898.712423 0.00092332
16.50903 1073.2406 1087.032364 898.922903 0.00093176
16.51784 1059.25 1072.833225 899.133801 0.00094406
16.52665 1044.8665 1057.397106 899.345029 0.00095706
16.53546 1026.6844 1041.886819 899.556621 0.00097401
16.54426 1009.895 1027.130826 899.768489 0.0009902
16.55307 995.78229 1013.630027 899.980713 0.00100424
16.56188 984.92188 1001.647259 900.19318 0.00101531
16.57068 975.91815 991.268645 900.40597 0.00102468
16.57949 969.95538 982.500322 900.618993 0.00103098
16.58830 964.45453 975.305934 900.83228 0.00103686
16.59710 960.01813 969.614735 901.045741 0.00104165
16.60591 955.74805 965.307177 901.259453 0.0010463
16.61472 953.43365 962.20847 901.473302 0.00104884
16.62353 952.4646 960.085469 901.687389 0.00104991
16.63233 952.47156 958.676886 901.90155 0.0010499
16.64114 952.44104 957.718806 902.115886 0.00104993
16.64995 951.94952 956.973965 902.330279 0.00105048
16.65876 951.43695 956.239126 902.544808 0.00105104
16.66756 951.0144 955.33154 902.759354 0.00105151
16.67637 949.47516 954.081036 902.974018 0.00105321
16.68518 947.71558 952.354366 903.188632 0.00105517
16.69399 944.96796 950.095152 903.403298 0.00105824
16.70279 941.97577 947.355745 903.617896 0.0010616
16.71160 938.77075 944.27809 903.832501 0.00106522
16.72041 935.47607 941.049203 904.04702 0.00106897
16.72921 931.97925 937.845927 904.261478 0.00107299
16.73802 929.12292 934.809623 904.47578 0.00107628
16.74683 927.1322 932.036527 904.690001 0.00107859
16.75563 925.30835 929.587102 904.904021 0.00108072
16.76444 923.36554 927.488465 905.117915 0.00108299
16.77325 921.97034 925.747689 905.331586 0.00108463
16.78206 921.49255 924.352915 905.545061 0.0010852
16.79086 920.61615 923.280053 905.758243 0.00108623
16.79967 920.1922 922.495351 905.971207 0.00108673
16.80848 920.7746 921.960116 906.183832 0.00108604
16.81729 920.97882 921.632197 906.396216 0.0010858
16.82609 921.04224 921.471216 906.608192 0.00108573
16.83490 920.6767 921.43956 906.819855 0.00108616
16.84371 920.29279 921.504196 907.031088 0.00108661
16.85251 920.86145 921.634832 907.241962 0.00108594
16.86132 921.42407 921.804359 907.452358 0.00108528
16.87013 921.87207 921.984954 907.662374 0.00108475
16.87893 922.10455 922.153369 907.871842 0.00108448
16.88774 922.198 922.296405 908.080859 0.00108437
16.89655 922.3327 922.415677 908.289308 0.00108421
16.90536 922.25415 922.528219 908.497259 0.0010843
16.91416 922.63177 922.661363 908.704619 0.00108386
16.92297 923.21069 922.846147 908.911366 0.00108318
16.93178 923.72931 923.112024 909.117548 0.00108257
16.94058 924.84338 923.483952 909.323049 0.00108126
16.94939 925.53259 923.984597 909.52794 0.00108046
16.95820 926.34302 924.63189 909.732129 0.00107951
16.96701 927.04218 925.442549 909.935642 0.0010787
16.97581 928.15814 926.432235 910.138388 0.0010774
16.98462 930.0387 927.61701 910.340436 0.00107522
16.99343 932.39246 929.012158 910.541676 0.00107251
17.00223 934.58521 930.635058 910.742177 0.00106999
17.01104 937.56958 932.503191 910.94185 0.00106659
17.01985 940.40265 934.640043 911.140722 0.00106337
17.02866 943.66583 937.080183 911.338704 0.0010597
17.03746 946.58325 939.878598 911.535866 0.00105643
17.04627 950.16669 943.107769 911.732101 0.00105245
17.05508 953.47205 946.856905 911.9275 0.0010488
17.06388 958.17383 951.20315 912.121912 0.00104365
17.07269 963.32196 956.202375 912.315429 0.00103807
17.08150 969.28705 961.862015 912.507946 0.00103169
17.09031 975.909 968.133115 912.699533 0.00102469
17.09911 983.92413 974.884534 912.890086 0.00101634
17.10792 992.57172 981.904642 913.079695 0.00100748
17.11673 1002.8981 988.866606 913.268217 0.00099711
17.12554 1012.8286 995.35238 913.455742 0.00098733
17.13434 1021.925 1000.872649 913.642171 0.00097855
17.14315 1027.9957 1004.956499 913.827572 0.00097277
17.15196 1031.5762 1007.253228 914.011868 0.00096939
17.16077 1029.1389 1007.628591 914.195088 0.00097169
17.16957 1024.6793 1006.19104 914.377155 0.00097592
17.17838 1018.3097 1003.255028 914.55814 0.00098202
17.18718 1011.1318 999.267915 914.737947 0.00098899
17.19599 1002.5565 994.723072 914.916647 0.00099745
17.20480 994.76331 990.089407 915.094167 0.00100526
17.21361 988.10809 985.747614 915.270537 0.00101204
17.22241 983.7514 981.976323 915.445686 0.00101652
17.23122 979.81287 978.935973 915.619685 0.0010206
17.24003 977.3092 976.680295 915.792444 0.00102322
17.24884 975.24731 975.162708 915.964053 0.00102538
17.25764 974.16302 974.243519 916.134388 0.00102652
17.26645 973.75146 973.699613 916.303537 0.00102696
17.27526 973.13599 973.249188 916.471417 0.00102761
17.28406 971.81439 972.590501 916.638098 0.001029
17.29287 971.02753 971.466102 916.803497 0.00102984
17.30168 968.9422 969.726674 916.967704 0.00103205
17.31049 965.9411 967.365198 917.130602 0.00103526
17.31929 962.07697 964.497779 917.292279 0.00103942
17.32810 959.10028 961.314026 917.452659 0.00104264
17.33691 955.72546 958.015878 917.611812 0.00104633
17.34571 952.30316 954.785679 917.769681 0.00105009
17.35452 949.7655 951.76697 917.9263 0.00105289
17.36333 947.91913 949.068958 918.081615 0.00105494
17.37214 945.6778 946.769597 918.235696 0.00105744
17.38094 943.61694 944.924958 918.388473 0.00105975
17.38975 942.2771 943.57217 918.540017 0.00106126
17.39856 942.12598 942.736405 918.690276 0.00106143
17.40737 942.39966 942.431134 918.839287 0.00106112
17.41617 942.04376 942.661516 918.987003 0.00106152
17.42498 941.65033 943.426292 919.133492 0.00106197
17.43379 942.63751 944.715096 919.278693 0.00106085
17.44260 944.46466 946.509956 919.422692 0.0010588
17.45140 946.92273 948.779211 919.565396 0.00105605
17.46021 948.78235 951.477452 919.706859 0.00105398
17.46901 951.35687 954.540287 919.84712 0.00105113
17.47782 954.30121 957.879471 919.986122 0.00104789
17.48663 958.0307 961.381976 920.123934 0.00104381
17.49544 962.66058 964.898581 920.260519 0.00103879
17.50424 967.08722 968.247444 920.395915 0.00103403
17.51305 971.0661 971.20511 920.530085 0.0010298
17.52186 974.21875 973.534096 920.6631 0.00102646
17.53066 976.68903 975.020942 920.794909 0.00102387
17.53947 977.21588 975.538313 920.925599 0.00102332
17.54828 975.29803 975.097677 921.05509 0.00102533
17.55709 970.94812 973.84782 921.18347 0.00102992
17.56589 965.83783 972.041038 921.310691 0.00103537
17.57470 962.02319 969.967829 921.436824 0.00103948
17.58351 959.38055 967.910108 921.561839 0.00104234
17.59232 957.57129 966.110747 921.685779 0.00104431
17.60112 957.05267 964.770249 921.808616 0.00104487
17.60993 957.73639 964.045692 921.930421 0.00104413
17.61874 958.6189 964.060674 922.051153 0.00104317
17.62754 959.99603 964.906293 922.170882 0.00104167
17.63635 962.97522 966.643109 922.289585 0.00103845
17.64516 967.03888 969.303929 922.407305 0.00103408
17.65396 971.03156 972.889566 922.524018 0.00102983
17.66277 976.49817 977.371375 922.639796 0.00102407
17.67158 981.99921 982.680071 922.754603 0.00101833
17.68039 988.32135 988.705447 922.868509 0.00101182
17.68919 994.70758 995.279909 922.981496 0.00100532
17.69800 1002.2787 1002.181773 923.093606 0.00099773
17.70681 1008.8433 1009.140432 923.204821 0.00099123
17.71562 1016.277 1015.873213 923.315213 0.00098398
17.72442 1023.5884 1022.126629 923.424749 0.00097696
17.73323 1030.8955 1027.733977 923.533513 0.00097003
17.74204 1035.0092 1032.618302 923.641451 0.00096617
17.75085 1040.5898 1036.770844 923.748645 0.00096099
17.75965 1045.1302 1040.210282 923.855068 0.00095682
17.76846 1050.8505 1042.881041 923.96079 0.00095161
17.77727 1055.8588 1044.667422 924.065795 0.0009471
17.78607 1061.7659 1045.430307 924.170129 0.00094183
17.79488 1065.7225 1045.092147 924.27378 0.00093833
17.80369 1067.8302 1043.726822 924.376815 0.00093648
17.81249 1067.392 1041.586434 924.479211 0.00093686
17.82130 1064.0504 1039.057732 924.581037 0.00093981
17.83011 1058.9121 1036.573036 924.68228 0.00094437
17.83892 1051.5923 1034.520568 924.782985 0.00095094
17.84772 1044.918 1033.184027 924.883143 0.00095701
17.85653 1040.1586 1032.720019 924.98282 0.00096139
17.86534 1037.9713 1033.148211 925.081994 0.00096342
17.87415 1037.6432 1034.361387 925.180745 0.00096372
17.88295 1040.0883 1036.132827 925.279028 0.00096146
17.89176 1042.4506 1038.143699 925.376922 0.00095928
17.90057 1044.6735 1040.015899 925.474406 0.00095724
17.90937 1047.0693 1041.375862 925.571546 0.00095505
17.91818 1048.7445 1041.910678 925.668322 0.00095352
17.92699 1047.0522 1041.43813 925.764811 0.00095506
17.93579 1042.7737 1039.947062 925.860969 0.00095898
17.94460 1035.8328 1037.596421 925.956875 0.00096541
17.95341 1028.2939 1034.671025 926.052507 0.00097248
17.96222 1021.2679 1031.496866 926.147931 0.00097918
17.97102 1015.2521 1028.367513 926.243135 0.00098498
17.97983 1010.3148 1025.486882 926.338165 0.00098979
17.98864 1007.127 1022.946016 926.433009 0.00099292
17.99744 1005.1227 1020.714332 926.52771 0.0009949
18.00625 1004.5809 1018.655586 926.622311 0.00099544
18.01506 1004.2952 1016.549208 926.716801 0.00099572
18.02387 1004.7218 1014.136286 926.811222 0.0009953
18.03267 1003.4042 1011.21291 926.905562 0.00099661
18.04148 1000.8347 1007.660335 926.999885 0.00099917
18.05029 996.3429 1003.50601 927.094166 0.00100367
18.05909 990.18646 998.89199 927.188469 0.00100991
18.06790 985.00671 994.026321 927.28278 0.00101522
18.07671 980.08588 989.120929 927.377139 0.00102032
18.08552 975.04352 984.356726 927.471533 0.0010256
18.09432 970.85809 979.860346 927.566022 0.00103002
18.10313 968.19305 975.71273 927.660581 0.00103285
18.11194 965.89587 971.949722 927.75527 0.00103531
18.12074 964.1391 968.579172 927.850072 0.00103719
18.12955 961.57886 965.590645 927.945026 0.00103996
18.13836 959.44324 962.970508 928.040115 0.00104227
18.14717 957.69281 960.706636 928.135396 0.00104418
18.15597 956.23492 958.795269 928.230842 0.00104577
18.16478 955.40503 957.233391 928.32652 0.00104668
18.17359 954.38824 956.017979 928.422378 0.00104779
18.18240 953.18561 955.13749 928.518483 0.00104911
18.19120 952.74426 954.571979 928.614805 0.0010496
18.20001 952.52051 954.293806 928.711398 0.00104985
18.20882 952.81525 954.265534 928.80824 0.00104952
18.21763 953.48712 954.443148 928.905365 0.00104878
18.22643 954.00305 954.778483 929.002748 0.00104821
18.23524 954.41412 955.220073 929.100442 0.00104776
18.24404 954.3808 955.712075 929.198413 0.0010478
18.25285 953.73712 956.193536 929.296712 0.00104851
18.26166 953.98688 956.596953 929.395312 0.00104823
18.27047 954.91785 956.85221 929.494242 0.00104721
18.27927 955.51251 956.898365 929.593475 0.00104656
18.28808 955.29053 956.698424 929.693061 0.0010468
18.29689 954.7547 956.251848 929.792957 0.00104739
18.30570 954.15771 955.596313 929.893214 0.00104804
18.31450 953.78381 954.798454 929.993799 0.00104846
18.32331 953.51331 953.937902 930.094738 0.00104875
18.33212 952.84796 953.093773 930.195998 0.00104949
18.34092 952.4162 952.335465 930.297625 0.00104996
18.34973 952.99036 951.720836 930.399572 0.00104933
18.35854 953.32513 951.294893 930.501896 0.00104896
18.36735 952.72961 951.09245 930.604527 0.00104962
18.37615 952.271 951.138902 930.707519 0.00105012
18.38496 952.51428 951.451699 930.810823 0.00104985
18.39377 953.46429 952.041063 930.914481 0.00104881
18.40257 954.70471 952.909079 931.018453 0.00104744
18.41138 956.14307 954.050569 931.122758 0.00104587
18.42019 957.87683 955.450665 931.227352 0.00104398
18.42900 960.14185 957.085767 931.332277 0.00104151
18.43780 962.62402 958.920421 931.437477 0.00103883
18.44661 965.90112 960.908824 931.54299 0.0010353
18.45542 969.67523 962.992359 931.648772 0.00103127
18.46423 973.11041 965.106198 931.754836 0.00102763
18.47303 975.48639 967.186498 931.861135 0.00102513
18.48184 977.52631 969.189124 931.967704 0.00102299
18.49065 978.50085 971.101849 932.074484 0.00102197
18.49945 979.43231 972.957252 932.18151 0.001021
18.50826 980.78699 974.825185 932.28873 0.00101959
18.51707 981.91589 976.7971 932.396154 0.00101842
18.52587 982.76447 978.960527 932.503731 0.00101754
18.53468 984.3913 981.384403 932.611468 0.00101586
18.54349 986.7644 984.103658 932.719373 0.00101341
18.55230 989.55054 987.113527 932.827391 0.00101056
18.56110 992.92352 990.374401 932.935528 0.00100713
18.56991 995.95856 993.812429 933.043729 0.00100406
18.57872 999.74829 997.32351 933.152024 0.00100025
18.58752 1002.2429 1000.771337 933.260341 0.00099776
18.59633 1005.096 1003.990994 933.368723 0.00099493
18.60514 1006.8375 1006.79081 933.477073 0.00099321
18.61395 1007.4211 1008.985419 933.585431 0.00099263
18.62275 1008.0068 1010.427831 933.693724 0.00099206
18.63156 1008.3544 1011.052143 933.801979 0.00099171
18.64037 1007.0072 1010.890933 933.910134 0.00099304
18.64918 1004.7139 1010.066156 934.01819 0.00099531
18.65798 1002.3747 1008.756025 934.126085 0.00099763
18.66679 1000.5613 1007.1557 934.233842 0.00099944
18.67560 998.35699 1005.454936 934.341386 0.00100165
18.68440 996.41571 1003.813693 934.448739 0.0010036
18.69321 994.80365 1002.350838 934.555838 0.00100522
18.70202 993.57361 1001.136285 934.66268 0.00100647
18.71082 993.19794 1000.181515 934.769201 0.00100685
18.71963 994.03815 999.436413 934.87542 0.001006
18.72844 996.34662 998.799421 934.981261 0.00100367
18.73725 998.46692 998.127688 935.086744 0.00100154
18.74605 999.75928 997.26545 935.191802 0.00100024
18.75486 999.92798 996.080709 935.296431 0.00100007
18.76367 999.2489 994.49533 935.400565 0.00100075
18.77248 997.2489 992.498487 935.504221 0.00100276
18.78128 993.38501 990.142157 935.607323 0.00100666
18.79009 988.60052 987.51371 935.709897 0.00101153
18.79890 984.18201 984.713909 935.811844 0.00101607
18.80770 981.19092 981.832645 935.913191 0.00101917
18.81651 978.86536 978.944991 936.013861 0.00102159
18.82532 974.81439 976.103186 936.113869 0.00102584
18.83413 971.58246 973.34496 936.213151 0.00102925
18.84293 968.98181 970.698904 936.311696 0.00103201
18.85174 966.52911 968.189715 936.409443 0.00103463
18.86055 964.93268 965.840571 936.506403 0.00103634
18.86935 964.1651 963.676258 936.602502 0.00103717
18.87816 962.89294 961.716501 936.697753 0.00103854
18.88697 961.83069 959.978205 936.792092 0.00103968
18.89578 961.09821 958.473927 936.885512 0.00104048
18.90458 960.01428 957.21368 936.97795 0.00104165
18.91339 959.92523 956.205268 937.069418 0.00104175
18.92220 960.19092 955.456954 937.159844 0.00104146
18.93100 959.83228 954.977105 937.249241 0.00104185
18.93981 959.70441 954.775492 937.337549 0.00104199
18.94862 959.94617 954.863605 937.424759 0.00104173
18.95743 960.55743 955.254442 937.510813 0.00104106
18.96623 961.21759 955.962395 937.595723 0.00104035
18.97504 961.82782 957.000801 937.679422 0.00103969
18.98385 963.18604 958.383094 937.76193 0.00103822
18.99265 964.28546 960.116458 937.843166 0.00103704
19.00146 965.38977 962.204028 937.923149 0.00103585
19.01027 966.48511 964.638389 938.001817 0.00103468
19.01908 967.58905 967.402402 938.079182 0.0010335
19.02788 968.9201 970.461184 938.155193 0.00103208
19.03669 970.70508 973.764326 938.229843 0.00103018
19.04550 973.21234 977.236327 938.303085 0.00102752
19.05431 975.99261 980.778677 938.37493 0.0010246
19.06311 978.88171 984.26156 938.445324 0.00102157
19.07192 980.96704 987.530308 938.514262 0.0010194
19.08073 984.10376 990.411236 938.581749 0.00101615
19.08953 986.48169 992.727022 938.647719 0.0010137
19.09834 988.19263 994.328526 938.712192 0.00101195
19.10715 989.74695 995.116175 938.775121 0.00101036
19.11595 990.04132 995.057332 938.83652 0.00101006
19.12476 988.42963 994.19254 938.896351 0.00101171
19.13357 986.55054 992.614822 938.954614 0.00101363
19.14238 984.25433 990.458505 939.011276 0.001016
19.15118 981.45392 987.878998 939.066352 0.0010189
19.15999 978.42969 985.04055 939.119804 0.00102205
19.16880 975.56567 982.095975 939.171647 0.00102505
19.17760 973.15076 979.183527 939.221855 0.00102759
19.18641 970.95074 976.415345 939.270431 0.00102992
19.19522 969.37915 973.878089 939.317351 0.00103159
19.20403 968.31824 971.631638 939.362633 0.00103272
19.21283 967.56494 969.715596 939.406251 0.00103352
19.22164 966.91461 968.147848 939.448226 0.00103422
19.23045 966.22797 966.93457 939.488529 0.00103495
19.23926 966.70093 966.069079 939.527182 0.00103445
19.24806 967.09576 965.538763 939.564168 0.00103402
19.25687 967.22406 965.326251 939.599505 0.00103389
19.26568 967.76794 965.412431 939.633182 0.00103331
19.27448 968.77917 965.776817 939.665222 0.00103223
19.28329 969.64563 966.400111 939.695608 0.0010313
19.29210 970.6936 967.267375 939.724366 0.00103019
19.30091 971.22723 968.370479 939.751491 0.00102963
19.30971 972.09943 969.71352 939.777006 0.0010287
19.31852 972.73462 971.310803 939.800913 0.00102803
19.32733 973.35358 973.18635 939.82323 0.00102738
19.33613 974.22339 975.367499 939.843963 0.00102646
19.34494 975.05914 977.879948 939.863139 0.00102558
19.35375 976.909 980.737701 939.880764 0.00102364
19.36256 978.81885 983.945198 939.896865 0.00102164
19.37136 980.59247 987.487522 939.911457 0.00101979
19.38017 983.62915 991.335927 939.924563 0.00101664
19.38898 986.51678 995.445794 939.936202 0.00101367
19.39778 988.91498 999.76063 939.946402 0.00101121
19.40659 992.34991 1004.204721 939.955185 0.00100771
19.41540 995.91211 1008.692878 939.962582 0.0010041
19.42421 999.89014 1013.114245 939.968615 0.00100011
19.43301 1005.2903 1017.343161 939.973317 0.00099474
19.44182 1010.0622 1021.231375 939.976717 0.00099004
19.45063 1014.0518 1024.621693 939.978849 0.00098614
19.45943 1018.0256 1027.362279 939.979744 0.00098229
19.46824 1020.6118 1029.343832 939.979437 0.0009798
19.47705 1020.7926 1030.52428 939.977966 0.00097963
19.48586 1019.4132 1030.950413 939.975365 0.00098096
19.49466 1017.5192 1030.747166 939.971674 0.00098278
19.50347 1015.3036 1030.087694 939.966932 0.00098493
19.51228 1012.7866 1029.156877 939.961181 0.00098737
19.52109 1010.8783 1028.117196 939.954461 0.00098924
19.52989 1010.7561 1027.093696 939.946818 0.00098936
19.53870 1012.1166 1026.167266 939.938293 0.00098803
19.54751 1013.3463 1025.379589 939.928935 0.00098683
19.55631 1014.5092 1024.737117 939.918785 0.0009857
19.56512 1016.6235 1024.218207 939.907896 0.00098365
19.57393 1018.7382 1023.77712 939.896312 0.00098161
19.58273 1021.1752 1023.358248 939.884087 0.00097926
19.59154 1023.9078 1022.910745 939.871266 0.00097665
19.60035 1026.358 1022.405476 939.857907 0.00097432
19.60916 1028.6829 1021.842699 939.844056 0.00097212
19.61796 1030.7268 1021.246699 939.829767 0.00097019
19.62677 1032.9387 1020.647745 939.815097 0.00096811
19.63558 1035.4255 1020.061111 939.800096 0.00096579
19.64438 1038.2072 1019.469691 939.784824 0.0009632
19.65319 1039.2444 1018.814311 939.769329 0.00096224
19.66200 1038.9766 1017.994095 939.753677 0.00096249
19.67081 1037.5193 1016.879089 939.737917 0.00096384
19.67961 1035.0818 1015.333391 939.722113 0.00096611
19.68842 1030.3777 1013.245283 939.706316 0.00097052
19.69723 1024.8245 1010.557798 939.69059 0.00097578
19.70604 1018.4041 1007.281432 939.674986 0.00098193
19.71484 1010.95 1003.498915 939.659572 0.00098917
19.72365 1003.3575 999.337566 939.644399 0.00099665
19.73246 996.43231 994.949049 939.629534 0.00100358
19.74126 990.4563 990.479347 939.615028 0.00100964
19.75007 985.19116 986.058491 939.600945 0.00101503
19.75888 980.14221 981.78978 939.587342 0.00102026
19.76769 976.03351 977.753759 939.574282 0.00102455
19.77649 972.71143 974.00502 939.561819 0.00102805
19.78530 970.24518 970.58196 939.550017 0.00103067
19.79411 967.82013 967.504867 939.538928 0.00103325
19.80291 965.32111 964.782908 939.528615 0.00103592
19.81172 963.52466 962.414071 939.519134 0.00103786
19.82053 962.81067 960.390237 939.510545 0.00103863
19.82934 962.38788 958.695878 939.502899 0.00103908
19.83814 961.44849 957.313754 939.496258 0.0010401
19.84695 960.33685 956.223905 939.490673 0.0010413
19.85576 960.04828 955.407276 939.486203 0.00104161
19.86456 960.41937 954.844826 939.482897 0.00104121
19.87337 960.53906 954.519747 939.480812 0.00104108
19.88218 960.09332 954.416932 939.479998 0.00104157
19.89099 960.38068 954.52379 939.480506 0.00104125
19.89979 961.02692 954.829904 939.482387 0.00104055
19.90860 961.37048 955.325975 939.485688 0.00104018
19.91741 961.59692 956.004759 939.490458 0.00103994
19.92621 962.52844 956.858368 939.496742 0.00103893
19.93502 963.45996 957.879222 939.504587 0.00103793
19.94383 964.22943 959.058105 939.514034 0.0010371
19.95264 965.3382 960.384106 939.525126 0.00103591
19.96144 967.04187 961.843005 939.537901 0.00103408
19.97025 968.2392 963.4203 939.552403 0.0010328
19.97906 968.6908 965.095675 939.568661 0.00103232
19.98786 970.32678 966.847347 939.586719 0.00103058
19.99667 972.58478 968.649303 939.606604 0.00102819
20.00548 973.72668 970.473462 939.628352 0.00102698
20.01429 974.47626 972.291476 939.651984 0.00102619
20.02309 975.87604 974.080818 939.677539 0.00102472
20.03190 977.40729 975.827106 939.705031 0.00102311
20.04071 978.45935 977.530384 939.734497 0.00102201
20.04951 979.59644 979.201178 939.76594 0.00102083
20.05832 981.38507 980.857904 939.799396 0.00101897
20.06713 982.75989 982.52079 939.834865 0.00101754
20.07594 983.49969 984.198228 939.872378 0.00101678
20.08474 985.3017 985.881882 939.911929 0.00101492
20.09355 987.78229 987.542954 939.95355 0.00101237
20.10236 990.65118 989.12726 939.99722 0.00100944
20.11117 992.81421 990.561283 940.042966 0.00100724
20.11997 994.34418 991.756566 940.09077 0.00100569
20.12878 996.10809 992.626319 940.140651 0.00100391
20.13759 998.05457 993.101091 940.19259 0.00100195
20.14639 998.97858 993.14783 940.246579 0.00100102
20.15520 997.35712 992.778816 940.302627 0.00100265
20.16401 994.5824 992.049193 940.360696 0.00100545
20.17281 991.2713 991.052856 940.420798 0.00100881
20.18162 988.17682 989.891869 940.482896 0.00101196
20.19043 986.2514 988.667627 940.546981 0.00101394
20.19924 985.33496 987.466651 940.613009 0.00101488
20.20804 984.55792 986.35251 940.680984 0.00101568
20.21685 984.42896 985.364924 940.750844 0.00101582
20.22566 984.11682 984.519597 940.822589 0.00101614
20.23447 984.4989 983.81216 940.89616 0.00101575
20.24327 985.34088 983.222597 940.971536 0.00101488
20.25208 985.42151 982.72073 941.048649 0.00101479
20.26089 984.69208 982.272235 941.12749 0.00101555
20.26969 984.9007 981.840421 941.207978 0.00101533
20.27850 983.81866 981.399465 941.290107 0.00101645
20.28731 982.35822 980.921919 941.37377 0.00101796
20.29612 981.37848 980.389161 941.458957 0.00101897
20.30492 981.12048 979.790276 941.545573 0.00101924
20.31373 979.76074 979.121672 941.633596 0.00102066
20.32254 978.26337 978.385929 941.722921 0.00102222
20.33134 976.80139 977.588229 941.813532 0.00102375
20.34015 976.87457 976.736694 941.9053 0.00102367
20.34896 976.82806 975.839716 941.998203 0.00102372
20.35777 975.95105 974.909186 942.092125 0.00102464
20.36657 974.62421 973.960103 942.187032 0.00102604
20.37538 973.4325 973.012811 942.282812 0.00102729
20.38419 972.25745 972.088959 942.379404 0.00102853
20.39299 970.97125 971.209024 942.476692 0.0010299
20.40180 969.6156 970.388808 942.574632 0.00103134
20.41061 969.01733 969.635649 942.673092 0.00103197
20.41942 968.14795 968.946895 942.772026 0.0010329
20.42822 967.68042 968.313135 942.871307 0.0010334
20.43703 968.09363 967.719169 942.970862 0.00103296
20.44584 968.20624 967.149397 943.070561 0.00103284
20.45464 967.85168 966.591887 943.17035 0.00103322
20.46345 966.96271 966.042837 943.270086 0.00103417
20.47226 966.31494 965.506795 943.369721 0.00103486
20.48107 965.44989 964.997523 943.469086 0.00103579
20.48987 964.47296 964.531989 943.568132 0.00103684
20.49868 964.15924 964.129865 943.666709 0.00103717
20.50749 964.55322 963.807634 943.764755 0.00103675
20.51629 964.74377 963.57792 943.862119 0.00103654
20.52510 964.47607 963.447495 943.958746 0.00103683
20.53391 963.97614 963.41731 944.054463 0.00103737
20.54272 963.69647 963.482415 944.149213 0.00103767
20.55152 964.22986 963.63197 944.242845 0.0010371
20.56033 965.36804 963.851061 944.335291 0.00103587
20.56914 966.19592 964.121578 944.426408 0.00103499
20.57795 967.16193 964.425494 944.516108 0.00103395
20.58675 967.78644 964.749214 944.60425 0.00103329
20.59556 967.55457 965.085035 944.690766 0.00103353
20.60437 967.64569 965.433804 944.775506 0.00103344
20.61317 968.03064 965.80463 944.858402 0.00103303
20.62198 967.77277 966.211425 944.939317 0.0010333
20.63079 967.11377 966.669531 945.018163 0.001034
20.63959 966.86389 967.191077 945.094811 0.00103427
20.64840 967.33429 967.782889 945.16919 0.00103377
20.65721 967.45734 968.443972 945.241165 0.00103364
20.66602 969.26025 969.165836 945.310678 0.00103171
20.67482 970.70105 969.932029 945.377581 0.00103018
20.68363 971.28943 970.721487 945.441805 0.00102956
20.69244 971.80389 971.509866 945.503268 0.00102901
20.70124 972.19653 972.272068 945.561852 0.0010286
20.71005 972.11554 972.98318 945.617495 0.00102868
20.71886 972.98029 973.61855 945.670093 0.00102777
20.72767 974.20892 974.154449 945.719575 0.00102647
20.73647 975.57355 974.565793 945.765845 0.00102504
20.74528 975.17023 974.829618 945.80885 0.00102546
20.75409 974.85529 974.927131 945.848497 0.00102579
20.76290 974.12268 974.848115 945.88474 0.00102656
20.77170 973.23071 974.592778 945.917491 0.00102751
20.78051 971.95343 974.173131 945.946708 0.00102886
20.78932 970.28589 973.6112 945.972323 0.00103062
20.79812 968.61847 972.934589 945.994295 0.0010324
20.80693 967.8045 972.174165 946.012571 0.00103327
20.81574 966.56549 971.362009 946.027112 0.00103459
20.82455 964.89111 970.526586 946.037878 0.00103639
20.83335 963.58734 969.692179 946.044842 0.00103779
20.84216 963.20728 968.87716 946.047973 0.0010382
20.85097 962.63293 968.091376 946.047253 0.00103882
20.85977 962.27313 967.337545 946.042665 0.00103921
20.86858 961.93542 966.610816 946.034199 0.00103957
20.87739 962.06653 965.902436 946.021854 0.00103943
20.88620 962.10339 965.20075 946.005627 0.00103939
20.89500 962.02722 964.496505 945.985533 0.00103947
20.90381 961.10028 963.782744 945.961573 0.00104047
20.91262 960.04309 963.057695 945.933784 0.00104162
20.92142 959.27399 962.322426 945.902178 0.00104246
20.93023 959.20044 961.580736 945.866801 0.00104253
20.93904 959.10437 960.837111 945.827676 0.00104264
20.94785 958.32202 960.097355 945.784868 0.00104349
20.95665 957.60577 959.367356 945.738403 0.00104427
20.96546 956.9671 958.655144 945.68837 0.00104497
20.97427 956.28467 957.969474 945.634808 0.00104571
20.98307 954.8913 957.320974 945.577813 0.00104724
20.99188 953.95477 956.72009 945.517435 0.00104827
21.00069 954.05219 956.176844 945.45378 0.00104816
21.00950 953.62555 955.700053 945.386924 0.00104863
21.01830 952.9212 955.296581 945.316988 0.0010494
21.02711 952.59784 954.971086 945.244042 0.00104976
21.03592 952.12286 954.726347 945.16823 0.00105028
21.04472 951.98871 954.562771 945.089633 0.00105043
21.05353 952.005 954.478933 945.008399 0.00105041
21.06234 951.90344 954.471245 944.924636 0.00105053
21.07115 951.4776 954.534088 944.838507 0.001051
21.07995 951.33966 954.659825 944.75011 0.00105115
21.08876 952.02472 954.838113 944.65963 0.00105039
21.09757 952.50061 955.057928 944.567164 0.00104987
21.10637 952.65814 955.304414 944.472928 0.00104969
21.11518 953.14276 955.561964 944.377026 0.00104916
21.12399 953.84283 955.813999 944.279665 0.00104839
21.13280 954.4021 956.044731 944.180967 0.00104778
21.14160 954.23944 956.240634 944.081147 0.00104796
21.15041 954.22327 956.39238 943.980321 0.00104797
21.15922 954.60718 956.495387 943.878733 0.00104755
21.16803 954.35889 956.549902 943.776507 0.00104782
21.17683 954.13354 956.559458 943.673869 0.00104807
21.18564 954.98767 956.52937 943.570955 0.00104713
21.19445 955.552 956.464737 943.467985 0.00104652
21.20325 955.5199 956.369273 943.365121 0.00104655
21.21206 955.58282 956.245456 943.262584 0.00104648
21.22087 955.94305 956.094693 943.160537 0.00104609
21.22968 955.98468 955.918201 943.05914 0.00104604
21.23848 955.57086 955.718933 942.958614 0.00104649
21.24729 955.32605 955.502148 942.859118 0.00104676
21.25610 955.96729 955.275534 942.760866 0.00104606
21.26490 956.35321 955.049338 942.663991 0.00104564
21.27371 955.77875 954.835706 942.568712 0.00104627
21.28252 954.3822 954.647369 942.475155 0.0010478
21.29133 953.80145 954.497106 942.383519 0.00104844
21.30013 953.91504 954.397076 942.293943 0.00104831
21.30894 953.98846 954.358595 942.206612 0.00104823
21.31775 953.97339 954.392244 942.121635 0.00104825
21.32655 953.97345 954.507947 942.039191 0.00104825
21.33536 954.32294 954.71503 941.959376 0.00104786
21.34417 955.32263 955.022512 941.882342 0.00104677
21.35298 955.67236 955.438484 941.808186 0.00104638
21.36178 955.58569 955.970472 941.737039 0.00104648
21.37059 956.22076 956.625308 941.668963 0.00104578
21.37940 958.05957 957.409495 941.604072 0.00104378
21.38820 959.32898 958.328959 941.542401 0.0010424
21.39701 960.3172 959.388327 941.484051 0.00104132
21.40582 961.93719 960.592282 941.429033 0.00103957
21.41463 963.83276 961.942584 941.377403 0.00103752
21.42343 964.99042 963.440139 941.329155 0.00103628
21.43224 966.49878 965.081983 941.284306 0.00103466
21.44105 968.51282 966.863206 941.242831 0.00103251
21.44985 970.60376 968.775243 941.204714 0.00103029
21.45866 972.7923 970.808356 941.169888 0.00102797
21.46747 974.33423 972.949833 941.138303 0.00102634
21.47628 976.84479 975.185137 941.109862 0.0010237
21.48508 980.36926 977.493558 941.084473 0.00102002
21.49389 982.76367 979.851136 941.062008 0.00101754
21.50270 985.82269 982.222938 941.042335 0.00101438
21.51150 988.98071 984.566848 941.025286 0.00101114
21.52031 992.40002 986.827928 941.01069 0.00100766
21.52912 995.6427 988.944997 940.998342 0.00100438
21.53793 999.53418 990.851528 940.988027 0.00100047
21.54673 1003.4594 992.485113 940.979506 0.00099655
21.55554 1005.5695 993.794938 940.972523 0.00099446
21.56435 1006.2011 994.751486 940.9668 0.00099384
21.57315 1006.4774 995.349961 940.962043 0.00099356
21.58196 1006.4926 995.612385 940.957935 0.00099355
21.59077 1004.6949 995.582433 940.954149 0.00099533
21.59958 1001.2026 995.316251 940.950332 0.0009988
21.60838 998.51923 994.874286 940.946122 0.00100148
21.61719 996.42749 994.311992 940.941137 0.00100359
21.62600 993.3454 993.675736 940.934984 0.0010067
21.63481 991.1413 992.998085 940.927255 0.00100894
21.64361 989.95172 992.298667 940.917537 0.00101015
21.65242 989.06732 991.581916 940.905399 0.00101105
21.66123 987.88605 990.839827 940.890412 0.00101226
21.67003 987.65747 990.050252 940.872132 0.0010125
21.67884 987.91669 989.180344 940.850123 0.00101223
21.68765 988.47906 988.193277 940.823941 0.00101166
21.69646 987.66766 987.053468 940.793158 0.00101249
21.70526 986.23431 985.733235 940.757332 0.00101396
21.71407 984.07599 984.221321 940.716057 0.00101618
21.72288 981.42157 982.522488 940.668907 0.00101893
21.73168 977.6723 980.660181 940.615525 0.00102284
21.74049 974.35156 978.669023 940.55552 0.00102632
21.74930 971.70569 976.593921 940.488586 0.00102912
21.75810 969.43665 974.481063 940.414408 0.00103153
21.76691 967.07404 972.3759 940.332708 0.00103405
21.77572 964.66034 970.319791 940.243296 0.00103663
21.78453 962.40564 968.349045 940.145992 0.00103906
21.79333 961.20099 966.49232 940.04073 0.00104037
21.80214 960.24219 964.770861 939.927427 0.0010414
21.81095 959.59546 963.20026 939.80618 0.00104211
21.81976 958.02802 961.788163 939.677048 0.00104381
21.82856 956.96222 960.538015 939.540343 0.00104497
21.83737 956.10217 959.446917 939.396318 0.00104591
21.84618 955.29419 958.509646 939.245485 0.0010468
21.85498 954.61145 957.717023 939.088349 0.00104755
21.86379 954.31915 957.05937 938.925676 0.00104787
21.87260 954.23431 956.524551 938.758296 0.00104796
21.88141 955.10266 956.100584 938.587302 0.00104701
21.89021 955.34186 955.773532 938.413831 0.00104675
21.89902 955.12372 955.527735 938.239375 0.00104698
21.90783 955.38379 955.346235 938.065482 0.0010467
21.91663 955.8656 955.210406 937.894069 0.00104617
21.92544 956.06915 955.101367 937.727206 0.00104595
21.93425 956.78815 955.000421 937.567325 0.00104516
21.94306 956.75958 954.891664 937.417021 0.00104519
21.95186 956.60675 954.763715 937.279339 0.00104536
21.96067 956.60632 954.610778 937.157531 0.00104536
21.96948 956.68298 954.433507 937.055312 0.00104528
21.97828 957.1167 954.238952 936.976715 0.0010448
21.98709 956.65204 954.039246 936.926227 0.00104531
21.99590 955.32318 953.850222 936.90873 0.00104677
22.00471 955.2063 953.689743 936.929606 0.00104689
22.01351 955.43524 953.576772 936.994746 0.00104664
22.02232 955.12183 953.529539 937.110511 0.00104699
22.03113 954.32385 953.565307 937.28393 0.00104786
22.03993 953.61603 953.699909 937.522497 0.00104864
22.04874 953.76636 953.946758 937.834536 0.00104847
22.05755 953.90247 954.316172 938.228848 0.00104833
22.06636 954.41882 954.815784 938.715141 0.00104776
22.07516 954.82385 955.448862 939.303613 0.00104731
22.08397 955.80798 956.215735 940.005725 0.00104624
22.09278 957.61035 957.112354 940.833207 0.00104427
22.10159 958.79541 958.132566 941.799396 0.00104298
22.11039 960.26709 959.268231 942.917906 0.00104138
22.11920 961.53058 960.511295 944.203933 0.00104001
22.12801 961.68652 961.856147 945.673014 0.00103984
22.13681 961.56836 963.303483 947.342963 0.00103997
22.14562 962.49335 964.860715 949.231354 0
22.15443 963.10199 0 0 0
22.16324 963.77887 0 0 0
22.17204 963.86108 0 0 0
22.18085 964.50873 0 0 0
22.18966 964.64856 0 0 0
22.19846 965.3457 0 0 0
22.20727 966.34967 0 0 0
22.21608 967.25635 0 0 0
22.22489 968.71753 0 0 0
22.23369 969.55603 0 0 0
22.24250 969.6745 0 0 0
22.25131 970.85748 0 0 0
22.26011 971.15857 0 0 0
22.26892 970.66229 0 0 0
22.27773 970.45575 0 0 0
22.28654 970.79218 0 0 0
22.29534 970.71191 0 0 0
22.30415 970.05646 0 0 0
22.31296 969.77777 0 0 0
22.32176 969.4054 0 0 0
22.33057 969.07446 0 0 0
22.33938 969.1792 0 0 0
22.34819 969.38208 0 0 0
22.35699 969.65295 0 0 0
22.36580 970.36993 0 0 0
22.37461 971.47662 0 0 0
22.38341 972.38568 0 0 0
22.39222 972.71143 0 0 0
22.40103 972.85095 0 0 0
22.40984 972.47589 0 0 0
22.41864 971.97443 0 0 0
22.42745 971.67371 0 0 0
22.43626 971.62274 0 0 0
22.44506 970.48071 0 0 0
22.45387 969.02045 0 0 0
22.46268 967.78815 0 0 0
22.47149 966.5506 0 0 0
22.48029 965.19708 0 0 0
22.48910 964.11212 0 0 0
22.49791 963.03644 0 0 0
22.50671 962.48798 0 0 0
22.51552 962.47137 0 0 0
22.52433 962.37512 0 0 0
22.53314 962.29517 0 0 0
22.54194 962.78979 0 0 0
22.55075 962.68335 0 0 0
22.55956 961.78638 0 0 0
22.56837 961.06274 0 0 0
22.57717 960.40564 0 0 0
22.58598 960.23419 0 0 0
22.59479 958.76172 0 0 0
22.60359 956.81555 0 0 0
22.61240 955.26886 0 0 0
22.62121 953.72559 0 0 0
22.63001 952.08685 0 0 0
22.63882 951.6214 0 0 0
22.64763 951.07928 0 0 0
22.65644 950.5885 0 0 0
22.66524 949.93872 0 0 0
22.67405 950.09863 0 0 0
22.68286 950.35107 0 0 0
22.69167 950.33868 0 0 0
22.70047 950.58295 0 0 0
22.70928 951.91479 0 0 0
22.71809 953.45642 0 0 0
22.72689 954.37146 0 0 0
22.73570 955.19037 0 0 0
22.74451 956.33167 0 0 0
22.75332 957.3681 0 0 0
22.76212 958.08112 0 0 0
22.77093 958.76843 0 0 0
22.77974 959.4585 0 0 0
22.78854 959.21289 0 0 0
22.79735 958.49445 0 0 0
22.80616 957.53076 0 0 0
22.81497 957.27802 0 0 0
22.82377 957.4765 0 0 0
22.83258 957.09845 0 0 0
22.84139 956.70831 0 0 0
22.85019 956.289 0 0 0
22.85900 956.49164 0 0 0
22.86781 956.84656 0 0 0
22.87662 956.45404 0 0 0
22.88542 955.91498 0 0 0
22.89423 955.66937 0 0 0
22.90304 955.43311 0 0 0
22.91184 955.62457 0 0 0
22.92065 956.45459 0 0 0
22.92946 957.80023 0 0 0
22.93827 958.40277 0 0 0
22.94707 959.00708 0 0 0
22.95588 959.3858 0 0 0
22.96469 960.14435 0 0 0
22.97349 962.06378 0 0 0
22.98230 964.24078 0 0 0
22.99111 966.19977 0 0 0
22.99992 967.69501 0 0 0
23.00872 969.63501 0 0 0
23.01753 971.0813 0 0 0
23.02634 971.07117 0 0 0
23.03514 971.10211 0 0 0
23.04395 972.00378 0 0 0
23.05276 972.3891 0 0 0
23.06157 972.42468 0 0 0
23.07037 972.77386 0 0 0
23.07918 973.50299 0 0 0
23.08799 974.52924 0 0 0
23.09679 976.36566 0 0 0
23.10560 977.9621 0 0 0
23.11441 979.82098 0 0 0
23.12322 981.25958 0 0 0
23.13202 982.75464 0 0 0
23.14083 984.38422 0 0 0
23.14964 986.21893 0 0 0
23.15845 987.49591 0 0 0
23.16725 987.04993 0 0 0
23.17606 987.55872 0 0 0
23.18487 988.12903 0 0 0
23.19367 987.98352 0 0 0
23.20248 987.7384 0 0 0
23.21129 987.27618 0 0 0
23.22010 985.95892 0 0 0
23.22890 985.75494 0 0 0
23.23771 986.05377 0 0 0
23.24652 984.92596 0 0 0
23.25532 982.90717 0 0 0
23.26413 981.96753 0 0 0
23.27294 981.29114 0 0 0
23.28175 979.35583 0 0 0
23.29055 977.05853 0 0 0
23.29936 975.64667 0 0 0
23.30817 974.11279 0 0 0
23.31697 973.03693 0 0 0
23.32578 971.33331 0 0 0
23.33459 969.63196 0 0 0
23.34340 967.76062 0 0 0
23.35220 966.52222 0 0 0
23.36101 965.8653 0 0 0
23.36982 965.06061 0 0 0
23.37862 963.79565 0 0 0
23.38743 962.85889 0 0 0
23.39624 962.38782 0 0 0
23.40505 961.87732 0 0 0
23.41385 961.52307 0 0 0
23.42266 960.95624 0 0 0
23.43147 960.11731 0 0 0
23.44027 959.14056 0 0 0
23.44908 958.05078 0 0 0
23.45789 956.53455 0 0 0
23.46670 954.71173 0 0 0
23.47550 953.32391 0 0 0
23.48431 952.41669 0 0 0
23.49312 951.85339 0 0 0
23.50192 951.74896 0 0 0
23.51073 951.64349 0 0 0
23.51954 951.14551 0 0 0
23.52835 951.46472 0 0 0
23.53715 952.43213 0 0 0
23.54596 952.97687 0 0 0
23.55477 953.34204 0 0 0
23.56357 954.50208 0 0 0
23.57238 956.33301 0 0 0
23.58119 959.10815 0 0 0
23.59000 961.07715 0 0 0
23.59880 962.75525 0 0 0
23.60761 964.38092 0 0 0
23.61642 966.02484 0 0 0
23.62523 967.09912 0 0 0
23.63403 968.22888 0 0 0
23.64284 969.80536 0 0 0
23.65165 971.23938 0 0 0
23.66045 972.30298 0 0 0
23.66926 972.91254 0 0 0
23.67807 972.6441 0 0 0
23.68687 971.45288 0 0 0
23.69568 970.09442 0 0 0
23.70449 968.43085 0 0 0
23.71330 965.9303 0 0 0
23.72210 962.56689 0 0 0
23.73091 959.68842 0 0 0
23.73972 957.83331 0 0 0
23.74853 956.77289 0 0 0
23.75733 954.74847 0 0 0
23.76614 952.5509 0 0 0
23.77495 950.69952 0 0 0
23.78375 949.35541 0 0 0
23.79256 948.10974 0 0 0
23.80137 947.10785 0 0 0
23.81018 946.50763 0 0 0
23.81898 946.14154 0 0 0
23.82779 945.35596 0 0 0
23.83660 945.42853 0 0 0
23.84540 945.01849 0 0 0
23.85421 943.70502 0 0 0
23.86302 943.4491 0 0 0
23.87183 943.57501 0 0 0
23.88063 943.14807 0 0 0
23.88944 941.92102 0 0 0
23.89825 941.68463 0 0 0
23.90705 942.2066 0 0 0
23.91586 941.72546 0 0 0
23.92467 941.57751 0 0 0
23.93348 941.95984 0 0 0
23.94228 941.62738 0 0 0
23.95109 942.32251 0 0 0
23.95990 943.22375 0 0 0
23.96870 943.52716 0 0 0
23.97751 943.2663 0 0 0
23.98632 943.93036 0 0 0
23.99513 944.56421 0 0 0
24.00393 944.26605 0 0 0
24.01274 944.29407 0 0 0
24.02155 944.64935 0 0 0
24.03035 945.73798 0 0 0
24.03916 945.67145 0 0 0
24.04797 945.8598 0 0 0
24.05678 946.22791 0 0 0
24.06558 946.1037 0 0 0
24.07439 946.35052 0 0 0
24.08320 946.32996 0 0 0
24.09201 946.44409 0 0 0
24.10081 946.95972 0 0 0
24.10962 946.2262 0 0 0
24.11842 944.29608 0 0 0
24.12723 943.14978 0 0 0
24.13604 942.29358 0 0 0
24.14485 941.50134 0 0 0
24.15365 940.53448 0 0 0
24.16246 939.61798 0 0 0
24.17127 938.97034 0 0 0
24.18008 937.99603 0 0 0
24.18888 936.73059 0 0 0
24.19769 936.75684 0 0 0
24.20650 936.54578 0 0 0
24.21531 935.38898 0 0 0
24.22411 935.03864 0 0 0
24.23292 935.59363 0 0 0
24.24173 935.79846 0 0 0
24.25053 936.00763 0 0 0
24.25934 936.65399 0 0 0
24.26815 936.33813 0 0 0
24.27696 936.50867 0 0 0
24.28576 937.63373 0 0 0
24.29457 937.96649 0 0 0
24.30338 937.92578 0 0 0
24.31218 937.54401 0 0 0
24.32099 937.53571 0 0 0
24.32980 938.59979 0 0 0
24.33861 939.10577 0 0 0
24.34741 939.10028 0 0 0
24.35622 939.25116 0 0 0
24.36503 940.13092 0 0 0
24.37383 940.60236 0 0 0
24.38264 941.76703 0 0 0
24.39145 943.06232 0 0 0
24.40026 943.39789 0 0 0
24.40906 944.93665 0 0 0
24.41787 947.11407 0 0 0
24.42668 947.85345 0 0 0
24.43548 948.56891 0 0 0
24.44429 950.6333 0 0 0
24.45310 952.63049 0 0 0
24.46191 954.6076 0 0 0
24.47071 955.97009 0 0 0
24.47952 957.08496 0 0 0
24.48833 958.23126 0 0 0
24.49713 958.65729 0 0 0
24.50594 958.89728 0 0 0
24.51475 958.27417 0 0 0
24.52356 956.78571 0 0 0
24.53236 955.53033 0 0 0
24.54117 954.59857 0 0 0
24.54998 953.34943 0 0 0
24.55878 951.93152 0 0 0
24.56759 950.16357 0 0 0
24.57640 948.85846 0 0 0
24.58520 947.22552 0 0 0
24.59401 945.44977 0 0 0
24.60282 943.99042 0 0 0
24.61163 942.82635 0 0 0
24.62043 942.19879 0 0 0
24.62924 941.23798 0 0 0
24.63805 940.68518 0 0 0
24.64686 940.11353 0 0 0
24.65566 938.62006 0 0 0
24.66447 937.1496 0 0 0
24.67328 936.67145 0 0 0
24.68209 936.42902 0 0 0
24.69089 935.69708 0 0 0
24.69970 934.56903 0 0 0
24.70851 933.85614 0 0 0
24.71731 933.26129 0 0 0
24.72612 933.10791 0 0 0
24.73493 933.43536 0 0 0
24.74373 933.60809 0 0 0
24.75254 934.01447 0 0 0
24.76135 933.35785 0 0 0
24.77016 932.44586 0 0 0
24.77896 932.23529 0 0 0
24.78777 931.97003 0 0 0
24.79658 932.32971 0 0 0
24.80539 932.67322 0 0 0
24.81419 932.90515 0 0 0
24.82300 933.52826 0 0 0
24.83181 933.35382 0 0 0
24.84061 933.7486 0 0 0
24.84942 933.77258 0 0 0
24.85823 933.08215 0 0 0
24.86704 933.15765 0 0 0
24.87584 933.34717 0 0 0
24.88465 933.12933 0 0 0
24.89346 933.2829 0 0 0
24.90226 933.70935 0 0 0
24.91107 933.22974 0 0 0
24.91988 932.82849 0 0 0
24.92869 932.66803 0 0 0
24.93749 933.08447 0 0 0
24.94630 933.72797 0 0 0
24.95511 934.05713 0 0 0
24.96392 934.12885 0 0 0
24.97272 934.3147 0 0 0
24.98153 934.75189 0 0 0
24.99034 935.40588 0 0 0
24.99914 936.84564 0 0 0
25.00795 936.80328 0 0 0
25.01676 936.47296 0 0 0
25.02556 935.91168 0 0 0
25.03437 936.66803 0 0 0
25.04318 937.25769 0 0 0
25.05198 937.60602 0 0 0
25.06079 938.10583 0 0 0
25.06960 938.03693 0 0 0
25.07841 938.1568 0 0 0
25.08721 939.26202 0 0 0
25.09602 940.45227 0 0 0
25.10483 940.28876 0 0 0
25.11364 940.23486 0 0 0
25.12244 939.85876 0 0 0
25.13125 940.05829 0 0 0
25.14006 940.33234 0 0 0
25.14887 940.87872 0 0 0
25.15767 941.49231 0 0 0
25.16648 941.34235 0 0 0
25.17528 942.48541 0 0 0
25.18409 943.9538 0 0 0
25.19290 944.92108 0 0 0
25.20171 946.00989 0 0 0
25.21051 947.49597 0 0 0
25.21932 947.87469 0 0 0
25.22813 948.26678 0 0 0
25.23694 948.81464 0 0 0
25.24574 949.57916 0 0 0
25.25455 949.6911 0 0 0
25.26336 948.67462 0 0 0
25.27217 947.67346 0 0 0
25.28097 947.61279 0 0 0
25.28978 947.46173 0 0 0
25.29859 946.45203 0 0 0
25.30739 945.2088 0 0 0
25.31620 943.9776 0 0 0
25.32501 942.88861 0 0 0
25.33382 941.18024 0 0 0
25.34262 939.47687 0 0 0
25.35143 937.7265 0 0 0
25.36024 936.34845 0 0 0
25.36904 935.58618 0 0 0
25.37785 934.74908 0 0 0
25.38666 933.65875 0 0 0
25.39547 933.23431 0 0 0
25.40427 932.6474 0 0 0
25.41308 932.25684 0 0 0
25.42189 932.66907 0 0 0
25.43070 932.2052 0 0 0
25.43950 932.98285 0 0 0
25.44831 934.2406 0 0 0
25.45712 935.53461 0 0 0
25.46592 936.43158 0 0 0
25.47473 937.23297 0 0 0
25.48354 938.71576 0 0 0
25.49234 940.01257 0 0 0
25.50115 940.85724 0 0 0
25.50996 942.31879 0 0 0
25.51876 943.99835 0 0 0
25.52757 945.16382 0 0 0
25.53638 946.93243 0 0 0
25.54519 949.49896 0 0 0
25.55399 951.10059 0 0 0
25.56280 952.28424 0 0 0
25.57161 953.19659 0 0 0
25.58042 953.23596 0 0 0
25.58922 953.7926 0 0 0
25.59803 953.97583 0 0 0
25.60684 952.96753 0 0 0
25.61564 951.57013 0 0 0
25.62445 948.93744 0 0 0
25.63326 946.19446 0 0 0
25.64206 944.26221 0 0 0
25.65087 942.41058 0 0 0
25.65968 940.15814 0 0 0
25.66849 938.56793 0 0 0
25.67729 936.7038 0 0 0
25.68610 935.12915 0 0 0
25.69491 934.14008 0 0 0
25.70372 933.0553 0 0 0
25.71252 932.56238 0 0 0
25.72133 932.16138 0 0 0
25.73014 931.92419 0 0 0
25.73895 932.15814 0 0 0
25.74775 932.43585 0 0 0
25.75656 932.25153 0 0 0
25.76537 933.00665 0 0 0
25.77417 934.24512 0 0 0
25.78298 935.39825 0 0 0
25.79179 936.57684 0 0 0
25.80059 938.19067 0 0 0
25.80940 939.65887 0 0 0
25.81821 941.23511 0 0 0
25.82702 942.87708 0 0 0
25.83582 943.49701 0 0 0
25.84463 944.12494 0 0 0
25.85344 944.23486 0 0 0
25.86225 944.46082 0 0 0
25.87105 944.22626 0 0 0
25.87986 943.59869 0 0 0
25.88867 941.51434 0 0 0
25.89747 938.33533 0 0 0
25.90628 935.84821 0 0 0
25.91509 933.56927 0 0 0
25.92390 930.21362 0 0 0
25.93270 927.36774 0 0 0
25.94151 926.49103 0 0 0
25.95032 924.65253 0 0 0
25.95912 922.76825 0 0 0
25.96793 921.40417 0 0 0
25.97674 919.9007 0 0 0
25.98555 918.43085 0 0 0
25.99435 917.73108 0 0 0
26.00316 917.12915 0 0 0
26.01197 915.5119 0 0 0
26.02078 914.77539 0 0 0
26.02958 914.71808 0 0 0
26.03839 914.04675 0 0 0
26.04719 913.85992 0 0 0
26.05600 913.96509 0 0 0
26.06481 913.91364 0 0 0
26.07362 914.39038 0 0 0
26.08242 915.43073 0 0 0
26.09123 915.81378 0 0 0
26.10004 915.56903 0 0 0
26.10884 916.25977 0 0 0
26.11765 917.0426 0 0 0
26.12646 916.15601 0 0 0
26.13527 916.55017 0 0 0
26.14407 917.97748 0 0 0
26.15288 918.76752 0 0 0
26.16169 919.26526 0 0 0
26.17050 920.19226 0 0 0
26.17930 921.10168 0 0 0
26.18811 920.25757 0 0 0
26.19692 920.01147 0 0 0
26.20573 920.65851 0 0 0
26.21453 921.43939 0 0 0
26.22334 921.72327 0 0 0
26.23214 920.56659 0 0 0
26.24095 919.35223 0 0 0
26.24976 919.67413 0 0 0
26.25857 920.11078 0 0 0
26.26737 919.22314 0 0 0
26.27618 918.07617 0 0 0
26.28499 917.88696 0 0 0
26.29380 918.26526 0 0 0
26.30260 918.2041 0 0 0
26.31141 917.33008 0 0 0
26.32022 916.33289 0 0 0
26.32903 916.18683 0 0 0
26.33783 916.258 0 0 0
26.34664 915.16986 0 0 0
26.35545 914.88416 0 0 0
26.36425 915.49097 0 0 0
26.37306 914.59698 0 0 0
26.38187 914.05341 0 0 0
26.39068 913.86951 0 0 0
26.39948 913.57471 0 0 0
26.40829 913.72101 0 0 0
26.41710 914.3244 0 0 0
26.42590 915.0401 0 0 0
26.43471 914.90411 0 0 0
26.44352 914.25574 0 0 0
26.45233 914.61737 0 0 0
26.46113 915.58173 0 0 0
26.46994 915.28558 0 0 0
26.47875 914.61835 0 0 0
26.48756 913.6673 0 0 0
26.49636 912.75665 0 0 0
26.50517 912.12811 0 0 0
26.51397 911.34027 0 0 0
26.52278 911.97052 0 0 0
26.53159 912.73749 0 0 0
26.54040 912.14636 0 0 0
26.54920 910.57452 0 0 0
26.55801 908.94525 0 0 0
26.56682 908.302 0 0 0
26.57563 909.03619 0 0 0
26.58443 909.31305 0 0 0
26.59324 908.50873 0 0 0
26.60205 908.25171 0 0 0
26.61085 907.28192 0 0 0
26.61966 906.01813 0 0 0
26.62847 905.37054 0 0 0
26.63728 905.11383 0 0 0
26.64608 904.89545 0 0 0
26.65489 904.57617 0 0 0
26.66370 904.98053 0 0 0
26.67250 905.65747 0 0 0
26.68131 905.10675 0 0 0
26.69012 904.44232 0 0 0
26.69892 904.37482 0 0 0
26.70773 904.03693 0 0 0
26.71654 903.49994 0 0 0
26.72535 903.05896 0 0 0
26.73415 902.86768 0 0 0
26.74296 902.49847 0 0 0
26.75177 902.22876 0 0 0
26.76058 902.48901 0 0 0
26.76938 902.6886 0 0 0
26.77819 902.18298 0 0 0
26.78700 901.74573 0 0 0
26.79581 902.27234 0 0 0
26.80461 902.80786 0 0 0
26.81342 903.16797 0 0 0
26.82223 903.25891 0 0 0
26.83103 902.96008 0 0 0
26.83984 903.19379 0 0 0
26.84865 904.11444 0 0 0
26.85745 903.59094 0 0 0
26.86626 903.12494 0 0 0
26.87507 903.34125 0 0 0
26.88388 903.71021 0 0 0
26.89268 903.64258 0 0 0
26.90149 903.4613 0 0 0
26.91030 903.87585 0 0 0
26.91911 903.78345 0 0 0
26.92791 903.1427 0 0 0
26.93672 902.94965 0 0 0
26.94553 903.64789 0 0 0
26.95433 904.58618 0 0 0
26.96314 904.73175 0 0 0
26.97195 904.00555 0 0 0
26.98075 903.38013 0 0 0
26.98956 903.80005 0 0 0
26.99837 905.8866 0 0 0
27.00718 907.19788 0 0 0
27.01598 907.1178 0 0 0
27.02479 906.89056 0 0 0
27.03360 906.71906 0 0 0
27.04241 907.8269 0 0 0
27.05121 909.46844 0 0 0
27.06002 910.62573 0 0 0
27.06883 911.33105 0 0 0
27.07764 912.20264 0 0 0
27.08644 913.03833 0 0 0
27.09525 913.26715 0 0 0
27.10405 914.47693 0 0 0
27.11286 915.81464 0 0 0
27.12167 915.99316 0 0 0
27.13048 916.53308 0 0 0
27.13928 916.42303 0 0 0
27.14809 915.58539 0 0 0
27.15690 914.86707 0 0 0
27.16570 914.17499 0 0 0
27.17451 912.50391 0 0 0
27.18332 910.2157 0 0 0
27.19213 909.3429 0 0 0
27.20093 908.88403 0 0 0
27.20974 908.14935 0 0 0
27.21855 907.06885 0 0 0
27.22736 906.29218 0 0 0
27.23616 906.70209 0 0 0
27.24497 907.41382 0 0 0
27.25378 906.50531 0 0 0
27.26259 904.22729 0 0 0
27.27139 902.60925 0 0 0
27.28020 903.25806 0 0 0
27.28900 904.53485 0 0 0
27.29781 903.53607 0 0 0
27.30662 903.0033 0 0 0
27.31543 903.47473 0 0 0
27.32423 903.44025 0 0 0
27.33304 903.59747 0 0 0
27.34185 903.71118 0 0 0
27.35066 904.31561 0 0 0
27.35946 904.38409 0 0 0
27.36827 904.56964 0 0 0
27.37708 904.76129 0 0 0
27.38588 905.48206 0 0 0
27.39469 907.21863 0 0 0
27.40350 908.3017 0 0 0
27.41231 908.81342 0 0 0
27.42111 909.65814 0 0 0
27.42992 911.90546 0 0 0
27.43873 913.49152 0 0 0
27.44753 914.28485 0 0 0
27.45634 915.7829 0 0 0
27.46515 917.37372 0 0 0
27.47396 919.14209 0 0 0
27.48276 920.7887 0 0 0
27.49157 922.64551 0 0 0
27.50038 924.58807 0 0 0
27.50919 924.46918 0 0 0
27.51799 924.74817 0 0 0
27.52680 925.81427 0 0 0
27.53561 925.82007 0 0 0
27.54442 925.2193 0 0 0
27.55322 924.1344 0 0 0
27.56203 922.7063 0 0 0
27.57083 921.409 0 0 0
27.57964 920.2655 0 0 0
27.58845 917.72388 0 0 0
27.59726 915.74133 0 0 0
27.60606 914.82928 0 0 0
27.61487 913.21802 0 0 0
27.62368 911.31702 0 0 0
27.63249 910.12238 0 0 0
27.64129 909.2951 0 0 0
27.65010 907.91797 0 0 0
27.65891 906.19434 0 0 0
27.66771 904.06934 0 0 0
27.67652 903.38123 0 0 0
27.68533 903.38702 0 0 0
27.69414 903.01208 0 0 0
27.70294 903.01569 0 0 0
27.71175 902.14642 0 0 0
27.72056 901.45032 0 0 0
27.72936 901.66858 0 0 0
27.73817 901.74158 0 0 0
27.74698 900.56982 0 0 0
27.75578 899.58051 0 0 0
27.76459 900.52264 0 0 0
27.77340 900.90765 0 0 0
27.78221 899.57764 0 0 0
27.79101 899 0 0 0
27.79982 899.98511 0 0 0
27.80863 900.46918 0 0 0
27.81744 900.76044 0 0 0
27.82624 901.85669 0 0 0
27.83505 901.04724 0 0 0
27.84386 899.77087 0 0 0
27.85266 900.30304 0 0 0
27.86147 901.49585 0 0 0
27.87028 902.32703 0 0 0
27.87909 902.59515 0 0 0
27.88789 902.97424 0 0 0
27.89670 903.76373 0 0 0
27.90551 904.72009 0 0 0
27.91431 904.65485 0 0 0
27.92312 905.28845 0 0 0
27.93193 906.10773 0 0 0
27.94074 906.22449 0 0 0
27.94954 906.97137 0 0 0
27.95835 907.45477 0 0 0
27.96716 907.22766 0 0 0
27.97596 907.11395 0 0 0
27.98477 908.09344 0 0 0
27.99358 909.04755 0 0 0
28.00239 910.35443 0 0 0
28.01119 912.87146 0 0 0
28.02000 915.08209 0 0 0
28.02881 916.85651 0 0 0
28.03761 917.74615 0 0 0
28.04642 917.71851 0 0 0
28.05523 918.77301 0 0 0
28.06404 920.16968 0 0 0
28.07284 921.17584 0 0 0
28.08165 922.13654 0 0 0
28.09046 922.84912 0 0 0
28.09927 923.2193 0 0 0
28.10807 922.77283 0 0 0
28.11688 922.75806 0 0 0
28.12569 922.88373 0 0 0
28.13450 923.68622 0 0 0
28.14330 923.5545 0 0 0
28.15211 922.21362 0 0 0
28.16091 922.35211 0 0 0
28.16972 922.35022 0 0 0
28.17853 922.09698 0 0 0
28.18734 921.15735 0 0 0
28.19614 919.04181 0 0 0
28.20495 917.21802 0 0 0
28.21376 916.65277 0 0 0
28.22256 916.78333 0 0 0
28.23137 916.617 0 0 0
28.24018 916.39172 0 0 0
28.24899 916.09766 0 0 0
28.25779 914.84784 0 0 0
28.26660 914.3714 0 0 0
28.27541 914.56006 0 0 0
28.28422 912.70538 0 0 0
28.29302 911.49908 0 0 0
28.30183 911.30023 0 0 0
28.31064 910.22467 0 0 0
28.31945 910.18726 0 0 0
28.32825 910.34235 0 0 0
28.33706 908.05475 0 0 0
28.34586 903.62891 0 0 0
28.35467 886.52679 0 0 0
28.36348 878.52551 0 0 0
28.37229 887.11005 0 0 0
28.38109 889.98657 0 0 0
28.38990 892.28723 0 0 0
28.39871 893.90588 0 0 0
28.40752 894.08411 0 0 0
28.41632 894.74524 0 0 0
28.42513 894.54993 0 0 0
28.43394 895.12927 0 0 0
28.44274 894.18689 0 0 0
28.45155 894.0343 0 0 0
28.46036 895.35107 0 0 0
28.46917 895.12146 0 0 0
28.47797 893.8598 0 0 0
28.48678 893.51782 0 0 0
28.49559 894.97137 0 0 0
28.50439 896.16107 0 0 0
28.51320 895.68188 0 0 0
28.52201 895.33722 0 0 0
28.53082 895.91882 0 0 0
28.53962 896.73529 0 0 0
28.54843 897.39972 0 0 0
28.55724 897.30402 0 0 0
28.56605 898.45007 0 0 0
28.57485 898.63947 0 0 0
28.58366 897.71295 0 0 0
28.59247 897.93268 0 0 0
28.60127 897.24451 0 0 0
28.61008 896.67505 0 0 0
28.61889 898.54584 0 0 0
28.62769 900.06451 0 0 0
28.63650 900.82855 0 0 0
28.64531 901.25763 0 0 0
28.65412 902.06403 0 0 0
28.66292 902.31134 0 0 0
28.67173 902.01349 0 0 0
28.68054 902.58026 0 0 0
28.68935 903.26276 0 0 0
28.69815 903.64801 0 0 0
28.70696 903.44122 0 0 0
28.71577 903.78833 0 0 0
28.72458 904.74872 0 0 0
28.73338 905.83893 0 0 0
28.74219 905.34692 0 0 0
28.75100 903.56415 0 0 0
28.75980 902.70142 0 0 0
28.76861 903.27893 0 0 0
28.77742 903.05743 0 0 0
28.78622 903.21484 0 0 0
28.79503 903.33435 0 0 0
28.80384 902.19061 0 0 0
28.81264 903.50525 0 0 0
28.82145 903.80798 0 0 0
28.83026 900.73065 0 0 0
28.83907 899.27454 0 0 0
28.84787 899.47736 0 0 0
28.85668 898.5108 0 0 0
28.86549 897.77155 0 0 0
28.87430 897.83203 0 0 0
28.88310 897.5224 0 0 0
28.89191 898.13818 0 0 0
28.90072 898.88037 0 0 0
28.90952 898.98053 0 0 0
28.91833 898.63727 0 0 0
28.92714 896.62878 0 0 0
28.93595 896.37915 0 0 0
28.94475 896.54968 0 0 0
28.95356 895.90442 0 0 0
28.96237 897.77283 0 0 0
28.97117 898.35205 0 0 0
28.97998 897.70801 0 0 0
28.98879 898.82355 0 0 0
28.99760 900.35754 0 0 0
29.00640 901.95471 0 0 0
29.01521 901.85773 0 0 0
29.02402 900.5968 0 0 0
29.03282 901.88312 0 0 0
29.04163 904.21631 0 0 0
29.05044 903.75873 0 0 0
29.05925 903.4693 0 0 0
29.06805 904.33118 0 0 0
29.07686 905.18805 0 0 0
29.08567 905.42236 0 0 0
29.09447 905.44775 0 0 0
29.10328 906.32111 0 0 0
29.11209 906.07153 0 0 0
29.12090 906.78107 0 0 0
29.12970 908.43658 0 0 0
29.13851 907.9306 0 0 0
29.14732 907.4707 0 0 0
29.15613 906.79944 0 0 0
29.16493 908.39929 0 0 0
29.17374 909.15216 0 0 0
29.18255 908.38165 0 0 0
29.19136 908.54083 0 0 0
29.20016 908.11395 0 0 0
29.20897 909.11121 0 0 0
29.21777 909.78027 0 0 0
29.22658 909.40881 0 0 0
29.23539 909.4071 0 0 0
29.24420 909.43884 0 0 0
29.25300 908.34204 0 0 0
29.26181 907.80176 0 0 0
29.27062 907.34344 0 0 0
29.27942 906.11719 0 0 0
29.28823 905.64551 0 0 0
29.29704 904.57507 0 0 0
29.30585 904.51044 0 0 0
29.31465 904.44318 0 0 0
29.32346 903.20331 0 0 0
29.33227 902.85187 0 0 0
29.34108 902.22571 0 0 0
29.34988 899.55164 0 0 0
29.35869 897.72827 0 0 0
29.36750 898.07166 0 0 0
29.37630 897.03564 0 0 0
29.38511 896.03339 0 0 0
29.39392 895.13531 0 0 0
29.40273 894.87842 0 0 0
29.41153 896.97107 0 0 0
29.42034 897.63617 0 0 0
29.42915 896.52264 0 0 0
29.43795 894.96906 0 0 0
29.44676 895.47552 0 0 0
29.45557 896.39874 0 0 0
29.46438 896.84149 0 0 0
29.47318 897.06927 0 0 0
29.48199 895.41302 0 0 0
29.49080 894.49017 0 0 0
29.49960 894.13885 0 0 0
29.50841 893.36957 0 0 0
29.51722 895.44836 0 0 0
29.52603 897.38959 0 0 0
29.53483 897.41589 0 0 0
29.54364 897.47302 0 0 0
29.55245 898.15094 0 0 0
29.56125 897.8396 0 0 0
29.57006 896.9812 0 0 0
29.57887 898.22784 0 0 0
29.58768 898.22095 0 0 0
29.59648 898.32471 0 0 0
29.60529 897.29706 0 0 0
29.61410 895.58069 0 0 0
29.62291 896.70288 0 0 0
29.63171 897.54968 0 0 0
29.64052 897.2619 0 0 0
29.64933 897.68256 0 0 0
29.65813 898.01886 0 0 0
29.66694 897.75616 0 0 0
29.67575 898.01202 0 0 0
29.68455 898.97296 0 0 0
29.69336 899.0495 0 0 0
29.70217 900.26416 0 0 0
29.71098 901.45422 0 0 0
29.71978 901.51758 0 0 0
29.72859 903.15753 0 0 0
29.73740 903.51849 0 0 0
29.74621 902.95685 0 0 0
29.75501 904.35968 0 0 0
29.76382 904.49084 0 0 0
29.77263 903.93298 0 0 0
29.78143 903.92267 0 0 0
29.79024 903.81897 0 0 0
29.79905 902.98669 0 0 0
29.80786 899.4953 0 0 0
29.81666 897.98242 0 0 0
29.82547 897.586 0 0 0
29.83428 895.36859 0 0 0
29.84308 894.84338 0 0 0
29.85189 895.8999 0 0 0
29.86070 894.04279 0 0 0
29.86951 893.62152 0 0 0
29.87831 895.44086 0 0 0
29.88712 895.30737 0 0 0
29.89593 893.67578 0 0 0
29.90473 892.8924 0 0 0
29.91354 893.09851 0 0 0
29.92235 893.65222 0 0 0
29.93116 893.46039 0 0 0
29.93996 893.01129 0 0 0
29.94877 893.8938 0 0 0
29.95758 893.54974 0 0 0
29.96638 893.35205 0 0 0
29.97519 894.69598 0 0 0
29.98400 894.43939 0 0 0
29.99281 893.04584 0 0 0
30.00161 893.91406 0 0 0
30.01042 893.47595 0 0 0
30.01923 893.49615 0 0 0
30.02803 893.99103 0 0 0
30.03684 893.91614 0 0 0
30.04565 893.68481 0 0 0
30.05446 893.00714 0 0 0
30.06326 891.50574 0 0 0
30.07207 891.94946 0 0 0
30.08088 894.01611 0 0 0
30.08968 894.57684 0 0 0
30.09849 893.49207 0 0 0
30.10730 892.48309 0 0 0
30.11611 893.07715 0 0 0
30.12491 892.922 0 0 0
30.13372 891.26544 0 0 0
30.14253 889.59186 0 0 0
30.15133 890.10089 0 0 0
30.16014 890.72729 0 0 0
30.16895 890.55743 0 0 0
30.17776 891.0528 0 0 0
30.18656 890.8175 0 0 0
30.19537 891.14563 0 0 0
30.20418 892.97229 0 0 0
30.21299 893.92493 0 0 0
30.22179 894.61493 0 0 0
30.23060 896.37231 0 0 0
30.23941 895.04553 0 0 0
30.24821 894.34784 0 0 0
30.25702 895.56958 0 0 0
30.26583 894.35205 0 0 0
30.27463 894.39026 0 0 0
30.28344 894.8421 0 0 0
30.29225 895.28192 0 0 0
30.30106 895.15894 0 0 0
30.30986 894.56421 0 0 0
30.31867 894.14172 0 0 0
30.32748 895.22656 0 0 0
30.33629 896.60211 0 0 0
30.34509 897.20038 0 0 0
30.35390 896.0119 0 0 0
30.36271 895.13672 0 0 0
30.37151 895.01862 0 0 0
30.38032 894.25311 0 0 0
30.38913 895.58148 0 0 0
30.39794 896.43201 0 0 0
30.40674 893.97772 0 0 0
30.41555 893.84454 0 0 0
30.42436 895.05365 0 0 0
30.43316 894.86456 0 0 0
30.44197 893.76666 0 0 0
30.45078 894.03296 0 0 0
30.45959 894.06317 0 0 0
30.46839 893.44965 0 0 0
30.47720 895.36792 0 0 0
30.48601 896.8382 0 0 0
30.49481 897.02728 0 0 0
30.50362 895.70392 0 0 0
30.51243 895.14691 0 0 0
30.52124 895.72406 0 0 0
30.53004 895.71906 0 0 0
30.53885 894.01062 0 0 0
30.54766 892.80878 0 0 0
30.55646 894.11957 0 0 0
30.56527 895.8092 0 0 0
30.57408 894.60583 0 0 0
30.58289 891.6181 0 0 0
30.59169 891.76196 0 0 0
30.60050 891.35901 0 0 0
30.60931 889.32642 0 0 0
30.61811 887.52161 0 0 0
30.62692 888.76611 0 0 0
30.63573 888.81409 0 0 0
30.64454 888.7804 0 0 0
30.65334 888.30798 0 0 0
30.66215 887.38293 0 0 0
30.67096 886.21783 0 0 0
30.67977 885.21942 0 0 0
30.68857 888.06995 0 0 0
30.69738 887.89838 0 0 0
30.70619 885.25946 0 0 0
30.71499 885.91241 0 0 0
30.72380 887.30688 0 0 0
30.73261 884.64746 0 0 0
30.74141 883.34857 0 0 0
30.75022 884.14484 0 0 0
30.75903 882.76636 0 0 0
30.76784 881.74463 0 0 0
30.77664 883.1203 0 0 0
30.78545 883.48877 0 0 0
30.79426 882.90686 0 0 0
30.80307 882.88049 0 0 0
30.81187 884.92145 0 0 0
30.82068 883.46637 0 0 0
30.82949 880.18079 0 0 0
30.83829 881.45868 0 0 0
30.84710 881.60999 0 0 0
30.85591 881.36823 0 0 0
30.86472 880.36536 0 0 0
30.87352 880.12024 0 0 0
30.88233 881.41522 0 0 0
30.89114 880.44885 0 0 0
30.89994 881.11896 0 0 0
30.90875 882.78339 0 0 0
30.91756 883.42041 0 0 0
30.92637 884.14655 0 0 0
30.93517 882.77649 0 0 0
30.94398 880.02161 0 0 0
30.95279 880.79999 0 0 0
30.96159 882.47784 0 0 0
30.97040 882.38464 0 0 0
30.97921 882.24329 0 0 0
30.98802 880.89398 0 0 0
30.99682 880.71045 0 0 0
31.00563 884.67096 0 0 0
31.01444 886.83014 0 0 0
31.02324 884.47784 0 0 0
31.03205 881.88104 0 0 0
31.04086 884.95514 0 0 0
31.04967 888.42175 0 0 0
31.05847 889.82007 0 0 0
31.06728 888.73175 0 0 0
31.07609 888.16968 0 0 0
31.08489 890.4873 0 0 0
31.09370 891.35229 0 0 0
31.10251 893.24298 0 0 0
31.11132 893.46155 0 0 0
31.12012 892.97449 0 0 0
31.12893 893.55353 0 0 0
31.13774 894.40552 0 0 0
31.14654 897.711 0 0 0
31.15535 897.35382 0 0 0
31.16416 895.48901 0 0 0
31.17297 894.29224 0 0 0
31.18177 894.00751 0 0 0
31.19058 896.40637 0 0 0
31.19939 896.45898 0 0 0
31.20819 891.90216 0 0 0
31.21700 891.15076 0 0 0
31.22581 891.97766 0 0 0
31.23462 890.1618 0 0 0
31.24342 888.71851 0 0 0
31.25223 889.06604 0 0 0
31.26104 888.59351 0 0 0
31.26985 885.86597 0 0 0
31.27865 884.37103 0 0 0
31.28746 883.01367 0 0 0
31.29627 880.74371 0 0 0
31.30507 882.04474 0 0 0
31.31388 885.28162 0 0 0
31.32269 884.22546 0 0 0
31.33150 881.7207 0 0 0
31.34030 879.94727 0 0 0
31.34911 879.38837 0 0 0
31.35792 878.76117 0 0 0
31.36672 877.4809 0 0 0
31.37553 876.36615 0 0 0
31.38434 874.33167 0 0 0
31.39315 874.61212 0 0 0
31.40195 874.85394 0 0 0
31.41076 870.87451 0 0 0
31.41957 870.86743 0 0 0
31.42837 872.95422 0 0 0
31.43718 870.86908 0 0 0
31.44599 870.85632 0 0 0
31.45480 872.33032 0 0 0
31.46360 872.09015 0 0 0
31.47241 872.1283 0 0 0
31.48122 869.67566 0 0 0
31.49002 868.5545 0 0 0
31.49883 866.67194 0 0 0
31.50764 864.77582 0 0 0
31.51645 866.25043 0 0 0
31.52525 870.52179 0 0 0
31.53406 871.73657 0 0 0
31.54287 868.67334 0 0 0
31.55167 864.12292 0 0 0
31.56048 862.74579 0 0 0
31.56929 866.20251 0 0 0
31.57810 870.24689 0 0 0
31.58690 869.71277 0 0 0
31.59571 866.51843 0 0 0
31.60452 867.57202 0 0 0
31.61332 867.68964 0 0 0
31.62213 868.50507 0 0 0
31.63094 867.27563 0 0 0
31.63975 865.05194 0 0 0
31.64855 863.55017 0 0 0
31.65736 865.21759 0 0 0
31.66617 866.63434 0 0 0
31.67497 864.32581 0 0 0
31.68378 865.54449 0 0 0
31.69259 865.20337 0 0 0
31.70140 863.84412 0 0 0
31.71020 861.49615 0 0 0
31.71901 858.07465 0 0 0
31.72782 858.05396 0 0 0
31.73663 859.46875 0 0 0
31.74543 861.01416 0 0 0
31.75424 859.10358 0 0 0
31.76305 857.9964 0 0 0
31.77185 859.42706 0 0 0
31.78066 860.0744 0 0 0
31.78947 858.63159 0 0 0
31.79828 856.98877 0 0 0
31.80708 856.23523 0 0 0
31.81589 854.44189 0 0 0
31.82470 856.11969 0 0 0
31.83350 859.302 0 0 0
31.84231 860.29059 0 0 0
31.85112 857.52289 0 0 0
31.85993 854.77191 0 0 0
31.86873 857.00708 0 0 0
31.87754 859.62683 0 0 0
31.88635 861.15863 0 0 0
31.89515 857.57458 0 0 0
31.90396 855.76569 0 0 0
31.91277 853.9397 0 0 0
31.92158 855.89886 0 0 0
31.93038 859.78534 0 0 0
31.93919 861.86871 0 0 0
31.94800 860.10022 0 0 0
31.95680 858.34955 0 0 0
31.96561 856.39996 0 0 0
31.97442 856.78271 0 0 0
31.98323 859.3786 0 0 0
31.99203 854.60767 0 0 0
32.00084 849.17767 0 0 0
32.00965 849.23352 0 0 0
32.01846 852.10919 0 0 0
32.02726 855.44366 0 0 0
32.03607 856.26575 0 0 0
32.04488 853.46899 0 0 0
32.05368 851.49139 0 0 0
32.06249 854.00183 0 0 0
32.07130 857.82184 0 0 0
32.08011 856.9494 0 0 0
32.08891 856.01294 0 0 0
32.09772 857.03229 0 0 0
32.10652 857.1723 0 0 0
32.11533 855.04126 0 0 0
32.12414 851.82507 0 0 0
32.13295 850.13391 0 0 0
32.14175 852.45038 0 0 0
32.15056 850.90302 0 0 0
32.15937 848.14343 0 0 0
32.16817 850.96478 0 0 0
32.17698 850.95813 0 0 0
32.18579 842.10303 0 0 0
32.19460 839.716 0 0 0
32.20340 844.50659 0 0 0
32.21221 844.62616 0 0 0
32.22102 841.58508 0 0 0
32.22983 843.17651 0 0 0
32.23863 847.38513 0 0 0
32.24744 846.35303 0 0 0
32.25625 842.97742 0 0 0
32.26506 839.14301 0 0 0
32.27386 842.64056 0 0 0
32.28267 847.48285 0 0 0
32.29148 842.48285 0 0 0
32.30029 839.6499 0 0 0
32.30909 842.2785 0 0 0
32.31790 839.29718 0 0 0
32.32671 834.27191 0 0 0
32.33551 835.32849 0 0 0
32.34432 833.88611 0 0 0
32.35313 836.1076 0 0 0
32.36194 841.78369 0 0 0
32.37074 843.97095 0 0 0
32.37955 843.23071 0 0 0
32.38835 839.66656 0 0 0
32.39716 833.76465 0 0 0
32.40597 829.42987 0 0 0
32.41478 824.3844 0 0 0
32.42358 818.59924 0 0 0
32.43239 819.31268 0 0 0
32.44120 823.82605 0 0 0
32.45000 826.26062 0 0 0
32.45881 824.59094 0 0 0
32.46762 823.18433 0 0 0
32.47643 822.99695 0 0 0
32.48523 819.70422 0 0 0
32.49404 813.10046 0 0 0
32.50285 811.08771 0 0 0
32.51165 816.13959 0 0 0
32.52046 823.4967 0 0 0
32.52927 820.82214 0 0 0
32.53808 818.58014 0 0 0
32.54688 823.96881 0 0 0
32.55569 814.97858 0 0 0
32.56450 809.4093 0 0 0
32.57331 810.68982 0 0 0
32.58211 801.70978 0 0 0
32.59092 808.86768 0 0 0
32.59973 815.89648 0 0 0
32.60854 797.89612 0 0 0
32.61734 799.71533 0 0 0
32.62615 805.50879 0 0 0
32.63496 791.03271 0 0 0
32.64376 789.54712 0 0 0
32.65257 782.85388 0 0 0
32.66138 772.52936 0 0 0
32.67018 778.77936 0 0 0
32.67899 789.05457 0 0 0
32.68780 784.3078 0 0 0
32.69661 775.24744 0 0 0
32.70541 770.32532 0 0 0
32.71422 767.64331 0 0 0
32.72303 767.87256 0 0 0
32.73183 757.60608 0 0 0
32.74064 736.13104 0 0 0
32.74945 728.47083 0 0 0
32.75825 725.62982 0 0 0
32.76706 713.53876 0 0 0
32.77587 707.56952 0 0 0
32.78468 705.63123 0 0 0
32.79348 692.56635 0 0 0
32.80229 660.362 0 0 0
32.81110 615.30157 0 0 0
32.81991 590.76416 0 0 0
32.82871 549.58209 0 0 0
32.83752 487.10062 0 0 0
32.84633 415.85703 0 0 0
32.85514 289.68948 0 0 0
32.86394 185.42792 0 0 0
32.87275 180.28699 0 0 0
32.88156 176.87521 0 0 0
32.89037 181.02611 0 0 0
32.89917 185.0173 0 0 0
32.90798 186.95163 0 0 0
32.91679 182.63091 0 0 0
32.92559 173.43095 0 0 0
32.93440 176.67896 0 0 0
32.94321 175.45934 0 0 0
32.95202 175.5569 0 0 0
32.96082 175.94463 0 0 0
32.96963 175.87688 0 0 0
32.97844 177.20178 0 0 0
32.98724 171.20805 0 0 0
32.99605 172.02022 0 0 0
33.00486 178.78036 0 0 0
33.01366 181.73216 0 0 0
33.02247 178.7605 0 0 0
33.03128 174.69695 0 0 0
33.04008 178.59683 0 0 0
33.04889 187.09689 0 0 0
33.05770 195.62799 0 0 0
33.06650 192.86841 0 0 0
33.07531 187.57968 0 0 0
33.08412 192.16562 0 0 0
33.09293 194.12462 0 0 0
33.10173 187.06329 0 0 0
33.11054 177.91132 0 0 0
33.11935 166.41818 0 0 0
33.12816 166.39902 0 0 0
33.13696 178.49063 0 0 0
33.14577 184.73251 0 0 0
33.15458 180.00523 0 0 0
33.16339 182.27402 0 0 0
33.17219 186.83191 0 0 0
33.18100 188.61519 0 0 0
33.18981 189.16148 0 0 0
33.19862 183.52771 0 0 0
33.20742 179.13475 0 0 0
33.21623 185.70334 0 0 0
33.22504 195.05278 0 0 0
33.23385 195.29057 0 0 0
33.24265 185.46353 0 0 0
33.25146 170.56364 0 0 0
33.26026 170.07393 0 0 0
33.26907 186.50558 0 0 0
33.27788 188.11069 0 0 0
33.28669 178.47734 0 0 0
33.29549 172.92584 0 0 0
33.30430 178.28256 0 0 0
33.31311 179.75203 0 0 0
33.32191 179.72322 0 0 0
33.33072 182.06494 0 0 0
33.33953 188.60826 0 0 0
33.34833 195.14958 0 0 0
33.35714 197.74277 0 0 0
33.36595 199.97011 0 0 0
33.37476 189.76643 0 0 0
33.38356 182.71375 0 0 0
33.39237 184.93983 0 0 0
33.40118 187.81931 0 0 0
33.40999 186.75554 0 0 0
33.41879 193.7704 0 0 0
33.42760 199.50902 0 0 0
33.43641 190.27264 0 0 0
33.44522 173.90601 0 0 0
33.45402 175.56316 0 0 0
33.46283 181.79382 0 0 0
33.47164 182.23856 0 0 0
33.48045 175.33229 0 0 0
33.48925 182.02882 0 0 0
33.49806 188.76917 0 0 0
33.50687 182.2238 0 0 0
33.51568 181.10283 0 0 0
33.52448 183.01974 0 0 0
33.53329 181.47818 0 0 0
33.54210 177.18845 0 0 0
33.55090 187.49661 0 0 0
33.55971 192.83502 0 0 0
33.56852 183.55757 0 0 0
33.57732 185.78661 0 0 0
33.58613 197.25433 0 0 0
33.59494 204.10141 0 0 0
33.60375 189.45622 0 0 0
33.61255 174.38504 0 0 0
33.62136 180.77139 0 0 0
33.63016 197.27585 0 0 0
33.63897 195.27542 0 0 0
33.64778 189.74449 0 0 0
33.65659 190.81068 0 0 0
33.66539 195.62903 0 0 0
33.67420 194.957 0 0 0
33.68301 188.45293 0 0 0
33.69181 185.08913 0 0 0
33.70062 179.05615 0 0 0
33.70943 167.35541 0 0 0
33.71824 174.18617 0 0 0
33.72704 187.70404 0 0 0
33.73585 192.57094 0 0 0
33.74466 189.97437 0 0 0
33.75347 187.86293 0 0 0
33.76227 175.43547 0 0 0
33.77108 171.72484 0 0 0
33.77989 179.76431 0 0 0
33.78870 195.34209 0 0 0
33.79750 194.53381 0 0 0
33.80631 190.98463 0 0 0
33.81512 196.9894 0 0 0
33.82393 194.27478 0 0 0
33.83273 183.2973 0 0 0
33.84154 188.79503 0 0 0
33.85035 192.85016 0 0 0
33.85915 198.66209 0 0 0
33.86796 199.26801 0 0 0
33.87677 190.60341 0 0 0
33.88557 185.15895 0 0 0
33.89438 184.71323 0 0 0
33.90319 185.48845 0 0 0
33.91199 198.28758 0 0 0
33.92080 210.29672 0 0 0
33.92961 199.55597 0 0 0
33.93842 188.5826 0 0 0
33.94722 182.75859 0 0 0
33.95603 184.28075 0 0 0
33.96484 182.35164 0 0 0
33.97364 181.30914 0 0 0
33.98245 182.06599 0 0 0
33.99126 187.47203 0 0 0
34.00007 193.11348 0 0 0
34.00887 194.07112 0 0 0
34.01768 185.96072 0 0 0
34.02649 180.20097 0 0 0
34.03530 179.63115 0 0 0
34.04410 171.4514 0 0 0
34.05291 174.57153 0 0 0
34.06172 182.4175 0 0 0
34.07053 187.85909 0 0 0
34.07933 188.84645 0 0 0
34.08814 184.36322 0 0 0
34.09695 181.69008 0 0 0
34.10575 180.9901 0 0 0
34.11456 185.29477 0 0 0
34.12337 184.6076 0 0 0
34.13217 193.19417 0 0 0
34.14098 197.68982 0 0 0
34.14979 202.60223 0 0 0
34.15860 208.13675 0 0 0
34.16740 199.13908 0 0 0
34.17621 196.33682 0 0 0
34.18502 206.70955 0 0 0
34.19382 208.88647 0 0 0
34.20263 211.48529 0 0 0
34.21144 210.27695 0 0 0
34.22024 204.79733 0 0 0
34.22905 189.04761 0 0 0
34.23786 177.18683 0 0 0
34.24667 175.86545 0 0 0
34.25547 178.494 0 0 0
34.26428 183.9823 0 0 0
34.27309 194.33362 0 0 0
34.28189 204.41028 0 0 0
34.29070 201.43996 0 0 0
34.29951 192.45857 0 0 0
34.30832 187.27853 0 0 0
34.31712 185.0464 0 0 0
34.32593 191.13759 0 0 0
34.33474 199.5197 0 0 0
34.34355 213.09436 0 0 0
34.35235 217.83954 0 0 0
34.36116 208.1795 0 0 0
34.36997 201.55736 0 0 0
34.37878 197.7059 0 0 0
34.38758 197.78119 0 0 0
34.39639 203.64238 0 0 0
34.40520 212.22015 0 0 0
34.41401 217.42236 0 0 0
34.42281 215.19534 0 0 0
34.43162 200.32637 0 0 0
34.44043 190.26907 0 0 0
34.44923 192.58295 0 0 0
34.45804 194.44415 0 0 0
34.46685 200.80363 0 0 0
34.47566 213.34595 0 0 0
34.48446 219.81587 0 0 0
34.49327 213.53835 0 0 0
34.50207 207.90244 0 0 0
34.51088 207.87341 0 0 0
34.51969 203.62337 0 0 0
34.52850 201.18063 0 0 0
34.53730 196.79553 0 0 0
34.54611 196.99858 0 0 0
34.55492 202.03392 0 0 0
34.56372 201.88393 0 0 0
34.57253 198.53972 0 0 0
34.58134 194.33215 0 0 0
34.59015 191.7451 0 0 0
34.59895 192.70892 0 0 0
34.60776 196.43799 0 0 0
34.61657 203.58727 0 0 0
34.62538 216.58521 0 0 0
34.63418 218.12341 0 0 0
34.64299 211.0071 0 0 0
34.65180 208.13683 0 0 0
34.66060 207.4265 0 0 0
34.66941 202.29907 0 0 0
34.67822 209.01732 0 0 0
34.68703 223.06946 0 0 0
34.69583 232.83189 0 0 0
34.70464 242.40933 0 0 0
34.71345 241.09576 0 0 0
34.72226 243.02122 0 0 0
34.73106 238.18167 0 0 0
34.73987 231.92346 0 0 0
34.74868 224.65962 0 0 0
34.75748 219.84673 0 0 0
34.76629 214.93884 0 0 0
34.77510 208.98291 0 0 0
34.78390 214.16721 0 0 0
34.79271 219.5574 0 0 0
34.80152 209.22038 0 0 0
34.81033 201.54349 0 0 0
34.81913 201.66675 0 0 0
34.82794 197.03604 0 0 0
34.83675 193.73293 0 0 0
34.84555 201.39055 0 0 0
34.85436 208.5022 0 0 0
34.86317 211.5094 0 0 0
34.87197 200.62346 0 0 0
34.88078 192.11095 0 0 0
34.88959 196.92249 0 0 0
34.89840 204.90587 0 0 0
34.90720 208.31227 0 0 0
34.91601 215.75047 0 0 0
34.92482 221.76099 0 0 0
34.93363 218.92867 0 0 0
34.94243 216.73524 0 0 0
34.95124 220.27565 0 0 0
34.96005 215.11372 0 0 0
34.96886 214.14853 0 0 0
34.97766 210.93021 0 0 0
34.98647 213.05347 0 0 0
34.99528 212.09773 0 0 0
35.00409 204.24089 0 0 0
35.01289 201.15976 0 0 0
35.02170 204.09369 0 0 0
35.03051 209.54002 0 0 0
35.03931 212.22374 0 0 0
35.04812 216.92874 0 0 0
35.05693 220.29684 0 0 0
35.06573 217.04341 0 0 0
35.07454 207.19839 0 0 0
35.08335 199.12619 0 0 0
35.09215 191.67673 0 0 0
35.10096 189.43987 0 0 0
35.10977 193.80753 0 0 0
35.11858 204.8069 0 0 0
35.12738 220.41429 0 0 0
35.13619 227.47655 0 0 0
35.14500 223.88559 0 0 0
35.15380 218.69911 0 0 0
35.16261 216.9057 0 0 0
35.17142 220.97964 0 0 0
35.18023 221.97491 0 0 0
35.18903 214.33783 0 0 0
35.19784 214.74669 0 0 0
35.20665 226.65814 0 0 0
35.21545 228.02654 0 0 0
35.22426 234.11229 0 0 0
loop_
_gsas_i100_meas
0.52
17.23
6.46
4.88
7.28
6.72
100.00
16.82
54.75
32.23
84.74
20.28
0.66
2.36
39.97
57.55
0.10
66.53
14.36
20.83
3.61
1.92
2.51
7.62
3.17
49.40
6.05
31.78
4.48
1.58
1.43
0.19
0.33
10.02
2.28
1.59
0.94
2.51
9.04
15.11
18.20
3.69
3.58
3.47
0.00
0.14
2.54
1.68
37.74
0.51
5.69
8.25
10.98
0.09
9.16
12.12
3.43
5.43
6.84
0.01
16.31
0.65
15.49
0.00
5.27
2.91
2.63
4.52
2.91
1.15
0.00
3.59
3.87
18.93
0.68
0.12
2.76
3.08
1.34
4.79
3.03
9.19
0.05
0.06
8.60
6.76
17.54
22.39
2.45
0.38
2.27
3.97
0.66
0.17
0.68
1.38
12.36
1.68
3.49
3.49
0.06
0.19
4.65
3.50
0.37
0.28
8.55
0.13
3.48
7.85
16.02
1.97
6.30
13.56
8.80
2.64
1.39
0.15
0.08
0.58
3.44
0.14
4.03
1.06
0.00
1.80
11.91
2.51
8.87
0.01
0.96
1.72
0.35
0.03
8.64
3.54
0.42
1.20
0.39
0.09
1.22
1.11
0.98
13.82
2.64
0.00
9.03
0.48
1.05
2.52
0.01
10.99
0.11
0.51
0.10
2.30
2.33
5.73
4.84
0.18
2.30
0.84
0.19
2.36
0.66
2.65
1.20
1.64
0.01
0.00
2.52
1.76
0.20
3.57
0.35
0.96
1.66
0.02
0.35
0.39
0.01
1.35
0.06
0.01
0.06
0.67
0.59
0.16
0.10
0.14
0.38
0.69
1.20
3.12
1.34
7.58
1.47
6.95
0.74
0.71
0.02
0.74
0.78
1.17
0.78
0.52
0.01
0.43
1.63
