#------------------------------------------------------------------------------
#$Date: 2021-02-05 01:04:31 +0200 (Fri, 05 Feb 2021) $
#$Revision: 261628 $
#$URL: file:///home/coder/svn-repositories/cod/cif/7/24/18/7241826.cif $
#------------------------------------------------------------------------------
#
# This file is available in the Crystallography Open Database (COD),
# http://www.crystallography.net/
#
# All data on this site have been placed in the public domain by the
# contributors.
#
data_7241826
loop_
_publ_author_name
'Gu\'nka, Piotr A.'
'Hanfland, Michael'
'Chen, Yu-Sheng'
'Zachara, Janusz'
_publ_section_title
;
 High-pressure and low-temperature structural study of claudetite I, a
 monoclinic layered As2O3 polymorph
;
_journal_issue                   3
_journal_name_full               CrystEngComm
_journal_page_first              638
_journal_page_last               644
_journal_paper_doi               10.1039/D0CE01401J
_journal_volume                  23
_journal_year                    2021
_chemical_formula_moiety         'As2 O3'
_chemical_formula_sum            'As2 O3'
_chemical_formula_weight         197.84
_chemical_name_common            'claudetite I'
_chemical_name_systematic
;
arsenic(III) oxide
;
_space_group_IT_number           14
_space_group_name_Hall           '-P 2yn'
_space_group_name_H-M_alt        'P 1 21/n 1'
_symmetry_cell_setting           monoclinic
_symmetry_space_group_name_H-M   'P 1 21/n 1'
_audit_creation_date             2020-10-21T10:46
_audit_creation_method           'created in GSAS-II'
_audit_update_record
;
2020-10-22 deposited with the CCDC.	2020-12-10 downloaded from the CCDC.
;
_cell_angle_alpha                90
_cell_angle_beta                 94.591(5)
_cell_angle_gamma                90
_cell_formula_units_Z            4
_cell_length_a                   5.1081(5)
_cell_length_b                   12.49492(17)
_cell_length_c                   4.4239(3)
_cell_measurement_pressure       3.1e6(5)
_cell_measurement_temperature    293
_cell_volume                     281.45(3)
_computing_data_reduction        Fit2D
_computing_structure_refinement
'GSAS-II (Toby & Von Dreele, J. Appl. Cryst. 46, 544-549, 2013)'
_diffrn_ambient_pressure         3.1e6(5)
_diffrn_ambient_temperature      293
_diffrn_detector                 'Mar555 flat panel'
_diffrn_detector_type            'Mar555 flat panel'
_diffrn_measurement_device_type  'ESRF ID09A beamline'
_diffrn_radiation_monochromator  Si
_diffrn_radiation_polarisn_ratio 0.9900
_diffrn_radiation_probe          x-ray
_diffrn_radiation_wavelength     0.41421
_diffrn_source                   'ESRF ID09A'
_diffrn_source_type              synchrotron
_exptl_crystal_colour            colourless
_exptl_crystal_density_diffrn    4.6690
_exptl_crystal_description       'white powder'
_pd_block_id                     2020-10-21T10:46|clau1_007rietveld||id09a
_pd_calc_method                  'Rietveld Refinement'
_pd_meas_number_of_points        4000
_pd_phase_name                   claudetiteI
_pd_prep_pressure                100.0(1)
_pd_prep_temperature             293
_pd_proc_info_datetime           2020-10-21T10:46
_pd_proc_ls_background_function
;
Background function: "chebyschev" function with 20 terms:
    708.9(14), 363(8), -498(24), -7.4(8)e2, 1.330(10)e4, 7.73(21)e3, 
    -1.1803(8)e5, -4.871(7)e4, 5.0237(9)e5, 2.0683(20)e5, -1.20054(3)e6, 
    -5.7063(9)e5, 1.70272(8)e6, 9.7236(12)e5, -1.42458(11)e6, 
    -9.7789(23)e5, 6.4967(5)e5, 5.3050(13)e5, -1.2448(14)e5, 
    -1.1952(26)e5, 
;
_pd_proc_ls_pref_orient_corr
;
Simple spherical harmonic correction Order = 6
    Coefficients:  0:0:C(6,6) = 0.321(18); 0:0:C(4,4) = 0.776(24); 
    0:0:C(6,-2) = 0.116(22); 0:0:C(2,-2) = 0.273(13); 0:0:C(4,-4) = 0.160(18); 
    0:0:C(2,2) = 0.775(14); 0:0:C(4,0) = 0.218(20); 0:0:C(6,-6) = -0.335(24); 
    0:0:C(6,4) = 0.200(23); 0:0:C(4,2) = 0.035(17); 0:0:C(6,2) = 0.094(19); 
    0:0:C(6,-4) = 0.067(20); 0:0:C(6,0) = 0.303(24); 0:0:C(2,0) = 0.815(15); 
    0:0:C(4,-2) = -0.009(15); 
;
_pd_proc_ls_profile_function
;
Finger-Cox-Jephcoat function parameters U, V, W, X, Y, SH/L:
  peak variance(Gauss) = Utan(Th)^2^+Vtan(Th)+W:
  peak HW(Lorentz) = X/cos(Th)+Ytan(Th); SH/L = S/L+H/L
  U, V, W in (centideg)^2^, X & Y in centideg
    5.9(5)e2, -97(9), 5.4(4), 0.91(10), 13.5(28), 0.002, 
  Crystallite size in microns with "isotropic" model:
  parameters: Size, G/L mix
    1.000, 1.000, 
  Microstrain, "isotropic" model (10^6^ * delta Q/Q)
    parameters: Mustrain, G/L mix
    1000.000, 1.000, 

;
_pd_proc_ls_prof_R_factor        0.01715
_pd_proc_ls_prof_wR_expected     0.03558
_pd_proc_ls_prof_wR_factor       0.02882
_refine_ls_goodness_of_fit_all   0.826
_refine_ls_matrix_type           full
_refine_ls_number_parameters     62
_refine_ls_R_Fsqd_factor         0.40688
_refine_ls_shift/su_max          0.0014
_refine_ls_wR_factor_obs         0.02896
_reflns_d_resolution_high        1.160
_reflns_d_resolution_low         6.247
_reflns_limit_h_max              4
_reflns_limit_h_min              0
_reflns_limit_k_max              10
_reflns_limit_k_min              0
_reflns_limit_l_max              3
_reflns_limit_l_min              -3
_reflns_number_total             189
_cod_data_source_file            d0ce01401j3.cif
_cod_data_source_block           clau1_007rietveld
_cod_depositor_comments
'Adding full bibliography for 7241824--7241862.cif.'
_cod_original_cell_volume        281.453(15)
_cod_database_code               7241826
_refine_ls_r_f_factor            0.07742
_gsas_proc_ls_prof_r_b_factor    0.03466
_gsas_proc_ls_prof_wr_b_factor   0.05075
loop_
_space_group_symop_id
_space_group_symop_operation_xyz
1 x,y,z
2 1/2-x,1/2+y,1/2-z
3 -x,-y,-z
4 1/2+x,1/2-y,1/2+z
loop_
_atom_site_label
_atom_site_type_symbol
_atom_site_fract_x
_atom_site_fract_y
_atom_site_fract_z
_atom_site_occupancy
_atom_site_adp_type
_atom_site_U_iso_or_equiv
_atom_site_symmetry_multiplicity
As1 As 0.2673(12) 0.09520(19) 0.0413(6) 1.000 Uiso 0.0044(12) 4
As2 As 0.3493(9) 0.35504(22) 0.0096(7) 1.000 Uiso 0.0044 4
O3 O 0.426(3) 0.2201(5) 0.095(4) 1.000 Uiso 0.0044 4
O4 O 0.6514(24) 0.4119(13) 0.1465(19) 1.000 Uiso 0.0044 4
O5 O -0.0379(25) 0.1421(15) 0.1429(24) 1.000 Uiso 0.0044 4
loop_
_atom_type_symbol
_atom_type_number_in_cell
_atom_type_scat_Cromer_Mann_a1
_atom_type_scat_Cromer_Mann_a2
_atom_type_scat_Cromer_Mann_a3
_atom_type_scat_Cromer_Mann_a4
_atom_type_scat_Cromer_Mann_b1
_atom_type_scat_Cromer_Mann_b2
_atom_type_scat_Cromer_Mann_b3
_atom_type_scat_Cromer_Mann_b4
_atom_type_scat_Cromer_Mann_c
_atom_type_scat_length_neutron
_atom_type_scat_source
_atom_type_scat_dispersion_real
_atom_type_scat_dispersion_imag
_atom_type_scat_dispersion_source
As 8 16.6723 6.0701 3.4313 4.2779 2.6345 0.2647 12.9479 47.7972 2.531 0.658
https://subversion.xray.aps.anl.gov/pyGSAS/trunk/atmdata.py 0.283 0.775
https://subversion.xray.aps.anl.gov/pyGSAS/trunk/atmdata.py
O 12 3.0485 2.2868 1.5463 0.867 13.2771 5.7011 0.3239 32.9089 0.2508 0.5805
https://subversion.xray.aps.anl.gov/pyGSAS/trunk/atmdata.py 0.002 0.002
https://subversion.xray.aps.anl.gov/pyGSAS/trunk/atmdata.py
loop_
_geom_angle_atom_site_label_1
_geom_angle_atom_site_label_2
_geom_angle_atom_site_label_3
_geom_angle
_geom_angle_site_symmetry_1
_geom_angle_site_symmetry_2
_geom_angle_site_symmetry_3
_geom_angle_publ_flag
O3 As1 O4 106.5(8) 1_555 1_555 4_454 yes
O3 As1 O5 94.6(9) 1_555 1_555 1_555 yes
O4 As1 O5 92.0(6) 4_454 1_555 1_555 yes
O3 As2 O4 97.9(7) 1_555 1_555 1_555 yes
O3 As2 O5 97.6(10) 1_555 1_555 4_554 yes
O4 As2 O5 88.1(5) 1_555 1_555 4_554 yes
As1 O3 As2 136.3(8) 1_555 1_555 1_555 yes
As1 O4 As2 121.6(6) 4_555 1_555 1_555 yes
As1 O5 As2 127.1(8) 1_555 1_555 4_455 yes
loop_
_geom_bond_atom_site_label_1
_geom_bond_atom_site_label_2
_geom_bond_distance
_geom_bond_site_symmetry_1
_geom_bond_site_symmetry_2
_geom_bond_publ_flag
As1 O3 1.767(7) 1_555 1_555 yes
As1 O4 1.801(7) 1_555 4_454 yes
As1 O5 1.757(8) 1_555 1_555 yes
As2 O3 1.765(7) 1_555 1_555 yes
As2 O4 1.762(8) 1_555 1_555 yes
As2 O5 1.765(7) 1_555 4_554 yes
loop_
_pd_meas_2theta_scan
_pd_meas_intensity_total
_pd_calc_intensity_total
_pd_proc_intensity_bkg_calc
_pd_proc_ls_weight
0.00440 95.441895 0 0 0
0.01320 97.928665 0 0 0
0.02201 100.79749 0 0 0
0.03081 100.10526 0 0 0
0.03961 102.04884 0 0 0
0.04841 101.61761 0 0 0
0.05721 100.78333 0 0 0
0.06602 101.20455 0 0 0
0.07482 103.7799 0 0 0
0.08362 105.12316 0 0 0
0.09242 104.17648 0 0 0
0.10122 104.49293 0 0 0
0.11003 104.29294 0 0 0
0.11883 105.04158 0 0 0
0.12763 107.1882 0 0 0
0.13643 108.70911 0 0 0
0.14523 107.44729 0 0 0
0.15404 104.55784 0 0 0
0.16284 104.44054 0 0 0
0.17164 103.02327 0 0 0
0.18044 101.70907 0 0 0
0.18925 102.11245 0 0 0
0.19805 103.19265 0 0 0
0.20685 103.81104 0 0 0
0.21565 103.5958 0 0 0
0.22445 103.53064 0 0 0
0.23326 103.06411 0 0 0
0.24206 103.32948 0 0 0
0.25086 103.84129 0 0 0
0.25966 104.32355 0 0 0
0.26846 103.34958 0 0 0
0.27727 104.27457 0 0 0
0.28607 106.4152 0 0 0
0.29487 109.42864 0 0 0
0.30367 110.49406 0 0 0
0.31248 110.86243 0 0 0
0.32128 111.77717 0 0 0
0.33008 110.41348 0 0 0
0.33888 110.18324 0 0 0
0.34768 108.69215 0 0 0
0.35649 108.85268 0 0 0
0.36529 109.91958 0 0 0
0.37409 109.63516 0 0 0
0.38289 108.58932 0 0 0
0.39169 108.65665 0 0 0
0.40050 109.26467 0 0 0
0.40930 109.27263 0 0 0
0.41810 109.35997 0 0 0
0.42690 109.8404 0 0 0
0.43570 110.90617 0 0 0
0.44451 110.68241 0 0 0
0.45331 109.78136 0 0 0
0.46211 108.82809 0 0 0
0.47091 107.98468 0 0 0
0.47972 108.22935 0 0 0
0.48852 108.37689 0 0 0
0.49732 108.45805 0 0 0
0.50612 107.65849 0 0 0
0.51492 107.2522 0 0 0
0.52373 107.41998 0 0 0
0.53253 107.80028 0 0 0
0.54133 108.13667 0 0 0
0.55013 108.32935 0 0 0
0.55893 108.55235 0 0 0
0.56774 109.03625 0 0 0
0.57654 109.60363 0 0 0
0.58534 109.87168 0 0 0
0.59414 110.87917 0 0 0
0.60295 110.66081 0 0 0
0.61175 110.01655 0 0 0
0.62055 108.67894 0 0 0
0.62935 108.49648 0 0 0
0.63815 107.97169 0 0 0
0.64696 107.7277 0 0 0
0.65576 109.18841 0 0 0
0.66456 109.43578 0 0 0
0.67336 108.33849 0 0 0
0.68216 107.62463 0 0 0
0.69097 108.08703 0 0 0
0.69977 108.52869 0 0 0
0.70857 108.96523 0 0 0
0.71737 109.05147 0 0 0
0.72617 109.2625 0 0 0
0.73498 109.00481 0 0 0
0.74378 108.8825 0 0 0
0.75258 109.72169 0 0 0
0.76138 110.17364 0 0 0
0.77019 109.29697 0 0 0
0.77899 108.75642 0 0 0
0.78779 109.15553 0 0 0
0.79659 110.03578 0 0 0
0.80539 111.07652 0 0 0
0.81420 112.58749 0 0 0
0.82300 113.39138 0 0 0
0.83180 112.96944 0 0 0
0.84060 112.29893 0 0 0
0.84940 112.4931 0 0 0
0.85821 113.14661 0 0 0
0.86701 114.02195 0 0 0
0.87581 115.60863 0 0 0
0.88461 116.97271 0 0 0
0.89342 117.37569 0 0 0
0.90222 117.7763 0 0 0
0.91102 119.23026 0 0 0
0.91982 121.13535 0 0 0
0.92862 122.31583 0 0 0
0.93743 122.64684 0 0 0
0.94623 123.72108 0 0 0
0.95503 124.21149 0 0 0
0.96383 126.23237 0 0 0
0.97263 128.73238 0 0 0
0.98144 130.93242 0 0 0
0.99024 131.40356 0 0 0
0.99904 132.6544 0 0 0
1.00784 138.28523 0 0 0
1.01664 140.55716 0 0 0
1.02545 146.403 0 0 0
1.03425 155.16234 0 0 0
1.04305 163.68265 0 0 0
1.05185 170.99052 0 0 0
1.06066 175.22482 0 0 0
1.06946 183.86848 0 0 0
1.07826 189.09421 0 0 0
1.08706 194.23079 0 0 0
1.09586 200.40193 0 0 0
1.10467 207.48166 0 0 0
1.11347 214.47026 0 0 0
1.12227 220.52007 0 0 0
1.13107 225.05391 0 0 0
1.13987 228.25838 0 0 0
1.14868 230.77504 0 0 0
1.15748 234.74667 0 0 0
1.16628 238.01508 0 0 0
1.17508 241.65512 0 0 0
1.18389 243.76929 0 0 0
1.19269 245.99893 0 0 0
1.20149 247.1091 0 0 0
1.21029 250.4324 0 0 0
1.21909 252.98518 0 0 0
1.22790 254.36986 0 0 0
1.23670 255.98082 0 0 0
1.24550 257.9122 0 0 0
1.25430 259.59964 0 0 0
1.26310 260.64218 0 0 0
1.27191 262.4653 0 0 0
1.28071 265.2951 0 0 0
1.28951 268.09335 0 0 0
1.29831 269.68604 0 0 0
1.30711 270.98105 0 0 0
1.31592 272.22772 0 0 0
1.32472 273.66409 0 0 0
1.33352 275.00653 0 0 0
1.34232 277.98199 0 0 0
1.35113 280.00452 0 0 0
1.35993 281.42441 0 0 0
1.36873 281.69635 0 0 0
1.37753 282.98959 0 0 0
1.38633 284.33783 0 0 0
1.39514 285.97137 0 0 0
1.40394 286.28076 0 0 0
1.41274 287.32913 0 0 0
1.42154 289.12146 0 0 0
1.43034 291.02408 0 0 0
1.43915 291.89642 0 0 0
1.44795 291.99954 0 0 0
1.45675 292.5983 0 0 0
1.46555 294.15805 0 0 0
1.47436 296.03088 0 0 0
1.48316 297.50784 0 0 0
1.49196 298.67538 0 0 0
1.50076 299.74606 0 0 0
1.50956 300.04092 0 0 0
1.51837 300.83554 0 0 0
1.52717 302.00137 0 0 0
1.53597 303.53229 0 0 0
1.54477 304.39771 0 0 0
1.55357 306.40793 0 0 0
1.56238 306.4126 0 0 0
1.57118 306.41891 0 0 0
1.57998 307.24908 0 0 0
1.58878 310.46439 0 0 0
1.59758 312.18356 0 0 0
1.60639 313.13431 0 0 0
1.61519 313.60013 0 0 0
1.62399 314.78201 0 0 0
1.63279 315.45349 0 0 0
1.64160 315.36697 0 0 0
1.65040 314.52551 0 0 0
1.65920 314.86816 0 0 0
1.66800 315.85416 0 0 0
1.67680 316.74698 0 0 0
1.68561 318.20123 0 0 0
1.69441 320.3468 0 0 0
1.70321 321.46078 0 0 0
1.71201 321.56702 0 0 0
1.72081 320.10342 0 0 0
1.72962 320.82513 0 0 0
1.73842 321.30322 0 0 0
1.74722 322.20987 0 0 0
1.75602 322.8533 0 0 0
1.76483 324.70679 0 0 0
1.77363 325.78619 0 0 0
1.78243 326.82233 0 0 0
1.79123 328.013 0 0 0
1.80003 328.4743 0 0 0
1.80884 328.35229 0 0 0
1.81764 329.61362 0 0 0
1.82644 331.02792 0 0 0
1.83524 331.56583 0 0 0
1.84404 331.63995 0 0 0
1.85285 333.05981 0 0 0
1.86165 333.70621 0 0 0
1.87045 335.24991 0 0 0
1.87925 335.73969 0 0 0
1.88805 335.93933 0 0 0
1.89686 335.75076 0 0 0
1.90566 335.61026 0 0 0
1.91446 336.32318 0 0 0
1.92326 337.59814 0 0 0
1.93207 338.65967 0 0 0
1.94087 339.44876 0 0 0
1.94967 339.89862 0 0 0
1.95847 339.63745 0 0 0
1.96727 340.35077 0 0 0
1.97608 342.5079 0 0 0
1.98488 343.90863 0 0 0
1.99368 344.44937 0 0 0
2.00248 344.14682 0 0 0
2.01128 344.74765 0 0 0
2.02009 345.2883 0 0 0
2.02889 345.22031 0 0 0
2.03769 345.54327 0 0 0
2.04649 346.45523 0 0 0
2.05530 347.29971 0 0 0
2.06410 348.34039 0 0 0
2.07290 348.74789 0 0 0
2.08170 349.36325 0 0 0
2.09050 349.44769 0 0 0
2.09931 350.24249 0 0 0
2.10811 351.62003 0 0 0
2.11691 351.97165 0 0 0
2.12571 351.57956 0 0 0
2.13451 352.48022 0 0 0
2.14332 353.07019 0 0 0
2.15212 353.05939 0 0 0
2.16092 353.79053 0 0 0
2.16972 354.83481 0 0 0
2.17852 355.84311 0 0 0
2.18733 357.71695 0 0 0
2.19613 358.47684 0 0 0
2.20493 357.87955 0 0 0
2.21373 357.15411 0 0 0
2.22254 358.72427 0 0 0
2.23134 359.43311 0 0 0
2.24014 360.05783 0 0 0
2.24894 360.4845 0 0 0
2.25774 360.68741 0 0 0
2.26655 360.25546 364.606405 364.60532 0.00277581
2.27535 360.76575 364.602442 364.601344 0.00277188
2.28415 362.78125 364.633602 364.632492 0.00275648
2.29295 363.89969 364.697973 364.696849 0.00274801
2.30175 363.60727 364.793711 364.792574 0.00275022
2.31056 363.52307 364.919054 364.917904 0.00275086
2.31936 364.02829 365.0723 365.071136 0.00274704
2.32816 364.14148 365.251816 365.250637 0.00274619
2.33696 363.6763 365.45603 365.454837 0.0027497
2.34576 363.99606 365.683436 365.682229 0.00274728
2.35457 365.17819 365.932597 365.931376 0.00273839
2.36337 366.44717 366.20212 366.200883 0.00272891
2.37217 367.36441 366.490681 366.489429 0.00272209
2.38097 367.582 366.796994 366.795726 0.00272048
2.38978 367.71826 367.119859 367.118575 0.00271947
2.39858 367.28589 367.458098 367.456798 0.00272267
2.40738 368.08817 367.810594 367.809277 0.00271674
2.41618 369.09335 368.176264 368.174931 0.00270934
2.42498 369.418 368.554113 368.552763 0.00270696
2.43379 369.9162 368.943151 368.941783 0.00270331
2.44259 370.10706 369.342441 369.341056 0.00270192
2.45139 370.33429 369.751104 369.7497 0.00270026
2.46019 371.74292 370.168272 370.16685 0.00269003
2.46899 373.40857 370.593165 370.591724 0.00267803
2.47780 374.00189 371.024999 371.023539 0.00267378
2.48660 374.14398 371.463042 371.461563 0.00267277
2.49540 374.24463 371.906582 371.905083 0.00267205
2.50420 374.87131 372.354988 372.353467 0.00266758
2.51301 374.64682 372.822941 372.806074 0.00266918
2.52181 374.86447 373.279296 373.262301 0.00266763
2.53061 375.5462 373.738709 373.721583 0.00266279
2.53941 376.5874 374.200655 374.183397 0.00265543
2.54821 376.53049 374.664629 374.647237 0.00265583
2.55702 376.73615 375.130148 375.11262 0.00265438
2.56582 376.43149 375.596745 375.579081 0.00265653
2.57462 376.457 376.064029 376.046225 0.00265635
2.58342 377.04462 376.531583 376.513639 0.00265221
2.59222 377.90048 376.999032 376.980946 0.0026462
2.60103 378.41446 377.466019 377.447789 0.00264261
2.60983 378.86859 377.932215 377.913838 0.00263944
2.61863 379.31207 378.39732 378.378796 0.00263635
2.62743 379.81854 378.861048 378.842374 0.00263284
2.63624 380.43024 379.323125 379.304299 0.0026286
2.64504 381.39383 379.783287 379.764307 0.00262196
2.65384 380.57822 380.241334 380.222198 0.00262758
2.66264 380.67282 380.697038 380.677744 0.00262693
2.67144 380.94775 381.150201 381.130747 0.00262503
2.68025 381.59839 381.600629 381.581012 0.00262056
2.68905 382.40088 382.048186 382.028405 0.00261506
2.69785 383.25748 382.492709 382.472761 0.00260921
2.70665 383.90051 382.934054 382.913937 0.00260484
2.71545 383.61276 383.372111 383.351822 0.0026068
2.72426 383.20163 383.806749 383.786286 0.00260959
2.73306 383.78821 384.2379 384.217261 0.0026056
2.74186 384.42444 384.665465 384.644647 0.00260129
2.75066 385.00638 385.089369 385.068369 0.00259736
2.75946 385.81595 385.509533 385.488349 0.00259191
2.76827 386.30701 385.925933 385.904562 0.00258861
2.77707 386.10675 386.338511 386.31695 0.00258996
2.78587 386.0177 386.747226 386.725473 0.00259055
2.79467 386.19254 387.152054 387.130105 0.00258938
2.80348 386.0173 387.552985 387.530838 0.00259056
2.81228 386.61569 387.95001 387.927661 0.00258655
2.82108 388.07632 388.343121 388.320567 0.00257681
2.82988 389.12045 388.732309 388.709548 0.0025699
2.83868 389.15012 389.117613 389.09464 0.0025697
2.84749 388.31305 389.499035 389.475849 0.00257524
2.85629 388.08627 389.8766 389.853196 0.00257675
2.86509 388.87305 390.250332 390.226706 0.00257153
2.87389 389.21252 390.620264 390.596414 0.00256929
2.88269 389.94977 390.986444 390.962365 0.00256443
2.89150 389.80319 391.348915 391.324603 0.0025654
2.90030 390.33823 391.70772 391.683172 0.00256188
2.90910 391.8923 392.062898 392.03811 0.00255172
2.91790 393.50629 392.414528 392.389496 0.00254126
2.92670 393.55521 392.762657 392.737376 0.00254094
2.93551 392.74734 393.107346 393.081812 0.00254617
2.94431 392.71454 393.448648 393.422857 0.00254638
2.95311 393.31732 393.786652 393.760599 0.00254248
2.96191 393.34695 394.121413 394.095093 0.00254228
2.97072 393.5896 394.45301 394.426418 0.00254072
2.97952 392.96161 394.781512 394.754643 0.00254478
2.98832 393.51718 395.106982 395.079832 0.00254119
2.99712 393.6839 395.429521 395.402084 0.00254011
3.00592 394.93692 395.749193 395.721464 0.00253205
3.01473 395.90411 396.066079 396.038052 0.00252586
3.02353 396.99622 396.380248 396.351917 0.00251892
3.03233 397.5257 396.691802 396.66316 0.00251556
3.04113 397.71368 397.000812 396.971854 0.00251437
3.04993 398.26666 397.307356 397.278075 0.00251088
3.05874 397.88803 397.611516 397.581905 0.00251327
3.06754 397.31992 397.913382 397.883435 0.00251686
3.07634 396.46854 398.213036 398.182746 0.00252227
3.08514 397.25134 398.510558 398.479916 0.0025173
3.09395 398.46329 398.806019 398.775019 0.00250964
3.10275 399.33755 399.099523 399.068156 0.00250415
3.11155 398.96228 399.39114 399.359398 0.0025065
3.12035 398.94446 399.680952 399.648826 0.00250661
3.12915 399.1571 399.969035 399.936517 0.00250528
3.13796 399.79852 400.255471 400.222551 0.00250126
3.14676 400.50589 400.540344 400.507013 0.00249684
3.15556 400.99854 400.823734 400.789981 0.00249377
3.16436 401.06476 401.105713 401.071528 0.00249336
3.17316 400.76242 401.386349 401.351721 0.00249524
3.18197 401.14975 401.665737 401.630654 0.00249283
3.19077 401.74908 401.943941 401.908392 0.00248912
3.19957 402.1806 402.221034 402.185005 0.00248645
3.20837 403.05389 402.497078 402.460558 0.00248106
3.21717 402.60046 402.772164 402.735137 0.00248385
3.22598 402.30203 403.046347 403.0088 0.00248569
3.23478 402.314 403.325793 403.281619 0.00248562
3.24358 402.92303 403.598426 403.553657 0.00248186
3.25238 403.39081 403.870352 403.82497 0.00247899
3.26119 403.19034 404.14165 404.095638 0.00248022
3.26999 403.54446 404.412376 404.365713 0.00247804
3.27879 403.64243 404.682588 404.635255 0.00247744
3.28759 403.63654 404.952337 404.904313 0.00247748
3.29639 404.25497 405.221699 405.172961 0.00247369
3.30520 404.83792 405.490718 405.441242 0.00247012
3.31400 405.04581 405.759455 405.709215 0.00246886
3.32280 405.91254 406.027953 405.976922 0.00246358
3.33160 405.87991 406.296272 406.244423 0.00246378
3.34040 405.94437 406.564463 406.511764 0.00246339
3.34921 406.49768 406.832572 406.77899 0.00246004
3.35801 407.04111 407.100644 407.046144 0.00245675
3.36681 407.59528 407.368716 407.313262 0.00245341
3.37561 408.53171 407.636851 407.580401 0.00244779
3.38442 408.70605 407.905078 407.84759 0.00244675
3.39322 407.80466 408.173446 408.114872 0.00245215
3.40202 408.30844 408.441983 408.382275 0.00244913
3.41082 409.20392 408.710739 408.649841 0.00244377
3.41962 408.98599 408.979751 408.917604 0.00244507
3.42843 408.3837 409.249051 409.185592 0.00244868
3.43723 409.10397 409.518666 409.453824 0.00244437
3.44603 410.72098 409.788647 409.722348 0.00243474
3.45483 412.10403 410.05902 409.991179 0.00242657
3.46363 411.98758 410.329817 410.260343 0.00242726
3.47244 410.70184 410.601061 410.529852 0.00243486
3.48124 409.81601 410.872801 410.799748 0.00244012
3.49004 409.84171 411.145059 411.070037 0.00243997
3.49884 410.36707 411.417871 411.340743 0.00243684
3.50764 410.90497 411.691267 411.611881 0.00243365
3.51645 411.1965 411.965271 411.883456 0.00243193
3.52525 411.12592 412.239937 412.1555 0.00243234
3.53405 411.71066 412.515292 412.428017 0.00242889
3.54285 412.05267 412.791377 412.701017 0.00242687
3.55166 413.10739 413.07375 412.974501 0.00242068
3.56046 413.28922 413.351467 413.248495 0.00241961
3.56926 413.86551 413.630057 413.522993 0.00241624
3.57806 413.82568 413.909589 413.798008 0.00241648
3.58686 414.47195 414.190127 414.073533 0.00241271
3.59567 414.09045 414.471766 414.349581 0.00241493
3.60447 414.30856 414.754613 414.626154 0.00241366
3.61327 414.89896 415.038791 414.903249 0.00241023
3.62207 415.28061 415.324459 415.180864 0.00240801
3.63087 414.71878 415.611805 415.458989 0.00241127
3.63968 414.94406 415.901101 415.73764 0.00240996
3.64848 415.28387 416.192657 416.016799 0.00240799
3.65728 416.02472 416.486903 416.296468 0.0024037
3.66608 416.52515 416.784392 416.576631 0.00240082
3.67489 416.48108 417.085887 416.857289 0.00240107
3.68369 416.22015 417.392428 417.138436 0.00240257
3.69249 416.89151 417.705466 417.420058 0.00239871
3.70129 417.48157 418.027099 417.702136 0.00239532
3.71009 417.88101 418.360693 417.984678 0.00239303
3.71890 418.24988 418.712854 418.267662 0.00239092
3.72770 418.44754 419.101382 418.551073 0.00238979
3.73650 419.03674 419.581485 418.834897 0.00238643
3.74530 419.66675 420.309498 419.11913 0.00238284
3.75410 420.07556 421.636781 419.403747 0.00238052
3.76291 420.1528 424.124446 419.688739 0.00238009
3.77171 425.23276 428.264492 419.974086 0.00235165
3.78051 434.37222 433.848698 420.259762 0.00230217
3.78931 458.64227 439.379428 420.545769 0.00218035
3.79811 474.78635 442.203672 420.832078 0.00210621
3.80692 467.92792 440.530088 421.118672 0.00213708
3.81572 442.92435 435.776478 421.405521 0.00225772
3.82452 432.59259 430.652753 421.692625 0.00231164
3.83332 426.11957 426.85141 421.979951 0.00234676
3.84213 424.00116 424.731755 422.267486 0.00235848
3.85093 423.50964 423.855517 422.555197 0.00236122
3.85973 423.60864 423.645423 422.843075 0.00236067
3.86853 423.04581 423.717861 423.131097 0.00236381
3.87733 422.54507 423.895149 423.419238 0.00236661
3.88614 422.94156 424.112921 423.707476 0.00236439
3.89494 422.9447 424.35037 423.995778 0.00236438
3.90374 422.95313 424.600024 424.284142 0.00236433
3.91254 422.78476 424.858228 424.572531 0.00236527
3.92134 423.7663 425.122723 424.86093 0.00235979
3.93015 424.01215 425.391941 425.149304 0.00235842
3.93895 424.19772 425.664777 425.437641 0.00235739
3.94775 424.33502 425.940411 425.725916 0.00235663
3.95655 424.72571 426.218229 426.014104 0.00235446
3.96535 425.20331 426.497752 426.30217 0.00235182
3.97416 425.87112 426.778639 426.590111 0.00234813
3.98296 426.64038 427.060593 426.877893 0.00234389
3.99176 426.22235 427.343382 427.16549 0.00234619
4.00056 426.31763 427.626828 427.452883 0.00234567
4.00937 426.9274 427.910766 427.740041 0.00234232
4.01817 428.29153 428.195089 428.026959 0.00233486
4.02697 428.7627 428.47966 428.313585 0.00233229
4.03577 428.7515 428.764401 428.599911 0.00233235
4.04457 428.99588 429.049253 428.885934 0.00233102
4.05338 428.39108 429.334107 429.171593 0.00233432
4.06218 427.66797 429.618919 429.456883 0.00233826
4.07098 427.65149 429.903652 429.7418 0.00233835
4.07978 427.19019 430.188226 430.02629 0.00234088
4.08858 428.03156 430.472623 430.310359 0.00233628
4.09739 428.62299 430.756772 430.593955 0.00233305
4.10619 429.15854 431.040654 430.877077 0.00233014
4.11499 429.35416 431.324246 431.159712 0.00232908
4.12379 430.15445 431.607485 431.441811 0.00232475
4.13260 430.86465 431.890361 431.723373 0.00232091
4.14140 431.00159 432.172856 432.004387 0.00232018
4.15020 430.87839 432.461825 432.284805 0.00232084
4.15900 431.12494 432.743504 432.564638 0.00231951
4.16780 431.66931 433.024703 432.84384 0.00231659
4.17661 431.64804 433.305409 433.122401 0.0023167
4.18541 430.98395 433.585621 433.400322 0.00232027
4.19421 430.26016 433.865291 433.677556 0.00232418
4.20301 430.75714 434.144427 433.954111 0.00232149
4.21181 431.83746 434.422983 434.229943 0.00231569
4.22062 432.3894 434.700959 434.50505 0.00231273
4.22942 432.32803 434.978358 434.779435 0.00231306
4.23822 432.67975 435.255131 435.053046 0.00231118
4.24702 432.99136 435.531282 435.325885 0.00230951
4.25582 433.22354 435.806816 435.597954 0.00230828
4.26463 432.95859 436.081694 435.869211 0.00230969
4.27343 433.34674 436.355931 436.139667 0.00230762
4.28223 434.31 436.629491 436.409281 0.0023025
4.29103 434.79352 436.902385 436.67806 0.00229994
4.29984 434.91058 437.174615 436.946001 0.00229932
4.30864 435.24277 437.44615 437.213065 0.00229757
4.31744 435.2663 437.717014 437.479271 0.00229744
4.32624 435.52054 437.987178 437.744583 0.0022961
4.33504 435.75369 438.256649 438.008999 0.00229487
4.34385 435.75507 438.525445 438.272529 0.00229487
4.35265 435.94302 438.793539 438.535137 0.00229388
4.36145 436.20166 439.060941 438.796825 0.00229252
4.37025 436.60638 439.327674 439.057602 0.00229039
4.37905 436.63867 439.593712 439.317433 0.00229022
4.38786 436.91586 439.859094 439.576344 0.00228877
4.39666 437.29391 440.123792 439.834294 0.00228679
4.40546 438.13611 440.388722 440.091296 0.0022824
4.41426 438.74368 440.652139 440.347361 0.00227924
4.42307 439.0777 440.914911 440.602457 0.0022775
4.43187 438.81656 441.177077 440.856607 0.00227886
4.44067 439.05197 441.438626 441.10978 0.00227763
4.44947 440.00174 441.699596 441.361994 0.00227272
4.45827 440.78165 441.960016 441.613254 0.0022687
4.46708 440.40176 442.219883 441.863535 0.00227065
4.47588 440.36026 442.479241 442.112853 0.00227087
4.48468 441.05502 442.738127 442.361219 0.00226729
4.49348 441.15247 442.996546 442.608608 0.00226679
4.50228 441.32611 443.254563 442.85505 0.0022659
4.51109 442.42172 443.51219 443.100521 0.00226029
4.51989 442.65491 443.769477 443.345035 0.0022591
4.52869 442.37933 444.026488 443.58861 0.0022605
4.53749 442.42789 444.283246 443.831227 0.00226026
4.54630 442.66895 444.539831 444.072913 0.00225902
4.55510 442.82361 444.796276 444.313647 0.00225824
4.56390 443.54459 445.052663 444.553451 0.00225456
4.57270 444.69897 445.30908 444.792347 0.00224871
4.58150 444.36835 445.565574 445.03031 0.00225039
4.59031 444.14389 445.822248 445.267364 0.00225152
4.59911 444.46841 446.079214 445.503531 0.00224988
4.60791 445.43384 446.33655 445.738796 0.002245
4.61671 445.6337 446.594397 445.97319 0.002244
4.62551 446.52753 446.852856 446.206699 0.0022395
4.63432 446.64026 447.112088 446.43935 0.00223894
4.64312 446.50381 447.372258 446.671163 0.00223962
4.65192 446.57706 447.633515 446.902125 0.00223926
4.66072 446.64478 447.896074 447.132265 0.00223892
4.66952 447.08029 448.170526 447.361603 0.00223673
4.67833 447.32858 448.436429 447.59013 0.00223549
4.68713 447.67188 448.704378 447.817886 0.00223378
4.69593 448.08844 448.974657 448.044862 0.0022317
4.70473 447.72354 449.247619 448.27108 0.00223352
4.71354 447.89563 449.523678 448.496573 0.00223266
4.72234 448.70108 449.803249 448.72133 0.00222866
4.73114 449.18423 450.08688 448.945396 0.00222626
4.73994 449.43677 450.375117 449.168759 0.00222501
4.74874 449.85855 450.668654 449.391449 0.00222292
4.75755 450.20694 450.968286 449.6135 0.0022212
4.76635 450.52643 451.274894 449.834905 0.00221963
4.77515 450.7417 451.589538 450.055692 0.00221857
4.78395 450.52075 451.913485 450.275896 0.00221965
4.79275 451.12283 452.248163 450.495513 0.00221669
4.80156 452.32275 452.595345 450.714584 0.00221081
4.81036 452.81345 452.957069 450.933108 0.00220841
4.81916 452.68326 453.335856 451.15112 0.00220905
4.82796 452.54062 453.734754 451.36865 0.00220975
4.83676 452.577 454.157414 451.585697 0.00220957
4.84557 453.07074 454.608442 451.802309 0.00220716
4.85437 453.45624 455.093443 452.018485 0.00220528
4.86317 454.53409 455.619543 452.234257 0.00220006
4.87197 455.68018 456.195795 452.449662 0.00219452
4.88078 456.97366 456.833695 452.664703 0.00218831
4.88958 456.95474 457.548316 452.879411 0.0021884
4.89838 457.17294 458.359553 453.093825 0.00218736
4.90718 458.53079 459.293871 453.307946 0.00218088
4.91598 460.22913 460.38762 453.521825 0.00217283
4.92479 461.4357 461.690979 453.73546 0.00216715
4.93359 463.11523 463.275569 453.948889 0.00215929
4.94239 466.50555 465.264049 454.162152 0.0021436
4.95119 471.76337 467.787208 454.375253 0.00211971
4.95999 480.69177 471.180528 454.588238 0.00208034
4.96880 497.19656 476.275315 454.801112 0.00201128
4.97760 532.07654 485.667437 455.013916 0.00187943
4.98640 606.85004 506.697655 455.226686 0.00164785
4.99520 719.05414 555.432959 455.439426 0.00139072
5.00401 880.15985 654.986568 455.65218 0.00113616
5.01281 1016.5092 818.383235 455.864982 0.00098376
5.02161 1105.121 1018.479624 456.077839 0.00090488
5.03041 1113.0308 1167.053364 456.290803 0.00089845
5.03921 1045.0496 1155.017216 456.503882 0.00095689
5.04802 899.87726 993.054937 456.71711 0.00111126
5.05682 733.17426 794.551372 456.930532 0.00136393
5.06562 612.01343 639.677385 457.144151 0.00163395
5.07442 544.32471 548.539353 457.358025 0.00183714
5.08322 509.32291 505.176944 457.572152 0.00196339
5.09203 491.5509 486.830992 457.786577 0.00203438
5.10083 481.77982 478.726912 458.001342 0.00207564
5.10963 475.21738 474.381717 458.216453 0.0021043
5.11843 471.05423 471.56914 458.431948 0.0021229
5.12723 469.71506 469.568326 458.647872 0.00212895
5.13604 468.58618 468.093064 458.864231 0.00213408
5.14484 467.02063 466.988248 459.081075 0.00214123
5.15364 465.6254 466.154543 459.298412 0.00214765
5.16244 465.10196 465.523747 459.516287 0.00215007
5.17125 464.83246 465.04777 459.734736 0.00215131
5.18005 464.5997 464.866342 459.953767 0.00215239
5.18885 464.79663 464.606617 460.173423 0.00215148
5.19765 465.04379 464.4226 460.393748 0.00215034
5.20645 464.95599 464.299875 460.614743 0.00215074
5.21526 465.15317 464.255612 460.836463 0.00214983
5.22406 466.36298 464.224786 461.058917 0.00214425
5.23286 467.12 464.228669 461.282142 0.00214078
5.24166 467.13608 464.261847 461.506182 0.0021407
5.25046 466.70163 464.319977 461.731041 0.0021427
5.25927 466.22592 464.399546 461.956778 0.00214488
5.26807 465.74466 464.497683 462.18339 0.0021471
5.27687 465.48422 464.612041 462.410923 0.0021483
5.28567 465.56744 464.740694 462.639418 0.00214792
5.29448 466.2652 464.882027 462.868881 0.0021447
5.30328 466.89975 465.034711 463.099348 0.00214179
5.31208 467.33224 465.197645 463.330865 0.00213981
5.32088 467.80847 465.369892 463.563436 0.00213763
5.32968 468.0108 465.550692 463.79711 0.0021367
5.33849 468.2338 465.739388 464.031893 0.00213569
5.34729 469.00116 465.935463 464.267828 0.00213219
5.35609 469.31125 466.138489 464.50495 0.00213078
5.36489 469.44998 466.348098 464.743264 0.00213015
5.37369 469.90244 466.564038 464.982824 0.0021281
5.38250 470.03809 466.786084 465.223633 0.00212749
5.39130 470.29965 467.014099 465.465727 0.0021263
5.40010 469.86148 467.248338 465.709147 0.00212829
5.40890 469.88354 467.488114 465.953894 0.00212819
5.41770 470.13696 467.753701 466.200011 0.00212704
5.42651 470.78964 468.005542 466.447531 0.00212409
5.43531 471.48215 468.263533 466.696456 0.00212097
5.44411 472.23508 468.527936 466.94684 0.00211759
5.45291 472.34988 468.799034 467.198681 0.00211707
5.46172 472.3811 469.077236 467.452014 0.00211693
5.47052 472.81226 469.363069 467.706881 0.002115
5.47932 473.29602 469.657131 467.963281 0.00211284
5.48812 473.01495 469.960232 468.221259 0.0021141
5.49692 472.85559 470.273304 468.480815 0.00211481
5.50573 473.21887 470.597565 468.741989 0.00211319
5.51453 474.31192 470.934492 469.004813 0.00210832
5.52333 473.98526 471.28591 469.269283 0.00210977
5.53213 473.47446 471.654147 469.535437 0.00211205
5.54093 473.19412 472.042163 469.803315 0.0021133
5.54974 473.45383 472.453649 470.072902 0.00211214
5.55854 474.24323 472.893499 470.344254 0.00210862
5.56734 475.03442 473.368012 470.617364 0.00210511
5.57614 476.19095 473.885588 470.892262 0.0021
5.58495 475.9791 474.457595 471.168986 0.00210093
5.59375 475.93854 475.099573 471.447526 0.00210111
5.60255 475.96588 475.833403 471.727936 0.00210099
5.61135 477.27231 476.690276 472.010196 0.00209524
5.62015 478.72217 477.716657 472.294345 0.00208889
5.62896 479.4689 478.986167 472.580418 0.00208564
5.63776 480.34036 480.640256 472.868402 0.00208186
5.64656 481.37909 483.048164 473.158326 0.00207736
5.65536 482.34189 487.356725 473.450226 0.00207322
5.66416 484.21878 496.784582 473.744089 0.00206518
5.67297 489.69739 518.098445 474.039959 0.00204208
5.68177 506.92313 560.166877 474.33782 0.00197269
5.69057 557.50824 625.809789 474.637708 0.0017937
5.69937 633.49152 699.295448 474.939649 0.00157855
5.70817 670.28497 739.761649 475.243626 0.0014919
5.71698 630.35419 712.354719 475.549671 0.00158641
5.72578 559.78113 642.196889 475.857817 0.00178641
5.73458 513.67908 573.555143 476.168037 0.00194674
5.74338 495.95493 527.194566 476.480382 0.00201631
5.75219 489.17667 503.037507 476.794828 0.00204425
5.76099 487.00519 492.539037 477.111409 0.00205337
5.76979 485.74332 488.214997 477.430146 0.0020587
5.77859 484.94012 486.222063 477.751019 0.00206211
5.78739 485.13263 485.126384 478.074073 0.00206129
5.79620 485.35406 484.46687 478.399287 0.00206035
5.80500 485.75214 484.077191 478.726679 0.00205866
5.81380 485.71759 483.876221 479.056281 0.00205881
5.82260 485.87338 483.81497 479.388069 0.00205815
5.83140 486.43661 483.861449 479.722061 0.00205577
5.84021 486.83316 483.994499 480.058288 0.00205409
5.84901 487.50296 484.200299 480.396722 0.00205127
5.85781 487.42206 484.470378 480.737401 0.00205161
5.86661 487.54642 484.800424 481.080295 0.00205109
5.87541 488.1521 485.189814 481.42543 0.00204854
5.88422 488.50891 485.642999 481.772834 0.00204705
5.89302 488.14948 486.163973 482.122464 0.00204855
5.90182 488.08905 486.766213 482.474369 0.00204881
5.91062 489.23828 487.468397 482.828515 0.00204399
5.91943 490.78998 488.299173 483.184917 0.00203753
5.92823 492.9592 489.302693 483.543603 0.00202857
5.93703 494.53424 490.551025 483.904533 0.0020221
5.94583 495.96985 492.1873 484.267734 0.00201625
5.95463 499.11026 494.595776 484.633219 0.00200357
5.96344 505.05264 498.968811 485.000952 0.00197999
5.97224 516.89063 508.572106 485.370973 0.00193465
5.98104 541.07666 529.94344 485.743245 0.00184817
5.98984 583.35992 570.842981 486.11778 0.00171421
5.99864 649.2005 631.865541 486.494601 0.00154036
6.00745 712.50494 694.864319 486.873668 0.0014035
6.01625 736.12463 719.615133 487.255013 0.00135847
6.02505 698.1676 683.344404 487.638593 0.00143232
6.03385 626.01715 618.670125 488.024433 0.0015974
6.04266 563.32208 562.114199 488.412539 0.00177518
6.05146 526.84412 526.776232 488.80287 0.00189809
6.06026 510.32065 509.466425 489.195441 0.00195955
6.06906 503.67892 502.201383 489.590274 0.00198539
6.07786 500.96527 499.176727 489.987309 0.00199615
6.08667 499.3161 497.724218 490.386589 0.00200274
6.09547 498.58429 496.913719 490.788063 0.00200568
6.10427 498.7149 496.442649 491.19175 0.00200515
6.11307 498.21948 496.190015 491.597655 0.00200715
6.12187 497.12173 496.090469 492.00573 0.00201158
6.13068 497.60196 496.102368 492.416011 0.00200964
6.13948 498.44852 496.197596 492.828447 0.00200623
6.14828 498.03076 496.356528 493.243043 0.00200791
6.15708 497.85318 496.565196 493.659816 0.00200862
6.16589 499.00748 496.813411 494.078713 0.00200398
6.17469 499.54141 497.093631 494.499737 0.00200184
6.18349 499.35144 497.400208 494.922906 0.0020026
6.19229 499.6882 497.728789 495.348163 0.00200125
6.20109 500.46313 498.076061 495.775535 0.00199815
6.20990 500.69528 498.439389 496.204965 0.00199722
6.21870 500.55194 498.816748 496.636464 0.00199779
6.22750 501.25677 499.206547 497.070047 0.00199499
6.23630 501.50702 499.607451 497.505642 0.00199399
6.24510 501.82538 500.018469 497.943262 0.00199273
6.25391 502.32254 500.438825 498.382923 0.00199075
6.26271 503.37885 500.867831 498.824548 0.00198658
6.27151 503.63004 501.305057 499.268177 0.00198558
6.28031 504.25336 501.750097 499.713743 0.00198313
6.28911 504.62894 502.202732 500.16126 0.00198165
6.29792 505.19885 502.662831 500.610725 0.00197942
6.30672 505.60278 503.130296 501.062074 0.00197784
6.31552 506.61307 503.605219 501.51534 0.00197389
6.32432 506.75714 504.087687 501.97046 0.00197333
6.33313 507.3389 504.577949 502.427428 0.00197107
6.34193 507.48053 505.076382 502.886258 0.00197052
6.35073 507.51434 505.583397 503.346881 0.00197039
6.35953 508.72519 506.099619 503.809295 0.0019657
6.36833 509.74414 506.625852 504.273509 0.00196177
6.37714 510.0481 507.163014 504.739456 0.0019606
6.38594 510.0799 507.712378 505.207156 0.00196048
6.39474 510.73465 508.275412 505.67654 0.00195796
6.40354 511.33743 508.854067 506.147613 0.00195566
6.41234 512.10052 509.450807 506.620385 0.00195274
6.42115 512.47632 510.068628 507.094768 0.00195131
6.42995 512.53967 510.711547 507.570798 0.00195107
6.43875 512.38428 511.401217 508.048399 0.00195166
6.44755 512.88934 512.111216 508.527579 0.00194974
6.45636 514.09161 512.916098 509.00833 0.00194518
6.46516 515.28607 513.729781 509.490579 0.00194067
6.47396 515.42096 514.617493 509.974334 0.00194016
6.48276 516.01477 515.602201 510.459587 0.00193793
6.49156 517.12225 516.716578 510.946263 0.00193378
6.50037 518.71899 518.008984 511.434391 0.00192783
6.50917 520.01788 519.553363 511.923896 0.00192301
6.51797 521.10284 521.477094 512.414768 0.00191901
6.52677 522.48761 524.063046 512.907015 0.00191392
6.53557 525.17767 528.137054 513.400559 0.00190412
6.54438 529.33307 536.175425 513.895419 0.00188917
6.55318 538.2193 554.107107 514.391516 0.00185798
6.56198 559.97418 591.376386 514.888851 0.0017858
6.57078 608.89063 654.394984 515.387431 0.00164233
6.57958 685.58856 732.806319 515.887159 0.0014586
6.58839 741.76526 786.672847 516.388041 0.00134814
6.59719 729.42242 768.600761 516.890078 0.00137095
6.60599 664.37952 697.197516 517.39319 0.00150516
6.61479 601.32312 624.226403 517.897393 0.001663
6.62360 565.93353 574.644374 518.402607 0.00176699
6.63240 549.7912 548.899067 518.908837 0.00181887
6.64120 541.89368 537.77178 519.416071 0.00184538
6.65000 537.16211 533.187599 519.924228 0.00186164
6.65880 533.91986 531.076092 520.433334 0.00187294
6.66761 532.17035 529.946823 520.943309 0.0018791
6.67641 531.42474 529.31528 521.45414 0.00188173
6.68521 531.49188 528.996433 521.96583 0.0018815
6.69401 531.44373 528.89491 522.478298 0.00188167
6.70281 530.8324 528.952194 522.99153 0.00188383
6.71162 530.9707 529.130028 523.50553 0.00188334
6.72042 531.70013 529.403105 524.020215 0.00188076
6.72922 531.62561 529.755289 524.535601 0.00188102
6.73802 531.2561 530.177099 525.051604 0.00188233
6.74682 532.37372 530.665018 525.568222 0.00187838
6.75563 533.51685 531.221855 526.085458 0.00187436
6.76443 534.43823 531.860008 526.603211 0.00187112
6.77323 535.83093 532.616929 527.121485 0.00186626
6.78203 537.078 533.613068 527.640278 0.00186193
6.79084 538.53253 535.2085 528.159504 0.0018569
6.79964 540.0318 538.229611 528.679179 0.00185174
6.80844 543.06354 543.88722 529.199218 0.00184141
6.81724 546.91858 552.780391 529.719624 0.00182843
6.82604 551.83557 563.062323 530.240385 0.00181213
6.83485 556.58978 568.996448 530.761413 0.00179666
6.84365 559.36755 565.501311 531.282737 0.00178773
6.85245 558.13898 556.595707 531.80427 0.00179167
6.86125 555.01532 548.501906 532.326 0.00180175
6.87005 551.40491 543.576665 532.847928 0.00181355
6.87886 549.27057 541.450371 533.36997 0.0018206
6.88766 548.28558 540.912172 533.892112 0.00182387
6.89646 547.10846 541.060766 534.414356 0.00182779
6.90526 545.97241 541.482529 534.936611 0.00183159
6.91407 544.68176 542.035583 535.458911 0.00183593
6.92287 545.13544 542.675994 535.981152 0.00183441
6.93167 546.13281 543.389301 536.503339 0.00183106
6.94047 547.12262 544.171627 537.025467 0.00182774
6.94927 548.71588 545.025142 537.547453 0.00182244
6.95808 549.90924 545.957463 538.069311 0.00181848
6.96688 550.7912 546.981639 538.590957 0.00181557
6.97568 551.26025 548.117761 539.112394 0.00181403
6.98448 552.922 549.395234 539.633608 0.00180857
6.99328 554.67108 550.856672 540.154515 0.00180287
7.00209 557.08478 552.56524 540.675117 0.00179506
7.01089 559.5473 554.626875 541.195403 0.00178716
7.01969 562.43848 557.176152 541.715287 0.00177797
7.02849 566.4668 560.524957 542.234796 0.00176533
7.03729 574.08105 565.461091 542.753847 0.00174191
7.04610 586.28723 574.381959 543.272426 0.00170565
7.05490 604.8996 593.686693 543.790538 0.00165317
7.06370 635.66791 635.565293 544.308098 0.00157315
7.07250 686.29388 712.764351 544.825124 0.0014571
7.08131 760.07068 821.527201 545.341532 0.00131567
7.09011 848.05432 919.058362 545.857321 0.00117917
7.09891 900.25647 927.380222 546.372495 0.00111079
7.10771 898.87189 838.598162 546.886955 0.00111251
7.11651 847.95532 729.38173 547.400705 0.00117931
7.12532 773.54395 648.837727 547.913746 0.00129275
7.13412 706.0835 604.547412 548.425995 0.00141626
7.14292 655.87738 584.722342 548.937469 0.00152468
7.15172 622.96252 576.568077 549.448087 0.00160523
7.16052 600.91693 572.969922 549.957854 0.00166412
7.16933 588.81415 571.17649 550.46676 0.00169833
7.17813 581.89172 570.285816 550.974724 0.00171853
7.18693 579.2771 569.970846 551.481774 0.00172629
7.19573 577.59271 570.075331 551.987832 0.00173132
7.20453 576.052 570.510706 552.492885 0.00173595
7.21334 575.10474 571.226498 552.996942 0.00173881
7.22214 575.34283 572.197819 553.499923 0.00173809
7.23094 576.43329 573.419729 554.001818 0.00173481
7.23974 578.59369 574.905024 554.502634 0.00172833
7.24855 580.27832 576.684683 555.002288 0.00172331
7.25735 582.18567 578.812065 555.500815 0.00171767
7.26615 584.31976 581.36962 555.998121 0.00171139
7.27495 587.07849 584.482475 556.494215 0.00170335
7.28375 590.74347 588.343004 556.989098 0.00169278
7.29256 595.54858 593.264958 557.482696 0.00167912
7.30136 604.94855 599.862882 557.974998 0.00165303
7.31016 618.10248 609.741694 558.466015 0.00161785
7.31896 639.34833 627.652459 558.955671 0.00156409
7.32777 676.46948 665.689847 559.443986 0.00147826
7.33657 750.49359 745.405698 559.930887 0.00133246
7.34537 884.98871 886.633964 560.416383 0.00112996
7.35417 1085.0398 1077.687063 560.900468 0.00092163
7.36297 1265.8259 1239.541612 561.383068 0.00079
7.37178 1322.3511 1255.37317 561.864216 0.00075623
7.38058 1239.7754 1157.323594 562.34384 0.0008066
7.38938 1120.3907 1068.004199 562.821935 0.00089255
7.39818 1020.6185 1012.114584 563.29851 0.0009798
7.40698 918.04938 935.438894 563.773497 0.00108927
7.41579 815.61914 832.424502 564.24689 0.00122606
7.42459 731.61041 743.294273 564.7187 0.00136685
7.43339 678.58417 686.400139 565.188854 0.00147366
7.44219 650.76294 658.384429 565.657389 0.00153666
7.45099 638.06061 648.016029 566.124224 0.00156725
7.45980 633.94745 646.312644 566.589369 0.00157742
7.46860 632.63177 648.95925 567.052832 0.0015807
7.47740 637.35834 654.550796 567.514548 0.00156898
7.48620 642.58575 662.894418 567.974539 0.00155621
7.49501 653.74255 674.309057 568.432741 0.00152965
7.50381 664.83411 689.494705 568.889167 0.00150413
7.51261 682.52942 709.598946 569.343816 0.00146514
7.52141 707.14294 736.468633 569.796624 0.00141414
7.53021 742.69647 773.234932 570.247606 0.00134645
7.53902 808.35248 826.365855 570.696761 0.00123708
7.54782 897.91559 913.484142 571.144027 0.00111369
7.55662 1079.7385 1086.91754 571.58944 0.00092615
7.56542 1398.3879 1475.611633 572.03294 0.00071511
7.57422 2155.8662 2295.513984 572.474526 0.00046385
7.58303 3469.5337 3713.660059 572.914214 0.00028822
7.59183 5863.9946 5528.399177 573.351942 0.00017053
7.60063 7218.3501 6810.533844 573.78775 0.00013854
7.60943 6584.9199 6419.764918 574.221565 0.00015186
7.61823 4723.5684 4909.533313 574.653406 0.0002117
7.62704 3473.5015 3530.124455 575.083283 0.00028789
7.63584 2727.5398 2707.049454 575.511142 0.00036663
7.64464 2180.0249 2195.823112 575.936985 0.00045871
7.65344 1748.8699 1724.981949 576.360831 0.0005718
7.66225 1329.6781 1321.466437 576.782626 0.00075206
7.67105 1065.054 1041.028986 577.202397 0.00093892
7.67985 885.0387 877.74876 577.620092 0.00112989
7.68865 789.49109 791.759596 578.03573 0.00126664
7.69745 731.08551 745.004752 578.449316 0.00136783
7.70626 698.13409 716.01349 578.8608 0.00143239
7.71506 676.87396 695.805847 579.27022 0.00147738
7.72386 661.23486 680.918889 579.677526 0.00151232
7.73266 651.67444 669.783494 580.082725 0.00153451
7.74146 643.01019 661.527173 580.485838 0.00155519
7.75027 638.68042 655.638816 580.886817 0.00156573
7.75907 635.64941 651.862852 581.28567 0.00157319
7.76787 636.53259 650.196406 581.682418 0.00157101
7.77667 638.75439 651.028955 582.077011 0.00156555
7.78548 646.1308 655.716621 582.469493 0.00154767
7.79428 661.08508 668.367347 582.859807 0.00151266
7.80308 690.31427 699.651828 583.247974 0.00144862
7.81188 748.74091 770.000722 583.634014 0.00133558
7.82068 868.92499 901.540189 584.017884 0.00115085
7.82949 1063.3986 1090.374101 584.399595 0.00094038
7.83829 1244.4214 1266.653891 584.779169 0.00080359
7.84709 1267.9622 1286.84157 585.156567 0.00078867
7.85589 1092.8107 1125.363202 585.53182 0.00091507
7.86469 896.91638 924.710943 585.90489 0.00111493
7.87350 761.51105 776.435218 586.275801 0.00131318
7.88230 696.96344 693.693397 586.644566 0.0014348
7.89110 661.29913 654.998781 587.011148 0.00151217
7.89990 641.98267 637.356961 587.375587 0.00155767
7.90870 629.68079 628.047632 587.737849 0.00158811
7.91751 621.80402 622.119905 588.097947 0.00160822
7.92631 616.75684 617.903815 588.455906 0.00162138
7.93511 612.85345 614.753303 588.81169 0.00163171
7.94391 610.51013 612.337188 589.165324 0.00163797
7.95272 608.61713 610.448858 589.516824 0.00164307
7.96152 606.75391 608.954062 589.866156 0.00164811
7.97032 605.91504 607.753847 590.213366 0.0016504
7.97912 605.33209 606.789459 590.55842 0.00165199
7.98792 605.41626 606.001312 590.901337 0.00165176
7.99673 604.47784 605.359077 591.242143 0.00165432
8.00553 603.99817 604.835697 591.58083 0.00165563
8.01433 603.37103 604.410508 591.917356 0.00165736
8.02313 604.36346 604.067166 592.251808 0.00165463
8.03193 604.13556 603.792968 592.584154 0.00165526
8.04074 603.79889 603.577668 592.914369 0.00165618
8.04954 602.72595 603.412964 593.242526 0.00165913
8.05834 602.07446 603.292145 593.568599 0.00166092
8.06714 602.42993 603.209646 593.892564 0.00165994
8.07594 602.53027 603.160861 594.214496 0.00165967
8.08475 602.62402 603.14198 594.534369 0.00165941
8.09355 601.99939 603.149818 594.852161 0.00166113
8.10235 602.39966 603.181695 595.167946 0.00166003
8.11115 602.73816 603.235409 595.481702 0.0016591
8.11996 603.18347 603.380009 595.793438 0.00165787
8.12876 602.6153 603.472738 596.103135 0.00165943
8.13756 602.90936 603.582875 596.410866 0.00165862
8.14636 602.90601 603.709575 596.716612 0.00165863
8.15516 602.69012 603.852316 597.020351 0.00165923
8.16397 602.41742 604.010947 597.32216 0.00165998
8.17277 602.41669 604.185691 597.62202 0.00165998
8.18157 602.48151 604.377235 597.919911 0.0016598
8.19037 602.78107 604.58694 598.21591 0.00165898
8.19917 603.3736 604.816924 598.509998 0.00165735
8.20798 603.95557 605.070441 598.802156 0.00165575
8.21678 604.32703 605.352482 599.092468 0.00165473
8.22558 604.63531 605.670432 599.380909 0.00165389
8.23438 604.2738 606.035593 599.667496 0.00165488
8.24319 603.59192 606.477822 599.952213 0.00165675
8.25199 603.92188 607.005749 600.235142 0.00165584
8.26079 604.69263 607.723336 600.51626 0.00165373
8.26959 605.60327 608.772028 600.795556 0.00165125
8.27839 608.04413 610.725437 601.073108 0.00164462
8.28720 612.29492 614.804698 601.348905 0.0016332
8.29600 618.77515 622.751895 601.622926 0.0016161
8.30480 627.63159 635.34556 601.895253 0.00159329
8.31360 637.78058 649.548727 602.165873 0.00156794
8.32240 642.67963 656.023557 602.434777 0.00155599
8.33121 639.25653 648.191544 602.702037 0.00156432
8.34001 630.20996 634.246294 602.967643 0.00158677
8.34881 620.15314 622.709663 603.231615 0.0016125
8.35761 613.31195 615.864513 603.493944 0.00163049
8.36641 609.2937 612.644637 603.754703 0.00164124
8.37522 607.52142 611.327454 604.013885 0.00164603
8.38402 606.73456 610.800696 604.271482 0.00164817
8.39282 606.57172 610.588155 604.527567 0.00164861
8.40162 605.84729 610.524691 604.782135 0.00165058
8.41043 605.49384 610.549966 605.035178 0.00165154
8.41923 605.02234 610.635355 605.286771 0.00165283
8.42803 605.36499 610.76394 605.536906 0.0016519
8.43683 605.67902 610.92483 605.78558 0.00165104
8.44563 605.70953 611.110778 606.032865 0.00165096
8.45444 606.03656 611.316769 606.278757 0.00165007
8.46324 606.96643 611.539368 606.523277 0.00164754
8.47204 607.18512 611.776141 606.766423 0.00164694
8.48084 607.54755 612.025465 607.008265 0.00164596
8.48964 607.76099 612.28617 607.248802 0.00164538
8.49845 607.80273 612.557502 607.488031 0.00164527
8.50725 607.44971 612.839082 607.726023 0.00164623
8.51605 607.71362 613.130693 607.962777 0.00164551
8.52485 608.09302 613.432344 608.198292 0.00164449
8.53366 608.3446 613.744294 608.432638 0.00164381
8.54246 608.5163 614.066888 608.665816 0.00164334
8.55126 608.89948 614.400613 608.897821 0.00164231
8.56006 609.03149 614.746241 609.128733 0.00164195
8.56886 608.96021 615.104499 609.358544 0.00164214
8.57767 608.67548 615.47656 609.58728 0.00164291
8.58647 609.26776 615.86353 609.814939 0.00164131
8.59527 610.56567 616.266902 610.0416 0.00163783
8.60407 611.15509 616.688289 610.267255 0.00163625
8.61287 610.83447 617.12956 610.491907 0.0016371
8.62168 610.71381 617.59307 610.715631 0.00163743
8.63048 611.46216 618.081373 610.938427 0.00163542
8.63928 612.52051 618.597442 611.160291 0.0016326
8.64808 613.28259 619.147699 611.3813 0.00163057
8.65689 613.4671 619.730819 611.601454 0.00163008
8.66569 613.67822 620.354365 611.820755 0.00162952
8.67449 613.73578 621.016968 612.039273 0.00162937
8.68329 614.82336 621.740249 612.25701 0.00162648
8.69209 615.2464 622.525118 612.473992 0.00162537
8.70090 616.27612 623.381587 612.690223 0.00162265
8.70970 617.22717 624.321976 612.90577 0.00162015
8.71850 618.61633 625.36112 613.120638 0.00161651
8.72730 619.44873 626.517255 613.33483 0.00161434
8.73610 620.41962 627.813584 613.548415 0.00161181
8.74491 621.51605 629.27876 613.761397 0.00160897
8.75371 622.96088 630.949138 613.97378 0.00160524
8.76251 624.02527 632.872249 614.185631 0.0016025
8.77131 625.61194 635.111601 614.396956 0.00159843
8.78011 627.83154 637.743279 614.607758 0.00159278
8.78892 630.92603 640.879448 614.818107 0.00158497
8.79772 634.47083 644.669181 615.028004 0.00157612
8.80652 638.73132 649.321276 615.237478 0.0015656
8.81532 644.81165 655.133641 615.446531 0.00155084
8.82413 652.8609 662.548653 615.655231 0.00153172
8.83293 664.14063 672.252182 615.863584 0.00150571
8.84173 681.03131 685.452918 616.071593 0.00146836
8.85053 708.09064 704.796516 616.279327 0.00141225
8.85933 754.95538 737.020887 616.486789 0.00132458
8.86814 839.23926 798.580878 616.693983 0.00119156
8.87694 991.66376 922.254857 616.900978 0.00100841
8.88574 1245.5322 1155.289218 617.107778 0.00080287
8.89454 1600.8414 1532.037703 617.314385 0.00062467
8.90334 2009.7562 2003.158771 617.520872 0.00049757
8.91215 2317.5596 2405.643739 617.727237 0.00043149
8.92095 2415.0906 2534.860415 617.933508 0.00041406
8.92975 2208.7561 2217.912458 618.139685 0.00045274
8.93855 1798.1808 1683.761082 618.345844 0.00055612
8.94736 1359.9801 1234.154681 618.551981 0.0007353
8.95616 1067.8873 955.467222 618.758099 0.00093643
8.96496 887.34393 813.31643 618.964271 0.00112696
8.97376 788.50842 746.694494 619.170499 0.00126822
8.98256 732.1109 713.196343 619.376781 0.00136591
8.99137 697.94995 693.291383 619.583189 0.00143277
9.00017 675.85565 679.792012 619.789724 0.00147961
9.00897 661.56116 670.0173 619.99639 0.00151158
9.01777 652.89697 662.706725 620.203253 0.00153164
9.02657 646.85669 657.125898 620.410316 0.00154594
9.03538 641.54425 652.799024 620.617602 0.00155874
9.04418 637.36365 649.404707 620.825114 0.00156896
9.05298 634.99988 646.71843 621.032918 0.0015748
9.06178 633.00452 644.581918 621.241016 0.00157977
9.07058 632.03717 642.880482 621.449409 0.00158219
9.07939 631.23938 641.529379 621.658165 0.00158419
9.08819 630.65735 640.466179 621.867283 0.00158565
9.09699 630.46674 639.644214 622.076766 0.00158613
9.10579 629.92261 639.028313 622.286679 0.0015875
9.11460 629.88422 638.592634 622.497023 0.00158759
9.12340 630.22797 638.318426 622.707798 0.00158673
9.13220 630.54565 638.192881 622.91907 0.00158593
9.14100 630.95123 638.208148 623.13084 0.00158491
9.14980 631.10028 638.36141 623.343106 0.00158453
9.15861 631.21185 638.65349 623.555935 0.00158425
9.16741 632.00098 639.102179 623.769325 0.00158228
9.17621 632.95105 639.708116 623.983298 0.0015799
9.18501 634.11963 640.476596 624.197852 0.00157699
9.19381 636.59613 641.445169 624.413053 0.00157085
9.20262 640.52411 642.649449 624.628899 0.00156122
9.21142 645.14764 644.138832 624.845388 0.00155003
9.22022 651.77289 645.982021 625.062583 0.00153428
9.22902 657.44775 648.275035 625.280484 0.00152103
9.23782 662.80029 651.153485 625.499085 0.00150875
9.24663 669.57697 654.815796 625.718457 0.00149348
9.25543 679.26056 659.557061 625.93859 0.00147219
9.26423 691.03668 665.852062 626.15948 0.0014471
9.27303 706.56995 674.563249 626.381195 0.00141529
9.28184 726.89325 687.549348 626.603732 0.00137572
9.29064 756.48492 709.368599 626.827104 0.0013219
9.29944 802.38184 750.957813 627.051306 0.00124629
9.30824 877.39868 834.847528 627.276406 0.00113973
9.31704 1005.1502 993.901184 627.502399 0.00099488
9.32585 1208.9932 1248.708002 627.729271 0.00082713
9.33465 1462.2719 1561.181228 627.957094 0.00068387
9.34345 1661.5508 1786.085931 628.185857 0.00060185
9.35225 1674.9712 1717.694792 628.415555 0.00059703
9.36105 1472.2841 1413.791278 628.646249 0.00067922
9.36986 1217.9908 1104.77501 628.877933 0.00082102
9.37866 997.24005 893.570754 629.110598 0.00100277
9.38746 857.82538 779.156434 629.344307 0.00116574
9.39626 775.79633 724.993381 629.579051 0.001289
9.40507 731.83966 699.210277 629.814845 0.00136642
9.41387 710.08752 685.207553 630.05168 0.00140828
9.42267 703.86438 676.519371 630.289617 0.00142073
9.43147 706.76263 670.859578 630.528646 0.0014149
9.44027 712.41669 667.321247 630.768757 0.00140367
9.44908 729.31281 665.515487 631.010012 0.00137115
9.45788 742.23657 665.401492 631.252398 0.00134728
9.46668 759.09058 667.485106 631.495905 0.00131737
9.47548 772.4472 673.652797 631.740594 0.00129459
9.48428 788.31635 688.863769 631.986452 0.00126853
9.49309 799.77887 722.244194 632.233465 0.00125035
9.50189 817.63354 783.246599 632.481697 0.00122304
9.51069 842.16064 869.462137 632.731132 0.00118742
9.51949 870.49518 947.215276 632.981782 0.00114877
9.52829 905.25098 950.781732 633.23363 0.00110467
9.53710 909.36163 875.69556 633.48674 0.00109967
9.54590 878.5672 787.233353 633.741095 0.00113822
9.55470 819.44788 722.563987 633.996679 0.00122033
9.56350 767.73096 685.821266 634.253553 0.00130254
9.57231 725.38098 667.925308 634.5117 0.00137859
9.58111 698.84283 659.373059 634.771099 0.00143094
9.58991 679.29974 654.744468 635.03182 0.0014721
9.59871 666.92859 651.811253 635.293836 0.00149941
9.60751 658.72668 649.765996 635.557128 0.00151808
9.61632 654.04626 648.278044 635.821763 0.00152894
9.62512 650.52942 647.174324 636.087721 0.00153721
9.63392 648.66302 646.34734 636.355003 0.00154163
9.64272 646.59741 645.725395 636.623588 0.00154656
9.65152 645.23096 645.259015 636.893542 0.00154983
9.66033 644.47046 644.91333 637.164844 0.00155166
9.66913 643.68134 644.664392 637.437463 0.00155356
9.67793 643.47607 644.490663 637.711468 0.00155406
9.68673 643.70825 644.379438 637.986833 0.0015535
9.69553 643.39624 644.319939 638.263535 0.00155425
9.70434 642.7005 644.303752 638.541634 0.00155593
9.71314 642.49432 644.324316 638.821106 0.00155643
9.72194 642.93396 644.376396 639.101925 0.00155537
9.73074 643.38959 644.45718 639.384151 0.00155427
9.73955 643.53064 644.560487 639.66776 0.00155393
9.74835 643.33405 644.684931 639.952754 0.0015544
9.75715 643.48529 644.828227 640.239105 0.00155404
9.76595 643.57361 644.988522 640.526874 0.00155382
9.77475 643.93365 645.164266 640.816033 0.00155296
9.78356 644.31006 645.354173 641.106554 0.00155205
9.79236 644.09253 645.557237 641.398496 0.00155257
9.80116 643.9682 645.772601 641.691831 0.00155287
9.80996 643.979 645.999577 641.98653 0.00155285
9.81876 644.48602 646.237694 642.282651 0.00155162
9.82757 645.08704 646.486569 642.580164 0.00155018
9.83637 645 646.746527 642.879039 0.00155039
9.84517 645.00317 647.016375 643.179335 0.00155038
9.85397 645.26587 647.296722 643.48102 0.00154975
9.86278 645.74036 647.587777 643.784093 0.00154861
9.87158 646.0304 647.889892 644.088521 0.00154791
9.88038 646.65863 648.203711 644.394363 0.00154641
9.88918 647.43311 648.530027 644.701586 0.00154456
9.89798 647.88495 648.86992 645.010155 0.00154348
9.90679 647.22058 649.224943 645.320131 0.00154507
9.91559 647.37537 649.597024 645.631477 0.0015447
9.92439 648.13184 649.988697 645.944156 0.0015429
9.93319 648.9834 650.403476 646.258236 0.00154087
9.94199 649.80988 650.845866 646.573672 0.00153891
9.95080 650.02319 651.321961 646.890425 0.00153841
9.95960 650.39008 651.840285 647.208564 0.00153754
9.96840 651.21869 652.412491 647.528049 0.00153558
9.97720 652.62952 653.05519 647.848869 0.00153226
9.98600 654.14783 653.792477 648.170985 0.00152871
9.99481 656.19946 654.660969 648.494462 0.00152393
10.00361 659.12653 655.71951 648.819274 0.00151716
10.01241 662.95618 657.080038 649.145332 0.0015084
10.02121 666.75696 659.013658 649.472769 0.0014998
10.03002 670.74341 662.246922 649.801467 0.00149088
10.03882 674.63721 668.506682 650.131418 0.00148228
10.04762 678.42322 680.804996 650.462726 0.00147401
10.05642 682.24457 702.131375 650.795272 0.00146575
10.06522 687.18958 731.634326 651.129083 0.0014552
10.07403 694.1424 758.481818 651.464151 0.00144063
10.08283 700.16467 761.26394 651.800505 0.00142824
10.09163 700.76965 737.405258 652.138061 0.001427
10.10043 695.35107 708.114044 652.476807 0.00143812
10.10923 685.80383 686.212199 652.81685 0.00145814
10.11804 676.63202 673.599068 653.158064 0.00147791
10.12684 671.12109 667.555443 653.500478 0.00149004
10.13564 667.28162 664.946306 653.84408 0.00149862
10.14444 664.55475 663.870156 654.1889 0.00150477
10.15325 662.40198 663.518095 654.534808 0.00150966
10.16205 661.06812 663.626221 654.881912 0.0015127
10.17085 661.19977 664.181839 655.2302 0.0015124
10.17965 662.01624 665.425124 655.579541 0.00151054
10.18845 663.7998 668.033573 655.930082 0.00150648
10.19726 667.06287 673.356572 656.281692 0.00149911
10.20606 672.59558 682.960782 656.634439 0.00148678
10.21486 679.96997 697.042426 656.988189 0.00147065
10.22366 687.48798 711.640951 657.34305 0.00145457
10.23246 690.31201 716.675431 657.699009 0.00144862
10.24127 686.89856 707.211645 658.055932 0.00145582
10.25007 679.6875 692.54001 658.413967 0.00147126
10.25887 673.50604 680.619209 658.772979 0.00148477
10.26767 669.4967 673.380206 659.132995 0.00149366
10.27647 667.28107 669.81763 659.494001 0.00149862
10.28528 666.52954 668.310075 659.855982 0.00150031
10.29408 665.52899 667.737748 660.218924 0.00150256
10.30288 664.55066 667.572013 660.582813 0.00150478
10.31168 664.09766 667.612507 660.947675 0.0015058
10.32048 664.75635 667.774342 661.31337 0.00150431
10.32929 664.81244 668.023283 661.680051 0.00150418
10.33809 664.71112 668.337713 662.047576 0.00150441
10.34689 664.77399 668.703551 662.415973 0.00150427
10.35569 665.35571 669.112637 662.785225 0.00150296
10.36450 666.26459 669.558705 663.155316 0.00150091
10.37330 667.55414 670.038097 663.526274 0.00149801
10.38210 667.90625 670.548454 663.897955 0.00149722
10.39090 667.77423 671.089019 664.270512 0.00149751
10.39971 667.98834 671.659514 664.643802 0.00149703
10.40851 668.79224 672.260735 665.017809 0.00149523
10.41731 669.53595 672.894385 665.392642 0.00149357
10.42611 670.03101 673.562531 665.768159 0.00149247
10.43491 670.09229 674.268377 666.144385 0.00149233
10.44371 671.06561 675.015884 666.521302 0.00149017
10.45252 672.33118 675.810903 666.898937 0.00148736
10.46132 673.33325 676.658304 667.277187 0.00148515
10.47012 674.50659 677.571158 667.656034 0.00148257
10.47892 675.6402 678.550469 668.03559 0.00148008
10.48773 676.90533 679.612249 668.415709 0.00147731
10.49653 679.06592 680.769896 668.796416 0.00147261
10.50533 681.09308 682.031881 669.177693 0.00146823
10.51413 682.08118 683.377198 669.559523 0.0014661
10.52293 684.44135 684.689448 669.941888 0.00146105
10.53174 687.6947 685.678964 670.324769 0.00145413
10.54054 691.802 686.006581 670.708194 0.0014455
10.54934 698.31348 685.988763 671.092013 0.00143202
10.55814 709.23608 687.973831 671.476382 0.00140997
10.56695 725.5387 697.887465 671.861152 0.00137829
10.57575 749.81702 724.036312 672.246349 0.00133366
10.58455 778.61066 767.199439 672.631955 0.00128434
10.59335 806.55005 815.866318 673.017952 0.00123985
10.60215 829.38977 857.494627 673.404364 0.00120571
10.61096 839.98822 887.89385 673.791043 0.00119049
10.61976 836.59534 889.553126 674.178145 0.00119532
10.62856 815.91846 852.614469 674.56552 0.00122561
10.63736 784.24561 804.364915 674.953195 0.00127511
10.64616 756.37146 767.258372 675.34115 0.0013221
10.65497 735.89191 746.217662 675.729367 0.0013589
10.66377 723.58154 737.995472 676.117827 0.00138201
10.67257 717.16565 737.770389 676.506513 0.00139438
10.68137 715.04956 742.349015 676.89545 0.0013985
10.69017 717.10736 750.562186 677.284532 0.00139449
10.69898 722.69543 762.647724 677.673784 0.00138371
10.70778 732.22272 780.000754 678.063187 0.0013657
10.71658 749.09985 806.16417 678.452725 0.00133494
10.72538 783.7973 850.507183 678.842377 0.00127584
10.73419 856.71161 936.082245 679.232127 0.00116725
10.74299 1021.4362 1107.898024 679.621999 0.00097901
10.75179 1359.7162 1424.342651 680.011844 0.00073545
10.76059 1988.0414 1912.468338 680.401819 0.00050301
10.76939 2610.2297 2482.116814 680.791775 0.00038311
10.77820 2855.8865 2822.024066 681.181692 0.00035015
10.78700 2564.1863 2614.153934 681.571687 0.00038999
10.79580 2061.365 2067.800381 681.961607 0.00048512
10.80460 1585.7491 1544.927209 682.351525 0.00063062
10.81340 1222.3514 1186.120548 682.741288 0.0008181
10.82221 985.5567 985.235863 683.131013 0.00101465
10.83101 856.09998 886.134718 683.520682 0.00116809
10.83981 793.45685 838.509754 683.910144 0.00126031
10.84861 764.10547 814.280256 684.299559 0.00130872
10.85741 752.30518 801.851512 684.688777 0.00132925
10.86622 751.27521 797.405041 685.077824 0.00133107
10.87502 759.8587 800.83049 685.466684 0.00131603
10.88382 779.46729 815.609864 685.85534 0.00128293
10.89262 820.58002 851.412349 686.243774 0.00121865
10.90142 908.4953 926.934514 686.63197 0.00110072
10.91023 1075.6284 1067.363323 687.019955 0.00092969
10.91903 1324.1202 1288.182418 687.407624 0.00075522
10.92783 1572.9146 1559.031568 687.795005 0.00063576
10.93663 1727.764 1775.934727 688.182082 0.00057878
10.94544 1722.8246 1815.95541 688.568837 0.00058044
10.95424 1577.0598 1629.404523 688.955257 0.00063409
10.96304 1351.8007 1341.116319 689.341323 0.00073975
10.97184 1134.6254 1093.304749 689.727065 0.00088135
10.98064 974.50031 929.991095 690.112335 0.00102617
10.98945 869.20593 838.809239 690.497292 0.00115048
10.99825 804.55798 792.07363 690.881791 0.00124292
11.00705 767.77991 767.505254 691.26586 0.00130246
11.01585 745.78888 753.060599 691.649483 0.00134086
11.02465 732.75171 743.670651 692.032646 0.00136472
11.03346 725.65399 737.556617 692.415378 0.00137807
11.04226 721.38861 734.256632 692.797533 0.00138622
11.05106 719.27106 733.670595 693.179271 0.0013903
11.05986 719.64246 735.27089 693.560448 0.00138958
11.06867 721.3432 737.124571 693.941093 0.0013863
11.07747 723.45715 735.72179 694.321193 0.00138225
11.08627 723.79205 730.213227 694.700732 0.00138161
11.09507 720.95135 723.738103 695.079699 0.00138706
11.10387 717.33539 718.431239 695.45808 0.00139405
11.11268 713.93365 714.928633 695.835905 0.00140069
11.12148 711.37994 712.787998 696.213032 0.00140572
11.13028 708.52771 711.476344 696.589577 0.00141138
11.13908 707.0061 710.596332 696.965528 0.00141441
11.14789 706.0683 709.974963 697.340787 0.00141629
11.15669 705.27649 709.512305 697.715384 0.00141788
11.16549 704.55475 709.165648 698.089309 0.00141934
11.17429 703.99255 708.911247 698.462591 0.00142047
11.18309 703.90863 708.735622 698.835093 0.00142064
11.19190 704.29163 708.62164 699.206929 0.00141987
11.20070 704.61792 708.562747 699.57809 0.00141921
11.20950 704.82825 708.551693 699.948438 0.00141879
11.21830 704.89215 708.582677 700.318131 0.00141866
11.22710 705.04773 708.650802 700.687032 0.00141834
11.23591 704.86786 708.751311 701.055174 0.00141871
11.24471 704.73407 708.879121 701.422547 0.00141897
11.25351 705.17065 709.027387 701.789142 0.0014181
11.26231 706.30603 709.167499 702.15499 0.00141582
11.27111 707.14685 709.2609 702.519958 0.00141413
11.27992 707.70081 709.251198 702.884203 0.00141303
11.28872 708.09619 709.105152 703.247593 0.00141224
11.29752 709.13733 708.888604 703.61016 0.00141016
11.30632 710.28851 708.875182 703.971896 0.00140788
11.31513 710.84393 709.462944 704.332795 0.00140678
11.32393 710.92114 710.618286 704.692847 0.00140663
11.33273 710.98895 711.981662 705.052046 0.00140649
11.34153 711.64117 713.396371 705.410426 0.0014052
11.35033 712.99432 714.960243 705.767858 0.00140254
11.35914 714.87286 717.086076 706.124498 0.00139885
11.36794 717.75195 720.638253 706.480217 0.00139324
11.37674 722.81299 727.198839 706.835051 0.00138348
11.38554 733.63123 738.802187 707.188994 0.00136308
11.39434 748.89081 756.558813 707.54204 0.00133531
11.40315 774.34833 778.024422 707.894225 0.00129141
11.41195 789.32324 793.632111 708.245422 0.00126691
11.42075 787.49902 790.676974 708.595789 0.00126984
11.42955 770.84808 772.468368 708.945199 0.00129727
11.43835 757.49261 752.441819 709.29365 0.00132014
11.44716 744.81927 737.52053 709.641257 0.00134261
11.45596 735.93781 728.663072 709.987897 0.00135881
11.46476 730.60278 724.274993 710.333607 0.00136873
11.47356 726.61621 722.436888 710.678384 0.00137624
11.48237 724.78754 721.898865 711.022263 0.00137971
11.49117 724.73639 722.123486 711.365126 0.00137981
11.49997 725.96106 723.077559 711.707087 0.00137748
11.50877 730.63275 725.198788 712.048144 0.00136868
11.51757 740.52869 729.540592 712.388218 0.00135039
11.52638 754.62573 737.710705 712.727347 0.00132516
11.53518 776.2597 751.040763 713.065529 0.00128823
11.54398 801.36572 768.724573 713.402802 0.00124787
11.55278 817.06482 784.97609 713.73905 0.00122389
11.56158 827.30286 788.515098 714.074389 0.00120875
11.57039 817.08417 776.212315 714.408817 0.00122386
11.57919 797.15369 758.614513 714.742221 0.00125446
11.58799 779.25488 743.984519 715.074754 0.00128328
11.59679 761.49817 734.575683 715.406303 0.0013132
11.60559 747.82031 729.573301 715.736907 0.00133722
11.61440 740.41907 727.302116 716.066566 0.00135059
11.62320 733.73102 726.440039 716.395284 0.0013629
11.63200 729.9212 726.290409 716.723098 0.00137001
11.64080 728.18207 726.582253 717.049901 0.00137328
11.64961 727.06116 727.277293 717.375841 0.0013754
11.65841 727.68317 728.527355 717.700813 0.00137422
11.66721 730.1983 730.805729 718.024854 0.00136949
11.67601 733.49579 735.145788 718.347969 0.00136333
11.68481 739.52075 743.185009 718.670161 0.00135223
11.69362 750.48975 756.477709 718.991435 0.00133246
11.70242 764.89465 774.788784 719.311793 0.00130737
11.71122 781.47913 793.375585 719.631278 0.00127962
11.72002 786.27899 801.093686 719.949784 0.00127181
11.72883 779.03906 791.43948 720.267461 0.00128363
11.73763 763.55768 773.8276 720.584206 0.00130966
11.74643 752.03522 758.709166 720.900062 0.00132972
11.75523 744.91583 749.985692 721.215032 0.00134243
11.76403 742.68445 747.353185 721.529124 0.00134647
11.77284 741.90649 748.236252 721.842378 0.00134788
11.78164 742.19086 748.789563 722.154696 0.00134736
11.79044 741.99939 746.322198 722.466224 0.00134771
11.79924 740.91852 742.104881 722.776865 0.00134968
11.80804 739.18182 738.319705 723.086626 0.00135285
11.81685 737.21246 735.851069 723.395618 0.00135646
11.82565 734.84479 734.723525 723.703745 0.00136083
11.83445 733.33417 734.642506 724.01105 0.00136363
11.84325 732.54041 735.294747 724.317541 0.00136511
11.85206 733.21167 736.397382 724.62326 0.00136386
11.86086 734.33008 737.549757 724.928148 0.00136179
11.86966 734.96466 738.216565 725.232212 0.00136061
11.87846 736.01379 738.333484 725.535567 0.00135867
11.88726 737.04352 738.387369 725.838116 0.00135677
11.89607 737.89337 738.730578 726.139906 0.00135521
11.90487 738.25037 739.472268 726.440944 0.00135455
11.91367 739.15247 740.605519 726.741276 0.0013529
11.92247 740.34265 742.103094 727.040809 0.00135073
11.93127 742.40186 743.967181 727.339655 0.00134698
11.94008 745.49432 746.257567 727.637826 0.00134139
11.94888 749.04706 749.084252 727.93523 0.00133503
11.95768 753.84113 752.639553 728.232015 0.00132654
11.96648 760.59637 757.242852 728.528088 0.00131476
11.97528 771.62396 763.485744 728.82353 0.00129597
11.98409 787.02032 772.576027 729.118251 0.00127062
11.99289 811.97235 787.122928 729.412364 0.00123157
12.00169 848.13556 812.499041 729.705881 0.00117906
12.01049 898.26276 858.054976 729.998713 0.00111326
12.01929 972.06885 935.822636 730.291007 0.00102873
12.02810 1063.8516 1054.35001 730.582674 0.00093998
12.03690 1180.6595 1205.864973 730.873761 0.00084698
12.04570 1287.496 1344.693108 731.164282 0.0007767
12.05450 1339.2262 1395.091312 731.454248 0.0007467
12.06330 1286.9563 1323.595484 731.743673 0.00077703
12.07211 1169.8119 1175.863169 732.03257 0.00085484
12.08091 1039.0496 1027.647323 732.320987 0.00096242
12.08971 939.33704 917.919343 732.60887 0.00106458
12.09851 873.34552 850.338653 732.896267 0.00114502
12.10732 831.31696 813.816663 733.183191 0.00120291
12.11612 805.68811 795.70017 733.469658 0.00124118
12.12492 790.80469 787.258952 733.75568 0.00126453
12.13372 783.45117 784.363971 734.041272 0.0012764
12.14252 781.48004 786.181317 734.326482 0.00127962
12.15133 786.87012 794.61056 734.611226 0.00127086
12.16013 803.57947 814.433858 734.89565 0.00124443
12.16893 840.61133 852.474233 735.17967 0.00118961
12.17773 906.17963 913.726214 735.463303 0.00110353
12.18653 1001.281 993.951503 735.746659 0.00099872
12.19534 1091.1538 1068.527478 736.029659 0.00091646
12.20414 1118.8351 1090.887928 736.31238 0.00089379
12.21294 1072.491 1046.128739 736.594742 0.00093241
12.22174 990.59271 976.562898 736.87689 0.0010095
12.23055 925.54425 916.737343 737.158743 0.00108045
12.23935 883.82043 872.037279 737.440316 0.00113145
12.24815 850.18317 836.370919 737.721721 0.00117622
12.25695 821.33594 808.455482 738.002878 0.00121753
12.26575 799.64014 788.676095 738.283836 0.00125056
12.27456 784.77307 775.908604 738.564609 0.00127425
12.28336 773.86163 768.608856 738.845247 0.00129222
12.29216 766.66669 765.483574 739.12567 0.00130435
12.30096 762.41455 765.84011 739.405989 0.00131162
12.30977 761.48871 769.427364 739.686221 0.00131322
12.31857 763.80023 775.669708 739.966319 0.00130924
12.32737 767.05951 782.477081 740.24633 0.00130368
12.33617 768.31348 785.337907 740.526271 0.00130155
12.34497 766.71094 781.016054 740.80619 0.00130427
12.35378 762.88416 772.598071 741.086009 0.00131081
12.36258 759.49231 764.457288 741.365839 0.00131667
12.37138 756.70697 758.462207 741.645697 0.00132152
12.38018 755.30603 754.737626 741.925504 0.00132397
12.38898 753.698 752.671688 742.205404 0.00132679
12.39779 751.89709 751.579759 742.485318 0.00132997
12.40659 751.19739 750.991367 742.765294 0.00133121
12.41539 751.80096 750.663719 743.045348 0.00133014
12.42419 752.67474 750.489862 743.325499 0.0013286
12.43299 752.87335 750.424281 743.605761 0.00132824
12.44180 752.73071 750.446646 743.886151 0.0013285
12.45060 752.39166 750.549936 744.166719 0.0013291
12.45940 752.64813 750.741055 744.447416 0.00132864
12.46820 753.44647 751.045255 744.728291 0.00132723
12.47701 754.66736 751.563768 745.00936 0.00132509
12.48581 756.38062 752.430869 745.29064 0.00132209
12.49461 759.03912 753.924642 745.572147 0.00131746
12.50341 763.07593 756.209471 745.853898 0.00131049
12.51221 766.35895 759.19579 746.135941 0.00130487
12.52102 770.50403 762.173709 746.418195 0.00129785
12.52982 773.19226 763.603139 746.700806 0.00129334
12.53862 772.5835 762.515078 746.983692 0.00129436
12.54742 771.31921 760.067248 747.266871 0.00129648
12.55622 768.92657 757.742699 747.550454 0.00130051
12.56503 765.65021 756.179837 747.83436 0.00130608
12.57383 762.67041 755.446511 748.118671 0.00131118
12.58263 760.49084 755.385972 748.403305 0.00131494
12.59143 760.00494 755.840225 748.688406 0.00131578
12.60023 760.53986 756.722597 748.973894 0.00131486
12.60904 761.5755 758.03423 749.259783 0.00131307
12.61784 762.87506 759.810729 749.546186 0.00131083
12.62664 764.18604 762.11675 749.833021 0.00130858
12.63544 764.5813 765.298961 750.120335 0.00130791
12.64424 765.80365 770.279995 750.408144 0.00130582
12.65305 768.76917 777.830394 750.696495 0.00130078
12.66185 772.34778 787.362915 750.985305 0.00129475
12.67065 774.56055 795.756972 751.274686 0.00129105
12.67945 775.30029 797.703928 751.564652 0.00128982
12.68826 774.22919 791.99615 751.855154 0.00129161
12.69706 773.42456 783.666536 752.146236 0.00129295
12.70586 774.73981 777.25475 752.437915 0.00129076
12.71466 778.58728 774.864344 752.730236 0.00128438
12.72346 785.71692 777.124201 753.023113 0.00127272
12.73227 795.86194 783.629552 753.316661 0.0012565
12.74107 805.62122 792.655452 753.610892 0.00124128
12.74987 811.79565 800.196517 753.90572 0.00123184
12.75867 811.71338 800.71596 754.201291 0.00123196
12.76747 805.07019 793.634294 754.497517 0.00124213
12.77628 796.91742 784.041021 754.794446 0.00125484
12.78508 788.88007 775.827346 755.092089 0.00126762
12.79388 781.98859 770.236635 755.390459 0.00127879
12.80268 777.29919 767.053092 755.689601 0.00128651
12.81148 774.13062 765.529412 755.989427 0.00129177
12.82029 771.78357 764.975701 756.290084 0.0012957
12.82909 770.36499 764.979343 756.59148 0.00129809
12.83789 770.09692 765.41897 756.893663 0.00129854
12.84669 771.21558 766.392136 757.196642 0.00129665
12.85550 772.36285 768.151986 757.500428 0.00129473
12.86430 774.37866 770.967299 757.805033 0.00129136
12.87310 776.64825 774.863706 758.110467 0.00128758
12.88190 780.30682 779.231288 758.416775 0.00128155
12.89070 783.85785 782.371129 758.723862 0.00127574
12.89951 786.39063 782.286948 759.031878 0.00127163
12.90831 785.5163 779.414474 759.340728 0.00127305
12.91711 783.31238 775.914494 759.650456 0.00127663
12.92591 780.78186 773.143676 759.961071 0.00128077
12.93472 778.56323 771.47143 760.272581 0.00128442
12.94352 777.17944 770.755 760.585032 0.0012867
12.95232 776.30151 770.688008 760.898325 0.00128816
12.96112 775.12518 770.983815 761.212611 0.00129011
12.96992 774.04565 771.513365 761.527789 0.00129191
12.97873 774.45441 772.184358 761.843869 0.00129123
12.98753 775.44672 772.970976 762.160964 0.00128958
12.99633 776.21967 773.868465 762.478975 0.0012883
13.00513 776.47443 774.873138 762.797943 0.00128787
13.01393 776.62854 776.00037 763.117876 0.00128762
13.02274 776.92981 777.279678 763.438817 0.00128712
13.03154 777.70709 778.706811 763.760698 0.00128583
13.04034 779.05914 780.324291 764.083526 0.0012836
13.04914 780.70154 782.170992 764.407415 0.0012809
13.05795 782.71344 784.297196 764.732261 0.00127761
13.06675 784.49805 786.769703 765.058105 0.0012747
13.07555 786.12555 789.677286 765.384953 0.00127206
13.08435 787.75861 793.141838 765.712845 0.00126942
13.09315 789.74719 797.327451 766.041675 0.00126623
13.10196 793.22992 802.478959 766.371557 0.00126067
13.11076 799.14081 808.939423 766.702496 0.00125134
13.11956 807.29059 817.313109 767.034382 0.00123871
13.12836 817.51672 828.795663 767.367369 0.00122322
13.13716 832.88953 846.038272 767.701346 0.00120064
13.14597 858.07465 874.903057 768.036392 0.0011654
13.15477 902.55103 926.615275 768.372394 0.00110797
13.16357 987.16626 1018.311346 768.709468 0.001013
13.17237 1155.8472 1167.826314 769.047616 0.00086517
13.18117 1432.6931 1380.609206 769.386724 0.00069799
13.18998 1789.9063 1629.446637 769.726946 0.00055869
13.19878 2011.5521 1827.332859 770.068169 0.00049713
13.20758 1953.0979 1847.713194 770.41043 0.00051201
13.21638 1670.5317 1674.894478 770.75373 0.00059861
13.22518 1344.7296 1428.997093 771.098067 0.00074364
13.23399 1122.9932 1208.946811 771.443443 0.00089048
13.24279 993.91974 1050.777055 771.789855 0.00100612
13.25159 923.01239 953.243082 772.137342 0.00108341
13.26039 884.15259 899.954438 772.485824 0.00113103
13.26920 865.28064 873.799969 772.835337 0.00115569
13.27800 859.25366 863.903681 773.185881 0.0011638
13.28680 864.10559 866.155687 773.537452 0.00115727
13.29560 878.9201 881.04973 773.890047 0.00113776
13.30440 906.73511 910.605886 774.243664 0.00110286
13.31321 944.03363 954.558916 774.598339 0.00105928
13.32201 985.81989 1006.82124 774.953949 0.00101438
13.33081 1025.804 1052.602917 775.310649 0.00097485
13.33961 1051.8137 1068.637405 775.668315 0.00095074
13.34841 1057.3386 1047.980359 776.026942 0.00094577
13.35722 1044.3933 1012.528121 776.386647 0.00095749
13.36602 1021.3438 980.229418 776.747303 0.0009791
13.37482 989.22821 950.479203 777.108986 0.00101089
13.38362 953.1673 917.132717 777.471566 0.00104913
13.39243 915.33179 883.329298 777.835203 0.0010925
13.40123 882.10791 855.170859 778.199765 0.00113365
13.41003 855.56573 834.793304 778.565247 0.00116882
13.41883 837.66644 821.598386 778.931766 0.00119379
13.42763 826.50177 813.903381 779.299189 0.00120992
13.43644 820.39032 809.977468 779.66755 0.00121893
13.44524 817.02966 808.74606 780.036843 0.00122395
13.45404 817.21399 810.075876 780.407099 0.00122367
13.46284 820.73938 814.738009 780.778186 0.00121841
13.47164 827.31348 824.006146 781.150219 0.00120873
13.48045 838.15619 838.766986 781.52319 0.0011931
13.48925 853.11841 858.107914 781.896963 0.00117217
13.49805 868.0351 877.416585 782.271698 0.00115203
13.50685 877.14117 887.126919 782.647257 0.00114007
13.51566 878.40686 879.879842 783.023715 0.00113842
13.52446 867.72766 861.050231 783.400933 0.00115244
13.53326 852.02985 840.681104 783.779029 0.00117367
13.54206 836.99469 824.259678 784.157992 0.00119475
13.55086 824.28027 813.156536 784.537681 0.00121318
13.55967 815.7207 806.592093 784.918257 0.00122591
13.56847 810.64008 803.097429 785.299579 0.00123359
13.57727 806.58319 801.366139 785.681677 0.0012398
13.58607 804.22302 800.593312 786.064539 0.00124344
13.59487 802.64771 800.357799 786.448152 0.00124588
13.60368 802.29004 800.494499 786.832503 0.00124643
13.61248 802.3548 800.951717 787.217579 0.00124633
13.62128 802.79803 801.747455 787.60341 0.00124564
13.63008 803.67474 802.977892 787.989895 0.00124428
13.63889 805.48743 804.876177 788.377063 0.00124148
13.64769 807.00043 807.93113 788.7649 0.00123916
13.65649 810.29211 813.04744 789.153391 0.00123412
13.66529 815.00519 821.675993 789.542522 0.00122699
13.67409 822.01068 835.679095 789.932278 0.00121653
13.68290 833.71887 856.519843 790.322687 0.00119945
13.69170 849.88507 883.701994 790.713601 0.00117663
13.70050 869.06061 913.314311 791.105182 0.00115067
13.70930 885.35797 937.488432 791.497281 0.00112949
13.71810 890.66553 944.034863 791.88988 0.00112276
13.72691 882.3457 926.90254 792.283098 0.00113334
13.73571 866.78375 896.66882 792.676784 0.00115369
13.74451 849.42816 866.723314 793.071011 0.00117726
13.75331 835.88092 843.501631 793.465626 0.00119634
13.76211 826.56842 828.167099 793.860793 0.00120982
13.77092 819.46686 819.355194 794.256358 0.00122031
13.77972 814.68628 815.023088 794.652305 0.00122747
13.78852 812.35004 813.545945 795.04875 0.001231
13.79732 812.21875 813.957491 795.44554 0.0012312
13.80612 812.39349 815.67348 795.842702 0.00123093
13.81493 814.00238 818.034395 796.240217 0.0012285
13.82373 815.77234 819.893744 796.638112 0.00122583
13.83253 816.22644 819.878312 797.036233 0.00122515
13.84133 816.37683 817.896057 797.434696 0.00122492
13.85014 816.05951 815.20299 797.833482 0.0012254
13.85894 815.80878 812.839554 798.232482 0.00122578
13.86774 815.12897 811.212904 798.63172 0.0012268
13.87654 813.55438 810.334846 799.031178 0.00122917
13.88534 812.06256 810.038225 799.430881 0.00123143
13.89415 810.6676 810.126456 799.830673 0.00123355
13.90295 810.25867 810.450763 800.23067 0.00123417
13.91175 810.71924 810.923248 800.630852 0.00123347
13.92055 810.67499 811.505427 801.031062 0.00123354
13.92935 811.03033 812.183001 801.431462 0.001233
13.93816 811.22021 812.953696 801.831895 0.00123271
13.94696 811.41669 813.822444 802.232385 0.00123241
13.95576 812.09637 814.799411 802.632912 0.00123138
13.96456 813.54565 815.899943 803.033455 0.00122919
13.97337 815.02216 817.146271 803.434038 0.00122696
13.98217 816.8822 818.566027 803.834504 0.00122417
13.99097 818.14117 820.202441 804.235013 0.00122228
13.99977 819.60388 822.110237 804.635409 0.0012201
14.00857 821.5459 824.369811 805.035714 0.00121722
14.01738 825.59113 827.104942 805.435908 0.00121125
14.02618 829.5354 830.530189 805.835968 0.00120549
14.03498 834.39172 835.064487 806.235875 0.00119848
14.04378 840.97076 841.566279 806.635605 0.0011891
14.05259 850.89319 851.723658 807.035183 0.00117524
14.06139 864.82635 868.470251 807.434451 0.0011563
14.07019 885.53967 896.089357 807.833568 0.00112925
14.07899 915.4422 939.332072 808.232377 0.00109237
14.08779 961.08575 1001.057403 808.630901 0.00104049
14.09660 1023.9835 1077.848114 809.029118 0.00097658
14.10540 1095.2531 1154.916245 809.427007 0.00091303
14.11420 1153.822 1208.761244 809.82459 0.00086668
14.12300 1164.395 1218.45687 810.221711 0.00085882
14.13180 1124.6072 1176.182762 810.618528 0.0008892
14.14061 1064.2228 1101.605983 811.014883 0.00093965
14.14941 1009.0999 1024.384631 811.410755 0.00099098
14.15821 965.85742 961.252124 811.806257 0.00103535
14.16701 934.98431 916.910855 812.201233 0.00106954
14.17581 911.85327 889.409958 812.595705 0.00109667
14.18462 895.40082 874.133448 812.989651 0.00111682
14.19342 883.54834 866.634196 813.383095 0.0011318
14.20222 876.1933 863.845658 813.775925 0.0011413
14.21102 874.01166 864.177082 814.168119 0.00114415
14.21983 878.06293 867.232396 814.55979 0.00113887
14.22863 890.93011 873.764855 814.950783 0.00112242
14.23743 913.7149 885.927366 815.34112 0.00109443
14.24623 947.84662 907.543119 815.73078 0.00105502
14.25503 996.55963 943.695624 816.119742 0.00100345
14.26384 1069.4543 998.792831 816.507984 0.00093506
14.27264 1170.7843 1072.995718 816.895485 0.00085413
14.28144 1285.7935 1157.273185 817.282268 0.00077773
14.29024 1359.4043 1227.233459 817.668179 0.00073562
14.29904 1354.0786 1248.566138 818.053375 0.00073851
14.30785 1280.7784 1213.499416 818.437701 0.00078078
14.31665 1190.655 1155.349843 818.821182 0.00083987
14.32545 1129.67 1111.981412 819.203796 0.00088521
14.33425 1114.1765 1108.276961 819.585524 0.00089752
14.34305 1165.6959 1158.427099 819.966388 0.00085786
14.35186 1309.9265 1266.06069 820.346237 0.0007634
14.36066 1545.4895 1419.475134 820.725226 0.00064704
14.36946 1760.2408 1582.078139 821.103204 0.0005681
14.37826 1815.9021 1683.524284 821.480194 0.00055069
14.38706 1672.3949 1656.155368 821.856178 0.00059794
14.39587 1457.8361 1516.196363 822.231135 0.00068595
14.40467 1273.4167 1339.13386 822.605047 0.00078529
14.41347 1150.6578 1180.217263 822.977893 0.00086907
14.42227 1070.4792 1061.077484 823.349698 0.00093416
14.43108 1019.5682 982.512236 823.720358 0.00098081
14.43988 982.00836 935.462692 824.089896 0.00101832
14.44868 954.33923 908.956142 824.458295 0.00104785
14.45748 933.88849 894.53521 824.825536 0.00107079
14.46628 919.24243 887.451334 825.1916 0.00108785
14.47509 907.73425 885.983979 825.556471 0.00110164
14.48389 900.06189 890.304383 825.920172 0.00111103
14.49269 895.98895 901.258398 826.282561 0.00111609
14.50149 895.29468 919.033617 826.643787 0.00111695
14.51029 897.13287 941.632107 827.003708 0.00111466
14.51910 901.47479 962.996414 827.36231 0.00110929
14.52790 907.95184 972.489672 827.719696 0.00110138
14.53670 913.05066 962.664529 828.075729 0.00109523
14.54550 914.26306 938.905829 828.430434 0.00109378
14.55430 909.50549 911.806252 828.783794 0.0010995
14.56311 900.36902 887.759344 829.135795 0.00111066
14.57191 889.92297 868.64874 829.486461 0.00112369
14.58071 880.32581 853.872476 829.835657 0.00113594
14.58951 873.79047 842.036552 830.183528 0.00114444
14.59832 870.13867 832.43861 830.529941 0.00114924
14.60712 870.11115 826.14081 830.87492 0.00114928
14.61592 874.41473 825.968552 831.218451 0.00114362
14.62472 880.78973 833.808348 831.560522 0.00113534
14.63352 886.513 848.334917 831.901119 0.00112802
14.64233 891.80475 867.214848 832.240229 0.00112132
14.65113 898.28613 888.116871 832.577877 0.00111323
14.65993 904.28711 907.614643 832.913937 0.00110584
14.66873 909.16461 919.998413 833.248548 0.00109991
14.67754 908.47192 920.082416 833.581584 0.00110075
14.68634 902.14453 909.813612 833.913073 0.00110847
14.69514 893.62189 896.234967 834.243003 0.00111904
14.70394 885.24194 884.98594 834.571363 0.00112963
14.71274 879.69611 879.173962 834.898179 0.00113676
14.72155 880.06567 880.409189 835.223331 0.00113628
14.73035 886.1568 889.341705 835.546955 0.00112847
14.73915 899.27362 905.508338 835.868933 0.00111201
14.74795 916.00946 926.184394 836.189291 0.00109169
14.75675 931.1651 944.688677 836.50802 0.00107392
14.76556 937.78339 951.722852 836.825112 0.00106634
14.77436 932.73651 943.711667 837.140558 0.00107211
14.78316 917.9812 927.322542 837.454352 0.00108935
14.79196 901.70825 911.17951 837.76652 0.00110901
14.80077 888.82306 900.302259 838.076984 0.00112508
14.80957 881.54559 896.383374 838.385738 0.00113437
14.81837 879.37421 898.784656 838.69288 0.00113717
14.82717 880.86102 905.00239 838.9983 0.00113525
14.83597 885.39301 911.520031 839.302027 0.00112944
14.84478 892.28278 916.184571 839.604054 0.00112072
14.85358 899.82745 918.879278 839.904411 0.00111132
14.86238 902.52728 918.449331 840.202992 0.001108
14.87118 898.97583 913.035441 840.499893 0.00111238
14.87998 891.74084 903.993835 840.795111 0.0011214
14.88879 885.77618 895.213333 841.088541 0.00112895
14.89759 883.46387 889.832462 841.380313 0.00113191
14.90639 884.6864 889.7753 841.670326 0.00113034
14.91519 891.0304 896.330369 841.958641 0.0011223
14.92399 903.21381 910.323508 842.24516 0.00110716
14.93280 921.24817 931.88461 842.529977 0.00108548
14.94160 943.17242 959.671531 842.813092 0.00106025
14.95040 967.41687 989.46255 843.094407 0.00103368
14.95920 988.30951 1014.928807 843.37405 0.00101183
14.96800 1005.8971 1033.520134 843.651923 0.00099414
14.97681 1012.8998 1046.813347 843.928061 0.00098726
14.98561 1007.1738 1051.406929 844.202461 0.00099288
14.99441 984.6933 1038.773175 844.475127 0.00101554
15.00321 955.5896 1008.59268 844.746058 0.00104647
15.01201 925.84143 971.578954 845.015258 0.0010801
15.02082 903.39648 937.635071 845.282756 0.00110693
15.02962 887.46667 911.187423 845.548497 0.0011268
15.03842 878.68494 892.883825 845.812512 0.00113806
15.04722 873.89661 881.41983 846.074804 0.0011443
15.05603 871.32678 874.854532 846.335378 0.00114768
15.06483 869.34485 871.473629 846.594238 0.00115029
15.07363 868.15674 870.20403 846.851386 0.00115187
15.08243 867.54486 870.651929 847.106858 0.00115268
15.09123 867.97272 872.959424 847.360571 0.00115211
15.10004 869.18201 877.571024 847.612646 0.00115051
15.10884 871.18903 884.88007 847.863002 0.00114786
15.11764 874.52313 894.791531 848.111647 0.00114348
15.12644 878.63147 906.16418 848.35867 0.00113813
15.13524 884.85266 916.131694 848.603995 0.00113013
15.14405 892.01404 920.42336 848.847685 0.00112106
15.15285 898.76514 916.978823 849.089664 0.00111264
15.16165 901.98273 908.768858 849.33005 0.00110867
15.17045 901.40387 900.420348 849.56877 0.00110938
15.17925 899.38568 895.213617 849.805833 0.00111187
15.18806 899.33435 895.207509 850.041327 0.00111193
15.19686 903.27271 901.85161 850.275183 0.00110709
15.20566 914.77551 916.161857 850.507436 0.00109316
15.21446 936.24268 938.395127 850.738097 0.0010681
15.22327 966.91626 967.06747 850.967202 0.00103422
15.23207 1000.9972 997.415117 851.194685 0.000999
15.24087 1025.8009 1021.202458 851.420633 0.00097485
15.24967 1032.0016 1031.211306 851.645059 0.00096899
15.25848 1026.0005 1024.846112 851.867922 0.00097466
15.26728 1001.8325 1003.784154 852.089261 0.00099817
15.27608 972.89496 975.437881 852.309088 0.00102786
15.28488 945.53687 948.609608 852.52744 0.0010576
15.29368 925.34033 928.135919 852.744257 0.00108068
15.30249 911.19366 914.817874 852.959626 0.00109746
15.31129 902.08276 906.892312 853.173561 0.00110855
15.32009 896.64966 901.544824 853.386002 0.00111526
15.32889 893.66309 897.018176 853.597061 0.00111899
15.33769 893.96118 893.648854 853.806681 0.00111862
15.34650 897.44037 892.713615 854.0149 0.00111428
15.35530 904.97925 895.481976 854.221733 0.001105
15.36410 917.31805 902.936326 854.427197 0.00109013
15.37290 936.07489 915.431421 854.63133 0.00106829
15.38170 961.56305 932.153267 854.834079 0.00103997
15.39051 987.33698 950.337722 855.035552 0.00101283
15.39931 1002.4373 964.778157 855.235698 0.00099757
15.40811 1000.5103 970.575194 855.434557 0.00099949
15.41691 985.49048 968.082186 855.632145 0.00101472
15.42572 968.43097 961.180415 855.82848 0.0010326
15.43452 956.86169 953.19762 856.023581 0.00104508
15.44332 950.06305 946.757274 856.217464 0.00105256
15.45212 946.18744 942.638812 856.410171 0.00105687
15.46092 940.52594 938.464827 856.601653 0.00106323
15.46973 933.48181 930.753481 856.792018 0.00107126
15.47853 922.09375 919.197244 856.981218 0.00108449
15.48733 910.10889 906.562033 857.169295 0.00109877
15.49613 897.87024 895.319151 857.356269 0.00111375
15.50493 887.53656 886.55396 857.542158 0.00112671
15.51374 880.37805 880.389589 857.727004 0.00113588
15.52254 876.60638 876.421216 857.910763 0.00114076
15.53134 873.35309 874.047903 858.09354 0.00114501
15.54014 870.83807 872.713538 858.275293 0.00114832
15.54894 869.3739 872.01564 858.456043 0.00115025
15.55775 868.82129 871.712209 858.635871 0.00115098
15.56655 868.4516 871.678583 858.814737 0.00115147
15.57535 869.06458 871.861675 858.992683 0.00115066
15.58415 869.95837 872.251829 859.169731 0.00114948
15.59296 871.58655 872.877387 859.345921 0.00114733
15.60176 873.70361 873.818691 859.521216 0.00114455
15.61056 876.35638 875.252465 859.695697 0.00114109
15.61936 879.22198 877.502867 859.869385 0.00113737
15.62816 883.71155 881.095605 860.042263 0.00113159
15.63697 889.69189 886.753074 860.214374 0.00112398
15.64577 898.02032 895.252571 860.385739 0.00111356
15.65457 907.86011 907.111505 860.556399 0.00110149
15.66337 918.86328 922.074244 860.726321 0.0010883
15.67217 930.75513 938.42699 860.895583 0.0010744
15.68098 941.96411 952.558577 861.064208 0.00106161
15.68978 952.81384 960.171375 861.232162 0.00104952
15.69858 961.32068 958.787651 861.399544 0.00104024
15.70738 966.6283 949.121803 861.56632 0.00103452
15.71618 964.14819 935.036906 861.732531 0.00103718
15.72499 954.84424 920.755669 861.8982 0.00104729
15.73379 941.94354 908.73353 862.063351 0.00106163
15.74259 930.1969 899.87645 862.228025 0.00107504
15.75139 919.24622 894.156082 862.392189 0.00108785
15.76020 911.51508 891.018368 862.555941 0.00109707
15.76900 904.7981 889.781619 862.719248 0.00110522
15.77780 900.20264 889.878744 862.882152 0.00111086
15.78660 897.08459 890.939299 863.044676 0.00111472
15.79540 896.92157 892.781877 863.206843 0.00111492
15.80421 897.1131 895.378299 863.368676 0.00111469
15.81301 898.27753 898.842318 863.530198 0.00111324
15.82181 901.87524 903.469177 863.69145 0.0011088
15.83061 909.78839 909.811023 863.852401 0.00109916
15.83942 919.9635 918.82154 864.013147 0.001087
15.84822 933.5285 931.969603 864.173656 0.0010712
15.85702 951.9986 951.329304 864.333968 0.00105042
15.86582 977.34894 979.583022 864.494107 0.00102318
15.87462 1012.6843 1020.003036 864.654096 0.00098747
15.88343 1057.8619 1076.207536 864.813974 0.0009453
15.89223 1114.4161 1151.03812 864.973711 0.00089733
15.90103 1183.5404 1245.157772 865.133401 0.00084492
15.90983 1286.1696 1358.197484 865.293012 0.0007775
15.91863 1423.6761 1490.390435 865.452566 0.00070241
15.92744 1608.0101 1633.124545 865.61214 0.00062189
15.93624 1735.6493 1754.711461 865.771702 0.00057615
15.94504 1762.5518 1803.260341 865.93129 0.00056736
15.95384 1658.3558 1748.074436 866.090928 0.00060301
15.96265 1497.734 1615.908415 866.250655 0.00066768
15.97145 1356.9924 1457.505933 866.410455 0.00073692
15.98025 1258.4823 1308.082466 866.57035 0.00079461
15.98905 1178.04 1183.969519 866.730416 0.00084887
15.99785 1120.3467 1090.08452 866.890619 0.00089258
16.00665 1066.5487 1024.323533 867.050997 0.0009376
16.01546 1026.5936 980.74134 867.211572 0.0009741
16.02426 992.79218 952.603342 867.372381 0.00100726
16.03306 967.83923 934.414356 867.533409 0.00103323
16.04186 946.43951 922.366939 867.694694 0.00105659
16.05066 931.80383 914.086378 867.856236 0.00107319
16.05947 919.52069 908.169714 868.018092 0.00108752
16.06827 910.98859 903.826361 868.180281 0.00109771
16.07707 904.62305 900.64643 868.342786 0.00110543
16.08588 900.05493 898.469002 868.505661 0.00111104
16.09468 896.94263 897.329877 868.668889 0.0011149
16.10348 895.14447 897.422967 868.832469 0.00111714
16.11228 895.6911 899.042538 868.996511 0.00111646
16.12108 897.85156 902.454272 869.16096 0.00111377
16.12989 903.00195 907.698845 869.325869 0.00110742
16.13869 909.04053 914.325243 869.491218 0.00110006
16.14749 915.99915 921.07659 869.657062 0.0010917
16.15629 920.99646 925.70478 869.82338 0.00108578
16.16509 921.58582 925.926843 869.990167 0.00108509
16.17390 916.04474 921.428063 870.157536 0.00109165
16.18270 907.71588 914.020217 870.325426 0.00110167
16.19150 899.91998 905.925083 870.49389 0.00111121
16.20030 893.87494 898.684384 870.662905 0.00111872
16.20911 889.87109 892.985832 870.832523 0.00112376
16.21790 887.09344 888.91058 871.002682 0.00112728
16.22671 884.74017 886.193847 871.173492 0.00113028
16.23551 882.92474 884.477194 871.344948 0.0011326
16.24431 881.59094 883.410021 871.517023 0.00113431
16.25312 881.24091 882.753272 871.68977 0.00113476
16.26192 880.99664 882.344373 871.863162 0.00113508
16.27072 880.88971 882.093193 872.03725 0.00113522
16.27952 880.48444 881.949476 872.211966 0.00113574
16.28832 880.25055 881.881818 872.387422 0.00113604
16.29713 880.64526 881.869224 872.563607 0.00113553
16.30593 880.93085 881.901477 872.740494 0.00113516
16.31473 880.56317 881.977491 872.918131 0.00113564
16.32353 880.2052 882.101802 873.096489 0.0011361
16.33233 880.69666 882.281992 873.275576 0.00113546
16.34114 880.54645 882.526879 873.455442 0.00113566
16.34994 880.89789 882.846597 873.636076 0.00113521
16.35874 881.24933 883.25633 873.817505 0.00113475
16.36754 881.72943 883.783713 873.999697 0.00113413
16.37635 882.08679 884.480474 874.182699 0.00113368
16.38515 882.42096 885.438832 874.366478 0.00113325
16.39395 883.23254 886.807691 874.551039 0.0011322
16.40275 884.69958 888.800705 874.736431 0.00113033
16.41155 886.3515 891.678459 874.922637 0.00112822
16.42036 888.64099 895.700939 875.109684 0.00112531
16.42916 891.08215 901.040152 875.297534 0.00112223
16.43796 894.92505 907.671002 875.486234 0.00111741
16.44676 898.63519 915.132 875.675703 0.0011128
16.45556 903.33032 922.447717 875.866071 0.00110701
16.46437 907.50659 928.642568 876.057256 0.00110192
16.47317 912.19568 933.504639 876.249282 0.00109626
16.48197 916.19348 936.922148 876.442173 0.00109147
16.49077 920.00415 937.845706 876.635886 0.00108695
16.49958 923.6427 935.146114 876.830466 0.00108267
16.50838 925.59613 929.516183 877.025825 0.00108038
16.51718 924.37158 923.142473 877.222097 0.00108182
16.52598 922.17059 918.04813 877.419192 0.0010844
16.53478 920.53729 915.598643 877.617132 0.00108632
16.54359 921.17444 916.828057 877.815938 0.00108557
16.55239 924.75134 922.72385 878.015562 0.00108137
16.56119 931.92651 934.283068 878.216004 0.00107305
16.56999 944.24469 952.29709 878.417305 0.00105905
16.57879 965.13629 976.865667 878.619462 0.00103612
16.58760 992.97632 1006.645617 878.822426 0.00100707
16.59640 1028.9664 1037.884085 879.026217 0.00097185
16.60520 1066.6361 1063.773694 879.230852 0.00093753
16.61400 1102.1713 1077.388681 879.43628 0.0009073
16.62280 1126.8488 1078.128796 879.642495 0.00088743
16.63161 1154.0449 1071.555412 879.849539 0.00086652
16.64041 1155.4705 1062.366594 880.057406 0.00086545
16.64921 1139.6865 1052.35233 880.266041 0.00087743
16.65801 1114.5261 1043.529289 880.47546 0.00089724
16.66681 1086.6116 1038.557677 880.68568 0.00092029
16.67562 1067.4755 1037.553407 880.896598 0.00093679
16.68442 1054.9613 1036.72802 881.108347 0.0009479
16.69322 1041.1719 1030.56146 881.320823 0.00096046
16.70202 1025.4551 1016.372405 881.534065 0.00097518
16.71082 1006.0767 996.224375 881.748015 0.00099396
16.71963 985.2785 974.26842 881.962686 0.00101494
16.72843 963.93121 953.854096 882.178092 0.00103742
16.73723 946.00555 936.871079 882.394123 0.00105708
16.74603 932.81708 923.949345 882.610916 0.00107202
16.75483 923.20087 914.829331 882.82836 0.00108319
16.76364 915.75751 908.759447 883.046491 0.00109199
16.77244 910.0318 904.888621 883.265248 0.00109886
16.78124 906.49512 902.486741 883.484641 0.00110315
16.79004 904.45435 901.028287 883.704633 0.00110564
16.79885 902.66113 900.178534 883.925258 0.00110784
16.80765 901.2887 899.746441 884.146502 0.00110952
16.81645 900.8454 899.636664 884.368301 0.00111007
16.82525 901.06561 899.819009 884.590689 0.0011098
16.83405 901.14581 900.321279 884.813599 0.0011097
16.84286 901.6441 901.244505 885.037043 0.00110909
16.85166 902.68591 902.800479 885.260976 0.00110781
16.86046 903.63367 905.358015 885.485433 0.00110664
16.86926 905.30316 909.468623 885.710398 0.0011046
16.87806 908.98816 915.822056 885.935802 0.00110012
16.88687 913.98065 925.08816 886.161677 0.00109412
16.89567 920.88916 937.63137 886.387955 0.00108591
16.90447 931.01343 953.126134 886.614591 0.0010741
16.91327 945.26984 970.097719 886.841694 0.0010579
16.92207 961.21552 985.372136 887.069143 0.00104035
16.93088 974.03308 994.419839 887.29697 0.00102666
16.93968 977.21173 994.165923 887.525103 0.00102332
16.94848 970.64166 985.821098 887.753574 0.00103025
16.95728 958.50751 973.013709 887.98231 0.00104329
16.96608 945.53955 958.750767 888.211264 0.0010576
16.97489 933.97351 945.095589 888.440546 0.00107069
16.98369 925.31036 933.531097 888.670031 0.00108072
16.99249 919.00476 924.735124 888.899748 0.00108813
17.00129 914.70996 918.644255 889.129624 0.00109324
17.01010 912.11865 914.803299 889.35969 0.00109635
17.01890 910.88879 912.663595 889.589817 0.00109783
17.02770 910.21887 911.739353 889.820116 0.00109864
17.03650 910.22546 911.668725 890.050535 0.00109863
17.04530 910.87555 912.214566 890.281001 0.00109784
17.05411 911.68707 913.245537 890.511543 0.00109687
17.06291 912.69739 914.719084 890.742085 0.00109565
17.07171 914.40887 916.675724 890.972629 0.0010936
17.08051 917.60596 919.26401 891.203125 0.00108979
17.08931 922.43774 922.80206 891.433603 0.00108408
17.09812 928.11743 927.867781 891.664038 0.00107745
17.10692 936.26563 935.411148 891.894354 0.00106807
17.11572 948.97418 946.831275 892.124578 0.00105377
17.12452 969.24213 963.897974 892.354634 0.00103173
17.13333 997.55792 988.5033 892.584498 0.00100245
17.14213 1039.67 1022.304553 892.814196 0.00096184
17.15093 1095.5638 1066.20894 893.043679 0.00091277
17.15973 1163.2954 1119.534846 893.272947 0.00085963
17.16853 1229.1624 1179.123965 893.501924 0.00081356
17.17734 1288.3203 1239.560174 893.730636 0.0007762
17.18614 1332.4305 1295.043524 893.959006 0.00075051
17.19494 1367.1909 1342.367681 894.18701 0.00073143
17.20374 1395.2288 1380.584389 894.414674 0.00071673
17.21254 1422.1456 1404.253057 894.641947 0.00070316
17.22135 1424.6464 1400.815872 894.86883 0.00070193
17.23015 1400.4636 1361.790964 895.095246 0.00071405
17.23895 1352.7611 1295.041352 895.321221 0.00073923
17.24775 1284.8767 1218.929517 895.546627 0.00077828
17.25656 1207.8359 1149.063198 895.771594 0.00082793
17.26536 1144.0966 1094.390267 895.995994 0.00087405
17.27416 1095.8341 1058.613175 896.219827 0.00091255
17.28296 1067.3207 1041.987194 896.443094 0.00093693
17.29177 1057.5389 1042.442747 896.665719 0.00094559
17.30057 1063.9506 1056.177289 896.887678 0.00093989
17.30937 1084.2363 1077.73458 897.108996 0.00092231
17.31817 1108.8325 1099.50967 897.329648 0.00090185
17.32697 1126.854 1111.912881 897.549561 0.00088743
17.33578 1129.7759 1107.584149 897.768734 0.00088513
17.34458 1105.1141 1087.481588 897.987168 0.00090488
17.35338 1062.3951 1059.468735 898.20479 0.00094127
17.36218 1023.7 1031.496718 898.421576 0.00097685
17.37098 995.39679 1008.429958 898.637552 0.00100462
17.37979 978.11212 992.290252 898.852693 0.00102238
17.38859 969.99231 983.046629 899.066928 0.00103094
17.39739 969.12256 979.242972 899.280258 0.00103186
17.40619 969.35455 978.850274 899.492683 0.00103161
17.41499 969.1228 980.555764 899.704086 0.00103186
17.42380 968.66711 984.558418 899.914588 0.00103235
17.43260 970.59558 991.648146 900.12407 0.0010303
17.44140 974.64056 1001.825859 900.332558 0.00102602
17.45020 980.65161 1013.614242 900.539983 0.00101973
17.45901 984.12164 1023.644171 900.746348 0.00101613
17.46781 981.65588 1027.158388 900.951654 0.00101869
17.47661 973.91595 1020.977645 901.155789 0.00102678
17.48541 963.19281 1006.569246 901.358869 0.00103821
17.49421 951.68634 988.410273 901.560784 0.00105077
17.50302 941.18042 970.478333 901.761558 0.0010625
17.51182 933.5509 955.070792 901.961126 0.00107118
17.52062 928.29517 943.109759 902.159493 0.00107724
17.52942 925.24036 934.599436 902.356617 0.0010808
17.53822 922.82904 929.02028 902.552523 0.00108362
17.54703 921.3031 925.660991 902.747195 0.00108542
17.55583 920.08929 923.856502 902.94057 0.00108685
17.56463 919.4408 923.118869 903.132674 0.00108762
17.57343 919.36896 923.194663 903.323447 0.0010877
17.58224 920.15143 924.087937 903.512894 0.00108678
17.59104 920.67261 926.00573 903.700978 0.00108616
17.59984 922.86725 929.206166 903.887726 0.00108358
17.60864 926.95538 933.826242 904.073123 0.0010788
17.61744 931.89923 939.727812 904.257111 0.00107308
17.62625 938.44165 946.337296 904.439696 0.0010656
17.63505 945.9422 952.474239 904.620887 0.00105715
17.64385 951.63226 956.350366 904.800588 0.00105083
17.65265 952.76996 956.3851 904.978907 0.00104957
17.66145 950.22601 952.561104 905.155751 0.00105238
17.67026 944.638 946.438938 905.331149 0.00105861
17.67906 938.36053 939.794239 905.505049 0.00106569
17.68786 932.58154 933.817439 905.67746 0.00107229
17.69666 927.71832 929.108378 905.848391 0.00107791
17.70546 923.68353 925.873542 906.017754 0.00108262
17.71427 921.36536 924.083667 906.185656 0.00108535
17.72307 920.2135 923.622552 906.352012 0.0010867
17.73187 920.40277 924.378968 906.516849 0.00108648
17.74067 921.09601 926.272799 906.680124 0.00108566
17.74948 922.16681 929.219477 906.841847 0.0010844
17.75828 923.6557 933.026054 907.001994 0.00108265
17.76708 927.14648 937.357754 907.160594 0.00107858
17.77588 931.00073 941.517532 907.317642 0.00107411
17.78468 934.59058 944.495032 907.473097 0.00106999
17.79349 935.53284 945.379309 907.626988 0.00106891
17.80229 934.88623 944.140443 907.779279 0.00106965
17.81109 932.97357 941.705578 907.929981 0.00107184
17.81989 932.32831 939.191429 908.079076 0.00107258
17.82869 931.6897 937.386194 908.226595 0.00107332
17.83750 933.03448 936.709451 908.372536 0.00107177
17.84630 934.94122 937.297811 908.516863 0.00106959
17.85510 937.92212 939.065972 908.659611 0.00106619
17.86390 941.44574 941.806553 908.800745 0.0010622
17.87270 947.21295 945.374632 908.940267 0.00105573
17.88151 955.74359 949.813844 909.078209 0.00104631
17.89031 968.18213 955.204622 909.214557 0.00103286
17.89911 982.69232 961.438098 909.349329 0.00101761
17.90791 993.79779 968.177466 909.482496 0.00100624
17.91672 998.72327 975.152689 909.614093 0.00100128
17.92552 998.90424 982.860369 909.744092 0.0010011
17.93432 998.42969 992.965516 909.872499 0.00100157
17.94312 1003.4918 1007.672951 909.999349 0.00099652
17.95192 1018.2094 1028.787303 910.124631 0.00098212
17.96073 1045.4375 1057.295987 910.248365 0.00095654
17.96953 1093.4753 1093.04964 910.370531 0.00091452
17.97833 1149.9343 1133.937395 910.491163 0.00086961
17.98713 1199.1383 1174.837791 910.610215 0.00083393
17.99593 1225.8708 1208.62482 910.727775 0.00081575
18.00474 1235.6501 1230.247848 910.843799 0.00080929
18.01354 1242.8087 1238.972115 910.95831 0.00080463
18.02234 1249.7006 1234.548181 911.071329 0.00080019
18.03114 1233.2858 1215.090622 911.182841 0.00081084
18.03995 1192.0675 1181.689208 911.292883 0.00083888
18.04875 1144.355 1141.244012 911.401416 0.00087385
18.05755 1098.0109 1102.279411 911.508526 0.00091074
18.06635 1061.2334 1070.910152 911.614176 0.0009423
18.07515 1039.6066 1050.333638 911.718391 0.0009619
18.08396 1027.8467 1041.726353 911.821196 0.00097291
18.09276 1025.7246 1044.93907 911.922581 0.00097492
18.10156 1033.6577 1058.697475 912.02256 0.00096744
18.11036 1051.5551 1080.753647 912.121171 0.00095097
18.11916 1078.0054 1108.406715 912.218428 0.00092764
18.12797 1111.3326 1139.181093 912.314325 0.00089982
18.13677 1146.1935 1169.822311 912.408888 0.00087245
18.14557 1174.766 1194.121881 912.502144 0.00085123
18.15437 1184.7015 1203.100675 912.594088 0.00084409
18.16317 1169.9419 1190.459167 912.684738 0.00085474
18.17198 1136.865 1158.711512 912.774132 0.00087961
18.18078 1092.7886 1116.976828 912.862286 0.00091509
18.18958 1051.864 1074.139487 912.949199 0.00095069
18.19838 1018.6158 1035.786062 913.034898 0.00098172
18.20719 994.41248 1004.521864 913.119413 0.00100562
18.21599 977.07727 980.878162 913.202724 0.00102346
18.22479 965.5072 964.054684 913.284906 0.00103573
18.23359 956.09412 952.630282 913.365942 0.00104592
18.24239 949.04797 945.072356 913.445861 0.00105369
18.25120 944.69159 940.077072 913.52469 0.00105855
18.26000 941.03394 936.69314 913.602434 0.00106266
18.26880 937.67554 934.301588 913.679128 0.00106647
18.27760 934.97534 932.533078 913.754761 0.00106955
18.28640 932.36499 931.177101 913.829402 0.00107254
18.29521 930.36072 930.1173 913.903041 0.00107485
18.30401 929.5755 929.286819 913.975704 0.00107576
18.31281 928.0166 928.645701 914.047423 0.00107757
18.32161 927.61743 928.169339 914.118202 0.00107803
18.33041 927.83826 927.843832 914.188061 0.00107777
18.33922 928.36615 927.664338 914.25704 0.00107716
18.34802 928.74005 927.6379 914.325158 0.00107673
18.35682 929.56378 927.788359 914.392421 0.00107577
18.36562 930.50653 928.167182 914.458859 0.00107468
18.37443 932.61127 928.869582 914.524501 0.00107226
18.38323 935.36621 930.05387 914.589352 0.0010691
18.39203 938.04547 931.960412 914.653435 0.00106605
18.40083 942.68909 934.91613 914.716785 0.0010608
18.40963 949.70203 939.310419 914.779424 0.00105296
18.41844 956.66522 945.525452 914.841357 0.0010453
18.42724 964.80658 953.820925 914.902614 0.00103648
18.43604 974.38715 964.15925 914.963222 0.00102629
18.44484 985.11615 975.976557 915.023173 0.00101511
18.45364 996.08258 988.002199 915.08253 0.00100393
18.46245 1006.6116 998.324775 915.141285 0.00099343
18.47125 1016.6951 1004.967207 915.199472 0.00098358
18.48005 1022.9551 1006.423229 915.257098 0.00097756
18.48885 1021.624 1002.089454 915.314187 0.00097883
18.49766 1011.062 992.950024 915.370767 0.00098906
18.50646 996.97064 981.379438 915.426829 0.00100304
18.51526 983.7215 969.781023 915.482432 0.00101655
18.52406 972.9765 959.76596 915.537568 0.00102777
18.53286 964.54944 952.101929 915.592266 0.00103675
18.54167 958.18854 946.952266 915.646532 0.00104364
18.55047 953.06348 944.058507 915.70039 0.00104925
18.55927 950.1402 942.902436 915.75385 0.00105248
18.56807 948.40613 942.806264 915.806939 0.0010544
18.57687 947.57013 943.023441 915.859674 0.00105533
18.58568 946.42773 942.926688 915.912057 0.0010566
18.59448 945.76245 942.297723 915.964116 0.00105735
18.60328 944.71179 941.394821 916.015852 0.00105852
18.61208 943.76013 940.684463 916.067284 0.00105959
18.62088 943.1145 940.601421 916.11842 0.00106032
18.62969 943.5874 941.493068 916.169284 0.00105979
18.63849 944.16486 943.623755 916.219888 0.00105914
18.64729 946.63593 947.1621 916.27023 0.00105637
18.65609 950.7254 952.164849 916.320333 0.00105183
18.66490 958.20728 958.582925 916.370196 0.00104362
18.67370 968.03448 966.229184 916.419826 0.00103302
18.68250 977.99689 974.623523 916.469244 0.0010225
18.69130 985.78943 982.784315 916.518453 0.00101442
18.70010 988.27863 989.270286 916.567463 0.00101186
18.70891 985.36261 992.901154 916.61627 0.00101485
18.71771 979.9483 993.79971 916.664891 0.00102046
18.72651 975.4494 993.366329 916.713319 0.00102517
18.73531 973.46655 993.180659 916.761558 0.00102726
18.74411 974.89648 994.227533 916.809622 0.00102575
18.75292 978.61084 996.878882 916.857507 0.00102186
18.76172 984.56018 1001.433354 916.90522 0.00101568
18.77052 994.04858 1008.76003 916.95275 0.00100599
18.77932 1008.1304 1020.252181 917.000108 0.00099194
18.78812 1028.1018 1037.111378 917.047271 0.00097267
18.79693 1053.4415 1059.718018 917.094263 0.00094927
18.80573 1080.6924 1087.177823 917.141076 0.00092533
18.81453 1110.7639 1117.275185 917.187695 0.00090028
18.82333 1141.1287 1147.154452 917.234125 0.00087633
18.83214 1174.4274 1173.837308 917.28035 0.00085148
18.84094 1200.8746 1193.368016 917.326374 0.00083273
18.84974 1218.2349 1200.755495 917.372167 0.00082086
18.85854 1213.8059 1193.55363 917.417747 0.00082385
18.86734 1194.9543 1175.395343 917.463099 0.00083685
18.87615 1167.7651 1153.747719 917.508202 0.00085634
18.88495 1144.1624 1135.052425 917.553054 0.000874
18.89375 1127.5088 1122.410546 917.597632 0.00088691
18.90255 1124.1338 1115.498819 917.641923 0.00088957
18.91135 1124.9335 1110.971902 917.685922 0.00088894
18.92016 1121.5206 1103.788238 917.729608 0.00089165
18.92896 1108.0929 1090.278318 917.772971 0.00090245
18.93776 1087.3258 1070.749085 917.815981 0.00091969
18.94656 1060.9233 1048.435511 917.858631 0.00094258
18.95537 1036.5963 1026.790534 917.900891 0.0009647
18.96417 1016.8369 1008.209719 917.942742 0.00098344
18.97297 1001.4603 994.121189 917.98417 0.00099854
18.98177 990.69574 985.345567 918.025149 0.00100939
18.99057 984.99902 982.417058 918.065661 0.00101523
18.99938 983.64441 985.851411 918.105671 0.00101663
19.00818 987.30341 996.260054 918.145164 0.00101286
19.01698 999.05951 1014.276002 918.184097 0.00100094
19.02578 1021.8528 1040.206926 918.222468 0.00097861
19.03458 1062.7737 1073.487491 918.260232 0.00094093
19.04339 1127.0585 1112.114262 918.297366 0.00088727
19.05219 1201.2808 1151.899997 918.333844 0.00083244
19.06099 1254.1345 1185.878131 918.369627 0.00079736
19.06979 1261.7736 1205.097424 918.404692 0.00079254
19.07859 1223.5353 1202.860587 918.438993 0.0008173
19.08740 1162.2021 1179.91074 918.472519 0.00086044
19.09620 1103.6643 1143.691866 918.505223 0.00090607
19.10500 1060.4825 1102.716493 918.537074 0.00094297
19.11380 1031.0992 1063.084876 918.568041 0.00096984
19.12261 1010.2142 1028.201902 918.598082 0.00098989
19.13141 995.38647 999.51561 918.627161 0.00100463
19.14021 986.61829 977.136449 918.655249 0.00101356
19.14901 980.69403 960.359423 918.682309 0.00101969
19.15781 975.97284 948.21075 918.708296 0.00102462
19.16662 972.04236 939.859232 918.733177 0.00102876
19.17542 968.74622 934.682626 918.756915 0.00103226
19.18422 967.02197 932.016034 918.779468 0.0010341
19.19302 964.97583 931.083347 918.800795 0.0010363
19.20182 962.25079 931.187789 918.820863 0.00103923
19.21063 958.79169 931.835813 918.839632 0.00104298
19.21943 955.7196 932.717155 918.857059 0.00104633
19.22823 952.86475 933.643375 918.873104 0.00104947
19.23703 950.61774 934.511248 918.887731 0.00105195
19.24583 948.64825 935.269758 918.900894 0.00105413
19.25464 947.32343 935.906718 918.91256 0.00105561
19.26344 945.99738 936.368706 918.922685 0.00105709
19.27224 944.77576 936.594581 918.931232 0.00105845
19.28104 944.13373 936.59342 918.938159 0.00105917
19.28985 943.50952 936.511461 918.943427 0.00105987
19.29865 942.43848 936.595045 918.946999 0.00106108
19.30745 941.74561 937.112412 918.948835 0.00106186
19.31625 941.65002 938.318991 918.948897 0.00106197
19.32505 941.88544 940.440607 918.947148 0.0010617
19.33386 943.30237 943.643473 918.943551 0.00106011
19.34266 945.92078 947.987427 918.93807 0.00105717
19.35146 948.59082 953.366568 918.930668 0.0010542
19.36026 951.98669 959.43654 918.921314 0.00105043
19.36906 956.49512 965.596874 918.90997 0.00104548
19.37787 962.06683 970.894926 918.896603 0.00103943
19.38667 967.68567 974.347006 918.881184 0.00103339
19.39547 972.43555 975.61716 918.863679 0.00102835
19.40427 974.22424 975.528024 918.844063 0.00102646
19.41307 973.53027 975.699785 918.82231 0.00102719
19.42188 972.79791 977.833543 918.798381 0.00102796
19.43068 973.92224 983.321603 918.772261 0.00102678
19.43948 979.05872 993.105016 918.743919 0.00102139
19.44828 988.92041 1007.518351 918.71334 0.0010112
19.45709 1004.3952 1026.112781 918.680497 0.00099562
19.46589 1023.6936 1047.550192 918.645378 0.00097685
19.47469 1048.6532 1069.599705 918.607972 0.0009536
19.48349 1074.2007 1089.059195 918.568241 0.00093092
19.49229 1091.2632 1101.841931 918.526192 0.00091637
19.50110 1089.0367 1104.598246 918.481803 0.00091824
19.50990 1074.8243 1097.31312 918.435076 0.00093038
19.51870 1052.8689 1083.573472 918.385995 0.00094979
19.52750 1032.3027 1067.941497 918.33458 0.00096871
19.53630 1019.7846 1053.723821 918.2808 0.0009806
19.54511 1013.1976 1042.408817 918.224663 0.00098697
19.55391 1007.985 1033.775307 918.166186 0.00099208
19.56271 1004.9893 1026.405886 918.105363 0.00099504
19.57151 999.44495 1018.760068 918.042219 0.00100056
19.58032 991.05365 1010.303355 917.976751 0.00100903
19.58912 982.44843 1001.596982 917.909008 0.00101787
19.59792 975.27539 993.594576 917.838972 0.00102535
19.60672 970.38721 987.204396 917.766672 0.00103052
19.61552 968.00055 983.103457 917.692151 0.00103306
19.62433 969.24292 981.576728 917.615422 0.00103173
19.63313 972.09369 982.445652 917.536538 0.00102871
19.64193 976.94977 985.059659 917.455536 0.00102359
19.65073 980.46716 988.482582 917.372439 0.00101992
19.65953 981.88568 991.978407 917.287302 0.00101845
19.66834 982.92493 995.481926 917.200165 0.00101737
19.67714 987.77399 999.356622 917.111099 0.00101238
19.68594 994.53076 1003.699916 917.020143 0.0010055
19.69474 1000.6313 1007.830547 916.92738 0.00099937
19.70354 1004.3407 1010.332477 916.832876 0.00099568
19.71235 1003.7713 1009.749196 916.736681 0.00099624
19.72115 998.78156 1005.679908 916.63888 0.00100122
19.72995 990.25348 998.99909 916.539543 0.00100984
19.73875 982.04718 990.973196 916.438776 0.00101828
19.74756 973.80115 982.560158 916.336646 0.0010269
19.75636 966.9624 974.508893 916.233293 0.00103417
19.76516 963.203 967.573638 916.128747 0.0010382
19.77396 961.06842 962.425144 916.023158 0.00104051
19.78276 959.47968 959.403313 915.916625 0.00104223
19.79157 959.10638 958.44884 915.809247 0.00104264
19.80037 959.92865 959.135433 915.70117 0.00104174
19.80917 962.88208 960.696659 915.592493 0.00103855
19.81797 967.30231 962.07125 915.483395 0.0010338
19.82678 970.55267 962.147166 915.373936 0.00103034
19.83558 972.1012 960.285989 915.264306 0.0010287
19.84438 970.90118 956.695517 915.154638 0.00102997
19.85318 967.6825 952.161015 915.04507 0.0010334
19.86198 962.46606 947.526833 914.935783 0.001039
19.87079 957.68408 943.416476 914.826937 0.00104419
19.87959 952.26624 940.208616 914.718674 0.00105013
19.88839 948.86761 938.071604 914.611166 0.00105389
19.89719 946.62451 936.995039 914.504615 0.00105639
19.90599 946.15686 936.838516 914.39919 0.00105691
19.91480 946.86786 937.365617 914.295066 0.00105611
19.92360 948.37592 938.333307 914.192461 0.00105443
19.93240 950.24316 939.617131 914.09157 0.00105236
19.94120 951.80426 941.298445 913.992573 0.00105064
19.95001 955.3822 943.579536 913.895678 0.0010467
19.95881 959.83557 946.592574 913.801119 0.00104185
19.96761 964.00769 950.259034 913.709102 0.00103734
19.97641 967.28125 954.213703 913.619839 0.00103383
19.98521 970.11359 957.813667 913.533593 0.00103081
19.99402 970.39587 960.303983 913.450538 0.00103051
20.00282 968.39264 961.140461 913.370946 0.00103264
20.01162 965.24634 960.313263 913.295037 0.001036
20.02042 961.56659 958.463494 913.223071 0.00103997
20.02922 958.94952 956.676326 913.155284 0.00104281
20.03803 957.992 956.082823 913.091919 0.00104385
20.04683 957.1864 957.563197 913.033254 0.00104473
20.05563 958.18665 961.623343 912.979505 0.00104364
20.06443 962.17529 968.322624 912.930955 0.00103931
20.07324 969.89667 977.210129 912.887853 0.00103104
20.08204 980.58258 987.231047 912.850472 0.0010198
20.09084 991.3681 996.65168 912.819068 0.00100871
20.09964 997.05334 1003.164237 912.79391 0.00100296
20.10844 996.12134 1004.618826 912.775258 0.00100389
20.11725 987.66132 1000.256635 912.76338 0.00101249
20.12605 975.78809 991.229639 912.758545 0.00102481
20.13485 964.64618 979.695427 912.761019 0.00103665
20.14365 955.94403 967.660555 912.771065 0.00104609
20.15245 948.62286 956.498541 912.788949 0.00105416
20.16126 943.52856 946.975803 912.814928 0.00105985
20.17006 939.77484 939.398586 912.849269 0.00106408
20.17886 936.33905 933.746024 912.892231 0.00106799
20.18766 934.61377 929.805814 912.944058 0.00106996
20.19646 933.79797 927.285295 913.00501 0.0010709
20.20527 933.37042 925.90885 913.075319 0.00107139
20.21407 932.72113 925.465548 913.155209 0.00107213
20.22287 932.40509 925.833151 913.244961 0.0010725
20.23167 932.23383 926.946175 913.344763 0.00107269
20.24047 932.55426 928.76684 913.454854 0.00107232
20.24928 933.60358 931.233566 913.575419 0.00107112
20.25808 936.5329 934.215841 913.706683 0.00106777
20.26688 941.41931 937.461353 913.848806 0.00106223
20.27568 946.23059 940.561117 914.001944 0.00105682
20.28449 950.35034 942.962119 914.166349 0.00105224
20.29329 952.565 944.119633 914.342102 0.0010498
20.30209 951.80804 943.771331 914.52938 0.00105063
20.31089 948.50397 942.076941 914.728261 0.00105429
20.31969 944.95209 939.502566 914.938894 0.00105825
20.32850 942.17914 936.609352 915.161265 0.00106137
20.33730 939.55334 933.883038 915.395565 0.00106434
20.34610 937.63507 931.677554 915.641819 0.00106651
20.35490 936.19519 930.223563 915.899994 0.00106815
20.36370 935.90784 929.658245 916.17015 0.00106848
20.37251 935.87732 930.054444 916.452199 0.00106852
20.38131 935.93579 931.433084 916.746153 0.00106845
20.39011 937.60468 933.763424 917.051796 0.00106655
20.39891 939.8396 936.952758 917.36919 0.00106401
20.40771 943.17786 940.820294 917.698162 0.00106025
20.41652 946.84442 945.062244 918.038464 0.00105614
20.42532 949.638 949.222492 918.389963 0.00105303
20.43412 952.21033 952.722485 918.752332 0.00105019
20.44292 954.43396 955.052128 919.125281 0.00104774
20.45172 955.36676 956.076786 919.508568 0.00104672
20.46053 954.95929 956.151975 919.90178 0.00104717
20.46933 953.70807 955.893194 920.304547 0.00104854
20.47813 953.41132 955.834471 920.716314 0.00104887
20.48693 953.38367 956.229853 921.13666 0.0010489
20.49574 953.08746 957.023946 921.564923 0.00104922
20.50454 952.95276 957.932299 922.000479 0.00104937
20.51334 952.76874 958.601264 922.442747 0.00104957
20.52214 951.54053 958.762931 922.890938 0.00105093
20.53094 950.47327 958.243853 923.3443 0.00105211
20.53975 949.18616 956.923182 923.801862 0.00105353
20.54855 948.49597 954.779168 924.26279 0.0010543
20.55735 947.21936 951.955326 924.725861 0.00105572
20.56615 945.08948 948.728763 925.190308 0.0010581
20.57495 943.54456 945.424027 925.654754 0.00105983
20.58376 942.06238 942.33482 926.118008 0.0010615
20.59256 940.6817 939.659386 926.578789 0
20.60136 939.90411 0 0 0
20.61016 939.19629 0 0 0
20.61896 938.96851 0 0 0
20.62777 938.96716 0 0 0
20.63657 938.9502 0 0 0
20.64537 938.93378 0 0 0
20.65417 939.70587 0 0 0
20.66298 940.35175 0 0 0
20.67178 941.29712 0 0 0
20.68058 942.52692 0 0 0
20.68938 944.61505 0 0 0
20.69818 947.75055 0 0 0
20.70699 951.84497 0 0 0
20.71579 955.11047 0 0 0
20.72459 958.97308 0 0 0
20.73339 963.8266 0 0 0
20.74219 967.33215 0 0 0
20.75100 970.40967 0 0 0
20.75980 974.09979 0 0 0
20.76860 976.80176 0 0 0
20.77741 979.1131 0 0 0
20.78620 982.36664 0 0 0
20.79501 988.58264 0 0 0
20.80381 996.28461 0 0 0
20.81261 1005.4755 0 0 0
20.82141 1013.2075 0 0 0
20.83022 1017.4547 0 0 0
20.83902 1016.7692 0 0 0
20.84782 1009.6392 0 0 0
20.85662 999.23358 0 0 0
20.86542 988.6568 0 0 0
20.87423 978.61426 0 0 0
20.88303 970.57727 0 0 0
20.89183 963.72919 0 0 0
20.90063 958.59363 0 0 0
20.90943 954.74609 0 0 0
20.91824 952.47412 0 0 0
20.92704 950.81378 0 0 0
20.93584 951.58356 0 0 0
20.94465 954.52325 0 0 0
20.95345 958.90558 0 0 0
20.96225 967.71631 0 0 0
20.97105 982.12695 0 0 0
20.97985 1002.7836 0 0 0
20.98866 1030.2247 0 0 0
20.99746 1067.5146 0 0 0
21.00626 1115.416 0 0 0
21.01506 1170.0247 0 0 0
21.02386 1208.547 0 0 0
21.03267 1213.8499 0 0 0
21.04147 1179.5927 0 0 0
21.05027 1129.6671 0 0 0
21.05907 1081.3422 0 0 0
21.06788 1043.701 0 0 0
21.07668 1014.1485 0 0 0
21.08548 994.02118 0 0 0
21.09428 978.95917 0 0 0
21.10308 968.81415 0 0 0
21.11189 962.24829 0 0 0
21.12069 957.1355 0 0 0
21.12949 952.48352 0 0 0
21.13829 950.07208 0 0 0
21.14709 948.84601 0 0 0
21.15590 948.50543 0 0 0
21.16470 948.20764 0 0 0
21.17350 948.93933 0 0 0
21.18230 948.59418 0 0 0
21.19110 948.33978 0 0 0
21.19991 948.42731 0 0 0
21.20871 948.89496 0 0 0
21.21751 950.97803 0 0 0
21.22631 954.28815 0 0 0
21.23512 958.95892 0 0 0
21.24392 965.23462 0 0 0
21.25272 971.11316 0 0 0
21.26152 975.75806 0 0 0
21.27032 978.47461 0 0 0
21.27913 978.69641 0 0 0
21.28793 975.81348 0 0 0
21.29673 971.13342 0 0 0
21.30553 966.74805 0 0 0
21.31433 964.03687 0 0 0
21.32314 963.25043 0 0 0
21.33194 963.052 0 0 0
21.34074 963.61615 0 0 0
21.34954 965.3208 0 0 0
21.35834 966.73688 0 0 0
21.36715 968.31995 0 0 0
21.37595 969.64532 0 0 0
21.38475 969.66364 0 0 0
21.39355 968.98969 0 0 0
21.40236 967.90021 0 0 0
21.41116 966.36267 0 0 0
21.41996 963.99884 0 0 0
21.42876 960.97131 0 0 0
21.43756 957.17773 0 0 0
21.44637 952.79541 0 0 0
21.45517 948.53021 0 0 0
21.46397 945.44543 0 0 0
21.47277 943.62677 0 0 0
21.48157 941.91162 0 0 0
21.49038 940.72412 0 0 0
21.49918 941.38068 0 0 0
21.50798 942.89899 0 0 0
21.51678 944.89557 0 0 0
21.52558 946.0766 0 0 0
21.53439 947.1225 0 0 0
21.54319 947.02386 0 0 0
21.55199 946.91504 0 0 0
21.56079 947.86407 0 0 0
21.56959 950.12299 0 0 0
21.57840 954.39899 0 0 0
21.58720 960.71857 0 0 0
21.59600 970.24475 0 0 0
21.60480 980.77655 0 0 0
21.61360 994.64539 0 0 0
21.62241 1010.347 0 0 0
21.63121 1028.9762 0 0 0
21.64001 1042.0366 0 0 0
21.64881 1052.5964 0 0 0
21.65762 1051.7606 0 0 0
21.66642 1057.8984 0 0 0
21.67522 1063.2119 0 0 0
21.68402 1081.6375 0 0 0
21.69282 1097.0483 0 0 0
21.70163 1110.6007 0 0 0
21.71043 1111.2452 0 0 0
21.71923 1112.1088 0 0 0
21.72803 1108.8162 0 0 0
21.73683 1105.0419 0 0 0
21.74564 1091.3909 0 0 0
21.75444 1071.4694 0 0 0
21.76324 1045.4072 0 0 0
21.77204 1023.0935 0 0 0
21.78085 1002.6249 0 0 0
21.78965 987.90906 0 0 0
21.79845 978.20215 0 0 0
21.80725 973.4024 0 0 0
21.81605 970.77539 0 0 0
21.82486 969.89264 0 0 0
21.83366 970.33051 0 0 0
21.84246 970.85474 0 0 0
21.85126 970.51819 0 0 0
21.86006 969.57935 0 0 0
21.86887 967.79163 0 0 0
21.87767 963.72107 0 0 0
21.88647 958.76221 0 0 0
21.89527 954.42059 0 0 0
21.90408 949.87115 0 0 0
21.91288 946.44543 0 0 0
21.92168 944.40851 0 0 0
21.93048 943.85138 0 0 0
21.93928 944.47723 0 0 0
21.94809 946.43469 0 0 0
21.95689 949.21881 0 0 0
21.96569 953.5993 0 0 0
21.97449 958.91644 0 0 0
21.98329 965.93152 0 0 0
21.99210 973.63745 0 0 0
22.00090 980.50555 0 0 0
22.00970 984.29327 0 0 0
22.01850 983.88538 0 0 0
22.02731 979.37836 0 0 0
22.03611 971.91144 0 0 0
22.04491 963.2099 0 0 0
22.05371 955.50818 0 0 0
22.06251 949.73322 0 0 0
22.07132 946.68787 0 0 0
22.08012 945.65747 0 0 0
22.08892 946.0152 0 0 0
22.09772 946.96301 0 0 0
22.10652 947.23999 0 0 0
22.11533 947.53857 0 0 0
22.12413 948.02698 0 0 0
22.13293 948.45453 0 0 0
22.14173 947.13477 0 0 0
22.15054 945.5899 0 0 0
22.15934 943.85211 0 0 0
22.16814 941.94086 0 0 0
22.17694 940.14447 0 0 0
22.18574 938.80457 0 0 0
22.19455 938.41089 0 0 0
22.20335 938.42285 0 0 0
22.21215 939.20282 0 0 0
22.22095 941.008 0 0 0
22.22975 943.43835 0 0 0
22.23856 947.04303 0 0 0
22.24736 952.37012 0 0 0
22.25616 961.21759 0 0 0
22.26496 973.81201 0 0 0
22.27376 988.95984 0 0 0
22.28257 1007.8834 0 0 0
22.29137 1027.6989 0 0 0
22.30017 1043.3668 0 0 0
22.30897 1047.8105 0 0 0
22.31778 1039.9006 0 0 0
22.32658 1025.0934 0 0 0
22.33538 1011.1873 0 0 0
22.34418 999.48553 0 0 0
22.35298 992.8028 0 0 0
22.36179 989.92224 0 0 0
22.37059 994.18109 0 0 0
22.37939 1006.6722 0 0 0
22.38819 1026.2671 0 0 0
22.39699 1042.2672 0 0 0
22.40580 1047.427 0 0 0
22.41460 1038.0255 0 0 0
22.42340 1021.5339 0 0 0
22.43220 1001.7218 0 0 0
22.44100 984.83679 0 0 0
22.44981 972.85834 0 0 0
22.45861 965.70447 0 0 0
22.46741 959.65582 0 0 0
22.47621 955.80457 0 0 0
22.48502 955.51117 0 0 0
22.49382 957.8988 0 0 0
22.50262 960.82092 0 0 0
22.51142 962.4071 0 0 0
22.52022 963.3053 0 0 0
22.52903 963.33508 0 0 0
22.53783 963.09479 0 0 0
22.54663 960.97272 0 0 0
22.55543 956.77997 0 0 0
22.56423 954.2981 0 0 0
22.57304 954.12122 0 0 0
22.58184 954.01874 0 0 0
22.59064 954.39685 0 0 0
22.59944 955.6745 0 0 0
22.60825 956.99878 0 0 0
22.61705 957.61823 0 0 0
22.62585 956.69415 0 0 0
22.63465 953.87408 0 0 0
22.64345 950.63269 0 0 0
22.65226 947.2243 0 0 0
22.66106 943.78101 0 0 0
22.66986 940.38177 0 0 0
22.67866 937.81268 0 0 0
22.68746 935.56769 0 0 0
22.69627 933.7785 0 0 0
22.70507 932.96002 0 0 0
22.71387 933.00635 0 0 0
22.72267 934.74786 0 0 0
22.73147 936.15051 0 0 0
22.74028 937.57764 0 0 0
22.74908 939.89734 0 0 0
22.75788 943.02332 0 0 0
22.76668 946.70776 0 0 0
22.77549 949.76526 0 0 0
22.78429 951.42041 0 0 0
22.79309 952.58844 0 0 0
22.80189 952.19556 0 0 0
22.81069 951.11951 0 0 0
22.81950 950.56024 0 0 0
22.82830 949.94873 0 0 0
22.83710 949.33228 0 0 0
22.84590 949.6322 0 0 0
22.85470 949.25604 0 0 0
22.86351 949.81451 0 0 0
22.87231 951.20734 0 0 0
22.88111 952.22571 0 0 0
22.88991 954.58649 0 0 0
22.89871 957.69019 0 0 0
22.90752 962.32031 0 0 0
22.91632 969.57434 0 0 0
22.92512 979.20746 0 0 0
22.93392 994.25586 0 0 0
22.94273 1016.2903 0 0 0
22.95153 1048.7227 0 0 0
22.96033 1081.4774 0 0 0
22.96913 1105.7494 0 0 0
22.97793 1107.6702 0 0 0
22.98674 1086.7987 0 0 0
22.99554 1057.9607 0 0 0
23.00434 1026.6451 0 0 0
23.01314 1004.6425 0 0 0
23.02194 985.59845 0 0 0
23.03075 975.35437 0 0 0
23.03955 967.33441 0 0 0
23.04835 964.19049 0 0 0
23.05715 961.50842 0 0 0
23.06596 961.28448 0 0 0
23.07476 961.48236 0 0 0
23.08356 961.21094 0 0 0
23.09236 960.09583 0 0 0
23.10116 958.35919 0 0 0
23.10997 956.07324 0 0 0
23.11877 953.71124 0 0 0
23.12757 952.44348 0 0 0
23.13637 951.41315 0 0 0
23.14517 950.98236 0 0 0
23.15398 949.46912 0 0 0
23.16278 946.62561 0 0 0
23.17158 943.66364 0 0 0
23.18038 940.71198 0 0 0
23.18918 936.9751 0 0 0
23.19799 933.36182 0 0 0
23.20679 930.51837 0 0 0
23.21559 929.3241 0 0 0
23.22439 928.66656 0 0 0
23.23320 928.61517 0 0 0
23.24200 928.25543 0 0 0
23.25080 927.41528 0 0 0
23.25960 926.61932 0 0 0
23.26840 925.92755 0 0 0
23.27721 925.29156 0 0 0
23.28601 924.3808 0 0 0
23.29481 924.38916 0 0 0
23.30361 924.10089 0 0 0
23.31241 923.65002 0 0 0
23.32122 923.6322 0 0 0
23.33002 923.86261 0 0 0
23.33882 923.2785 0 0 0
23.34762 922.67218 0 0 0
23.35642 923.31653 0 0 0
23.36523 924.31854 0 0 0
23.37403 925.60669 0 0 0
23.38283 927.71246 0 0 0
23.39163 930.45715 0 0 0
23.40044 932.91223 0 0 0
23.40924 934.44525 0 0 0
23.41804 936.25854 0 0 0
23.42684 937.08142 0 0 0
23.43564 936.68182 0 0 0
23.44445 936.04132 0 0 0
23.45325 935.28094 0 0 0
23.46205 934.85901 0 0 0
23.47085 936.00928 0 0 0
23.47965 939.39465 0 0 0
23.48846 943.77582 0 0 0
23.49726 945.69525 0 0 0
23.50606 944.69891 0 0 0
23.51486 943.28149 0 0 0
23.52367 942.50598 0 0 0
23.53247 942.62341 0 0 0
23.54127 944.25623 0 0 0
23.55007 947.04803 0 0 0
23.55887 950.37506 0 0 0
23.56768 954.78729 0 0 0
23.57648 959.92102 0 0 0
23.58528 966.26086 0 0 0
23.59408 973.38135 0 0 0
23.60288 980.42517 0 0 0
23.61169 988.02222 0 0 0
23.62049 994.9704 0 0 0
23.62929 1000.5703 0 0 0
23.63809 1003.8184 0 0 0
23.64689 1006.2203 0 0 0
23.65570 1008.8491 0 0 0
23.66450 1009.967 0 0 0
23.67330 1006.2679 0 0 0
23.68210 996.78412 0 0 0
23.69091 983.64447 0 0 0
23.69971 970.91559 0 0 0
23.70851 959.84412 0 0 0
23.71731 951.87506 0 0 0
23.72611 946.2439 0 0 0
23.73492 942.16669 0 0 0
23.74372 938.88721 0 0 0
23.75252 937.56 0 0 0
23.76132 938.98846 0 0 0
23.77012 941.65302 0 0 0
23.77893 946.1272 0 0 0
23.78773 952.14832 0 0 0
23.79653 957.66815 0 0 0
23.80533 963.21771 0 0 0
23.81414 967.98157 0 0 0
23.82294 970.78278 0 0 0
23.83174 972.65399 0 0 0
23.84054 971.40137 0 0 0
23.84934 967.49915 0 0 0
23.85815 961.6322 0 0 0
23.86695 954.78192 0 0 0
23.87575 947.58185 0 0 0
23.88455 941.67303 0 0 0
23.89335 937.0752 0 0 0
23.90216 933.89545 0 0 0
23.91096 931.45697 0 0 0
23.91976 929.65613 0 0 0
23.92856 928.51593 0 0 0
23.93736 927.80811 0 0 0
23.94617 926.98737 0 0 0
23.95497 926.59595 0 0 0
23.96377 926.30408 0 0 0
23.97257 924.89948 0 0 0
23.98137 924.19153 0 0 0
23.99018 924.15424 0 0 0
23.99898 923.48059 0 0 0
24.00778 922.35004 0 0 0
24.01658 921.5871 0 0 0
24.02539 921.33966 0 0 0
24.03419 921.38593 0 0 0
24.04299 920.44446 0 0 0
24.05179 920.4043 0 0 0
24.06059 921.00372 0 0 0
24.06940 921.22491 0 0 0
24.07820 922.08704 0 0 0
24.08700 922.82825 0 0 0
24.09580 923.74878 0 0 0
24.10460 925.16693 0 0 0
24.11341 926.86353 0 0 0
24.12221 929.05554 0 0 0
24.13101 931.20587 0 0 0
24.13981 932.40271 0 0 0
24.14862 933.84479 0 0 0
24.15742 934.63843 0 0 0
24.16622 935.0451 0 0 0
24.17502 935.87592 0 0 0
24.18382 936.34766 0 0 0
24.19263 935.89966 0 0 0
24.20143 936.37006 0 0 0
24.21023 937.2995 0 0 0
24.21903 938.14594 0 0 0
24.22783 939.75665 0 0 0
24.23664 943.34808 0 0 0
24.24544 948.03192 0 0 0
24.25424 951.72321 0 0 0
24.26304 955.04346 0 0 0
24.27184 959.93823 0 0 0
24.28065 966.11438 0 0 0
24.28945 974.07703 0 0 0
24.29825 982.46826 0 0 0
24.30705 992.24487 0 0 0
24.31586 999.29114 0 0 0
24.32466 1005.0984 0 0 0
24.33346 1012.4034 0 0 0
24.34226 1020.0635 0 0 0
24.35106 1030.8571 0 0 0
24.35987 1043.5562 0 0 0
24.36867 1061.3375 0 0 0
24.37747 1072.2686 0 0 0
24.38627 1082.0623 0 0 0
24.39507 1080.1276 0 0 0
24.40388 1074.8976 0 0 0
24.41268 1063.8448 0 0 0
24.42148 1051.0543 0 0 0
24.43029 1038.6051 0 0 0
24.43908 1023.6309 0 0 0
24.44789 1012.0044 0 0 0
24.45669 1000.6187 0 0 0
24.46549 994.46954 0 0 0
24.47430 989.26892 0 0 0
24.48310 987.03375 0 0 0
24.49190 985.08044 0 0 0
24.50070 983.0835 0 0 0
24.50950 979.70044 0 0 0
24.51831 977.24017 0 0 0
24.52711 973.32263 0 0 0
24.53591 967.61688 0 0 0
24.54471 961.70074 0 0 0
24.55351 955.81445 0 0 0
24.56232 949.60419 0 0 0
24.57112 944.00476 0 0 0
24.57992 940.08777 0 0 0
24.58872 936.72607 0 0 0
24.59753 935.36261 0 0 0
24.60633 935.49426 0 0 0
24.61513 937.66254 0 0 0
24.62393 941.33838 0 0 0
24.63273 946.31848 0 0 0
24.64154 952.31824 0 0 0
24.65034 958.28229 0 0 0
24.65914 964.4707 0 0 0
24.66794 970.29364 0 0 0
24.67674 976.30719 0 0 0
24.68555 984.98694 0 0 0
24.69435 997.17596 0 0 0
24.70315 1011.735 0 0 0
24.71195 1029.2958 0 0 0
24.72076 1046.2577 0 0 0
24.72956 1059.8452 0 0 0
24.73836 1066.2166 0 0 0
24.74716 1063.3263 0 0 0
24.75596 1050.7008 0 0 0
24.76477 1030.845 0 0 0
24.77357 1009.7108 0 0 0
24.78237 991.34235 0 0 0
24.79117 976.56946 0 0 0
24.79997 964.84552 0 0 0
24.80878 955.94873 0 0 0
24.81758 948.81317 0 0 0
24.82638 943.63 0 0 0
24.83518 940.12329 0 0 0
24.84398 938.05731 0 0 0
24.85279 936.30829 0 0 0
24.86159 935.83606 0 0 0
24.87039 934.716 0 0 0
24.87919 934.39996 0 0 0
24.88800 934.06635 0 0 0
24.89680 934.19092 0 0 0
24.90560 935.60022 0 0 0
24.91440 938.66357 0 0 0
24.92320 943.9173 0 0 0
24.93201 952.33179 0 0 0
24.94081 964.88165 0 0 0
24.94961 978.70764 0 0 0
24.95841 997.91736 0 0 0
24.96721 1018.0701 0 0 0
24.97602 1044.2988 0 0 0
24.98482 1063.3872 0 0 0
24.99362 1080.3206 0 0 0
25.00242 1085.9827 0 0 0
25.01122 1080.9948 0 0 0
25.02003 1068.1052 0 0 0
25.02883 1047.2781 0 0 0
25.03763 1028.965 0 0 0
25.04643 1007.0281 0 0 0
25.05523 991.48785 0 0 0
25.06404 975.78625 0 0 0
25.07284 964.9444 0 0 0
25.08164 954.48828 0 0 0
25.09044 947.22516 0 0 0
25.09924 942.25653 0 0 0
25.10805 939.30707 0 0 0
25.11685 937.91467 0 0 0
25.12565 936.96912 0 0 0
25.13445 936.47107 0 0 0
25.14325 936.15503 0 0 0
25.15206 937.31012 0 0 0
25.16086 938.78094 0 0 0
25.16966 939.47522 0 0 0
25.17846 940.90546 0 0 0
25.18727 942.49158 0 0 0
25.19607 942.48938 0 0 0
25.20487 941.89801 0 0 0
25.21367 941.01337 0 0 0
25.22247 939.63312 0 0 0
25.23128 939.06189 0 0 0
25.24008 938.5144 0 0 0
25.24888 938.01031 0 0 0
25.25768 937.05646 0 0 0
25.26648 935.92462 0 0 0
25.27529 935.89685 0 0 0
25.28409 936.26007 0 0 0
25.29289 940.09064 0 0 0
25.30169 947.42999 0 0 0
25.31049 954.31775 0 0 0
25.31930 958.65753 0 0 0
25.32810 958.08197 0 0 0
25.33690 952.01489 0 0 0
25.34570 943.77161 0 0 0
25.35451 936.27527 0 0 0
25.36331 931.51727 0 0 0
25.37211 928.69922 0 0 0
25.38091 925.96155 0 0 0
25.38971 924.18292 0 0 0
25.39852 923.21057 0 0 0
25.40732 923.17511 0 0 0
25.41612 923.13165 0 0 0
25.42492 923.41284 0 0 0
25.43372 924.94739 0 0 0
25.44253 927.23138 0 0 0
25.45133 929.74921 0 0 0
25.46013 933.46149 0 0 0
25.46893 938.85419 0 0 0
25.47774 946.57568 0 0 0
25.48654 954.71625 0 0 0
25.49534 959.78265 0 0 0
25.50414 962.7746 0 0 0
25.51294 962.17023 0 0 0
25.52175 958.18011 0 0 0
25.53055 951.34363 0 0 0
25.53935 944.51978 0 0 0
25.54815 940.64069 0 0 0
25.55695 937.36877 0 0 0
25.56576 934.54956 0 0 0
25.57456 932.48224 0 0 0
25.58336 930.90912 0 0 0
25.59216 928.81256 0 0 0
25.60096 926.76044 0 0 0
25.60977 924.84058 0 0 0
25.61857 923.23956 0 0 0
25.62737 921.21741 0 0 0
25.63618 920.14691 0 0 0
25.64498 919.3584 0 0 0
25.65378 918.3454 0 0 0
25.66258 918.39905 0 0 0
25.67138 919.09503 0 0 0
25.68019 920.16998 0 0 0
25.68899 920.17371 0 0 0
25.69779 918.76453 0 0 0
25.70659 916.59332 0 0 0
25.71539 915.28754 0 0 0
25.72420 913.55273 0 0 0
25.73300 910.91003 0 0 0
25.74180 908.45758 0 0 0
25.75060 906.45691 0 0 0
25.75940 905.05243 0 0 0
25.76821 904.07892 0 0 0
25.77701 904.0011 0 0 0
25.78581 903.14966 0 0 0
25.79461 901.77533 0 0 0
25.80342 900.97705 0 0 0
25.81222 900.6662 0 0 0
25.82102 899.57489 0 0 0
25.82982 899.11029 0 0 0
25.83862 899.00952 0 0 0
25.84743 898.12988 0 0 0
25.85623 897.46674 0 0 0
25.86503 897.65063 0 0 0
25.87383 897.71869 0 0 0
25.88263 897.42914 0 0 0
25.89144 898.30951 0 0 0
25.90024 899.19269 0 0 0
25.90904 899.28467 0 0 0
25.91784 899.48499 0 0 0
25.92664 900.18127 0 0 0
25.93545 900.77979 0 0 0
25.94425 901.83203 0 0 0
25.95305 902.89197 0 0 0
25.96185 903.79047 0 0 0
25.97066 905.58118 0 0 0
25.97946 907.59802 0 0 0
25.98826 909.84741 0 0 0
25.99706 912.45709 0 0 0
26.00586 913.80243 0 0 0
26.01467 913.95557 0 0 0
26.02347 912.97565 0 0 0
26.03227 909.73352 0 0 0
26.04107 907.67664 0 0 0
26.04987 906.79346 0 0 0
26.05868 904.94867 0 0 0
26.06748 904.01172 0 0 0
26.07628 903.69519 0 0 0
26.08508 904.69983 0 0 0
26.09388 906.68756 0 0 0
26.10269 907.96136 0 0 0
26.11149 910.00635 0 0 0
26.12029 912.67981 0 0 0
26.12909 916.02991 0 0 0
26.13790 920.12036 0 0 0
26.14670 923.87518 0 0 0
26.15550 925.99658 0 0 0
26.16430 927.05798 0 0 0
26.17310 928.48645 0 0 0
26.18191 929.6767 0 0 0
26.19071 930.11951 0 0 0
26.19951 929.76703 0 0 0
26.20831 928.84802 0 0 0
26.21711 928.43658 0 0 0
26.22592 930.15802 0 0 0
26.23472 932.81787 0 0 0
26.24352 934.54602 0 0 0
26.25232 935.73816 0 0 0
26.26113 935.73706 0 0 0
26.26993 932.79956 0 0 0
26.27873 928.90131 0 0 0
26.28753 924.38159 0 0 0
26.29633 918.73761 0 0 0
26.30514 913.39832 0 0 0
26.31394 909.26868 0 0 0
26.32274 906.96875 0 0 0
26.33154 905.56653 0 0 0
26.34034 904.28754 0 0 0
26.34915 904.09363 0 0 0
26.35795 903.73016 0 0 0
26.36675 902.87805 0 0 0
26.37555 902.38306 0 0 0
26.38435 901.66357 0 0 0
26.39316 900.49567 0 0 0
26.40196 899.96674 0 0 0
26.41076 899.71887 0 0 0
26.41956 899.05841 0 0 0
26.42837 898.09552 0 0 0
26.43717 897.32953 0 0 0
26.44597 896.95892 0 0 0
26.45477 898.07391 0 0 0
26.46357 899.73566 0 0 0
26.47238 900.57751 0 0 0
26.48118 900.98749 0 0 0
26.48998 901.43829 0 0 0
26.49878 902.74658 0 0 0
26.50758 903.34912 0 0 0
26.51639 903.95758 0 0 0
26.52519 905.23474 0 0 0
26.53399 906.58057 0 0 0
26.54279 909.10529 0 0 0
26.55159 911.86267 0 0 0
26.56040 915.1123 0 0 0
26.56920 918.41614 0 0 0
26.57800 920.60547 0 0 0
26.58680 923.5459 0 0 0
26.59561 928.66302 0 0 0
26.60441 936.95831 0 0 0
26.61321 948.41364 0 0 0
26.62201 958.75842 0 0 0
26.63081 964.3847 0 0 0
26.63962 965.79236 0 0 0
26.64842 964.24042 0 0 0
26.65722 962.3324 0 0 0
26.66602 964.32019 0 0 0
26.67482 969.51477 0 0 0
26.68363 972.46326 0 0 0
26.69243 970.71283 0 0 0
26.70123 963.31439 0 0 0
26.71003 951.62622 0 0 0
26.71884 940.15741 0 0 0
26.72764 930.49957 0 0 0
26.73644 922.21802 0 0 0
26.74524 916.66974 0 0 0
26.75404 912.89398 0 0 0
26.76285 909.19183 0 0 0
26.77165 906.19183 0 0 0
26.78045 904.11377 0 0 0
26.78925 902.53644 0 0 0
26.79805 901.612 0 0 0
26.80686 900.77026 0 0 0
26.81566 900.53894 0 0 0
26.82446 900.71246 0 0 0
26.83326 901.49426 0 0 0
26.84206 901.86255 0 0 0
26.85087 902.47345 0 0 0
26.85967 904.42712 0 0 0
26.86847 904.88123 0 0 0
26.87727 904.41272 0 0 0
26.88608 905.52063 0 0 0
26.89488 906.62762 0 0 0
26.90368 906.38953 0 0 0
26.91248 906.0827 0 0 0
26.92128 905.56842 0 0 0
26.93009 905.38116 0 0 0
26.93889 906.72369 0 0 0
26.94769 907.97809 0 0 0
26.95649 909.53131 0 0 0
26.96529 910.81006 0 0 0
26.97410 911.50769 0 0 0
26.98290 912.33612 0 0 0
26.99170 911.8902 0 0 0
27.00050 910.36298 0 0 0
27.00930 909.61456 0 0 0
27.01811 908.35858 0 0 0
27.02691 905.2771 0 0 0
27.03571 903.81805 0 0 0
27.04451 903.54004 0 0 0
27.05332 902.71118 0 0 0
27.06212 902.00281 0 0 0
27.07092 901.4173 0 0 0
27.07972 901.34808 0 0 0
27.08852 902.81348 0 0 0
27.09733 904.69189 0 0 0
27.10613 905.98615 0 0 0
27.11493 908.91504 0 0 0
27.12373 912.32953 0 0 0
27.13253 913.49902 0 0 0
27.14134 914.99573 0 0 0
27.15014 917.35736 0 0 0
27.15894 920.20367 0 0 0
27.16774 923.83295 0 0 0
27.17655 926.45361 0 0 0
27.18535 928.22064 0 0 0
27.19415 929.34753 0 0 0
27.20295 930.42377 0 0 0
27.21175 932.52039 0 0 0
27.22056 935.30481 0 0 0
27.22936 937.42352 0 0 0
27.23816 939.41473 0 0 0
27.24696 939.84235 0 0 0
27.25576 937.58984 0 0 0
27.26457 934.96832 0 0 0
27.27337 932.07111 0 0 0
27.28217 929.8761 0 0 0
27.29097 927.39606 0 0 0
27.29977 925.90594 0 0 0
27.30858 926.22821 0 0 0
27.31738 925.47632 0 0 0
27.32618 923.11365 0 0 0
27.33498 920.62445 0 0 0
27.34379 917.8811 0 0 0
27.35259 913.5755 0 0 0
27.36139 909.98767 0 0 0
27.37019 908.34009 0 0 0
27.37899 906.28815 0 0 0
27.38780 903.77429 0 0 0
27.39660 904.67242 0 0 0
27.40540 906.66101 0 0 0
27.41420 906.64978 0 0 0
27.42300 908.10248 0 0 0
27.43181 911.06055 0 0 0
27.44061 912.16064 0 0 0
27.44941 911.91516 0 0 0
27.45821 911.44397 0 0 0
27.46701 909.68701 0 0 0
27.47582 907.18921 0 0 0
27.48462 905.46082 0 0 0
27.49342 903.74915 0 0 0
27.50222 901.90192 0 0 0
27.51103 900.7547 0 0 0
27.51983 899.04651 0 0 0
27.52863 897.49054 0 0 0
27.53743 896.34747 0 0 0
27.54623 895.42267 0 0 0
27.55504 895.22144 0 0 0
27.56384 895.25635 0 0 0
27.57264 894.6405 0 0 0
27.58144 894.26349 0 0 0
27.59024 894.17719 0 0 0
27.59905 893.36224 0 0 0
27.60785 894.21069 0 0 0
27.61665 895.42169 0 0 0
27.62545 895.86652 0 0 0
27.63426 896.0741 0 0 0
27.64306 896.35583 0 0 0
27.65186 897.5752 0 0 0
27.66066 898.80005 0 0 0
27.66946 899.74738 0 0 0
27.67827 899.54053 0 0 0
27.68707 900.79974 0 0 0
27.69587 903.46234 0 0 0
27.70467 906.35834 0 0 0
27.71347 910.52631 0 0 0
27.72228 915.11707 0 0 0
27.73108 920.43323 0 0 0
27.73988 926.19061 0 0 0
27.74868 931.73737 0 0 0
27.75748 937.01733 0 0 0
27.76629 941.08954 0 0 0
27.77509 943.65338 0 0 0
27.78389 945.84625 0 0 0
27.79269 947.35211 0 0 0
27.80150 947.05774 0 0 0
27.81030 945.55298 0 0 0
27.81910 944.30646 0 0 0
27.82790 943.84052 0 0 0
27.83670 943.34778 0 0 0
27.84551 942.39978 0 0 0
27.85431 940.36273 0 0 0
27.86311 935.72473 0 0 0
27.87191 929.66077 0 0 0
27.88071 923.65912 0 0 0
27.88952 918.54266 0 0 0
27.89832 915.56042 0 0 0
27.90712 913.97174 0 0 0
27.91592 913.26398 0 0 0
27.92472 914.35785 0 0 0
27.93353 914.953 0 0 0
27.94233 914.56427 0 0 0
27.95113 913.22498 0 0 0
27.95993 911.4693 0 0 0
27.96874 910.17676 0 0 0
27.97754 908.5072 0 0 0
27.98634 907.64398 0 0 0
27.99514 907.0144 0 0 0
28.00394 906.12927 0 0 0
28.01275 905.82306 0 0 0
28.02155 906.46301 0 0 0
28.03035 906.51788 0 0 0
28.03915 907.58148 0 0 0
28.04796 909.93829 0 0 0
28.05676 910.15839 0 0 0
28.06556 909.67493 0 0 0
28.07436 909.9519 0 0 0
28.08316 909.02454 0 0 0
28.09196 907.8327 0 0 0
28.10077 907.71143 0 0 0
28.10957 906.43762 0 0 0
28.11837 905.17316 0 0 0
28.12717 905.64935 0 0 0
28.13598 906.78107 0 0 0
28.14478 906.89874 0 0 0
28.15358 906.42969 0 0 0
28.16238 907.2149 0 0 0
28.17119 909.25806 0 0 0
28.17999 912.33997 0 0 0
28.18879 916.94415 0 0 0
28.19759 923.48401 0 0 0
28.20639 931.24475 0 0 0
28.21520 938.91931 0 0 0
28.22400 945.55713 0 0 0
28.23280 953.18109 0 0 0
28.24160 961.5788 0 0 0
28.25040 968.96246 0 0 0
28.25921 977.41174 0 0 0
28.26801 985.20764 0 0 0
28.27681 991.33911 0 0 0
28.28561 996.72504 0 0 0
28.29442 999.87701 0 0 0
28.30322 1002.8668 0 0 0
28.31202 1003.1761 0 0 0
28.32082 997.55414 0 0 0
28.32962 983.49023 0 0 0
28.33843 956.75079 0 0 0
28.34723 945.82202 0 0 0
28.35603 948.82129 0 0 0
28.36483 944.32349 0 0 0
28.37363 939.388 0 0 0
28.38244 935.49139 0 0 0
28.39124 931.72449 0 0 0
28.40004 928.68475 0 0 0
28.40884 927.21301 0 0 0
28.41765 925.27979 0 0 0
28.42645 923.07739 0 0 0
28.43525 921.69006 0 0 0
28.44405 922.13733 0 0 0
28.45285 923.05426 0 0 0
28.46166 922.03741 0 0 0
28.47046 919.91205 0 0 0
28.47926 920.3291 0 0 0
28.48806 922.34583 0 0 0
28.49686 923.55475 0 0 0
28.50567 924.76831 0 0 0
28.51447 924.94257 0 0 0
28.52327 924.35638 0 0 0
28.53207 924.3299 0 0 0
28.54087 923.53918 0 0 0
28.54968 922.33545 0 0 0
28.55848 921.3833 0 0 0
28.56728 919.5257 0 0 0
28.57608 916.97748 0 0 0
28.58488 914.75488 0 0 0
28.59369 912.56812 0 0 0
28.60249 910.80591 0 0 0
28.61129 910.58044 0 0 0
28.62009 909.5777 0 0 0
28.62889 908.66406 0 0 0
28.63770 907.40613 0 0 0
28.64650 904.83099 0 0 0
28.65530 903.42993 0 0 0
28.66410 903.30383 0 0 0
28.67291 903.30402 0 0 0
28.68171 903.95154 0 0 0
28.69051 904.40692 0 0 0
28.69931 904.26251 0 0 0
28.70811 904.40942 0 0 0
28.71692 905.99854 0 0 0
28.72572 907.74237 0 0 0
28.73452 909.75537 0 0 0
28.74332 911.27643 0 0 0
28.75212 911.71674 0 0 0
28.76093 911.8656 0 0 0
28.76973 910.78815 0 0 0
28.77853 909.77795 0 0 0
28.78733 908.84247 0 0 0
28.79613 908.47192 0 0 0
28.80494 911.02203 0 0 0
28.81374 915.22607 0 0 0
28.82254 918.09711 0 0 0
28.83134 925.33582 0 0 0
28.84014 936.12457 0 0 0
28.84895 943.79437 0 0 0
28.85775 948.9668 0 0 0
28.86655 949.85455 0 0 0
28.87535 946.22382 0 0 0
28.88416 938.80151 0 0 0
28.89296 929.42896 0 0 0
28.90176 919.52802 0 0 0
28.91056 911.88531 0 0 0
28.91936 909.5426 0 0 0
28.92817 909.47845 0 0 0
28.93697 909.2915 0 0 0
28.94577 910.95032 0 0 0
28.95457 914.50317 0 0 0
28.96337 920.18372 0 0 0
28.97218 930.0434 0 0 0
28.98098 942.38141 0 0 0
28.98978 950.79797 0 0 0
28.99858 950.90204 0 0 0
29.00738 946.82172 0 0 0
29.01619 940.93555 0 0 0
29.02499 932.44733 0 0 0
29.03379 923.3407 0 0 0
29.04259 916.24182 0 0 0
29.05140 910.89954 0 0 0
29.06020 906.5387 0 0 0
29.06900 903.22522 0 0 0
29.07780 901.46124 0 0 0
29.08660 900.79211 0 0 0
29.09541 901.13342 0 0 0
29.10421 902.39349 0 0 0
29.11301 901.84503 0 0 0
29.12181 900.76959 0 0 0
29.13061 900.1203 0 0 0
29.13942 900.3822 0 0 0
29.14822 899.86981 0 0 0
29.15702 897.87433 0 0 0
29.16583 897.08545 0 0 0
29.17463 898.12689 0 0 0
29.18343 898.28119 0 0 0
29.19223 897.61365 0 0 0
29.20103 898.77258 0 0 0
29.20984 898.20331 0 0 0
29.21864 896.3678 0 0 0
29.22744 896.96967 0 0 0
29.23624 898.07507 0 0 0
29.24504 896.45599 0 0 0
29.25384 895.58093 0 0 0
29.26265 897.43872 0 0 0
29.27145 899.42987 0 0 0
29.28025 900.724 0 0 0
29.28906 902.20264 0 0 0
29.29785 902.64459 0 0 0
29.30666 902.54242 0 0 0
29.31546 902.23572 0 0 0
29.32426 901.80396 0 0 0
29.33307 902.99872 0 0 0
29.34187 902.70734 0 0 0
29.35067 901.64618 0 0 0
29.35947 901.00427 0 0 0
29.36827 899.99927 0 0 0
29.37708 900.46667 0 0 0
29.38588 900.40283 0 0 0
29.39468 899.6568 0 0 0
29.40348 900.36212 0 0 0
29.41228 899.4339 0 0 0
29.42109 897.33734 0 0 0
29.42989 896.66382 0 0 0
29.43869 896.56769 0 0 0
29.44749 897.40479 0 0 0
29.45630 897.46521 0 0 0
29.46510 894.78027 0 0 0
29.47390 894.34845 0 0 0
29.48270 896.61584 0 0 0
29.49150 897.57025 0 0 0
29.50031 900.28662 0 0 0
29.50911 904.68762 0 0 0
29.51791 909.26953 0 0 0
29.52671 914.26752 0 0 0
29.53551 919.21716 0 0 0
29.54432 925.48663 0 0 0
29.55312 932.76025 0 0 0
29.56192 938.95416 0 0 0
29.57072 943.94464 0 0 0
29.57952 944.81989 0 0 0
29.58833 940.18494 0 0 0
29.59713 935.47723 0 0 0
29.60593 930.65533 0 0 0
29.61473 923.97253 0 0 0
29.62354 918.45209 0 0 0
29.63234 913.76581 0 0 0
29.64114 910.31696 0 0 0
29.64994 907.71216 0 0 0
29.65874 904.36639 0 0 0
29.66755 901.60199 0 0 0
29.67635 898.79004 0 0 0
29.68515 897.44659 0 0 0
29.69395 895.80322 0 0 0
29.70275 893.89362 0 0 0
29.71156 894.23224 0 0 0
29.72036 895.28113 0 0 0
29.72916 894.82391 0 0 0
29.73796 894.5882 0 0 0
29.74676 894.78796 0 0 0
29.75557 895.35809 0 0 0
29.76437 895.20502 0 0 0
29.77317 895.04541 0 0 0
29.78197 896.17181 0 0 0
29.79078 896.27301 0 0 0
29.79958 895.8385 0 0 0
29.80838 896.93658 0 0 0
29.81718 896.83203 0 0 0
29.82598 895.38025 0 0 0
29.83479 895.96344 0 0 0
29.84359 896.38098 0 0 0
29.85239 895.20551 0 0 0
29.86119 897.11133 0 0 0
29.86999 896.92609 0 0 0
29.87880 895.23645 0 0 0
29.88760 895.84143 0 0 0
29.89640 896.66125 0 0 0
29.90520 899.51581 0 0 0
29.91400 901.0943 0 0 0
29.92281 901.50464 0 0 0
29.93161 900.96796 0 0 0
29.94041 901.10046 0 0 0
29.94921 902.86322 0 0 0
29.95801 906.28094 0 0 0
29.96682 910.27191 0 0 0
29.97562 912.12946 0 0 0
29.98442 914.69116 0 0 0
29.99322 917.2215 0 0 0
30.00203 922.0083 0 0 0
30.01083 926.62244 0 0 0
30.01963 930.20978 0 0 0
30.02843 935.97681 0 0 0
30.03723 940.2168 0 0 0
30.04604 945.24603 0 0 0
30.05484 949.8111 0 0 0
30.06364 951.90295 0 0 0
30.07244 957.21454 0 0 0
30.08124 961.05579 0 0 0
30.09005 962.73138 0 0 0
30.09885 967.22876 0 0 0
30.10765 969.62488 0 0 0
30.11645 968.4538 0 0 0
30.12526 963.7829 0 0 0
30.13406 958.20215 0 0 0
30.14286 956.14124 0 0 0
30.15166 953.55212 0 0 0
30.16046 949.92444 0 0 0
30.16927 947.70129 0 0 0
30.17807 947.91595 0 0 0
30.18687 947.6037 0 0 0
30.19567 947.96667 0 0 0
30.20447 946.85229 0 0 0
30.21328 945.64514 0 0 0
30.22208 940.87488 0 0 0
30.23088 933.56238 0 0 0
30.23968 928.76233 0 0 0
30.24849 921.84723 0 0 0
30.25729 917.24097 0 0 0
30.26609 914.91235 0 0 0
30.27489 912.45306 0 0 0
30.28369 912.95544 0 0 0
30.29250 914.22327 0 0 0
30.30130 914.1084 0 0 0
30.31010 915.26221 0 0 0
30.31890 921.50061 0 0 0
30.32770 928.54559 0 0 0
30.33651 933.10504 0 0 0
30.34531 935.68048 0 0 0
30.35411 938.91107 0 0 0
30.36291 941.33777 0 0 0
30.37172 937.98865 0 0 0
30.38052 933.38483 0 0 0
30.38932 930.49799 0 0 0
30.39812 925.17175 0 0 0
30.40692 920.24841 0 0 0
30.41573 916.47864 0 0 0
30.42453 914.46497 0 0 0
30.43333 913.25372 0 0 0
30.44213 912.11664 0 0 0
30.45093 913.19849 0 0 0
30.45974 914.19269 0 0 0
30.46854 913.12683 0 0 0
30.47734 912.11127 0 0 0
30.48614 914.07788 0 0 0
30.49494 913.35889 0 0 0
30.50375 911.59302 0 0 0
30.51255 909.47479 0 0 0
30.52135 907.26141 0 0 0
30.53015 908.72369 0 0 0
30.53896 907.03101 0 0 0
30.54776 904.97595 0 0 0
30.55656 903.35956 0 0 0
30.56536 903.0257 0 0 0
30.57416 900.87146 0 0 0
30.58297 899.21265 0 0 0
30.59177 898.35016 0 0 0
30.60057 895.85211 0 0 0
30.60937 893.46753 0 0 0
30.61817 891.91644 0 0 0
30.62698 893.06946 0 0 0
30.63578 891.86267 0 0 0
30.64458 889.99469 0 0 0
30.65338 889.10474 0 0 0
30.66218 889.30005 0 0 0
30.67099 891.02441 0 0 0
30.67979 891.06305 0 0 0
30.68859 889.71942 0 0 0
30.69739 888.19763 0 0 0
30.70620 886.98859 0 0 0
30.71500 885.84485 0 0 0
30.72380 887.1358 0 0 0
30.73260 887.1485 0 0 0
30.74140 885.32257 0 0 0
30.75021 885.70093 0 0 0
30.75901 885.45105 0 0 0
30.76781 885.60663 0 0 0
30.77661 888.25739 0 0 0
30.78541 888.84021 0 0 0
30.79422 888.27612 0 0 0
30.80302 885.25854 0 0 0
30.81182 883.3078 0 0 0
30.82062 884.59766 0 0 0
30.82943 886.82654 0 0 0
30.83823 887.50458 0 0 0
30.84703 886.68311 0 0 0
30.85583 888.20477 0 0 0
30.86463 889.25439 0 0 0
30.87344 887.0387 0 0 0
30.88224 887.09967 0 0 0
30.89104 890.1709 0 0 0
30.89984 893.99017 0 0 0
30.90864 894.18915 0 0 0
30.91745 891.67944 0 0 0
30.92625 891.27942 0 0 0
30.93505 893.44171 0 0 0
30.94385 893.06512 0 0 0
30.95265 891.19415 0 0 0
30.96146 892.57092 0 0 0
30.97026 892.80432 0 0 0
30.97906 892.00031 0 0 0
30.98786 893.36816 0 0 0
30.99667 893.81525 0 0 0
31.00547 891.3913 0 0 0
31.01427 890.67206 0 0 0
31.02307 890.42181 0 0 0
31.03187 889.61896 0 0 0
31.04068 889.03894 0 0 0
31.04948 887.65094 0 0 0
31.05828 885.78046 0 0 0
31.06708 887.03296 0 0 0
31.07588 889.26563 0 0 0
31.08469 886.89691 0 0 0
31.09349 884.9057 0 0 0
31.10229 883.88684 0 0 0
31.11109 884.17444 0 0 0
31.11989 886.42798 0 0 0
31.12870 887.91925 0 0 0
31.13750 892.83765 0 0 0
31.14630 896.85168 0 0 0
31.15510 895.35785 0 0 0
31.16391 893.53198 0 0 0
31.17271 895.05847 0 0 0
31.18151 892.96625 0 0 0
31.19031 892.16614 0 0 0
31.19911 896.91504 0 0 0
31.20792 895.7522 0 0 0
31.21672 894.92236 0 0 0
31.22552 899.80774 0 0 0
31.23432 906.89117 0 0 0
31.24312 913.42365 0 0 0
31.25193 919.74103 0 0 0
31.26073 927.1781 0 0 0
31.26953 928.67139 0 0 0
31.27833 929.2511 0 0 0
31.28714 931.172 0 0 0
31.29594 927.88177 0 0 0
31.30474 921.10559 0 0 0
31.31354 908.96295 0 0 0
31.32234 900.85315 0 0 0
31.33115 898.03021 0 0 0
31.33995 894.77612 0 0 0
31.34875 891.7337 0 0 0
31.35755 889.45624 0 0 0
31.36635 888.84967 0 0 0
31.37516 884.22052 0 0 0
31.38396 880.79633 0 0 0
31.39276 878.49017 0 0 0
31.40156 875.75281 0 0 0
31.41036 875.46594 0 0 0
31.41917 872.84967 0 0 0
31.42797 872.58344 0 0 0
31.43677 874.00317 0 0 0
31.44557 872.36401 0 0 0
31.45438 872.69208 0 0 0
31.46318 873.22571 0 0 0
31.47198 870.58093 0 0 0
31.48078 871.77295 0 0 0
31.48958 872.90186 0 0 0
31.49839 870.30225 0 0 0
31.50719 869.25378 0 0 0
31.51599 869.49921 0 0 0
31.52479 865.92072 0 0 0
31.53359 869.4021 0 0 0
31.54240 871.89429 0 0 0
31.55120 865.6814 0 0 0
31.56000 867.60638 0 0 0
31.56880 871.59662 0 0 0
31.57760 872.909 0 0 0
31.58641 873.55023 0 0 0
31.59521 872.45477 0 0 0
31.60401 870.57294 0 0 0
31.61281 867.46661 0 0 0
31.62162 867.97131 0 0 0
31.63042 869.30933 0 0 0
31.63922 869.23651 0 0 0
31.64802 865.21539 0 0 0
31.65682 862.41486 0 0 0
31.66563 862.81873 0 0 0
31.67443 866.71143 0 0 0
31.68323 870.55054 0 0 0
31.69203 870.20319 0 0 0
31.70083 866.63702 0 0 0
31.70964 867.79565 0 0 0
31.71844 870.69574 0 0 0
31.72724 867.87775 0 0 0
31.73604 867.80988 0 0 0
31.74485 867.80988 0 0 0
31.75365 866.85992 0 0 0
31.76245 870.67444 0 0 0
31.77125 871.33228 0 0 0
31.78005 868.01385 0 0 0
31.78886 865.2442 0 0 0
31.79766 868.20374 0 0 0
31.80646 871.71869 0 0 0
31.81526 879.98804 0 0 0
31.82406 881.60065 0 0 0
31.83287 878.17627 0 0 0
31.84167 878.84412 0 0 0
31.85047 881.8985 0 0 0
31.85927 882.11816 0 0 0
31.86807 879.34479 0 0 0
31.87688 883.40552 0 0 0
31.88568 885.40973 0 0 0
31.89448 887.80957 0 0 0
31.90328 889.84875 0 0 0
31.91209 883.20105 0 0 0
31.92089 879.34888 0 0 0
31.92969 878.36292 0 0 0
31.93849 878.77936 0 0 0
31.94729 882.07813 0 0 0
31.95610 885.97797 0 0 0
31.96490 882.42236 0 0 0
31.97370 877.35596 0 0 0
31.98250 880.42462 0 0 0
31.99130 880.83179 0 0 0
32.00011 874.1239 0 0 0
32.00891 873.16681 0 0 0
32.01771 873.10199 0 0 0
32.02651 869.71033 0 0 0
32.03532 869.73114 0 0 0
32.04412 872.58948 0 0 0
32.05292 869.19037 0 0 0
32.06172 864.45343 0 0 0
32.07052 861.00702 0 0 0
32.07933 858.46948 0 0 0
32.08813 862.68842 0 0 0
32.09693 866.09161 0 0 0
32.10573 859.65143 0 0 0
32.11454 855.54639 0 0 0
32.12334 854.86932 0 0 0
32.13214 858.71924 0 0 0
32.14094 861.78802 0 0 0
32.14974 856.02661 0 0 0
32.15855 854.216 0 0 0
32.16735 859.92889 0 0 0
32.17615 859.75836 0 0 0
32.18495 852.87494 0 0 0
32.19375 855.73248 0 0 0
32.20256 856.74365 0 0 0
32.21136 850.35486 0 0 0
32.22016 847.97754 0 0 0
32.22896 853.22064 0 0 0
32.23776 848.89325 0 0 0
32.24657 846.95135 0 0 0
32.25537 853.46954 0 0 0
32.26417 853.59821 0 0 0
32.27297 850.83008 0 0 0
32.28178 848.26251 0 0 0
32.29058 850.45428 0 0 0
32.29938 853.14465 0 0 0
32.30818 850.41711 0 0 0
32.31698 843.23743 0 0 0
32.32579 841.17773 0 0 0
32.33459 848.51886 0 0 0
32.34339 853.98108 0 0 0
32.35219 856.07129 0 0 0
32.36099 856.11456 0 0 0
32.36980 845.70593 0 0 0
32.37860 844.36041 0 0 0
32.38740 847.39801 0 0 0
32.39620 838.77899 0 0 0
32.40500 840.49817 0 0 0
32.41381 838.44873 0 0 0
32.42261 831.63434 0 0 0
32.43141 831.20197 0 0 0
32.44021 829.44818 0 0 0
32.44902 832.95294 0 0 0
32.45782 828.89441 0 0 0
32.46662 824.86169 0 0 0
32.47542 826.43994 0 0 0
32.48422 827.97205 0 0 0
32.49303 827.18872 0 0 0
32.50183 819.05896 0 0 0
32.51063 812.87195 0 0 0
32.51943 810.87836 0 0 0
32.52823 810.34589 0 0 0
32.53704 809.67639 0 0 0
32.54584 810.01691 0 0 0
32.55464 805.95593 0 0 0
32.56344 806.65631 0 0 0
32.57225 804.38544 0 0 0
32.58105 788.17682 0 0 0
32.58985 799.09955 0 0 0
32.59865 799.76666 0 0 0
32.60745 798.71045 0 0 0
32.61626 796.96759 0 0 0
32.62506 789.18402 0 0 0
32.63386 786.1629 0 0 0
32.64266 783.54297 0 0 0
32.65146 783.09875 0 0 0
32.66027 781.79126 0 0 0
32.66907 782.00598 0 0 0
32.67787 775.96393 0 0 0
32.68667 777.01904 0 0 0
32.69547 766.0329 0 0 0
32.70428 749.17041 0 0 0
32.71308 747.97534 0 0 0
32.72188 741.39423 0 0 0
32.73068 737.51752 0 0 0
32.73949 741.47369 0 0 0
32.74829 731.65228 0 0 0
32.75709 706.00317 0 0 0
32.76589 697.5105 0 0 0
32.77469 688.74908 0 0 0
32.78350 671.31396 0 0 0
32.79230 642.68481 0 0 0
32.80110 608.50653 0 0 0
32.80990 565.633 0 0 0
32.81870 494.27399 0 0 0
32.82751 412.73676 0 0 0
32.83631 285.85413 0 0 0
32.84511 200.57082 0 0 0
32.85391 209.56216 0 0 0
32.86271 212.7077 0 0 0
32.87152 204.74088 0 0 0
32.88032 197.91571 0 0 0
32.88912 197.33493 0 0 0
32.89792 203.74059 0 0 0
32.90673 213.46094 0 0 0
32.91553 216.94295 0 0 0
32.92433 216.04254 0 0 0
32.93313 209.09431 0 0 0
32.94193 194.6069 0 0 0
32.95074 189.51459 0 0 0
32.95954 195.26404 0 0 0
32.96834 197.24893 0 0 0
32.97714 192.36505 0 0 0
32.98594 193.55307 0 0 0
32.99475 192.22722 0 0 0
33.00355 186.5108 0 0 0
33.01235 190.10658 0 0 0
33.02115 195.88582 0 0 0
33.02996 195.26952 0 0 0
33.03876 199.46857 0 0 0
33.04756 194.80836 0 0 0
33.05636 194.77019 0 0 0
33.06516 203.56566 0 0 0
33.07397 211.48647 0 0 0
33.08277 219.30215 0 0 0
33.09157 220.1991 0 0 0
33.10037 215.64143 0 0 0
33.10917 212.51526 0 0 0
33.11798 207.63918 0 0 0
33.12678 206.12444 0 0 0
33.13558 212.59201 0 0 0
33.14438 211.3703 0 0 0
33.15318 200.87172 0 0 0
33.16199 197.57199 0 0 0
33.17079 198.98323 0 0 0
33.17959 196.45178 0 0 0
33.18839 195.61258 0 0 0
33.19720 197.35139 0 0 0
33.20600 194.67325 0 0 0
33.21480 197.86748 0 0 0
33.22360 203.5419 0 0 0
33.23240 200.90488 0 0 0
33.24121 197.50362 0 0 0
33.25001 200.24617 0 0 0
33.25881 196.98489 0 0 0
33.26761 188.0249 0 0 0
33.27641 183.48424 0 0 0
33.28522 189.55476 0 0 0
33.29402 188.93446 0 0 0
33.30282 174.39624 0 0 0
33.31162 175.21501 0 0 0
33.32042 193.36804 0 0 0
33.32923 192.99434 0 0 0
33.33803 198.43301 0 0 0
33.34683 198.3866 0 0 0
33.35563 202.85948 0 0 0
33.36444 213.85753 0 0 0
33.37324 206.91971 0 0 0
33.38204 189.14619 0 0 0
33.39084 185.59424 0 0 0
33.39964 198.57472 0 0 0
33.40845 201.017 0 0 0
33.41725 207.93712 0 0 0
33.42605 210.97038 0 0 0
33.43485 205.01614 0 0 0
33.44365 197.94612 0 0 0
33.45246 205.27202 0 0 0
33.46126 213.25366 0 0 0
33.47006 213.05229 0 0 0
33.47886 204.66104 0 0 0
33.48766 199.31311 0 0 0
33.49647 189.60811 0 0 0
33.50527 188.19345 0 0 0
33.51407 195.48602 0 0 0
33.52287 199.22313 0 0 0
33.53168 196.2785 0 0 0
33.54048 194.73969 0 0 0
33.54928 199.80859 0 0 0
33.55808 202.8004 0 0 0
33.56688 198.30276 0 0 0
33.57569 196.02846 0 0 0
33.58449 192.48932 0 0 0
33.59329 190.36447 0 0 0
33.60209 192.16936 0 0 0
33.61089 194.10869 0 0 0
33.61970 202.28584 0 0 0
33.62850 212.62021 0 0 0
33.63730 215.72078 0 0 0
33.64610 207.56187 0 0 0
33.65491 197.72636 0 0 0
33.66371 200.22136 0 0 0
33.67251 207.50584 0 0 0
33.68131 200.4138 0 0 0
33.69011 196.22105 0 0 0
33.69892 204.97269 0 0 0
33.70772 213.66827 0 0 0
33.71652 214.73741 0 0 0
33.72532 216.38351 0 0 0
33.73412 212.93607 0 0 0
33.74293 198.93881 0 0 0
33.75173 191.46327 0 0 0
33.76053 196.25151 0 0 0
33.76933 194.86565 0 0 0
33.77813 187.42891 0 0 0
33.78694 187.99953 0 0 0
33.79574 198.72012 0 0 0
33.80454 203.58495 0 0 0
33.81334 206.02086 0 0 0
33.82215 201.42262 0 0 0
33.83095 193.23254 0 0 0
33.83975 196.82547 0 0 0
33.84855 210.12859 0 0 0
33.85735 214.95085 0 0 0
33.86616 207.14168 0 0 0
33.87496 201.14142 0 0 0
33.88376 194.71147 0 0 0
33.89256 191.54071 0 0 0
33.90136 190.1019 0 0 0
33.91017 194.23666 0 0 0
33.91897 203.4861 0 0 0
33.92777 206.63428 0 0 0
33.93657 202.52544 0 0 0
33.94537 199.45544 0 0 0
33.95418 198.91272 0 0 0
33.96298 201.98485 0 0 0
33.97178 214.87097 0 0 0
33.98058 224.15257 0 0 0
33.98939 226.17026 0 0 0
33.99819 226.04524 0 0 0
34.00699 218.75923 0 0 0
34.01579 208.33539 0 0 0
34.02459 204.05788 0 0 0
34.03340 202.88202 0 0 0
34.04220 208.0811 0 0 0
34.05100 208.71677 0 0 0
34.05980 207.3438 0 0 0
34.06860 200.04544 0 0 0
34.07741 195.61958 0 0 0
34.08621 198.7565 0 0 0
34.09501 205.17773 0 0 0
34.10381 210.87785 0 0 0
34.11262 214.30226 0 0 0
34.12142 211.83813 0 0 0
34.13022 221.73215 0 0 0
34.13902 218.48686 0 0 0
34.14782 208.8662 0 0 0
34.15663 214.5663 0 0 0
34.16543 216.47963 0 0 0
34.17423 203.81108 0 0 0
34.18303 200.45851 0 0 0
34.19183 207.63152 0 0 0
34.20064 209.12303 0 0 0
34.20944 199.7412 0 0 0
34.21824 187.90761 0 0 0
34.22704 193.26663 0 0 0
34.23584 194.40814 0 0 0
34.24465 201.112 0 0 0
34.25345 199.3347 0 0 0
34.26225 199.39729 0 0 0
34.27105 203.95349 0 0 0
34.27986 203.06599 0 0 0
34.28866 192.34355 0 0 0
34.29746 191.60434 0 0 0
34.30626 198.57195 0 0 0
34.31506 204.83885 0 0 0
34.32387 203.8208 0 0 0
34.33267 201.63858 0 0 0
34.34147 200.77243 0 0 0
34.35027 200.95682 0 0 0
34.35907 201.55739 0 0 0
34.36788 207.40259 0 0 0
34.37668 212.34853 0 0 0
34.38548 211.66476 0 0 0
34.39428 211.19656 0 0 0
34.40308 209.77153 0 0 0
34.41189 205.82695 0 0 0
34.42069 203.80472 0 0 0
34.42949 205.27524 0 0 0
34.43829 200.47417 0 0 0
34.44710 196.06197 0 0 0
34.45590 197.74176 0 0 0
34.46470 200.67532 0 0 0
34.47350 199.91141 0 0 0
34.48230 190.70113 0 0 0
34.49111 188.21945 0 0 0
34.49991 194.79323 0 0 0
34.50871 203.07593 0 0 0
34.51751 199.80038 0 0 0
34.52631 198.25568 0 0 0
34.53512 202.16019 0 0 0
34.54392 212.09126 0 0 0
34.55272 213.72641 0 0 0
34.56152 210.63594 0 0 0
34.57033 201.84846 0 0 0
34.57913 204.43864 0 0 0
34.58793 212.2186 0 0 0
34.59673 213.84367 0 0 0
34.60553 213.59178 0 0 0
34.61434 215.08705 0 0 0
34.62314 220.55975 0 0 0
34.63194 229.60703 0 0 0
34.64074 229.67545 0 0 0
34.64954 228.93863 0 0 0
34.65835 235.67223 0 0 0
34.66715 227.92509 0 0 0
34.67595 214.10854 0 0 0
34.68475 199.24937 0 0 0
34.69355 188.56711 0 0 0
34.70236 192.9971 0 0 0
34.71116 207.15714 0 0 0
34.71996 213.73357 0 0 0
34.72876 216.18489 0 0 0
34.73757 220.06189 0 0 0
34.74637 212.75911 0 0 0
34.75517 217.31406 0 0 0
34.76397 218.84439 0 0 0
34.77277 216.56349 0 0 0
34.78158 209.58093 0 0 0
34.79038 198.4445 0 0 0
34.79918 192.73764 0 0 0
34.80798 203.25621 0 0 0
34.81678 217.88498 0 0 0
34.82559 232.35928 0 0 0
34.83439 241.44655 0 0 0
34.84319 238.17638 0 0 0
34.85199 238.18925 0 0 0
34.86079 232.69324 0 0 0
34.86960 223.31006 0 0 0
34.87840 212.50688 0 0 0
34.88720 212.29097 0 0 0
34.89600 208.53398 0 0 0
34.90481 227.91919 0 0 0
34.91361 242.36284 0 0 0
34.92241 224.27924 0 0 0
34.93121 219.04028 0 0 0
34.94001 222.53094 0 0 0
34.94882 213.82175 0 0 0
34.95762 209.41379 0 0 0
34.96642 208.59763 0 0 0
34.97522 211.41354 0 0 0
34.98402 212.16232 0 0 0
34.99283 207.2701 0 0 0
35.00163 201.1084 0 0 0
35.01043 199.67445 0 0 0
35.01923 212.53676 0 0 0
35.02804 221.84042 0 0 0
35.03684 221.6498 0 0 0
35.04564 215.26651 0 0 0
35.05444 208.42331 0 0 0
35.06324 204.75089 0 0 0
35.07205 203.92932 0 0 0
35.08085 209.03349 0 0 0
35.08965 204.27203 0 0 0
35.09845 206.96846 0 0 0
35.10725 218.45671 0 0 0
35.11606 223.50687 0 0 0
35.12486 225.42294 0 0 0
35.13366 216.40015 0 0 0
35.14246 213.38672 0 0 0
35.15126 221.67426 0 0 0
35.16007 228.52522 0 0 0
35.16887 230.84807 0 0 0
35.17767 227.38599 0 0 0
35.18647 218.91718 0 0 0
35.19528 217.04335 0 0 0
35.20408 214.76295 0 0 0
loop_
_gsas_i100_meas
0.64
13.67
2.84
4.25
3.70
0.53
7.29
10.86
4.76
100.00
16.14
0.17
10.60
0.60
9.11
26.81
0.23
1.61
20.33
7.10
1.28
0.60
-0.71
1.35
2.65
37.25
6.40
0.79
14.07
0.27
-0.04
1.53
0.00
2.14
1.27
0.28
0.05
0.20
6.72
6.98
6.91
1.13
0.54
0.39
0.06
0.66
1.13
0.45
23.69
0.39
5.17
2.37
2.15
0.00
0.30
2.26
0.28
2.85
6.07
0.20
0.00
11.01
22.10
0.03
3.42
-4.28
3.24
-0.16
2.43
0.62
0.00
0.92
1.94
3.04
0.00
1.08
2.16
2.43
0.48
2.37
0.84
1.40
0.00
1.11
1.55
0.11
0.01
2.97
21.51
0.76
1.05
0.88
0.19
0.00
0.00
0.42
0.85
0.03
4.45
2.44
0.02
2.34
1.28
0.20
1.89
0.16
0.39
0.01
-0.06
1.78
4.82
3.78
8.98
5.43
0.75
0.06
0.04
2.15
0.04
0.00
1.09
0.59
0.19
0.05
0.84
0.28
5.31
6.07
1.32
0.22
6.86
0.14
0.02
1.14
2.11
0.07
-0.00
0.44
0.11
1.28
0.19
0.00
0.74
0.07
1.81
0.09
7.18
4.66
0.00
8.99
0.86
0.00
0.21
0.23
-0.96
0.07
0.24
1.21
0.00
0.41
4.57
0.08
1.55
0.29
0.00
1.02
1.98
0.59
1.32
0.06
0.03
0.27
0.14
0.66
0.86
1.04
1.78
0.00
0.00
0.01
0.77
0.30
0.56
0.41
0.05
0.40
0.24
0.17
0.12
