#------------------------------------------------------------------------------
#$Date: 2021-02-05 01:04:31 +0200 (Fri, 05 Feb 2021) $
#$Revision: 261628 $
#$URL: file:///home/coder/svn-repositories/cod/cif/7/24/18/7241840.cif $
#------------------------------------------------------------------------------
#
# This file is available in the Crystallography Open Database (COD),
# http://www.crystallography.net/
#
# All data on this site have been placed in the public domain by the
# contributors.
#
data_7241840
loop_
_publ_author_name
'Gu\'nka, Piotr A.'
'Hanfland, Michael'
'Chen, Yu-Sheng'
'Zachara, Janusz'
_publ_section_title
;
 High-pressure and low-temperature structural study of claudetite I, a
 monoclinic layered As2O3 polymorph
;
_journal_issue                   3
_journal_name_full               CrystEngComm
_journal_page_first              638
_journal_page_last               644
_journal_paper_doi               10.1039/D0CE01401J
_journal_volume                  23
_journal_year                    2021
_chemical_formula_moiety         'As2 O3'
_chemical_formula_sum            'As2 O3'
_chemical_formula_weight         197.84
_chemical_name_common            'claudetite I'
_chemical_name_systematic
;
arsenic(III) oxide
;
_space_group_IT_number           14
_space_group_name_Hall           '-P 2yn'
_space_group_name_H-M_alt        'P 1 21/n 1'
_symmetry_cell_setting           monoclinic
_symmetry_space_group_name_H-M   'P 1 21/n 1'
_audit_creation_date             2020-10-22T09:33
_audit_creation_method           'created in GSAS-II'
_audit_update_record
;
2020-10-22 deposited with the CCDC.	2020-12-10 downloaded from the CCDC.
;
_cell_angle_alpha                90
_cell_angle_beta                 94.711(3)
_cell_angle_gamma                90
_cell_formula_units_Z            4
_cell_length_a                   4.7371(3)
_cell_length_b                   11.82822(30)
_cell_length_c                   4.16968(24)
_cell_measurement_pressure       1.609e7(5)
_cell_measurement_temperature    293
_cell_volume                     232.84(2)
_computing_data_reduction        Fit2D
_computing_structure_refinement
'GSAS-II (Toby & Von Dreele, J. Appl. Cryst. 46, 544-549, 2013)'
_diffrn_ambient_pressure         1.609e7(5)
_diffrn_ambient_temperature      293
_diffrn_detector                 'Mar555 flat panel'
_diffrn_detector_type            'Mar555 flat panel'
_diffrn_measurement_device_type  'ESRF ID09A beamline'
_diffrn_radiation_monochromator  Si
_diffrn_radiation_polarisn_ratio 0.9900
_diffrn_radiation_probe          x-ray
_diffrn_radiation_wavelength     0.41421
_diffrn_source                   'ESRF ID09A'
_diffrn_source_type              synchrotron
_exptl_crystal_colour            colourless
_exptl_crystal_density_diffrn    5.6437
_exptl_crystal_description       'white powder'
_pd_block_id                     2020-10-22T09:33|clau1_016rietveld||id09b
_pd_calc_method                  'Rietveld Refinement'
_pd_meas_number_of_points        4000
_pd_phase_name                   claudetiteI
_pd_prep_pressure                100.0(1)
_pd_prep_temperature             293
_pd_proc_info_datetime           2020-10-22T09:33
_pd_proc_ls_background_function
;
Background function: "chebyschev" function with 30 terms:
    890.9(9), 575(4), 848(10), -1.066(4)e4, -7.289(4)e4, 3.0948(10)e5, 
    1.70875(5)e6, -5.81267(5)e6, -2.189691(4)e7, 6.810419(10)e7, 
    1.70279153(17)e8, -5.1116394(4)e8, -8.4971461(5)e8, 2.53689117(6)e9, 
    2.83569757(5)e9, -8.57689258(10)e9, -6.506691178(28)e9, 2.018352589(8)e10, 
    1.0406196855(18)e10, -3.3398760689(25)e10, -1.158467337(5)e10, 
    3.873559204(6)e10, 8.80284481(6)e9, -3.084163377(11)e10, 
    -4.35365505(5)e9, 1.606518972(11)e10, 1.262985214(10)e9, 
    -4.932287156(27)e9, -1.6300944(9)e8, 6.7694865(16)e8, 
;
_pd_proc_ls_pref_orient_corr
;
Simple spherical harmonic correction Order = 6
    Coefficients:  0:0:C(2,-2) = -0.115(11); 0:0:C(2,0) = 0.287(11); 
    0:0:C(2,2) = 0.374(12); 0:0:C(4,-4) = -0.265(16); 0:0:C(4,-2) = -0.202(17); 
    0:0:C(4,0) = -0.087(13); 0:0:C(4,2) = -0.092(15); 0:0:C(4,4) = 0.381(17); 
    0:0:C(6,-6) = 0.008(21); 0:0:C(6,-4) = -0.084(16); 0:0:C(6,-2) = -0.092(22); 
    0:0:C(6,0) = -0.295(20); 0:0:C(6,2) = 0.072(21); 0:0:C(6,4) = -0.043(19); 
    0:0:C(6,6) = -0.128(17); 
;
_pd_proc_ls_profile_function
;
Finger-Cox-Jephcoat function parameters U, V, W, X, Y, SH/L:
  peak variance(Gauss) = Utan(Th)^2^+Vtan(Th)+W:
  peak HW(Lorentz) = X/cos(Th)+Ytan(Th); SH/L = S/L+H/L
  U, V, W in (centideg)^2^, X & Y in centideg
    1.15(18)e3, -141(30), 9.0(15), 154.43(29), 31(7), 0.002, 
  Crystallite size in microns with "isotropic" model:
  parameters: Size, G/L mix
    1.000, 1.000, 
  Microstrain, "isotropic" model (10^6^ * delta Q/Q)
    parameters: Mustrain, G/L mix
    1000.000, 1.000, 

;
_pd_proc_ls_prof_R_factor        0.00635
_pd_proc_ls_prof_wR_expected     0.03435
_pd_proc_ls_prof_wR_factor       0.00989
_refine_ls_goodness_of_fit_all   0.292
_refine_ls_matrix_type           full
_refine_ls_number_parameters     72
_refine_ls_R_Fsqd_factor         0.05286
_refine_ls_shift/su_max          0.0002
_refine_ls_wR_factor_obs         0.00989
_reflns_d_resolution_high        0.879
_reflns_d_resolution_low         5.914
_reflns_limit_h_max              5
_reflns_limit_h_min              0
_reflns_limit_k_max              13
_reflns_limit_k_min              0
_reflns_limit_l_max              4
_reflns_limit_l_min              -4
_reflns_number_total             361
_cod_data_source_file            d0ce01401j3.cif
_cod_data_source_block           clau1_016rietveld
_cod_depositor_comments
'Adding full bibliography for 7241824--7241862.cif.'
_cod_original_cell_volume        232.844(12)
_cod_database_code               7241840
_refine_ls_r_f_factor            0.03038
_gsas_proc_ls_prof_r_b_factor    0.01115
_gsas_proc_ls_prof_wr_b_factor   0.02561
loop_
_space_group_symop_id
_space_group_symop_operation_xyz
1 x,y,z
2 1/2-x,1/2+y,1/2-z
3 -x,-y,-z
4 1/2+x,1/2-y,1/2+z
loop_
_atom_site_label
_atom_site_type_symbol
_atom_site_fract_x
_atom_site_fract_y
_atom_site_fract_z
_atom_site_occupancy
_atom_site_adp_type
_atom_site_U_iso_or_equiv
_atom_site_symmetry_multiplicity
As1 As 0.2818(6) 0.08769(19) 0.0676(7) 1.000 Uiso 0.0044(11) 4
As2 As 0.3223(5) 0.35802(21) 0.0296(7) 1.000 Uiso 0.0044 4
O3 O 0.4591(13) 0.21959(27) 0.0810(32) 1.000 Uiso 0.0044 4
O4 O 0.6612(13) 0.4138(9) 0.1533(11) 1.000 Uiso 0.0044 4
O5 O -0.0668(15) 0.1293(14) 0.1362(13) 1.000 Uiso 0.0044 4
loop_
_atom_type_symbol
_atom_type_number_in_cell
_atom_type_scat_Cromer_Mann_a1
_atom_type_scat_Cromer_Mann_a2
_atom_type_scat_Cromer_Mann_a3
_atom_type_scat_Cromer_Mann_a4
_atom_type_scat_Cromer_Mann_b1
_atom_type_scat_Cromer_Mann_b2
_atom_type_scat_Cromer_Mann_b3
_atom_type_scat_Cromer_Mann_b4
_atom_type_scat_Cromer_Mann_c
_atom_type_scat_length_neutron
_atom_type_scat_source
_atom_type_scat_dispersion_real
_atom_type_scat_dispersion_imag
_atom_type_scat_dispersion_source
As 8 16.6723 6.0701 3.4313 4.2779 2.6345 0.2647 12.9479 47.7972 2.531 0.658
https://subversion.xray.aps.anl.gov/pyGSAS/trunk/atmdata.py 0.283 0.775
https://subversion.xray.aps.anl.gov/pyGSAS/trunk/atmdata.py
O 12 3.0485 2.2868 1.5463 0.867 13.2771 5.7011 0.3239 32.9089 0.2508 0.5805
https://subversion.xray.aps.anl.gov/pyGSAS/trunk/atmdata.py 0.002 0.002
https://subversion.xray.aps.anl.gov/pyGSAS/trunk/atmdata.py
loop_
_geom_angle_atom_site_label_1
_geom_angle_atom_site_label_2
_geom_angle_atom_site_label_3
_geom_angle
_geom_angle_site_symmetry_1
_geom_angle_site_symmetry_2
_geom_angle_site_symmetry_3
_geom_angle_publ_flag
O3 As1 O4 98.8(6) 1_555 1_555 4_454 yes
O3 As1 O5 101.3(7) 1_555 1_555 1_555 yes
O4 As1 O5 85.98(30) 4_454 1_555 1_555 yes
O3 As2 O4 89.7(4) 1_555 1_555 1_555 yes
O3 As2 O5 93.3(8) 1_555 1_555 4_554 yes
O4 As2 O5 84.7(3) 1_555 1_555 4_554 yes
As1 O3 As2 130.1(4) 1_555 1_555 1_555 yes
As1 O4 As2 119.4(3) 4_555 1_555 1_555 yes
As1 O5 As2 121.7(4) 1_555 1_555 4_455 yes
loop_
_geom_bond_atom_site_label_1
_geom_bond_atom_site_label_2
_geom_bond_distance
_geom_bond_site_symmetry_1
_geom_bond_site_symmetry_2
_geom_bond_publ_flag
As1 O3 1.7704(28) 1_555 1_555 yes
As1 O4 1.7746(28) 1_555 4_454 yes
As1 O5 1.7690(28) 1_555 1_555 yes
As2 O3 1.7675(28) 1_555 1_555 yes
As2 O4 1.7728(28) 1_555 1_555 yes
As2 O5 1.7694(28) 1_555 4_554 yes
loop_
_pd_meas_2theta_scan
_pd_meas_intensity_total
_pd_calc_intensity_total
_pd_proc_intensity_bkg_calc
_pd_proc_ls_weight
0.00440 107.75108 0 0 0
0.01320 108.54211 0 0 0
0.02201 108.17374 0 0 0
0.03081 106.15993 0 0 0
0.03961 104.45514 0 0 0
0.04841 103.31006 0 0 0
0.05721 102.56638 0 0 0
0.06602 101.58092 0 0 0
0.07482 102.01049 0 0 0
0.08362 102.40111 0 0 0
0.09242 104.80543 0 0 0
0.10122 105.22634 0 0 0
0.11003 104.48672 0 0 0
0.11883 104.79964 0 0 0
0.12763 105.69397 0 0 0
0.13643 107.20174 0 0 0
0.14523 109.0219 0 0 0
0.15404 112.08065 0 0 0
0.16284 112.42067 0 0 0
0.17164 109.28347 0 0 0
0.18044 108.68594 0 0 0
0.18925 107.97119 0 0 0
0.19805 106.20763 0 0 0
0.20685 105.7574 0 0 0
0.21565 106.02465 0 0 0
0.22445 107.84001 0 0 0
0.23326 109.74282 0 0 0
0.24206 110.39722 0 0 0
0.25086 110.68694 0 0 0
0.25966 109.38561 0 0 0
0.26846 109.73376 0 0 0
0.27727 109.62036 0 0 0
0.28607 110.99065 0 0 0
0.29487 110.16995 0 0 0
0.30367 110.22374 0 0 0
0.31248 111.13649 0 0 0
0.32128 112.27939 0 0 0
0.33008 113.00645 0 0 0
0.33888 113.08012 0 0 0
0.34768 113.27007 0 0 0
0.35649 112.24192 0 0 0
0.36529 112.31813 0 0 0
0.37409 111.88613 0 0 0
0.38289 111.91282 0 0 0
0.39169 112.0389 0 0 0
0.40050 112.90716 0 0 0
0.40930 113.19648 0 0 0
0.41810 113.01541 0 0 0
0.42690 111.93633 0 0 0
0.43570 111.74146 0 0 0
0.44451 111.98407 0 0 0
0.45331 111.67451 0 0 0
0.46211 111.05241 0 0 0
0.47091 112.2476 0 0 0
0.47972 112.60271 0 0 0
0.48852 111.32698 0 0 0
0.49732 110.32323 0 0 0
0.50612 110.87949 0 0 0
0.51492 110.96875 0 0 0
0.52373 110.92505 0 0 0
0.53253 110.48537 0 0 0
0.54133 109.99883 0 0 0
0.55013 110.18255 0 0 0
0.55893 111.25217 0 0 0
0.56774 111.96506 0 0 0
0.57654 111.63033 0 0 0
0.58534 111.06818 0 0 0
0.59414 110.03263 0 0 0
0.60295 110.3914 0 0 0
0.61175 110.98837 0 0 0
0.62055 111.05203 0 0 0
0.62935 110.42471 0 0 0
0.63815 110.1176 0 0 0
0.64696 109.7342 0 0 0
0.65576 109.9818 0 0 0
0.66456 110.61607 0 0 0
0.67336 110.68476 0 0 0
0.68216 111.1069 0 0 0
0.69097 111.85219 0 0 0
0.69977 112.19557 0 0 0
0.70857 111.98454 0 0 0
0.71737 112.19837 0 0 0
0.72617 112.02582 0 0 0
0.73498 112.19144 0 0 0
0.74378 111.98128 0 0 0
0.75258 112.3677 0 0 0
0.76138 112.4603 0 0 0
0.77019 113.35229 0 0 0
0.77899 113.90072 0 0 0
0.78779 114.33303 0 0 0
0.79659 114.05229 0 0 0
0.80539 113.41315 0 0 0
0.81420 111.97289 0 0 0
0.82300 112.7485 0 0 0
0.83180 113.64659 0 0 0
0.84060 114.41408 0 0 0
0.84940 115.07836 0 0 0
0.85821 114.56661 0 0 0
0.86701 114.88599 0 0 0
0.87581 116.38628 0 0 0
0.88461 118.39961 0 0 0
0.89342 117.97363 0 0 0
0.90222 118.0604 0 0 0
0.91102 118.72357 0 0 0
0.91982 119.28777 0 0 0
0.92862 120.83405 0 0 0
0.93743 123.39874 0 0 0
0.94623 127.28095 0 0 0
0.95503 130.8251 0 0 0
0.96383 133.79494 0 0 0
0.97263 136.15591 0 0 0
0.98144 135.15581 0 0 0
0.99024 136.37677 0 0 0
0.99904 136.48801 0 0 0
1.00784 143.15115 0 0 0
1.01664 150.79364 0 0 0
1.02545 156.56824 0 0 0
1.03425 160.10651 0 0 0
1.04305 167.56047 0 0 0
1.05185 178.20537 0 0 0
1.06066 184.51894 0 0 0
1.06946 190.43477 0 0 0
1.07826 196.04416 0 0 0
1.08706 200.72244 0 0 0
1.09586 204.26631 0 0 0
1.10467 208.71016 0 0 0
1.11347 214.2845 0 0 0
1.12227 220.40044 0 0 0
1.13107 227.81422 0 0 0
1.13987 234.20825 0 0 0
1.14868 236.41164 0 0 0
1.15748 237.01286 0 0 0
1.16628 238.84453 0 0 0
1.17508 242.04543 0 0 0
1.18389 244.89101 0 0 0
1.19269 247.63042 0 0 0
1.20149 249.28145 0 0 0
1.21029 251.21864 0 0 0
1.21909 254.11708 0 0 0
1.22790 257.12125 0 0 0
1.23670 259.06134 0 0 0
1.24550 260.37723 0 0 0
1.25430 260.72488 0 0 0
1.26310 261.76346 0 0 0
1.27191 263.79297 0 0 0
1.28071 265.22284 0 0 0
1.28951 266.09189 0 0 0
1.29831 267.29431 0 0 0
1.30711 269.65152 0 0 0
1.31592 271.85431 0 0 0
1.32472 273.48935 0 0 0
1.33352 274.73767 0 0 0
1.34232 275.83566 0 0 0
1.35113 278.00757 0 0 0
1.35993 280.60458 0 0 0
1.36873 282.23209 0 0 0
1.37753 284.18445 0 0 0
1.38633 284.01102 0 0 0
1.39514 284.72678 0 0 0
1.40394 285.82437 0 0 0
1.41274 288.63483 0 0 0
1.42154 288.84558 0 0 0
1.43034 288.9241 0 0 0
1.43915 289.14847 0 0 0
1.44795 290.00974 0 0 0
1.45675 290.86008 0 0 0
1.46555 291.61685 0 0 0
1.47436 294.14667 0 0 0
1.48316 295.33606 0 0 0
1.49196 296.73358 0 0 0
1.50076 297.20633 0 0 0
1.50956 298.50964 0 0 0
1.51837 299.18195 0 0 0
1.52717 299.62421 0 0 0
1.53597 301.09317 0 0 0
1.54477 302.5307 0 0 0
1.55357 303.1174 0 0 0
1.56238 303.36957 0 0 0
1.57118 304.66043 0 0 0
1.57998 306.47995 0 0 0
1.58878 307.15488 0 0 0
1.59758 307.39355 0 0 0
1.60639 307.54758 0 0 0
1.61519 308.38425 0 0 0
1.62399 310.00916 0 0 0
1.63279 311.18948 0 0 0
1.64160 312.01767 0 0 0
1.65040 312.48541 0 0 0
1.65920 314.10486 0 0 0
1.66800 314.72491 0 0 0
1.67680 314.49384 0 0 0
1.68561 315.14017 0 0 0
1.69441 317.38315 0 0 0
1.70321 319.26685 0 0 0
1.71201 320.12119 0 0 0
1.72081 320.44406 0 0 0
1.72962 320.81149 0 0 0
1.73842 320.65756 0 0 0
1.74722 319.95319 0 0 0
1.75602 319.21628 0 0 0
1.76483 319.53537 0 0 0
1.77363 321.0174 0 0 0
1.78243 323.52194 0 0 0
1.79123 324.86633 0 0 0
1.80003 324.87091 0 0 0
1.80884 325.33386 0 0 0
1.81764 325.28265 0 0 0
1.82644 325.83957 0 0 0
1.83524 327.22641 0 0 0
1.84404 329.5531 0 0 0
1.85285 330.38263 0 0 0
1.86165 330.42532 0 0 0
1.87045 330.08478 0 0 0
1.87925 330.5694 0 0 0
1.88805 331.34857 0 0 0
1.89686 331.54556 0 0 0
1.90566 331.48721 0 0 0
1.91446 332.12192 0 0 0
1.92326 333.59555 0 0 0
1.93207 334.37692 0 0 0
1.94087 334.4595 0 0 0
1.94967 334.733 0 0 0
1.95847 335.5473 0 0 0
1.96727 336.56085 0 0 0
1.97608 336.24667 0 0 0
1.98488 336.59647 0 0 0
1.99368 337.75375 0 0 0
2.00248 338.91943 0 0 0
2.01128 339.21933 0 0 0
2.02009 339.62604 0 0 0
2.02889 339.38181 0 0 0
2.03769 339.65704 0 0 0
2.04649 340.1373 0 0 0
2.05530 341.10193 0 0 0
2.06410 342.23727 0 0 0
2.07290 342.02631 0 0 0
2.08170 342.0488 0 0 0
2.09050 342.62375 0 0 0
2.09931 343.91052 0 0 0
2.10811 345.20914 0 0 0
2.11691 345.88739 0 0 0
2.12571 346.53281 0 0 0
2.13451 347.00528 0 0 0
2.14332 347.48782 0 0 0
2.15212 347.70258 0 0 0
2.16092 348.25543 0 0 0
2.16972 348.53189 0 0 0
2.17852 349.43631 0 0 0
2.18733 349.66037 0 0 0
2.19613 349.64902 0 0 0
2.20493 350.04941 0 0 0
2.21373 349.86575 0 0 0
2.22254 351.64828 0 0 0
2.23134 353.06683 0 0 0
2.24014 353.72531 0 0 0
2.24894 354.03876 0 0 0
2.25774 353.60382 0 0 0
2.26655 353.75613 0 0 0
2.27535 354.5062 0 0 0
2.28415 354.85321 0 0 0
2.29295 355.08548 0 0 0
2.30175 355.24765 0 0 0
2.31056 355.7117 0 0 0
2.31936 356.27786 0 0 0
2.32816 356.97183 0 0 0
2.33696 357.20215 0 0 0
2.34576 357.65717 0 0 0
2.35457 358.27173 0 0 0
2.36337 359.47424 0 0 0
2.37217 359.45819 0 0 0
2.38097 359.89209 0 0 0
2.38978 360.44885 0 0 0
2.39858 361.89728 0 0 0
2.40738 362.63779 0 0 0
2.41618 362.58182 0 0 0
2.42498 362.65509 0 0 0
2.43379 362.80661 0 0 0
2.44259 363.50293 0 0 0
2.45139 363.84244 0 0 0
2.46019 364.17184 0 0 0
2.46899 363.5386 0 0 0
2.47780 363.60876 0 0 0
2.48660 364.75925 0 0 0
2.49540 365.71777 0 0 0
2.50420 366.00034 0 0 0
2.51301 365.73975 0 0 0
2.52181 366.27094 0 0 0
2.53061 366.97913 0 0 0
2.53941 368.32358 0 0 0
2.54821 369.09647 0 0 0
2.55702 369.52042 0 0 0
2.56582 368.74191 0 0 0
2.57462 369.04709 0 0 0
2.58342 369.88699 0 0 0
2.59222 370.4256 0 0 0
2.60103 370.58908 0 0 0
2.60983 370.25504 0 0 0
2.61863 371.03433 0 0 0
2.62743 372.06604 0 0 0
2.63624 371.70889 0 0 0
2.64504 370.99557 0 0 0
2.65384 371.32565 0 0 0
2.66264 372.172 0 0 0
2.67144 372.64771 0 0 0
2.68025 373.41455 0 0 0
2.68905 374.10995 0 0 0
2.69785 374.71622 0 0 0
2.70665 374.15228 0 0 0
2.71545 373.83313 0 0 0
2.72426 375.04596 0 0 0
2.73306 376.33997 0 0 0
2.74186 376.90521 0 0 0
2.75066 376.33279 0 0 0
2.75946 376.26819 0 0 0
2.76827 376.70526 0 0 0
2.77707 377.10654 0 0 0
2.78587 377.39767 0 0 0
2.79467 377.38541 0 0 0
2.80348 377.74918 0 0 0
2.81228 378.10663 0 0 0
2.82108 378.81754 0 0 0
2.82988 379.63699 0 0 0
2.83868 380.73636 0 0 0
2.84749 380.68835 0 0 0
2.85629 380.97089 0 0 0
2.86509 380.96518 0 0 0
2.87389 381.48328 0 0 0
2.88269 381.4545 0 0 0
2.89150 381.7482 0 0 0
2.90030 381.13791 0 0 0
2.90910 381.33286 0 0 0
2.91790 382.00085 388.718734 388.695605 0.002617795
2.92670 382.08627 388.413256 388.389903 0.00261721
2.93551 381.77954 388.071087 388.047506 0.002619313
2.94431 381.3688 387.705132 387.68132 0.002622134
2.95311 381.62842 387.337952 387.302603 0.00262035
2.96191 382.71906 386.956883 386.921251 0.002612883
2.97072 384.35446 386.581741 386.545821 0.002601765
2.97952 385.3793 386.219892 386.183678 0.002594846
2.98832 385.4975 385.877594 385.841082 0.002594051
2.99712 386.09457 385.560129 385.523314 0.002590039
3.00592 385.96844 385.271819 385.234695 0.002590885
3.01473 385.72116 385.016213 384.978775 0.002592546
3.02353 386.04761 384.796093 384.758335 0.002590354
3.03233 385.72186 384.613547 384.575463 0.002592542
3.04113 385.38028 384.47008 384.431664 0.00259484
3.04993 386.09134 384.366644 384.32789 0.002590061
3.05874 387.56845 384.303713 384.264615 0.002580189
3.06754 388.0423 384.281348 384.241899 0.002577039
3.07634 388.09961 384.299203 384.259395 0.002576658
3.08514 388.14093 384.356617 384.316445 0.002576384
3.09395 388.28278 384.452646 384.412102 0.002575443
3.10275 387.74335 384.586098 384.545174 0.002579026
3.11155 388.00516 384.755561 384.714249 0.002577285
3.12035 388.64999 384.959477 384.91777 0.002573009
3.12915 389.8844 385.196085 385.153975 0.002564863
3.13796 390.40036 385.463568 385.421045 0.002561473
3.14676 390.01071 385.759995 385.717051 0.002564032
3.15556 389.59265 386.083367 386.039993 0.002566784
3.16436 389.63763 386.431629 386.387814 0.002566487
3.17316 390.33426 386.80743 386.758452 0.002561907
3.18197 390.98355 387.199284 387.149828 0.002557652
3.19077 390.8811 387.609808 387.559862 0.002558323
3.19957 391.5694 388.036954 387.986508 0.002553826
3.20837 392.52478 388.47866 388.427703 0.00254761
3.21717 392.56836 388.933007 388.881525 0.002547327
3.22598 391.69925 389.416162 389.346031 0.002552979
3.23478 391.67618 389.890083 389.819334 0.002553129
3.24358 392.99463 390.371043 390.299662 0.002544564
3.25238 393.8512 390.857274 390.785247 0.00253903
3.26119 393.73795 391.347172 391.274483 0.00253976
3.26999 393.71994 391.839164 391.765798 0.002539876
3.27879 393.73218 392.331774 392.257714 0.002539797
3.28759 393.80963 392.823581 392.748809 0.002539298
3.29639 393.94818 393.313331 393.237831 0.002538405
3.30520 394.6282 393.824713 393.723525 0.002534031
3.31400 395.20911 394.306851 394.204803 0.002530306
3.32280 394.88788 394.783535 394.680605 0.002532364
3.33160 394.55646 395.253854 395.150021 0.002534492
3.34040 394.70773 395.71695 395.612191 0.00253352
3.34921 395.00925 396.172063 396.066353 0.002531586
3.35801 395.93298 396.618523 396.511837 0.00252568
3.36681 396.57471 397.055708 396.948019 0.002521593
3.37561 396.21487 397.483151 397.374432 0.002523883
3.38442 396.34424 397.900402 397.790623 0.002523059
3.39322 396.48526 398.307109 398.19624 0.002522162
3.40202 397.40311 398.70299 398.590998 0.002516337
3.41082 397.87842 399.110933 398.974683 0.002513331
3.41962 398.36533 399.484687 399.347158 0.002510259
3.42843 398.81393 399.847193 399.708348 0.002507435
3.43723 398.9259 400.198404 400.058201 0.002506731
3.44603 398.66049 400.538387 400.396784 0.0025084
3.45483 398.85074 400.867221 400.724173 0.002507204
3.46363 399.91821 401.185046 401.040504 0.002500511
3.47244 399.84927 401.492037 401.34595 0.002500942
3.48124 399.04901 401.788451 401.640766 0.002505958
3.49004 399.06845 402.074543 401.925202 0.002505836
3.49884 400.55432 402.350619 402.19956 0.00249654
3.50764 401.26566 402.623336 402.464176 0.002492115
3.51645 400.98355 402.880445 402.71941 0.002493868
3.52525 400.66815 403.129013 402.965663 0.002495831
3.53405 400.84653 403.368728 403.203348 0.00249472
3.54285 401.20084 403.600383 403.432887 0.002492517
3.55166 401.61661 403.824434 403.654731 0.002489937
3.56046 402.32504 404.041369 403.86936 0.002485552
3.56926 402.36911 404.251663 404.077244 0.00248528
3.57806 402.48697 404.455807 404.278863 0.002484552
3.58686 403.13004 404.654299 404.474709 0.002480589
3.59567 403.19922 404.84765 404.665279 0.002480164
3.60447 403.7121 405.03637 404.851075 0.002477013
3.61327 404.38129 405.220971 405.032596 0.002472914
3.62207 404.33389 405.40195 405.210326 0.002473204
3.63087 403.34598 405.579814 405.384757 0.002479261
3.63968 403.41 405.755069 405.556376 0.002478868
3.64848 404.76505 405.928214 405.725664 0.002470569
3.65728 405.76175 406.099727 405.893079 0.0024645
3.66608 405.74194 406.270088 406.059077 0.002464621
3.67489 405.4433 406.439771 406.224104 0.002466436
3.68369 405.6546 406.609233 406.388586 0.002465151
3.69249 406.20093 406.778928 406.552944 0.002461836
3.70129 406.69534 406.94928 406.717561 0.002458843
3.71009 406.62521 407.120736 406.882839 0.002459267
3.71890 406.35681 407.293705 407.049136 0.002460891
3.72770 406.68582 407.468587 407.216791 0.002458901
3.73650 407.59399 407.645777 407.386132 0.002453422
3.74530 407.42041 407.825674 407.557475 0.002454467
3.75410 407.79373 408.008655 407.731106 0.00245222
3.76291 408.41208 408.195096 407.907289 0.002448507
3.77171 408.74081 408.38538 408.086278 0.002446538
3.78051 408.16333 408.579872 408.268287 0.00245
3.78931 408.14563 408.778979 408.453537 0.002450106
3.79811 408.74051 408.9831 408.642211 0.00244654
3.80692 409.8096 409.192658 408.834467 0.002440158
3.81572 410.29321 409.408118 409.03045 0.002437281
3.82452 409.70456 409.630007 409.230292 0.002440783
3.83332 409.39645 409.858905 409.434092 0.00244262
3.84213 410.00046 410.095502 409.641936 0.002439022
3.85093 410.59439 410.340613 409.853881 0.002435494
3.85973 410.95032 410.595262 410.06998 0.002433384
3.86853 410.84567 410.860742 410.290257 0.002434004
3.87733 410.97641 411.13882 410.514724 0.00243323
3.88614 411.00388 411.432118 410.743366 0.002433067
3.89494 411.33478 411.745057 410.976149 0.00243111
3.90374 411.64319 412.085978 411.213048 0.002429288
3.91254 412.32562 412.471323 411.453992 0.002425268
3.92134 412.41241 412.933279 411.69891 0.002424757
3.93015 412.13766 413.529917 411.947706 0.002426374
3.93895 412.70822 414.357236 412.200288 0.002423019
3.94775 414.27975 415.552284 412.456536 0.002413828
3.95655 416.01694 417.277908 412.71632 0.002403748
3.96535 416.53146 419.677803 412.979488 0.002400779
3.97416 417.9588 422.803836 413.245907 0.00239258
3.98296 420.47366 426.531262 413.515411 0.00237827
3.99176 424.62961 430.484467 413.787817 0.002354994
4.00056 429.02295 433.988782 414.062961 0.002330878
4.00937 432.25882 436.140758 414.340637 0.002313429
4.01817 432.71948 436.232424 414.620672 0.002310966
4.02697 429.93976 434.342459 414.902838 0.002325907
4.03577 426.09735 431.260082 415.18694 0.002346882
4.04457 422.77893 427.866059 415.472789 0.002365302
4.05338 420.21262 424.782422 415.760126 0.002379748
4.06218 418.56949 422.336069 416.048756 0.00238909
4.07098 418.07184 420.614775 416.338466 0.002391933
4.07978 418.00214 419.544718 416.629011 0.002392332
4.08858 417.83737 418.973681 416.920184 0.002393276
4.09739 418.12494 418.740722 417.211737 0.00239163
4.10619 418.35214 418.715136 417.503459 0.002390331
4.11499 418.33167 418.807913 417.795135 0.002390448
4.12379 417.99582 418.965773 418.086516 0.002392368
4.13260 418.51236 419.159787 418.377398 0.002389416
4.14140 418.52353 419.375086 418.667573 0.002389352
4.15020 418.09125 419.603968 418.956795 0.002391822
4.15900 418.67139 419.842219 419.244885 0.002388508
4.16780 419.73349 420.087168 419.531609 0.002382464
4.17661 420.65094 420.336973 419.816774 0.002377268
4.18541 420.89923 420.590245 420.100201 0.002375866
4.19421 420.5105 420.845837 420.38167 0.002378062
4.20301 419.81198 421.102865 420.661024 0.002382019
4.21181 420.14407 421.360542 420.938054 0.002380136
4.22062 420.36292 421.618249 421.212608 0.002378897
4.22942 420.8855 421.875459 421.484539 0.002375943
4.23822 421.47742 422.131673 421.753654 0.002372606
4.24702 422.1221 422.386507 422.019824 0.002368983
4.25582 423.57217 422.639625 422.282928 0.002360873
4.26463 423.6767 422.890693 422.542804 0.00236029
4.27343 423.08441 423.139465 422.799357 0.002363595
4.28223 422.84814 423.38568 423.052449 0.002364915
4.29103 422.73676 423.629143 423.301993 0.002365538
4.29984 422.96393 423.869682 423.547905 0.002364268
4.30864 423.49472 424.107108 423.790075 0.002361305
4.31744 423.52359 424.34131 424.028459 0.002361144
4.32624 424.19333 424.583901 424.262966 0.002357416
4.33504 424.37946 424.838529 424.493552 0.002356382
4.34385 424.84589 425.06249 424.720187 0.002353795
4.35265 425.07202 425.28282 424.942816 0.002352543
4.36145 425.73926 425.499468 425.161422 0.002348855
4.37025 425.69043 425.712408 425.376005 0.002349125
4.37905 425.84995 425.921586 425.586539 0.002348245
4.38786 425.84467 426.127012 425.793055 0.002348274
4.39666 426.50568 426.328655 425.995543 0.002344635
4.40546 426.65613 426.526537 426.194041 0.002343808
4.41426 427.42203 426.720692 426.3886 0.002339608
4.42307 428.24265 426.911127 426.579239 0.002335125
4.43187 429.09686 427.097905 426.766034 0.002330476
4.44067 429.78629 427.281062 426.949033 0.002326738
4.44947 429.57373 427.460672 427.128317 0.002327889
4.45827 429.68381 427.636818 427.303978 0.002327293
4.46708 429.43265 427.809562 427.476087 0.002328654
4.47588 429.22028 427.979011 427.644756 0.002329806
4.48468 429.83255 428.145274 427.8101 0.002326487
4.49348 430.27603 428.308442 427.972216 0.002324089
4.50228 429.90808 428.468655 428.131247 0.002326079
4.51109 428.94388 428.626024 428.287309 0.002331307
4.51989 428.64111 428.780691 428.440546 0.002332954
4.52869 428.78616 428.932807 428.591113 0.002332165
4.53749 429.4371 429.082507 428.739146 0.00232863
4.54630 429.78934 429.229961 428.884819 0.002326721
4.55510 429.99298 429.37532 429.028281 0.002325619
4.56390 431.02408 429.518759 429.169712 0.002320056
4.57270 431.82339 429.660464 429.309294 0.002315762
4.58150 432.55115 429.800968 429.447193 0.002311865
4.59031 432.2399 429.939724 429.583601 0.00231353
4.59911 431.86212 430.0773 429.718717 0.002315554
4.60791 431.82315 430.213879 429.852723 0.002315763
4.61671 432.5929 430.34967 429.985827 0.002311642
4.62551 433.03348 430.484863 430.118217 0.00230929
4.63432 433.51099 430.619674 430.250107 0.002306747
4.64312 433.11038 430.770904 430.381708 0.00230888
4.65192 433.3801 430.905629 430.513217 0.002307443
4.66072 432.9534 431.040605 430.644853 0.002309717
4.66952 432.37421 431.176053 430.776833 0.002312811
4.67833 432.57184 431.312179 430.909361 0.002311755
4.68713 433.86209 431.449213 431.042663 0.00230488
4.69593 434.75107 431.587365 431.176944 0.002300167
4.70473 435.46121 431.726856 431.312422 0.002296416
4.71354 435.56622 431.874297 431.449325 0.002295862
4.72234 436.21289 432.017157 431.587851 0.002292459
4.73114 436.64081 432.16203 431.728234 0.002290212
4.73994 436.4057 432.309117 431.870665 0.002291446
4.74874 436.25406 432.458647 432.01537 0.002292242
4.75755 436.33716 432.610844 432.162564 0.002291806
4.76635 436.11575 432.76591 432.312441 0.002292969
4.77515 436.11081 432.924065 432.465214 0.002292995
4.78395 436.22327 433.08553 432.621094 0.002292404
4.79275 436.47083 433.2505 432.780268 0.002291104
4.80156 437.12524 433.419197 432.942947 0.002287674
4.81036 437.29663 433.591808 433.109307 0.002286777
4.81916 437.31973 433.768547 433.279549 0.002286656
4.82796 437.76932 433.949618 433.453865 0.002284308
4.83676 437.88202 434.135199 433.632419 0.00228372
4.84557 438.71445 434.331431 433.815408 0.002279387
4.85437 439.28415 434.526644 434.002985 0.002276431
4.86317 439.80405 434.726942 434.195324 0.00227374
4.87197 439.85895 434.932516 434.392599 0.002273456
4.88078 440.36237 435.143524 434.594948 0.002270857
4.88958 440.72876 435.360145 434.802526 0.002268969
4.89838 440.00278 435.582565 435.015494 0.002272713
4.90718 439.44705 435.810923 435.233966 0.002275587
4.91598 439.52039 436.045409 435.458103 0.002275207
4.92479 439.70245 436.28615 435.688 0.002274265
4.93359 440.28357 436.533315 435.923791 0.002271263
4.94239 441.37424 436.78707 436.165605 0.002265651
4.95119 442.17017 437.047536 436.413522 0.002261573
4.95999 441.68893 437.314882 436.667666 0.002264037
4.96880 441.76047 437.589223 436.928103 0.00226367
4.97760 442.21625 437.870718 437.194934 0.002261337
4.98640 443.02066 438.159513 437.468249 0.002257231
4.99520 443.63751 438.455719 437.748089 0.002254093
5.00401 444.31934 438.759492 438.034539 0.002250634
5.01281 445.23892 439.070979 438.327663 0.002245985
5.02161 445.08441 439.39029 438.627481 0.002246765
5.03041 444.72739 439.717604 438.934068 0.002248568
5.03921 444.27933 440.053033 439.247426 0.002250836
5.04802 444.55328 440.396741 439.567593 0.002249449
5.05682 444.81442 440.748911 439.894609 0.002248129
5.06562 445.60583 441.109677 440.228449 0.002244136
5.07442 445.90665 441.479266 440.569158 0.002242622
5.08322 446.61276 441.857829 440.916685 0.002239076
5.09203 446.73544 442.24561 441.271043 0.002238461
5.10083 447.19653 442.642875 441.632234 0.002236153
5.10963 447.68173 443.049862 442.000194 0.00223373
5.11843 448.26495 443.466894 442.374904 0.002230824
5.12723 449.116 443.894355 442.756347 0.002226596
5.13604 449.22333 444.332615 443.144437 0.002226064
5.14484 449.1459 444.782193 443.539155 0.002226448
5.15364 448.74048 445.243601 443.940398 0.00222846
5.16244 449.03165 445.717528 444.348125 0.002227015
5.17125 449.85028 446.204774 444.762274 0.002222962
5.18005 450.17944 446.706218 445.182721 0.002221336
5.18885 451.26028 447.223006 445.609401 0.002216016
5.19765 451.20331 447.756522 446.042247 0.002216296
5.20645 451.39117 448.309764 446.481099 0.002215373
5.21526 451.90582 448.881972 446.925905 0.00221285
5.22406 452.57468 449.476937 447.376505 0.00220958
5.23286 452.72186 450.097742 447.832795 0.002208862
5.24166 453.03244 450.74825 448.294681 0.002207347
5.25046 453.78552 451.43323 448.761979 0.002203684
5.25927 454.70526 452.158925 449.234613 0.002199227
5.26807 456.61151 452.933312 449.712377 0.002190046
5.27687 458.24734 453.767334 450.195156 0.002182228
5.28567 458.92859 454.67693 450.682828 0.002178988
5.29448 459.8172 455.687542 451.175187 0.002174777
5.30328 461.03964 456.844151 451.672089 0.002169011
5.31208 462.57932 458.231552 452.173404 0.002161791
5.32088 464.37357 460.009626 452.678914 0.002153439
5.32968 467.52283 462.465126 453.188492 0.002138933
5.33849 471.6488 466.06766 453.701911 0.002120222
5.34729 477.29507 471.49696 454.219026 0.00209514
5.35609 484.59647 479.585186 454.739673 0.002063573
5.36489 492.86191 491.120659 455.263614 0.002028966
5.37369 504.6684 506.513792 455.790721 0.001981499
5.38250 521.68817 525.372771 456.320749 0.001916854
5.39130 543.54999 546.053802 456.853525 0.001839757
5.40010 568.52246 565.234823 457.38889 0.001758945
5.40890 590.43256 577.92701 457.926588 0.001693674
5.41770 598.04645 579.511486 458.466456 0.001672111
5.42651 581.45837 569.530699 459.008314 0.001719814
5.43531 548.35895 552.154999 459.551907 0.001823623
5.44411 517.57294 532.529696 460.097095 0.001932095
5.45291 497.67828 514.293298 460.64362 0.00200933
5.46172 485.31046 499.341984 461.1913 0.002060537
5.47052 477.50037 488.250447 461.739968 0.002094239
5.47932 472.80573 480.709197 462.289366 0.002115034
5.48812 470.07175 475.967275 462.839342 0.002127335
5.49692 468.47461 473.182724 463.389638 0.002134587
5.50573 467.49896 471.643108 463.94009 0.002139042
5.51453 466.11804 470.841159 464.490518 0.002145379
5.52333 465.62137 470.463563 465.040665 0.002147668
5.53213 466.11758 470.332595 465.590365 0.002145381
5.54093 466.54691 470.353442 466.139461 0.002143407
5.54974 466.92291 470.475778 466.687682 0.002141681
5.55854 466.86414 470.671422 467.234906 0.002141951
5.56734 466.26233 470.934158 467.780886 0.002144715
5.57614 466.22128 471.22971 468.325452 0.002144904
5.58495 466.78546 471.560507 468.868459 0.002142312
5.59375 466.78534 471.919779 469.409661 0.002142312
5.60255 466.87781 472.302257 469.948946 0.002141888
5.61135 467.51694 472.70364 470.486067 0.00213896
5.62015 468.26434 473.120514 471.020886 0.002135546
5.62896 468.36563 473.550091 471.553265 0.002135084
5.63776 468.72449 473.991353 472.082984 0.002133449
5.64656 469.45105 474.439716 472.609901 0.002130148
5.65536 470.00223 474.894937 473.133895 0.002127649
5.66416 469.99399 475.364635 473.654757 0.002127687
5.67297 470.16882 475.829694 474.172388 0.002126896
5.68177 470.49948 476.298088 474.68659 0.002125401
5.69057 470.7879 476.769017 475.197261 0.002124099
5.69937 471.08954 477.24179 475.704282 0.002122739
5.70817 471.24808 477.715755 476.207472 0.002122025
5.71698 471.02731 478.190425 476.706738 0.002123019
5.72578 471.39624 478.665398 477.201993 0.002121358
5.73458 471.94363 479.141955 477.693056 0.002118897
5.74338 472.77048 479.616446 478.179882 0.002115191
5.75219 473.62637 480.090284 478.662313 0.002111369
5.76099 473.96524 480.563324 479.140286 0.002109859
5.76979 472.96817 481.035458 479.613726 0.002114307
5.77859 472.42209 481.506577 480.082501 0.002116751
5.78739 473.28363 481.976729 480.546586 0.002112898
5.79620 474.70514 482.445927 481.00586 0.002106571
5.80500 474.90768 482.914316 481.460274 0.002105672
5.81380 475.12057 483.382419 481.909799 0.002104729
5.82260 475.48477 483.849913 482.354336 0.002103117
5.83140 476.55914 484.317498 482.793852 0.002098375
5.84021 477.09686 484.785722 483.228339 0.00209601
5.84901 476.79175 485.255204 483.657717 0.002097352
5.85781 476.90085 485.726832 484.081998 0.002096872
5.86661 477.73663 486.201622 484.501118 0.002093204
5.87541 478.52335 486.680947 484.915089 0.002089762
5.88422 478.89944 487.166539 485.32393 0.002088121
5.89302 479.7034 487.660496 485.727586 0.002084621
5.90182 479.99252 488.165663 486.126113 0.002083366
5.91062 480.28677 488.685639 486.519484 0.002082089
5.91943 480.17218 489.226458 486.907732 0.002082586
5.92823 480.38449 489.7935 487.290911 0.002081666
5.93703 481.05566 490.399549 487.66901 0.002078762
5.94583 481.50659 491.065509 488.042095 0.002076815
5.95463 482.35739 491.829963 488.410227 0.002073152
5.96344 484.48386 492.763454 488.77342 0.002064052
5.97224 485.87692 493.988555 489.131777 0.002058134
5.98104 486.81079 495.698485 489.485328 0.002054186
5.98984 489.0596 498.162321 489.834158 0.002044741
5.99864 492.18417 501.695456 490.178373 0.00203176
6.00745 495.53836 506.578931 490.518022 0.002018007
6.01625 500.03665 512.932912 490.85323 0.001999853
6.02505 506.65512 520.556673 491.184062 0.001973729
6.03385 514.21991 528.757553 491.510647 0.001944693
6.04266 521.43774 536.169089 491.833109 0.001917774
6.05146 527.0799 540.799507 492.151531 0.001897246
6.06026 528.69824 540.957042 492.466057 0.001891438
6.06906 525.09436 536.71328 492.77684 0.00190442
6.07786 518.2796 529.829914 493.083971 0.00192946
6.08667 510.50854 522.272013 493.387633 0.001958831
6.09547 504.57376 515.358645 493.687939 0.001981871
6.10427 499.64465 509.743167 493.985062 0.002001422
6.11307 496.43195 505.599835 494.279173 0.002014375
6.12187 494.13168 502.793293 494.570405 0.002023752
6.13068 493.24362 501.036988 494.858961 0.002027396
6.13948 492.53793 500.016386 495.144987 0.0020303
6.14828 493.06274 499.467815 495.428673 0.002028139
6.15708 493.44525 499.203346 495.710223 0.002026567
6.16589 494.29492 499.104991 495.989797 0.002023084
6.17469 494.7749 499.105156 496.267601 0.002021121
6.18349 494.89697 499.167158 496.543852 0.002020623
6.19229 494.73895 499.271213 496.818725 0.002021268
6.20109 494.93292 499.406246 497.092452 0.002020476
6.20990 495.62823 499.565396 497.365218 0.002017641
6.21870 495.98428 499.744124 497.637254 0.002016193
6.22750 495.70746 499.939238 497.908797 0.002017319
6.23630 496.42892 500.148366 498.180035 0.002014387
6.24510 497.33798 500.369926 498.451211 0.002010705
6.25391 497.64899 500.602538 498.722574 0.002009448
6.26271 498.04947 500.845495 498.994322 0.002007833
6.27151 499.26303 501.099828 499.266723 0.002002952
6.28031 499.87604 501.362602 499.539985 0.002000496
6.28911 500.08972 501.635518 499.81437 0.001999641
6.29792 500.20224 501.919275 500.09013 0.001999191
6.30672 500.70801 502.215128 500.367484 0.001997172
6.31552 502.01859 502.5259 500.646713 0.001991958
6.32432 503.18088 502.854782 500.928037 0.001987357
6.33313 503.74438 503.212833 501.21172 0.001985134
6.34193 503.9296 503.608814 501.498034 0.001984404
6.35073 504.74167 504.069939 501.787207 0.001981211
6.35953 506.78082 504.634779 502.079504 0.00197324
6.36833 509.02399 505.357062 502.375204 0.001964544
6.37714 510.52667 506.305831 502.674536 0.001958762
6.38594 511.78418 507.527904 502.977787 0.001953949
6.39474 514.11035 509.057153 503.285185 0.001945108
6.40354 517.61023 510.866008 503.597008 0.001931956
6.41234 521.33301 512.817114 503.91354 0.00191816
6.42115 525.51691 514.651635 504.234998 0.001902888
6.42995 529.63019 515.968743 504.561682 0.00188811
6.43875 530.79877 516.394186 504.893817 0.001883953
6.44755 528.45166 515.889548 505.231685 0.001892321
6.45636 524.19104 514.792142 505.575556 0.001907701
6.46516 520.57245 513.51513 505.925654 0.001920962
6.47396 517.85223 512.350476 506.282261 0.001931053
6.48276 516.28119 511.45017 506.645645 0.001936929
6.49156 515.21228 510.856848 507.016023 0.001940948
6.50037 515.16803 510.553209 507.393692 0.001941114
6.50917 515.30573 510.484834 507.778864 0.001940596
6.51797 514.91467 510.58819 508.171802 0.001942069
6.52677 515.13037 510.807597 508.572781 0.001941256
6.53557 516.03491 511.102059 508.982005 0.001937853
6.54438 516.854 511.445115 509.399755 0.001934782
6.55318 516.59912 511.821224 509.826229 0.001935737
6.56198 516.89056 512.221903 510.261688 0.001934646
6.57078 517.88544 512.642643 510.706397 0.001930929
6.57958 518.55841 513.08092 511.160529 0.001928423
6.58839 518.98718 513.535341 511.624342 0.00192683
6.59719 519.87396 514.00506 512.098088 0.001923543
6.60599 520.55896 514.489469 512.581942 0.001921012
6.61479 521.27557 514.988254 513.076166 0.001918371
6.62360 521.43695 515.501145 513.580924 0.001917777
6.63240 521.78796 516.02807 514.09646 0.001916487
6.64120 522.81543 516.569006 514.623 0.001912721
6.65000 523.7157 517.12394 515.160692 0.001909433
6.65880 524.74005 517.693028 515.709795 0.001905706
6.66761 525.24561 518.27736 516.270448 0.001903871
6.67641 526.04572 518.875122 516.842856 0.001900975
6.68521 526.75116 519.487578 517.427246 0.00189843
6.69401 526.92236 520.114927 518.023736 0.001897813
6.70281 526.66199 520.757498 518.632521 0.001898751
6.71162 527.36963 521.415632 519.253812 0.001896203
6.72042 528.12677 522.089654 519.887711 0.001893485
6.72922 529.39014 522.780056 520.534434 0.001888966
6.73802 529.39325 523.487242 521.194069 0.001888955
6.74682 530.20538 524.211799 521.8668 0.001886062
6.75563 531.65973 524.954404 522.552817 0.001880902
6.76443 533.23407 525.715681 523.252163 0.001875349
6.77323 534.30444 526.496521 523.965016 0.001871592
6.78203 535.16064 527.297963 524.691543 0.001868598
6.79084 535.23218 528.1211 525.431788 0.001868348
6.79964 535.92572 528.967428 526.185932 0.00186593
6.80844 536.19189 529.838578 526.954006 0.001865004
6.81724 537.21729 530.736727 527.73616 0.001861444
6.82604 537.34924 531.664569 528.532518 0.001860987
6.83485 538.12024 532.625405 529.343085 0.001858321
6.84365 538.79834 533.6241 530.168037 0.001855982
6.85245 540.33386 534.666584 531.007364 0.001850708
6.86125 541.50757 535.763084 531.861162 0.001846696
6.87005 542.63708 536.930471 532.729552 0.001842852
6.87886 543.03223 538.198378 533.612503 0.001841511
6.88766 543.93475 539.61981 534.510091 0.001838456
6.89646 546.18909 541.285235 535.422422 0.001830868
6.90526 549.36005 543.336933 536.349426 0.0018203
6.91407 552.39014 545.976476 537.291249 0.001810315
6.92287 555.1759 549.448937 538.247784 0.001801231
6.93167 558.77216 553.99578 539.219111 0.001789638
6.94047 563.2608 559.769686 540.205293 0.001775377
6.94927 568.40143 566.720661 541.206231 0.00175932
6.95808 574.73163 574.469356 542.222012 0.001739943
6.96688 582.63708 582.126785 543.252518 0.001716334
6.97568 589.20367 588.213023 544.297799 0.001697206
6.98448 592.67017 591.031446 545.357866 0.001687279
6.99328 591.9549 589.860542 546.432578 0.001689318
7.00209 586.86255 585.654412 547.521965 0.001703977
7.01089 580.83136 580.139198 548.626021 0.00172167
7.01969 575.3092 574.712459 549.744578 0.001738196
7.02849 570.84509 570.166636 550.877702 0.001751789
7.03729 568.06738 566.825241 552.025211 0.001760355
7.04610 566.76465 564.698205 553.187068 0.001764401
7.05490 565.89343 563.612979 554.363271 0.001767117
7.06370 566.07587 563.323392 555.553614 0.001766548
7.07250 566.28448 563.588758 556.75811 0.001765897
7.08131 566.67926 564.220115 557.976534 0.001764667
7.09011 567.55835 565.077759 559.208846 0.001761933
7.09891 568.52686 566.081796 560.455017 0.001758932
7.10771 569.50183 567.184036 561.714757 0.001755921
7.11651 569.92938 568.357919 562.988022 0.001754603
7.12532 570.94604 569.588784 564.274752 0.001751479
7.13412 572.02759 570.868077 565.574675 0.001748167
7.14292 573.7533 572.190872 566.887762 0.001742909
7.15172 575.25836 573.554028 568.213727 0.001738349
7.16052 576.28864 574.956134 569.552499 0.001735242
7.16933 577.6214 576.397216 570.903959 0.001731238
7.17813 578.66315 577.879034 572.267799 0.001728121
7.18693 580.24261 579.409543 573.643996 0.001723417
7.19573 581.8457 580.993049 575.032225 0.001718669
7.20453 583.52747 582.650788 576.432345 0.001713715
7.21334 585.33752 584.413228 577.844256 0.001708416
7.22214 587.14746 586.325232 579.267615 0.00170315
7.23094 588.82715 588.445487 580.702262 0.001698291
7.23974 590.48395 590.839246 582.148085 0.001693526
7.24855 592.37396 593.556178 583.604703 0.001688123
7.25735 593.883 596.612912 585.072076 0.001683833
7.26615 595.17389 599.956448 586.549776 0.001680181
7.27495 597.24689 603.429722 588.037671 0.001674349
7.28375 598.90369 606.724661 589.535609 0.001669718
7.29256 600.54022 609.40499 591.043195 0.001665167
7.30136 601.46155 611.117416 592.560233 0.001662617
7.31016 602.09253 611.897153 594.086575 0.001660874
7.31896 602.73175 612.135575 595.621808 0.001659113
7.32777 604.05212 612.262768 597.165813 0.001655486
7.33657 605.71289 612.566782 598.718166 0.001650947
7.34537 607.78021 613.193545 600.278703 0.001645332
7.35417 609.13818 614.189804 601.847206 0.001641664
7.36297 611.16394 615.540634 603.423237 0.001636222
7.37178 613.02325 617.1996 605.006694 0.001631259
7.38058 615.6944 619.112876 606.59713 0.001624182
7.38938 619.09009 621.236188 608.194312 0.001615274
7.39818 623.09485 623.542431 609.798057 0.001604892
7.40698 626.56488 626.022486 611.407907 0.001596004
7.41579 630.52905 628.684677 613.023617 0.00158597
7.42459 635.15088 631.553265 614.644997 0.001574429
7.43339 641.42377 634.671114 616.27156 0.001559032
7.44219 648.41431 638.111555 617.903201 0.001542224
7.45099 656.53156 641.990735 619.539389 0.001523156
7.45980 667.2168 646.522109 621.179923 0.001498763
7.46860 679.16406 652.075263 622.824581 0.001472398
7.47740 693.55115 659.2767 624.47288 0.001441855
7.48620 712.01239 669.102904 626.124651 0.00140447
7.49501 730.99365 682.951024 627.779403 0.001368001
7.50381 753.16479 702.560828 629.436927 0.001327731
7.51261 777.70111 729.729575 631.096955 0.001285841
7.52141 803.14453 765.780685 632.758992 0.001245106
7.53021 831.42493 810.834145 634.422823 0.001202754
7.53902 859.22632 862.905352 636.088177 0.001163838
7.54782 890.68518 916.750283 637.754554 0.001122731
7.55662 924.1366 962.736916 639.421813 0.001082091
7.56542 948.16663 987.938378 641.089451 0.001054667
7.57422 957.02014 983.287314 642.757192 0.00104491
7.58303 944.49719 951.592185 644.424819 0.001058764
7.59183 907.89087 904.827402 646.091807 0.001101454
7.60063 872.31525 854.96121 647.758031 0.001146375
7.60943 832.22119 809.649391 649.422931 0.001201604
7.61823 798.68146 772.5613 651.086286 0.001252064
7.62704 772.9635 744.652516 652.747857 0.001293722
7.63584 750.80133 725.190434 654.407139 0.00133191
7.64464 734.18311 712.569394 656.063857 0.001362058
7.65344 722.37793 704.974875 657.717791 0.001384317
7.66225 712.02179 700.807692 659.368439 0.001404451
7.67105 704.4281 698.86418 661.015619 0.001419591
7.67985 698.45673 698.343683 662.658834 0.001431728
7.68865 695.46204 698.761906 664.297865 0.001437893
7.69745 694.1759 699.848799 665.93244 0.001440557
7.70626 693.2132 701.465196 667.562066 0.001442558
7.71506 692.64008 703.550269 669.186601 0.001443751
7.72386 693.50568 706.094849 670.805555 0.001441949
7.73266 695.98743 709.136809 672.418662 0.001436808
7.74146 699.22144 712.772784 674.02571 0.001430162
7.75027 703.11877 717.184353 675.626216 0.001422235
7.75907 708.24799 722.677705 677.21992 0.001411935
7.76787 714.79883 729.722028 678.806614 0.001398995
7.77667 723.32745 738.964872 680.385806 0.0013825
7.78548 734.76312 751.196346 681.957384 0.001360983
7.79428 750.14807 767.239406 683.520826 0.00133307
7.80308 768.78528 787.77104 685.075934 0.001300753
7.81188 792.66644 813.103205 686.622496 0.001261565
7.82068 822.50793 842.920998 688.160052 0.001215794
7.82949 860.6756 875.973427 689.688361 0.001161878
7.83829 906.82007 909.800768 691.207232 0.001102755
7.84709 953.54803 941.562837 692.716221 0.001048715
7.85589 990.56372 971.026454 694.215178 0.001009526
7.86469 1012.9396 1002.702302 695.703666 0.000987226
7.87350 1034.7578 1043.179961 697.181509 0.00096641
7.88230 1072.1309 1096.487637 698.64848 0.000932722
7.89110 1131.6212 1161.370741 700.104156 0.000883688
7.89990 1201.8058 1229.766256 701.548434 0.000832081
7.90870 1269.9525 1285.897194 702.980901 0.000787431
7.91751 1305.0938 1310.309461 704.401347 0.000766228
7.92631 1302.3021 1292.663377 705.809611 0.000767871
7.93511 1257.3125 1241.565039 707.20528 0.000795347
7.94391 1197.024 1177.142001 708.588201 0.000835405
7.95272 1141.8779 1118.294961 709.958177 0.00087575
7.96152 1104.4666 1078.103223 711.314828 0.000905414
7.97032 1095.261 1064.665092 712.658073 0.000913024
7.97912 1109.5952 1082.172878 713.987543 0.00090123
7.98792 1160.6761 1131.134608 715.303059 0.000861567
7.99673 1227.0293 1207.989483 716.604488 0.000814976
8.00553 1315.849 1304.061765 717.891553 0.000759966
8.01433 1393.1108 1403.618024 719.163869 0.000717818
8.02313 1467.47 1482.437786 720.421532 0.000681445
8.03193 1513.3458 1513.207095 721.664195 0.000660788
8.04074 1505.2776 1482.638175 722.891537 0.000664329
8.04954 1422.8229 1402.982264 724.103616 0.000702828
8.05834 1293.7258 1300.554379 725.300118 0.000772961
8.06714 1167.4043 1198.545118 726.480744 0.000856601
8.07594 1073.0599 1111.470628 727.645556 0.000931914
8.08475 1018.2539 1047.101842 728.794262 0.000982073
8.09355 990.57605 1008.999939 729.926582 0.001009514
8.10235 988.76154 998.328625 731.042586 0.001011366
8.11115 1008.4656 1014.970799 732.142002 0.000991605
8.11996 1056.1696 1057.849161 733.22468 0.000946818
8.12876 1128.465 1124.465281 734.290368 0.00088616
8.13756 1227.7786 1209.748356 735.339146 0.000814479
8.14636 1352.5823 1304.038115 736.370768 0.000739327
8.15516 1449.0518 1390.624702 737.385006 0.000690106
8.16397 1479.1399 1445.8749 738.381944 0.000676069
8.17277 1468.938 1448.772398 739.36136 0.000680764
8.18157 1371.3065 1397.195418 740.323047 0.000729232
8.19037 1275.6455 1309.690521 741.267095 0.000783917
8.19917 1164.2516 1210.03026 742.193305 0.000858921
8.20798 1066.3209 1115.549895 743.101482 0.000937804
8.21678 998.33209 1035.765821 743.991753 0.001001671
8.22558 949.14282 974.707203 744.86391 0.001053582
8.23438 917.73981 932.907967 745.717888 0.001089633
8.24319 901.14539 908.890614 746.55352 0.001109699
8.25199 895.42255 900.222608 747.37094 0.001116791
8.26079 899.27155 904.163134 748.169973 0.001112011
8.26959 909.06891 917.778801 748.950488 0.001100027
8.27839 926.33197 937.642654 749.712612 0.001079527
8.28720 948.87372 959.112845 750.456222 0.001053881
8.29600 974.62769 975.798191 751.181181 0.001026033
8.30480 992.23541 980.881556 751.887632 0.001007825
8.31360 987.37018 971.129299 752.575465 0.001012791
8.32240 961.25049 949.320202 753.244592 0.001040312
8.33121 923.3645 921.347013 753.895135 0.001082996
8.34001 888.18817 892.418155 754.527016 0.001125888
8.34881 860.25037 865.897344 755.140232 0.001162452
8.35761 839.8526 843.561462 755.734723 0.001190685
8.36641 824.9494 825.944593 756.31062 0.001212196
8.37522 814.55774 812.756208 756.867874 0.00122766
8.38402 806.78168 803.259334 757.406448 0.001239493
8.39282 800.8819 796.565175 757.926477 0.001248624
8.40162 796.45752 791.869529 758.427934 0.00125556
8.41043 793.53961 788.529154 758.910805 0.001260177
8.41923 790.72058 786.080553 759.375228 0.001264669
8.42803 788.37646 784.219239 759.821198 0.00126843
8.43683 786.18481 782.753362 760.248724 0.001271966
8.44563 785.19299 781.564474 760.657947 0.001273572
8.45444 784.75336 780.578503 761.048884 0.001274286
8.46324 784.42755 779.747666 761.4216 0.001274815
8.47204 784.25433 779.040341 761.776131 0.001275097
8.48084 785.00159 778.432767 762.112626 0.001273883
8.48964 784.97968 777.907052 762.431127 0.001273918
8.49845 784.29712 777.448991 762.73169 0.001275027
8.50725 783.55884 777.046925 763.014467 0.001276228
8.51605 782.78473 776.691455 763.279522 0.00127749
8.52485 782.4765 776.374744 763.52693 0.001277994
8.53366 783.40875 776.090305 763.756846 0.001276473
8.54246 783.74738 775.832511 763.969354 0.001275921
8.55126 783.45819 775.596556 764.164544 0.001276392
8.56006 782.84387 775.378554 764.342582 0.001277394
8.56886 782.33545 775.175101 764.503563 0.001278224
8.57767 781.90717 774.983291 764.647615 0.001278924
8.58647 782.24396 774.800641 764.774857 0.001278374
8.59527 782.24634 774.624927 764.885452 0.00127837
8.60407 781.34125 774.454303 764.979524 0.001279851
8.61287 780.65131 774.287174 765.057208 0.001280982
8.62168 781.1355 774.122473 765.118669 0.001280188
8.63048 780.69708 773.958271 765.164049 0.001280907
8.63928 780.72412 773.793913 765.193499 0.001280862
8.64808 780.47449 773.628493 765.207186 0.001281272
8.65689 779.48218 773.461249 765.205267 0.001282903
8.66569 778.36639 773.291572 765.187912 0.001284742
8.67449 777.86334 773.120199 765.155285 0.001285573
8.68329 777.84039 772.944454 765.107561 0.001285611
8.69209 777.60565 772.765892 765.044916 0.001285999
8.70090 777.42944 772.582295 764.967537 0.00128629
8.70970 776.96942 772.394646 764.875593 0.001287052
8.71850 775.5799 772.202991 764.769274 0.001289358
8.72730 774.6778 772.007821 764.648784 0.001290859
8.73610 774.57355 771.808773 764.514289 0.001291033
8.74491 775.29486 771.607196 764.365996 0.001289832
8.75371 775.60565 771.403373 764.204117 0.001289315
8.76251 775.16064 771.199489 764.028822 0.001290055
8.77131 774.96277 770.99868 763.840327 0.001290385
8.78011 775.49268 770.806081 763.638859 0.001289503
8.78892 775.83868 770.629612 763.424584 0.001288928
8.79772 775.13623 770.480743 763.197731 0.001290096
8.80652 774.92169 770.374398 762.958514 0.001290453
8.81532 774.49658 770.327587 762.707171 0.001291161
8.82413 774.69196 770.35633 762.443868 0.001290836
8.83293 774.89386 770.473136 762.168847 0.001290499
8.84173 775.26593 770.67048 761.882359 0.00128988
8.85053 774.86304 770.928226 761.584567 0.001290551
8.85933 774.34839 771.191932 761.275722 0.001291408
8.86814 773.58417 771.364931 760.956084 0.001292684
8.87694 772.42993 771.320047 760.625813 0.001294616
8.88574 770.93091 770.964786 760.28517 0.001297133
8.89454 769.64465 770.316754 759.934423 0.001299301
8.90334 768.53491 769.48839 759.573721 0.001301177
8.91215 767.41882 768.602053 759.203342 0.001303069
8.92095 766.89581 767.74334 758.823516 0.001303958
8.92975 765.88104 766.958039 758.43452 0.001305686
8.93855 765.61688 766.261282 758.036496 0.001306136
8.94736 764.38806 765.65276 757.629734 0.001308236
8.95616 763.86853 765.120965 757.214512 0.001309126
8.96496 762.05542 764.652978 756.790973 0.001312241
8.97376 760.67596 764.226957 756.359397 0.00131462
8.98256 760.12482 763.832289 755.920081 0.001315573
8.99137 759.14886 763.459497 755.47316 0.001317265
9.00017 758.07202 763.102378 755.018921 0.001319136
9.00897 756.84637 762.757329 754.557651 0.001321272
9.01777 755.84741 762.422828 754.089495 0.001323018
9.02657 755.0575 762.097517 753.614739 0.001324402
9.03538 754.92322 761.783688 753.133622 0.001324638
9.04418 754.534 761.478111 752.646434 0.001325321
9.05298 754.19562 761.184318 752.153312 0.001325916
9.06178 753.91779 760.902004 751.654547 0.001326405
9.07058 754.00928 760.632302 751.150427 0.001326244
9.07939 753.87207 760.377072 750.641087 0.001326485
9.08819 753.69641 760.138161 750.126816 0.001326794
9.09699 752.73224 759.917042 749.607905 0.001328494
9.10579 752.20288 759.715887 749.084482 0.001329429
9.11460 751.83221 759.537027 748.556837 0.001330084
9.12340 751.90778 759.38308 748.025258 0.00132995
9.13220 752.3985 759.256878 747.48987 0.001329083
9.14100 752.26038 759.161733 746.950961 0.001329327
9.14980 752.11212 759.101316 746.408817 0.001329589
9.15861 751.28674 759.079875 745.863559 0.00133105
9.16741 750.80896 759.102047 745.315471 0.001331897
9.17621 749.97192 759.173558 744.764781 0.001333383
9.18501 750.19781 759.300006 744.211773 0.001332982
9.19381 750.21436 759.488767 743.656559 0.001332952
9.20262 750.36426 759.748002 743.09942 0.001332686
9.21142 749.69946 760.087084 742.540636 0.001333868
9.22022 750.33722 760.517143 741.980314 0.001332734
9.22902 750.45905 761.050964 741.41873 0.001332518
9.23782 750.87579 761.703539 740.856166 0.001331778
9.24663 750.46875 762.492934 740.292703 0.001332501
9.25543 750.57452 763.440853 739.728633 0.001332313
9.26423 751.09772 764.571516 739.164226 0.001331385
9.27303 752.68152 765.915845 738.599564 0.001328583
9.28184 755.40759 767.511036 738.034913 0.001323789
9.29064 758.23645 769.402538 737.470492 0.00131885
9.29944 761.4317 771.649741 736.906564 0.001313315
9.30824 765.53351 774.318507 736.343202 0.001306279
9.31704 770.42633 777.505862 735.780665 0.001297983
9.32585 777.2016 781.340507 735.219227 0.001286667
9.33465 786.41254 786.011468 734.658948 0.001271597
9.34345 797.18829 791.80721 734.100088 0.001254409
9.35225 809.24689 799.18592 733.542892 0.001235717
9.36105 825.30481 808.890678 732.987436 0.001211674
9.36986 845.92139 822.09103 732.433963 0.001182143
9.37866 872.57813 840.555711 731.882713 0.001146029
9.38746 905.1745 866.79592 731.333753 0.001104759
9.39626 946.18195 904.079276 730.78732 0.001056879
9.40507 996.68115 956.21485 730.243587 0.00100333
9.41387 1056.7842 1026.998888 729.702785 0.000946267
9.42267 1129.4591 1119.319666 729.164972 0.00088538
9.43147 1216.7412 1233.816299 728.630372 0.000821867
9.44027 1320.6486 1367.146999 728.099204 0.000757204
9.44908 1430.1279 1509.852879 727.571522 0.000699238
9.45788 1556.6696 1644.264946 727.04754 0.000642397
9.46668 1679.5555 1745.365833 726.527467 0.000595396
9.47548 1808.6367 1787.851629 726.01135 0.000552903
9.48428 1871.7467 1758.264933 725.499393 0.00053426
9.49309 1801.7748 1664.428822 724.991798 0.000555008
9.50189 1601.3398 1531.290378 724.488603 0.000624477
9.51069 1391.3451 1386.260612 723.990005 0.000718729
9.51949 1217.2886 1248.930289 723.496141 0.000821498
9.52829 1089.7416 1129.884917 723.007197 0.000917649
9.53710 994.43842 1033.06381 722.523207 0.001005593
9.54590 929.24731 958.243508 722.044351 0.00107614
9.55470 879.88745 902.746883 721.570804 0.001136509
9.56350 844.18927 862.778943 721.102593 0.001184568
9.57231 816.90167 834.44773 720.639888 0.001224138
9.58111 796.63928 814.349214 720.182857 0.001255273
9.58991 781.30774 799.832688 719.731508 0.001279905
9.59871 769.16565 789.022429 719.286013 0.00130011
9.60751 760.20398 780.674444 718.846526 0.001315436
9.61632 753.76379 774.000224 718.413052 0.001326676
9.62512 748.58905 768.51582 717.985739 0.001335846
9.63392 744.04565 763.919866 717.564696 0.001344004
9.64272 740.88489 760.019352 717.15006 0.001349737
9.65152 738.35364 756.681327 716.741831 0.001354365
9.66033 735.76825 753.812836 716.340141 0.001359124
9.66913 734.07111 751.345972 715.945131 0.001362266
9.67793 733.19135 749.222856 715.556789 0.0013639
9.68673 732.61639 747.404131 715.175241 0.001364971
9.69553 731.745 745.857829 714.800603 0.001366596
9.70434 730.78607 744.561295 714.432872 0.00136839
9.71314 729.11346 743.493319 714.072159 0.001371529
9.72194 729.04138 742.644618 713.718566 0.001371664
9.73074 729.15674 742.009103 713.372087 0.001371447
9.73955 729.80463 741.589513 713.032819 0.00137023
9.74835 730.18469 741.391144 712.700823 0.001369517
9.75715 731.15125 741.433001 712.376186 0.001367706
9.76595 732.40509 741.743128 712.058895 0.001365365
9.77475 733.45703 742.363113 711.749033 0.001363406
9.78356 734.41077 743.348789 711.446678 0.001361636
9.79236 736.45117 744.769691 711.151812 0.001357863
9.80116 739.36591 746.709706 710.864507 0.00135251
9.80996 742.75049 749.2656 710.584828 0.001346347
9.81876 747.68604 752.553238 710.312754 0.00133746
9.82757 753.9599 756.717677 710.048347 0.00132633
9.83637 760.68774 761.95592 709.79166 0.0013146
9.84517 768.65961 768.551831 709.542668 0.001300966
9.85397 778.4848 776.93609 709.301421 0.001284547
9.86278 791.36346 787.826949 709.06794 0.001263642
9.87158 806.40454 802.4114 708.842266 0.001240072
9.88038 824.72076 822.373005 708.624367 0.001212532
9.88918 848.8927 849.572601 708.414279 0.001178005
9.89798 881.8728 885.552127 708.212033 0.00113395
9.90679 925.27942 931.030115 708.017595 0.001080755
9.91559 979.47638 985.297784 707.830989 0.001020954
9.92439 1041.9384 1045.473868 707.652238 0.00095975
9.93319 1104.5576 1105.494684 707.481299 0.00090534
9.94199 1158.8754 1155.292265 707.318192 0.000862906
9.95080 1184.4918 1182.538322 707.162928 0.000844244
9.95960 1184.5402 1178.941355 707.015462 0.000844209
9.96840 1148.7599 1146.641851 706.875801 0.000870504
9.97720 1102.6151 1096.694467 706.743934 0.000906935
9.98600 1051.8937 1041.717566 706.619858 0.000950666
9.99481 1007.2087 991.050994 706.503528 0.000992843
10.00361 971.17938 950.19776 706.394932 0.001029676
10.01241 947.30029 921.716739 706.294074 0.001055631
10.02121 930.23688 905.978731 706.200885 0.001074995
10.03002 920.87793 901.699785 706.115372 0.00108592
10.03882 915.05212 906.124966 706.037503 0.001092834
10.04762 912.40277 915.058645 705.967222 0.001096007
10.05642 911.47308 922.953058 705.90452 0.001097125
10.06522 907.60419 924.005127 705.849355 0.001101802
10.07403 898.85205 914.777368 705.801688 0.00111253
10.08283 881.12219 896.144363 705.761477 0.001134916
10.09163 857.04657 872.052454 705.728689 0.001166798
10.10043 834.33521 846.681468 705.703278 0.001198559
10.10923 816.06531 822.933041 705.685193 0.001225392
10.11804 801.29547 802.390454 705.674394 0.001247979
10.12684 789.98102 785.692856 705.67083 0.001265853
10.13564 782.19702 772.879829 705.674451 0.00127845
10.14444 776.60925 763.648416 705.685206 0.001287649
10.15325 773.77527 757.564587 705.703038 0.001292365
10.16205 774.04736 754.222204 705.727896 0.001291911
10.17085 776.03711 753.371883 705.759726 0.001288598
10.17965 779.21344 754.974225 705.798457 0.001283345
10.18845 784.33197 759.193509 705.844048 0.00127497
10.19726 790.26678 766.330214 705.896422 0.001265395
10.20606 797.57086 776.703868 705.955531 0.001253807
10.21486 805.77655 790.481497 706.021288 0.001241039
10.22366 817.12 807.500886 706.09365 0.00122381
10.23246 830.62604 827.014656 706.172552 0.001203911
10.24127 848.40668 847.359613 706.2579 0.00117868
10.25007 865.32751 865.629967 706.349663 0.001155632
10.25887 880.53497 877.777458 706.447742 0.001135673
10.26767 883.70825 880.087835 706.552075 0.001131595
10.27647 873.41211 871.589339 706.662591 0.001144935
10.28528 851.05426 854.817952 706.779216 0.001175013
10.29408 826.99738 833.912161 706.901878 0.001209194
10.30288 804.50848 812.424452 707.030501 0.001242995
10.31168 785.95709 792.603632 707.165025 0.001272334
10.32048 771.4765 775.586554 707.305327 0.001296216
10.32929 760.56207 761.748807 707.451394 0.001314817
10.33809 752.21033 750.990637 707.603099 0.001329415
10.34689 744.59814 742.925032 707.760379 0.001343006
10.35569 739.34344 737.037803 707.923155 0.001352551
10.36450 735.43085 732.802354 708.091348 0.001359747
10.37330 732.8504 729.758681 708.264897 0.001364535
10.38210 730.69177 727.544024 708.443661 0.001368566
10.39090 728.74146 725.894631 708.62764 0.001372229
10.39971 726.52081 724.631999 708.81669 0.001376423
10.40851 725.07074 723.639948 709.010727 0.001379176
10.41731 723.62988 722.84433 709.209736 0.001381922
10.42611 723.00293 722.198139 709.413566 0.00138312
10.43491 722.71472 721.670515 709.622157 0.001383672
10.44371 722.68414 721.239728 709.835426 0.00138373
10.45252 722.26697 720.890361 710.053313 0.00138453
10.46132 721.76917 720.610494 710.275685 0.001385485
10.47012 721.99182 720.391082 710.502456 0.001385057
10.47892 722.1131 720.223799 710.733622 0.001384825
10.48773 721.86389 720.102751 710.969019 0.001385303
10.49653 721.22894 720.023112 711.208589 0.001386522
10.50533 720.84229 719.979943 711.452249 0.001387266
10.51413 720.48755 719.971174 711.699914 0.001387949
10.52293 720.77808 719.991294 711.9515 0.00138739
10.53174 720.75885 720.03899 712.206924 0.001387427
10.54054 721.26721 720.112847 712.466131 0.001386449
10.54934 722.62482 720.209789 712.728949 0.001383844
10.55814 722.98523 720.328904 712.995415 0.001383154
10.56695 722.70154 720.468925 713.265354 0.001383697
10.57575 723.19684 720.629005 713.538715 0.001382749
10.58455 723.29382 720.808333 713.815415 0.001382564
10.59335 723.50757 721.006502 714.095373 0.001382156
10.60215 724.00287 721.223051 714.378538 0.00138121
10.61096 724.39825 721.457903 714.664732 0.001380456
10.61976 724.62616 721.711286 714.954005 0.001380022
10.62856 724.81476 721.983671 715.246179 0.001379663
10.63736 724.58362 722.275513 715.541207 0.001380103
10.64616 724.50897 722.587872 715.839009 0.001380245
10.65497 725.33997 722.922306 716.139506 0.001378664
10.66377 726.03271 723.28071 716.442621 0.001377348
10.67257 726.54608 723.665645 716.748276 0.001376375
10.68137 727.62555 724.081131 717.056429 0.001374333
10.69017 728.40735 724.532813 717.366935 0.001372858
10.69898 729.46881 725.029318 717.679752 0.001370861
10.70778 730.05798 725.584217 717.994807 0.001369754
10.71658 731.54895 726.218658 718.312024 0.001366963
10.72538 732.91864 726.965032 718.631331 0.001364408
10.73419 734.19684 727.871487 718.952655 0.001362033
10.74299 735.6861 729.005794 719.275961 0.001359275
10.75179 738.1579 730.455884 719.601069 0.001354724
10.76059 739.68671 732.328582 719.928055 0.001351924
10.76939 741.44562 734.73723 720.25674 0.001348717
10.77820 743.59857 737.784156 720.587054 0.001344812
10.78700 747.19727 741.535892 720.919044 0.001338335
10.79580 750.4895 745.983413 721.25253 0.001332464
10.80460 753.94336 751.006853 721.587522 0.00132636
10.81340 756.92047 756.308421 721.923841 0.001321143
10.82221 760.77277 761.343107 722.261538 0.001314453
10.83101 765.08923 765.296667 722.600551 0.001307037
10.83981 768.63678 767.287847 722.940703 0.001301005
10.84861 769.43292 766.837897 723.282088 0.001299658
10.85741 766.99176 764.208659 723.624529 0.001303795
10.86622 761.89978 760.204704 723.968008 0.001312509
10.87502 756.79254 755.688144 724.312466 0.001321366
10.88382 751.57056 751.294243 724.657847 0.001330547
10.89262 747.16278 747.396044 725.004096 0.001338396
10.90142 743.0011 744.166688 725.351158 0.001345893
10.91023 740.84094 741.648211 725.69902 0.001349817
10.91903 739.48181 739.79665 726.047551 0.001352298
10.92783 738.79285 738.520048 726.396739 0.001353559
10.93663 738.14587 737.706807 726.746535 0.001354746
10.94544 737.61554 737.247262 727.096889 0.00135572
10.95424 736.60059 737.047166 727.447753 0.001357588
10.96304 736.34979 737.032458 727.799082 0.00135805
10.97184 735.73907 737.149595 728.15087 0.001359178
10.98064 735.88995 737.362067 728.502952 0.001358899
10.98945 735.85602 737.646415 728.855446 0.001358961
10.99825 735.5675 737.987074 729.20819 0.001359495
11.00705 735.39313 738.375577 729.561182 0.001359817
11.01585 735.67346 738.807248 729.914383 0.001359299
11.02465 736.4538 739.278434 730.267754 0.001357858
11.03346 737.55084 739.788949 730.621298 0.001355839
11.04226 738.19623 740.337539 730.974859 0.001354653
11.05106 738.24542 740.926184 731.328562 0.001354563
11.05986 738.34924 741.556841 731.682252 0.001354373
11.06867 738.22577 742.232789 732.035937 0.001354599
11.07747 738.52826 742.958777 732.389585 0.001354044
11.08627 738.98621 743.741582 732.743165 0.001353205
11.09507 739.90942 744.589362 733.096649 0.001351517
11.10387 740.92853 745.51548 733.450008 0.001349658
11.11268 741.88214 746.538401 733.803254 0.001347923
11.12148 743.38715 747.684324 734.156242 0.001345194
11.13028 744.81805 748.991964 734.509066 0.00134261
11.13908 746.56927 750.511557 734.861704 0.00133946
11.14789 748.23578 752.314227 735.214052 0.001336477
11.15669 750.58685 754.490716 735.566128 0.001332291
11.16549 753.13782 757.153229 735.917912 0.001327778
11.17429 756.48517 760.433378 736.269425 0.001321903
11.18309 759.60699 764.47701 736.620528 0.00131647
11.19190 764.71509 769.435645 736.971324 0.001307677
11.20070 770.63129 775.441305 737.321797 0.001297637
11.20950 776.80811 782.569312 737.671811 0.001287319
11.21830 784.2998 790.783487 738.021512 0.001275023
11.22710 793.37714 799.879143 738.370768 0.001260435
11.23591 803.98285 809.515086 738.719605 0.001243808
11.24471 814.92145 819.369168 739.068014 0.001227112
11.25351 826.52264 829.244136 739.415983 0.001209888
11.26231 836.12317 838.911239 739.763543 0.001195996
11.27111 843.39343 847.75685 740.110568 0.001185686
11.27992 848.31073 854.65695 740.457207 0.001178813
11.28872 851.39746 858.41706 740.803337 0.00117454
11.29752 851.56378 858.654342 741.148991 0.00117431
11.30632 850.13983 856.221846 741.494165 0.001176277
11.31513 848.0658 852.693683 741.838855 0.001179154
11.32393 846.08344 849.531833 742.183059 0.001181917
11.33273 847.23553 847.688981 742.526774 0.001180309
11.34153 850.87787 847.725783 742.87004 0.001175257
11.35033 856.76379 850.174818 743.212738 0.001167183
11.35914 864.31 855.854955 743.555025 0.001156992
11.36794 875.70178 865.831646 743.896786 0.001141941
11.37674 891.12439 881.089704 744.238063 0.001122178
11.38554 911.11353 902.200567 744.578857 0.001097558
11.39434 936.20538 929.099393 744.919174 0.001068142
11.40315 966.52356 960.831073 745.259056 0.001034636
11.41195 998.54651 995.213312 745.598392 0.001001456
11.42075 1025.6615 1028.405453 745.937344 0.000974981
11.42955 1048.3217 1054.781395 746.275801 0.000953906
11.43835 1058.184 1068.180341 746.613772 0.000945015
11.44716 1056.9679 1064.864969 746.95138 0.000946103
11.45596 1039.7289 1045.988853 747.288517 0.000961789
11.46476 1015.3557 1016.794553 747.625233 0.000984877
11.47356 984.73486 983.485001 747.961536 0.001015502
11.48237 955.26752 950.997825 748.297476 0.001046827
11.49117 927.89532 922.505915 748.632948 0.001077708
11.49997 908.59186 899.791072 748.968079 0.001100604
11.50877 896.84003 883.717303 749.302881 0.001115026
11.51757 891.17145 874.541971 749.63729 0.001122119
11.52638 891.68927 872.132789 749.971358 0.001121467
11.53518 895.6358 876.07909 750.305098 0.001116525
11.54398 905.19641 885.743357 750.638561 0.001104733
11.55278 918.91339 900.234397 750.97165 0.001088242
11.56158 935.31689 918.529037 751.304491 0.001069156
11.57039 951.55109 939.633767 751.637101 0.001050916
11.57919 970.48578 962.625742 751.969382 0.001030412
11.58799 986.08142 986.202971 752.3015 0.001014115
11.59679 1002.66 1007.900269 752.633359 0.000997347
11.60559 1015.9184 1023.824496 752.965013 0.000984331
11.61440 1022.7564 1029.565296 753.29648 0.00097775
11.62320 1019.7302 1022.536685 753.627776 0.000980652
11.63200 1003.882 1003.830757 753.958956 0.000996133
11.64080 976.6803 977.567507 754.289926 0.001023876
11.64961 944.11829 948.507353 754.620854 0.001059189
11.65841 913.83429 920.398548 754.951644 0.00109429
11.66721 887.83948 895.555039 755.282355 0.00112633
11.67601 869.7594 875.172647 755.613002 0.001149743
11.68481 857.82648 859.632516 755.943607 0.001165737
11.69362 848.55878 848.752696 756.274186 0.001178469
11.70242 841.25397 841.924515 756.60476 0.001188702
11.71122 837.17023 838.202282 756.935385 0.0011945
11.72002 835.26837 836.363426 757.265967 0.00119722
11.72883 835.59637 834.998802 757.596675 0.00119675
11.73763 835.21173 832.797527 757.927418 0.001197301
11.74643 832.62982 828.990571 758.25825 0.001201014
11.75523 827.59546 823.618311 758.589192 0.00120832
11.76403 819.05371 817.303843 758.920262 0.001220921
11.77284 809.70251 810.793719 759.251519 0.001235021
11.78164 801.7926 804.67368 759.582867 0.001247205
11.79044 796.80975 799.295747 759.914477 0.001255005
11.79924 793.88977 794.841186 760.246255 0.001259621
11.80804 791.41284 791.358488 760.578219 0.001263563
11.81685 788.34106 788.807201 760.910503 0.001268487
11.82565 786.55707 787.085111 761.243011 0.001271364
11.83445 785.49664 786.040793 761.575801 0.00127308
11.84325 784.97015 785.489261 761.908889 0.001273934
11.85206 784.00098 785.212219 762.242334 0.001275509
11.86086 783.51807 784.97864 762.576076 0.001276295
11.86966 783.1803 784.590071 762.910135 0.001276845
11.87846 782.31158 783.950628 763.244641 0.001278263
11.88726 781.09637 783.093592 763.579499 0.001280252
11.89607 779.59607 782.132484 763.914763 0.001282716
11.90487 778.84412 781.189257 764.250451 0.001283954
11.91367 778.49963 780.356807 764.586618 0.001284522
11.92247 777.89563 779.694941 764.923165 0.001285519
11.93127 777.34125 779.2409 765.260224 0.001286436
11.94008 777.76422 779.021084 765.597811 0.001285737
11.94888 778.84998 779.056837 765.935826 0.001283944
11.95768 779.56854 779.373229 766.274438 0.001282761
11.96648 780.09778 780.001922 766.613547 0.001281891
11.97528 781.32275 780.981137 766.953244 0.001279881
11.98409 784.24664 782.352135 767.293429 0.001275109
11.99289 786.12915 784.152166 767.63423 0.001272056
12.00169 787.29834 786.400618 767.975661 0.001270167
12.01049 790.0224 789.084716 768.31762 0.001265787
12.01929 794.22693 792.140043 768.660275 0.001259086
12.02810 797.87207 795.420437 769.00352 0.001253334
12.03690 803.07141 798.663951 769.347407 0.001245219
12.04570 806.97284 801.472414 769.691948 0.001239199
12.05450 809.11938 803.35636 770.037154 0.001235912
12.06330 808.42712 803.920852 770.383035 0.00123697
12.07211 806.5907 803.087574 770.729601 0.001239786
12.08091 804.40625 801.147392 771.076903 0.001243153
12.08971 800.69128 798.579023 771.424869 0.001248921
12.09851 796.61224 795.829777 771.773549 0.001255316
12.10732 791.67749 793.212917 772.122951 0.001263141
12.11612 788.62695 790.913639 772.473083 0.001268027
12.12492 787.22168 789.021038 772.823952 0.00127029
12.13372 786.5697 787.559943 773.175565 0.001271343
12.14252 786.04608 786.516463 773.527969 0.00127219
12.15133 786.46747 785.855518 773.881049 0.001271508
12.16013 787.13129 785.535553 774.234972 0.001270436
12.16893 787.50964 785.521559 774.589621 0.001269826
12.17773 788.0672 785.793693 774.945001 0.001268927
12.18653 788.89276 786.348503 775.301238 0.001267599
12.19534 790.0307 787.197327 775.658213 0.001265774
12.20414 791.26929 788.363708 776.01601 0.001263792
12.21294 792.80164 789.871644 776.37451 0.00126135
12.22174 795.40894 791.740939 776.733877 0.001257215
12.23055 796.64441 793.968239 777.093991 0.001255265
12.23935 797.38885 796.516666 777.454852 0.001254093
12.24815 799.77502 799.295825 777.816583 0.001250352
12.25695 801.62494 802.132401 778.179061 0.001247466
12.26575 803.53259 804.752126 778.542326 0.001244505
12.27456 804.95398 806.789157 778.906378 0.001242307
12.28336 805.71423 807.891566 779.271256 0.001241135
12.29216 805.72357 807.896 779.636832 0.00124112
12.30096 805.01764 806.937412 780.003229 0.001242209
12.30977 803.58649 805.368342 780.370444 0.001244421
12.31857 802.42139 803.585108 780.738388 0.001246228
12.32737 801.22028 801.90568 781.107101 0.001248096
12.33617 800.42072 800.546708 781.476576 0.001249343
12.34497 800.29529 799.639152 781.84685 0.001249539
12.35378 800.4519 799.252476 782.217791 0.001249294
12.36258 800.64459 799.40677 782.589519 0.001248994
12.37138 801.08801 800.081416 782.962028 0.001248302
12.38018 802.12817 801.216529 783.335182 0.001246684
12.38898 803.51947 802.711853 783.709144 0.001244525
12.39779 805.86511 804.414481 784.083777 0.001240902
12.40659 808.63263 806.108913 784.459116 0.001236656
12.41539 811.61603 807.52358 784.835151 0.00123211
12.42419 814.27209 808.386073 785.211872 0.001228091
12.43299 815.41876 808.538786 785.589269 0.001226364
12.44180 813.93835 808.022123 785.967331 0.001228594
12.45060 810.3241 807.039732 786.34609 0.001234074
12.45940 806.73895 805.844409 786.725449 0.001239558
12.46820 804.89362 804.644595 787.105437 0.0012424
12.47701 803.56311 803.579514 787.486043 0.001244457
12.48581 802.58484 802.728336 787.867254 0.001245974
12.49461 801.63251 802.127252 788.249056 0.001247454
12.50341 801.28784 801.784929 788.631436 0.001247991
12.51221 801.20795 801.691631 789.014423 0.001248115
12.52102 801.57379 801.828792 789.397871 0.001247546
12.52982 801.93896 802.175363 789.781941 0.001246978
12.53862 802.23755 802.713767 790.166485 0.001246514
12.54742 804.06 803.434568 790.551489 0.001243688
12.55622 805.75336 804.339782 790.937066 0.001241075
12.56503 806.57574 805.444266 791.32307 0.001239809
12.57383 807.02026 806.777562 791.709572 0.001239126
12.58263 809.3045 808.382679 792.096422 0.001235629
12.59143 812.77203 810.316427 792.483779 0.001230357
12.60023 816.59503 812.643347 792.871494 0.001224597
12.60904 820.3501 815.429762 793.259547 0.001218992
12.61784 824.1076 818.733986 793.648054 0.001213434
12.62664 828.35962 822.590337 794.036863 0.001207205
12.63544 832.84711 827.000611 794.425999 0.001200701
12.64424 838.76733 831.931287 794.815443 0.001192226
12.65305 845.46167 837.309476 795.205221 0.001182786
12.66185 852.49707 843.003463 795.595179 0.001173025
12.67065 858.91516 848.778692 795.985431 0.001164259
12.67945 864.73535 854.259488 796.375956 0.001156423
12.68826 870.08197 858.992877 796.766646 0.001149317
12.69706 871.76526 862.662441 797.157524 0.001147098
12.70586 871.96954 865.33919 797.54857 0.001146829
12.71466 871.64203 867.530848 797.939807 0.00114726
12.72346 872.97638 869.965038 798.331081 0.001145506
12.73227 875.54474 873.308271 798.722505 0.001142146
12.74107 880.03235 878.004672 799.114056 0.001136322
12.74987 886.21979 884.220746 799.50558 0.001128388
12.75867 894.86151 891.866441 799.897234 0.001117491
12.76747 902.96545 900.621186 800.288862 0.001107462
12.77628 912.17181 909.986908 800.680486 0.001096285
12.78508 920.08154 919.330235 801.072087 0.00108686
12.79388 927.26843 927.931851 801.46364 0.001078436
12.80268 934.8056 935.23069 801.855169 0.001069741
12.81148 941.19305 941.230438 802.246519 0.001062481
12.82029 946.66687 946.733279 802.637845 0.001056338
12.82909 951.37524 953.062137 803.028991 0.00105111
12.83789 956.97955 961.510769 803.419982 0.001044954
12.84669 966.09039 972.916775 803.810793 0.0010351
12.85550 978.80115 987.439211 804.201403 0.001021658
12.86430 995.03961 1004.4316 804.591791 0.001004985
12.87310 1016.1017 1022.382766 804.981934 0.000984153
12.88190 1040.1274 1039.037826 805.371855 0.000961421
12.89070 1062.4987 1052.033718 805.761399 0.000941178
12.89951 1081.0607 1059.864796 806.150721 0.000925017
12.90831 1078.6902 1062.369475 806.539667 0.00092705
12.91711 1069.2064 1060.201454 806.92826 0.000935273
12.92591 1055.6951 1053.855357 807.316478 0.000947243
12.93472 1041.0114 1043.322156 807.704299 0.000960604
12.94352 1024.8774 1028.66772 808.091747 0.000975726
12.95232 1007.4893 1010.789546 808.478669 0.000992566
12.96112 986.27472 991.4653 808.865219 0.001013916
12.96992 967.92603 972.731128 809.251246 0.001033137
12.97873 952.16602 956.231725 809.636728 0.001050237
12.98753 940.92816 942.966028 810.021777 0.00106278
12.99633 933.55206 933.342884 810.406241 0.001071178
13.00513 932.17371 927.285087 810.790144 0.001072761
13.01393 933.33661 924.313251 811.173466 0.001071425
13.02274 936.57379 923.625587 811.556232 0.001067722
13.03154 938.7309 924.22724 811.938335 0.001065268
13.04034 940.81415 925.140244 812.319756 0.001062909
13.04914 940.50513 925.562105 812.700607 0.001063258
13.05795 938.21167 924.83578 813.08074 0.001065858
13.06675 933.3299 922.351052 813.460179 0.001071433
13.07555 927.51263 917.638753 813.838906 0.001078152
13.08435 920.2323 910.659258 814.216948 0.001086682
13.09315 910.44806 901.934616 814.594158 0.00109836
13.10196 897.84491 892.324952 814.970648 0.001113778
13.11076 882.27893 882.681545 815.346401 0.001133428
13.11956 869.52466 873.630022 815.721273 0.001150054
13.12836 860.17548 865.535645 816.095419 0.001162553
13.13716 853.1814 858.565004 816.468696 0.001172084
13.14597 846.55658 852.745278 816.841173 0.001181256
13.15477 840.80591 848.015398 817.212708 0.001189335
13.16357 836.44556 844.259583 817.583415 0.001195535
13.17237 834.35699 841.337787 817.953279 0.001198528
13.18117 834.19025 839.103223 818.32216 0.001198767
13.18998 835.31537 837.416693 818.690213 0.001197153
13.19878 839.22546 836.157158 819.0573 0.001191575
13.20758 842.72656 835.225004 819.42345 0.001186625
13.21638 842.27899 834.542143 819.788652 0.001187255
13.22518 837.66229 834.050635 820.152894 0.001193799
13.23399 833.32141 833.709173 820.516165 0.001200017
13.24279 829.92908 833.489262 820.878455 0.001204922
13.25159 829.95886 833.372896 821.239795 0.001204879
13.26039 830.59357 833.349805 821.600092 0.001203958
13.26920 829.87323 833.416527 821.959379 0.001205003
13.27800 828.93182 833.575738 822.317647 0.001206372
13.28680 830.27478 833.836427 822.674889 0.001204421
13.29560 830.29449 834.214451 823.031096 0.001204392
13.30440 830.57098 834.732929 823.386261 0.001203991
13.31321 830.88928 835.422241 823.740418 0.00120353
13.32201 831.28583 836.318566 824.093439 0.001202956
13.33081 831.59442 837.462076 824.445481 0.001202509
13.33961 832.76764 838.891684 824.796417 0.001200815
13.34841 834.5285 840.639701 825.146243 0.001198281
13.35722 835.79657 842.72588 825.495074 0.001196463
13.36602 837.8172 845.147411 825.842788 0.001193578
13.37482 839.96967 847.868451 826.189459 0.001190519
13.38362 841.65918 850.802326 826.534969 0.001188129
13.39243 842.42365 853.791238 826.87947 0.001187051
13.40123 843.6485 856.582968 827.222846 0.001185328
13.41003 845.4837 858.837588 827.565094 0.001182755
13.41883 846.58893 860.197724 827.906331 0.001181211
13.42763 848.00958 860.425805 828.24644 0.001179232
13.43644 848.96881 859.530331 828.585461 0.0011779
13.44524 849.03809 857.75946 828.923394 0.001177803
13.45404 847.54877 855.472501 829.260281 0.001179873
13.46284 846.37292 853.002913 829.596007 0.001181512
13.47164 844.61902 850.592285 829.930691 0.001183966
13.48045 843.14368 848.389858 830.264336 0.001186037
13.48925 842.30865 846.472785 830.596831 0.001187213
13.49805 840.73932 844.86916 830.928331 0.001189429
13.50685 839.45221 843.577517 831.25873 0.001191253
13.51566 838.85608 842.577839 831.588107 0.0011921
13.52446 838.56732 841.838865 831.916355 0.00119251
13.53326 838.77222 841.322767 832.243594 0.001192219
13.54206 839.15546 840.990396 832.56983 0.001191674
13.55086 837.95673 840.804819 832.894959 0.001193379
13.55967 836.76111 840.734154 833.219137 0.001195084
13.56847 837.24884 840.752699 833.542261 0.001194388
13.57727 837.65057 840.840077 833.864379 0.001193815
13.58607 836.95648 840.983047 834.185499 0.001194805
13.59487 836.45001 841.170597 834.505631 0.001195529
13.60368 836.78149 841.395805 834.824785 0.001195055
13.61248 837.10126 841.654425 835.142974 0.001194599
13.62128 836.75574 841.944522 835.460243 0.001195092
13.63008 836.32062 842.266104 835.776534 0.001195714
13.63889 836.26672 842.621162 836.091894 0.001195791
13.64769 837.10962 843.013523 836.406337 0.001194587
13.65649 837.61633 843.448795 836.719875 0.001193864
13.66529 838.26685 843.934018 837.032524 0.001192938
13.67409 838.90247 844.477323 837.344297 0.001192034
13.68290 839.11322 845.086984 837.655243 0.001191734
13.69170 839.17346 845.770196 837.965274 0.001191649
13.70050 839.62402 846.532284 838.274545 0.001191009
13.70930 841.03021 847.373894 838.582966 0.001189018
13.71810 842.12646 848.290012 838.890556 0.00118747
13.72691 842.9632 849.266806 839.197435 0.001186291
13.73571 843.53015 850.277429 839.503515 0.001185494
13.74451 844.91376 851.278767 839.808886 0.001183553
13.75331 845.53101 852.210462 840.11346 0.001182689
13.76211 846.48663 853.005301 840.417394 0.001181354
13.77092 847.40759 853.611196 840.720605 0.00118007
13.77972 848.1571 854.018634 841.023112 0.001179027
13.78852 848.09735 854.267786 841.325036 0.00117911
13.79732 847.57739 854.430379 841.626297 0.001179833
13.80612 847.80042 854.583648 841.926947 0.001179523
13.81493 848.72455 854.794143 842.227009 0.001178239
13.82373 849.41553 855.115289 842.526537 0.00117728
13.83253 850.37817 855.592206 842.825451 0.001175947
13.84133 851.3006 856.268987 843.123874 0.001174673
13.85014 853.34015 857.19477 843.421829 0.001171866
13.85894 855.89935 858.429986 843.71927 0.001168362
13.86774 859.53363 860.05096 844.016253 0.001163422
13.87654 863.04578 862.153007 844.312803 0.001158687
13.88534 867.1109 864.851729 844.608974 0.001153255
13.89415 871.90308 868.274977 844.904691 0.001146916
13.90295 878.0943 872.560133 845.200078 0.00113883
13.91175 883.9397 877.832355 845.495158 0.001131299
13.92055 890.34973 884.186774 845.789856 0.001123154
13.92935 897.92639 891.667529 846.084329 0.001113677
13.93816 905.58429 900.226357 846.378502 0.001104259
13.94696 913.84644 909.697519 846.672434 0.001094276
13.95576 920.86969 919.731928 846.966149 0.00108593
13.96456 926.5083 929.742144 847.259672 0.001079321
13.97337 931.95105 938.843607 847.553062 0.001073018
13.98217 937.20435 945.907702 847.846245 0.001067003
13.99097 940.89227 949.817024 848.13938 0.001062821
13.99977 944.40485 949.890068 848.432392 0.001058868
14.00857 944.9975 946.230568 848.725341 0.001058204
14.01738 943.08734 939.672617 849.018252 0.001060347
14.02618 936.83032 931.380398 849.311152 0.001067429
14.03498 926.39716 922.44842 849.604068 0.001079451
14.04378 913.31903 913.701326 849.897024 0.001094908
14.05259 901.94537 905.673027 850.190081 0.001108715
14.06139 893.81042 898.680819 850.483166 0.001118805
14.07019 888.58063 892.868549 850.776437 0.00112539
14.07899 885.29895 888.27991 851.069822 0.001129562
14.08779 883.64575 884.878693 851.363381 0.001131675
14.09660 882.90961 882.591502 851.657139 0.001132619
14.10540 882.48767 881.333663 851.951123 0.00113316
14.11420 882.86591 881.034817 852.245393 0.001132675
14.12300 883.64008 881.661822 852.539875 0.001131682
14.13180 885.33588 883.219918 852.83473 0.001129515
14.14061 887.20941 885.745769 853.129882 0.00112713
14.14941 890.03259 889.288117 853.425359 0.001123554
14.15821 894.20514 893.887992 853.721287 0.001118312
14.16701 898.66895 899.552738 854.017592 0.001112757
14.17581 902.97693 906.22965 854.314332 0.001107448
14.18462 907.81512 913.774953 854.611535 0.001101546
14.19342 913.67932 921.910091 854.909259 0.001094476
14.20222 921.50293 930.169633 855.207462 0.001085184
14.21102 929.31445 937.870234 855.50617 0.001076062
14.21983 937.36285 944.140981 855.805509 0.001066823
14.22863 946.04272 948.079754 856.105404 0.001057035
14.23743 952.11182 949.042855 856.405912 0.001050297
14.24623 953.73584 946.914332 856.707059 0.001048508
14.25503 947.75897 942.161404 857.008869 0.001055121
14.26384 938.40747 935.632949 857.311366 0.001065635
14.27264 929.12762 928.251752 857.614575 0.001076278
14.28144 920.2312 920.796974 857.918554 0.001086683
14.29024 912.7572 913.8312 858.223222 0.001095582
14.29904 907.38074 907.718662 858.528742 0.001102073
14.30785 903.65576 902.683118 858.835032 0.001106616
14.31665 900.62897 898.847509 859.14215 0.001110335
14.32545 899.53503 896.27093 859.450118 0.001111685
14.33425 898.9032 894.974604 859.758959 0.001112467
14.34305 898.91675 894.957421 860.06873 0.00111245
14.35186 899.8075 896.200037 860.379346 0.001111349
14.36066 902.16351 898.690067 860.69097 0.001108447
14.36946 905.81049 902.384337 861.003517 0.001103984
14.37826 910.66205 907.219462 861.317042 0.001098102
14.38706 915.86279 913.08699 861.631565 0.001091867
14.39587 921.3952 919.810444 861.947107 0.001085311
14.40467 928.17798 927.102952 862.263687 0.00107738
14.41347 934.37732 934.527298 862.581323 0.001070231
14.42227 940.03241 941.457241 862.900071 0.001063793
14.43108 945.72571 947.110268 863.219875 0.001057389
14.43988 950.46594 950.710309 863.540792 0.001052116
14.44868 953.62 951.770699 863.862836 0.001048636
14.45748 955.1972 950.333864 864.186026 0.001046904
14.46628 954.78064 946.967241 864.510378 0.001047361
14.47509 952.41071 942.509983 864.835908 0.001049967
14.48389 950.47858 937.788147 865.162668 0.001052102
14.49269 947.35608 933.44235 865.490562 0.001055569
14.50149 946.10107 929.887421 865.819754 0.00105697
14.51029 944.18359 927.339493 866.150145 0.001059116
14.51910 941.20343 925.83257 866.481749 0.00106247
14.52790 938.3855 925.246398 866.814693 0.00106566
14.53670 938.10114 925.317714 867.148875 0.001065983
14.54550 938.07263 925.693096 867.484346 0.001066016
14.55430 937.19006 926.023646 867.821117 0.001067019
14.56311 935.3504 926.080935 868.159199 0.001069118
14.57191 932.95105 925.821067 868.498642 0.001071868
14.58071 931.05518 925.332228 868.839338 0.00107405
14.58951 928.58069 924.717943 869.181454 0.001076912
14.59832 925.63843 923.992748 869.524881 0.001080335
14.60712 921.89178 923.04799 869.869666 0.001084726
14.61592 918.88275 921.689885 870.215817 0.001088278
14.62472 916.89258 919.746374 870.563342 0.00109064
14.63352 915.52814 917.174485 870.912246 0.001092266
14.64233 912.96082 914.102082 871.262537 0.001095337
14.65113 911.79932 910.769775 871.61426 0.001096733
14.65993 909.03381 907.437535 871.967299 0.001100069
14.66873 907.27087 904.312064 872.32182 0.001102207
14.67754 905.14868 901.530217 872.677705 0.001104791
14.68634 903.65228 899.165872 873.034998 0.00110662
14.69514 901.75854 897.245511 873.393702 0.001108944
14.70394 901.05115 895.764576 873.753818 0.001109815
14.71274 901.0155 894.694538 874.115389 0.001109859
14.72155 900.02179 893.991441 874.478293 0.001111084
14.73035 899.17377 893.595532 874.842695 0.001112132
14.73915 898.46759 893.444744 875.208469 0.001113006
14.74795 898.92261 893.466232 875.575658 0.001112443
14.75675 898.50031 893.5938 875.944258 0.001112966
14.76556 898.5296 893.778775 876.314268 0.001112929
14.77436 898.24036 894.000003 876.685685 0.001113288
14.78316 898.58441 894.265427 877.058505 0.001112862
14.79196 898.86237 894.60342 877.432768 0.001112517
14.80077 899.89813 895.052103 877.808382 0.001111237
14.80957 901.17908 895.653362 878.185344 0.001109657
14.81837 902.10614 896.452134 878.563774 0.001108517
14.82717 902.75128 897.488398 878.943539 0.001107725
14.83597 904.14655 898.833222 879.324674 0.001106015
14.84478 906.20093 900.539177 879.707171 0.001103508
14.85358 908.33252 902.672216 880.091066 0.001100918
14.86238 910.4245 905.300167 880.476219 0.001098389
14.87118 913.9339 908.490105 880.86275 0.001094171
14.87998 917.43048 912.299662 881.250652 0.001090001
14.88879 921.48682 916.769823 881.639779 0.001085203
14.89759 926.7757 921.917664 882.030299 0.00107901
14.90639 933.36255 927.718911 882.422066 0.001071395
14.91519 939.65192 934.092653 882.815156 0.001064224
14.92399 946.71991 940.872884 883.209423 0.001056279
14.93280 955.27734 947.788544 883.604987 0.001046816
14.94160 964.60846 954.449313 884.001834 0.00103669
14.95040 976.09949 960.399553 884.399813 0.001024486
14.95920 988.22925 965.250626 884.799091 0.001011911
14.96800 998.10297 968.837897 885.199515 0.001001901
14.97681 1000.7914 971.304523 885.601114 0.000999209
14.98561 995.99933 973.004385 886.003871 0.001004017
14.99441 988.76624 974.368565 886.407768 0.001011361
15.00321 982.10254 975.661052 886.812787 0.001018224
15.01201 978.73499 976.93797 887.21891 0.001021727
15.02082 978.23871 978.030861 887.626162 0.001022245
15.02962 979.62341 978.617626 888.034433 0.0010208
15.03842 981.80878 978.388252 888.443747 0.001018528
15.04722 982.46368 977.230473 888.854084 0.001017849
15.05603 981.22217 975.356634 889.265422 0.001019137
15.06483 978.47174 973.265869 889.677739 0.001022002
15.07363 976.84082 971.593251 890.091014 0.001023708
15.08243 976.19879 970.972763 890.505269 0.001024382
15.09123 977.83197 971.954096 890.920341 0.001022671
15.10004 980.64136 974.988879 891.336394 0.001019741
15.10884 985.96625 980.43 891.753261 0.001014233
15.11764 993.4967 988.530453 892.170918 0.001006546
15.12644 1003.8702 999.433076 892.589483 0.000996145
15.13524 1014.8977 1013.12586 893.008786 0.000985321
15.14405 1027.6499 1029.425674 893.428896 0.000973094
15.15285 1041.4594 1047.887898 893.849644 0.000960191
15.16165 1056.6095 1067.770705 894.271194 0.000946423
15.17045 1072.7131 1087.885878 894.693375 0.000932216
15.17925 1087.0065 1106.606293 895.116158 0.000919958
15.18806 1099.351 1121.884138 895.53966 0.000909628
15.19686 1112.942 1131.586837 895.963707 0.000898519
15.20566 1123.5857 1134.126148 896.388318 0.000890008
15.21446 1131.0602 1129.039824 896.813464 0.000884126
15.22327 1127.7251 1117.187164 897.239163 0.000886741
15.23207 1112.7847 1100.378141 897.665241 0.000898646
15.24087 1088.8064 1080.695059 898.09181 0.000918437
15.24967 1066.7335 1059.969231 898.518842 0.000937441
15.25848 1041.3441 1039.583426 898.946206 0.000960297
15.26728 1020.6343 1020.446735 899.373921 0.000979783
15.27608 1002.2596 1003.115888 899.801955 0.000997745
15.28488 985.67004 987.879972 900.230323 0.001014538
15.29368 972.15863 974.830971 900.658847 0.001028639
15.30249 961.83167 963.910318 901.087641 0.001039683
15.31129 953.79651 954.957862 901.516672 0.001048442
15.32009 947.05493 947.756436 901.94576 0.001055905
15.32889 941.36115 942.049214 902.375066 0.001062292
15.33769 936.33972 937.585519 902.80441 0.001067988
15.34650 932.30847 934.127968 903.233808 0.001072606
15.35530 929.59491 931.466855 903.663225 0.001075737
15.36410 927.65063 929.425074 904.092626 0.001077992
15.37290 925.56671 927.866829 904.522026 0.001080419
15.38170 924.224 926.680074 904.951244 0.001081989
15.39051 923.09955 925.781044 905.380439 0.001083307
15.39931 921.81299 925.107822 905.80943 0.001084819
15.40811 921.54816 924.615758 906.238231 0.00108513
15.41691 920.78882 924.271721 906.666806 0.001086025
15.42572 919.78113 924.052407 907.09512 0.001087215
15.43452 919.75311 923.940897 907.523137 0.001087248
15.44332 920.05231 923.925349 907.95082 0.001086895
15.45212 919.82208 923.997831 908.378184 0.001087167
15.46092 919.83667 924.153246 908.805046 0.00108715
15.46973 921.08014 924.389625 909.231564 0.001085682
15.47853 921.63507 924.707577 909.657557 0.001085028
15.48733 922.53345 925.110871 910.083037 0.001083972
15.49613 923.20361 925.606675 910.507968 0.001083185
15.50493 923.43988 926.205944 910.932314 0.001082908
15.51374 924.38721 926.924285 911.356086 0.001081798
15.52254 926.94067 927.781454 911.779104 0.001078818
15.53134 928.49646 928.802826 912.201525 0.00107701
15.54014 929.80292 930.017905 912.623167 0.001075497
15.54894 931.29834 931.460132 913.043995 0.00107377
15.55775 933.96106 933.166937 913.464116 0.001070708
15.56655 936.60773 935.17529 913.883352 0.001067683
15.57535 939.49249 937.522395 914.301712 0.001064404
15.58415 942.78717 940.241206 914.719163 0.001060685
15.59296 945.86975 943.356942 915.135714 0.001057228
15.60176 949.19153 946.88105 915.55119 0.001053528
15.61056 953.284 950.804952 915.965694 0.001049005
15.61936 958.51532 955.088186 916.379193 0.00104328
15.62816 963.86841 959.644612 916.791557 0.001037486
15.63697 968.84229 964.344311 917.202797 0.00103216
15.64577 973.87305 969.025488 917.612878 0.001026828
15.65457 979.10657 973.539478 918.021813 0.001021339
15.66337 983.79242 977.805686 918.429426 0.001016475
15.67217 988.70892 981.843599 918.835823 0.00101142
15.68098 992.65131 985.745846 919.240969 0.001007403
15.68978 995.9165 989.602196 919.644692 0.0010041
15.69858 998.89423 993.426788 920.047141 0.001001107
15.70738 1003.456 997.101774 920.448146 0.000996556
15.71618 1007.8853 1000.380579 920.847719 0.000992176
15.72499 1011.6571 1002.950347 921.245826 0.000988477
15.73379 1014.3282 1004.542523 921.642435 0.000985874
15.74259 1015.4404 1005.047569 922.037558 0.000984794
15.75139 1012.9265 1004.559509 922.431028 0.000987238
15.76020 1009.7001 1003.337502 922.822992 0.000990393
15.76900 1005.1746 1001.727416 923.213284 0.000994852
15.77780 1000.959 1000.096266 923.601917 0.000999042
15.78660 997.01184 998.78229 923.98886 0.001002997
15.79540 994.46338 998.058483 924.374083 0.001005567
15.80421 992.40448 998.096951 924.757554 0.001007654
15.81301 992.12115 998.954864 925.139244 0.001007941
15.82181 992.77545 1000.565976 925.519166 0.001007277
15.83061 994.88782 1002.742197 925.897161 0.001005138
15.83942 998.40698 1005.186431 926.273372 0.001001596
15.84822 1001.7367 1007.517981 926.647642 0.000998266
15.85702 1004.6768 1009.342562 927.019985 0.000995345
15.86582 1006.8526 1010.351723 927.390373 0.000993194
15.87462 1008.5074 1010.429245 927.758779 0.000991564
15.88343 1008.5125 1009.699935 928.125217 0.000991559
15.89223 1007.6997 1008.499115 928.489536 0.000992359
15.90103 1004.5353 1007.275032 928.851875 0.000995485
15.90983 1001.33 1006.476519 929.212085 0.000998672
15.91863 999.54846 1006.476385 929.570141 0.001000452
15.92744 999.83307 1007.527213 929.926139 0.001000167
15.93624 1001.3524 1009.754303 930.279933 0.000998649
15.94504 1004.5154 1013.152221 930.63154 0.000995505
15.95384 1009.7294 1017.575712 930.980937 0.000990364
15.96265 1017.7368 1022.731705 931.328139 0.000982572
15.97145 1026.042 1028.145683 931.673045 0.000974619
15.98025 1035.5068 1033.176118 932.015634 0.000965711
15.98905 1046.1442 1037.061635 932.355999 0.000955891
15.99785 1057.6698 1039.071007 932.694005 0.000945475
16.00665 1066.8455 1038.721413 933.029668 0.000937343
16.01546 1070.5392 1035.951941 933.362969 0.000934109
16.02426 1067.139 1031.132228 933.693925 0.000937085
16.03306 1059.1396 1024.907561 934.022442 0.000944163
16.04186 1047.7965 1017.975992 934.34854 0.000954384
16.05066 1034.1786 1010.943623 934.672162 0.000966951
16.05947 1020.0046 1004.25811 934.993366 0.000980388
16.06827 1007.5272 998.212833 935.312134 0.000992529
16.07707 998.23859 992.97926 935.628376 0.001001765
16.08588 990.56335 988.622913 935.942148 0.001009527
16.09468 984.49005 985.143022 936.253364 0.001015754
16.10348 979.50226 982.487211 936.561974 0.001020927
16.11228 976.2196 980.57888 936.868139 0.00102436
16.12108 973.98547 979.334572 937.171706 0.001026709
16.12989 973.16278 978.658446 937.472729 0.001027577
16.13869 970.48486 978.441499 937.771129 0.001030413
16.14749 968.88324 978.548355 938.06696 0.001032116
16.15629 967.64044 978.824576 938.360143 0.001033442
16.16509 967.17249 979.112841 938.650637 0.001033942
16.17390 967.11749 979.292656 938.938594 0.001034001
16.18270 967.45184 979.317788 939.223873 0.001033643
16.19150 966.41119 979.231642 939.506529 0.001034756
16.20030 965.0556 979.148574 939.78649 0.00103621
16.20911 964.57074 979.211481 940.063811 0.001036731
16.21790 963.83746 979.553147 940.338359 0.001037519
16.22671 963.539 980.272981 940.610283 0.001037841
16.23551 963.93878 981.427461 940.879545 0.00103741
16.24431 965.26532 983.026365 941.146076 0.001035985
16.25312 966.97467 985.030015 941.409934 0.001034153
16.26192 968.2085 987.343626 941.671052 0.001032835
16.27072 970.15314 989.819618 941.929486 0.001030765
16.27952 972.90021 992.270557 942.185115 0.001027855
16.28832 975.71069 994.511367 942.438081 0.001024894
16.29713 978.66815 996.407335 942.688353 0.001021797
16.30593 981.06824 997.910006 942.935871 0.001019297
16.31473 982.62799 999.05212 943.18069 0.001017679
16.32353 983.45038 999.89227 943.422753 0.001016828
16.33233 982.90259 1000.459739 943.662061 0.001017395
16.34114 981.7641 1000.718346 943.898668 0.001018575
16.34994 981.93634 1000.576707 944.132548 0.001018396
16.35874 982.60876 999.939501 944.363727 0.001017699
16.36754 982.53223 998.766155 944.592155 0.001017778
16.37635 981.21716 997.109914 944.817887 0.001019142
16.38515 979.48834 995.109932 945.040873 0.001020941
16.39395 978.27502 992.949681 945.261118 0.001022207
16.40275 977.77466 990.809414 945.478676 0.001022731
16.41155 976.95105 988.833143 945.693526 0.001023593
16.42036 976.07544 987.111468 945.905697 0.001024511
16.42916 975.56274 985.680391 946.115146 0.001025049
16.43796 976.07983 984.524797 946.321927 0.001024506
16.44676 976.47607 983.593144 946.525952 0.001024091
16.45556 977.20636 982.815633 946.727369 0.001023325
16.46437 978.17554 982.133858 946.926091 0.001022311
16.47317 979.80774 981.526002 947.12215 0.001020608
16.48197 980.01129 981.017679 947.315576 0.001020396
16.49077 978.82568 980.674912 947.506334 0.001021632
16.49958 977.69751 980.580755 947.694477 0.001022811
16.50838 977.55847 980.817983 947.879929 0.001022957
16.51718 978.39886 981.456572 948.062828 0.001022078
16.52598 979.71411 982.54891 948.2431 0.001020706
16.53478 981.28076 984.132079 948.420777 0.001019076
16.54359 983.39899 986.224272 948.595891 0.001016881
16.55239 986.65582 988.82545 948.768414 0.001013525
16.56119 991.13324 991.910791 948.938359 0.001008946
16.56999 996.3299 995.42597 949.105777 0.001003684
16.57879 1000.1951 999.277302 949.270682 0.000999805
16.58760 1003.9208 1003.319476 949.433049 0.000996095
16.59640 1008.3962 1007.364345 949.592911 0.000991674
16.60520 1013.158 1011.197443 949.750301 0.000987013
16.61400 1017.2827 1014.630926 949.905197 0.000983011
16.62280 1021.2004 1017.563882 950.057617 0.00097924
16.63161 1024.208 1020.021531 950.207609 0.000976364
16.64041 1027.0345 1022.137543 950.35519 0.000973677
16.64921 1028.7178 1024.09095 950.500341 0.000972084
16.65801 1030.2137 1026.035793 950.643098 0.000970672
16.66681 1031.2463 1028.046416 950.783492 0.0009697
16.67562 1033.0344 1030.094024 950.921478 0.000968022
16.68442 1035.7876 1032.057584 951.057167 0.000965449
16.69322 1038.7288 1033.760039 951.190516 0.000962715
16.70202 1040.7347 1035.049634 951.321573 0.00096086
16.71082 1042.5962 1035.887467 951.450327 0.000959144
16.71963 1044.6848 1036.409554 951.576812 0.000957227
16.72843 1047.1021 1036.922607 951.701061 0.000955017
16.73723 1049.7386 1037.836793 951.823037 0.000952618
16.74603 1052.8242 1039.591266 951.942845 0.000949826
16.75483 1055.7606 1042.592077 952.060448 0.000947184
16.76364 1059.6602 1047.180926 952.175893 0.000943699
16.77244 1065.3112 1053.626367 952.289175 0.000938693
16.78124 1070.9606 1062.112361 952.400329 0.000933741
16.79004 1078.5396 1072.729086 952.509361 0.00092718
16.79885 1087.7228 1085.458855 952.61632 0.000919352
16.80765 1100.0989 1100.145957 952.721224 0.000909009
16.81645 1112.9672 1116.45715 952.824073 0.000898499
16.82525 1130.734 1133.858488 952.92491 0.000884381
16.83405 1149.5043 1151.569256 953.023736 0.00086994
16.84286 1169.7358 1168.573541 953.120583 0.000854894
16.85166 1187.1262 1183.687173 953.215464 0.00084237
16.86046 1200.123 1195.713058 953.308423 0.000833248
16.86926 1204.9738 1203.654768 953.399481 0.000829894
16.87806 1206.5031 1206.949001 953.48864 0.000828842
16.88687 1204.738 1205.640523 953.575944 0.000830056
16.89567 1200.2208 1200.413057 953.661395 0.00083318
16.90447 1191.3229 1192.426639 953.745009 0.000839403
16.91327 1179.1814 1183.0205 953.826855 0.000848046
16.92207 1165.0707 1173.452729 953.906918 0.000858317
16.93088 1151.9861 1164.682529 953.985241 0.000868066
16.93968 1142.0977 1157.315383 954.061829 0.000875582
16.94848 1136.1361 1151.583369 954.136722 0.000880176
16.95728 1133.3656 1147.376591 954.209928 0.000882328
16.96608 1132.2657 1144.270259 954.281462 0.000883185
16.97489 1131.4286 1141.597378 954.351389 0.000883838
16.98369 1128.3737 1138.587324 954.419699 0.000886231
16.99249 1125.233 1134.557814 954.486432 0.000888705
17.00129 1119.3502 1129.115481 954.551597 0.000893375
17.01010 1115.0581 1122.244189 954.615231 0.000896814
17.01890 1108.8959 1114.248572 954.677331 0.000901798
17.02770 1103.4419 1105.589944 954.737954 0.000906255
17.03650 1096.7065 1096.757413 954.797118 0.000911821
17.04530 1089.3691 1088.173358 954.854833 0.000917963
17.05411 1080.8254 1080.192034 954.911134 0.000925219
17.06291 1072.8879 1073.039046 954.966033 0.000932064
17.07171 1066.6123 1066.875363 955.01956 0.000937548
17.08051 1060.5599 1061.705928 955.071732 0.000942898
17.08931 1055.2111 1057.427915 955.122584 0.000947678
17.09812 1051.6561 1053.847045 955.17214 0.000950881
17.10692 1048.3533 1050.693917 955.22041 0.000953877
17.11572 1045.7686 1047.668028 955.26743 0.000956234
17.12452 1042.4425 1044.473485 955.313211 0.000959286
17.13333 1039.295 1040.87248 955.357776 0.000962191
17.14213 1035.1289 1036.724972 955.401159 0.000966063
17.15093 1029.9282 1032.017231 955.443376 0.000970941
17.15973 1023.6242 1026.853401 955.484455 0.000976921
17.16853 1017.2242 1021.418934 955.524409 0.000983067
17.17734 1010.3771 1015.92516 955.563269 0.000989729
17.18614 1003.5706 1010.571445 955.601048 0.000996442
17.19494 997.5097 1005.514189 955.637768 0.001002497
17.20374 992.21674 1000.862468 955.67346 0.001007844
17.21254 987.5415 996.684232 955.708141 0.001012616
17.22135 984.11218 993.010913 955.741835 0.001016144
17.23015 981.35785 989.85001 955.774556 0.001018996
17.23895 979.18207 987.186218 955.806333 0.001021261
17.24775 977.04565 984.992135 955.837172 0.001023494
17.25656 974.84729 983.226309 955.867115 0.001025802
17.26536 973.38361 981.841432 955.896168 0.001027344
17.27416 972.98602 980.783484 955.924355 0.001027764
17.28296 972.75726 979.993449 955.951698 0.001028006
17.29177 972.58319 979.409515 955.978212 0.00102819
17.30057 972.09412 978.967369 956.003915 0.001028707
17.30937 971.33716 978.603978 956.028833 0.001029509
17.31817 972.13873 978.262607 956.052984 0.00102866
17.32697 972.13654 977.898382 956.076382 0.001028662
17.33578 971.34088 977.48411 956.099048 0.001029505
17.34458 970.72308 977.012669 956.121002 0.00103016
17.35338 970.37885 976.496734 956.142258 0.001030525
17.36218 970.20148 975.9631 956.162833 0.001030714
17.37098 970.34253 975.445763 956.182749 0.001030564
17.37979 969.7973 974.979414 956.202024 0.001031143
17.38859 969.16394 974.59504 956.220669 0.001031817
17.39739 968.90466 974.318326 956.238704 0.001032093
17.40619 969.30859 974.169613 956.256146 0.001031663
17.41499 970.05151 974.164917 956.273005 0.001030873
17.42380 970.23187 974.316373 956.289306 0.001030681
17.43260 969.86346 974.632693 956.305059 0.001031073
17.44140 969.95313 975.120072 956.320281 0.001030978
17.45020 970.41699 975.781229 956.334984 0.001030485
17.45901 971.3642 976.616552 956.349184 0.00102948
17.46781 972.63599 977.62243 956.362897 0.001028134
17.47661 974.48566 978.790436 956.376131 0.001026182
17.48541 975.96155 980.107401 956.388908 0.001024631
17.49421 977.89404 981.551939 956.401236 0.001022606
17.50302 979.23236 983.09988 956.41313 0.001021208
17.51182 981.59357 984.727681 956.424601 0.001018752
17.52062 983.87659 986.427187 956.435662 0.001016388
17.52942 986.2027 988.215476 956.446324 0.00101399
17.53822 988.05145 990.14228 956.456601 0.001012093
17.54703 990.04883 992.283442 956.466504 0.001010051
17.55583 992.58002 994.722962 956.476043 0.001007475
17.56463 995.30011 997.537947 956.485229 0.001004722
17.57343 997.80884 1000.777807 956.494072 0.001002196
17.58224 1001.4612 1004.457578 956.502583 0.000998541
17.59104 1004.732 1008.544208 956.51077 0.00099529
17.59984 1007.4985 1012.951318 956.518645 0.000992557
17.60864 1010.6964 1017.532041 956.526217 0.000989417
17.61744 1013.6473 1022.076298 956.533493 0.000986536
17.62625 1017.4414 1026.333912 956.540482 0.000982858
17.63505 1021.3824 1030.043226 956.547194 0.000979065
17.64385 1024.7037 1032.975792 956.553633 0.000975892
17.65265 1027.7856 1034.973632 956.559812 0.000972966
17.66145 1030.5525 1035.949519 956.565734 0.000970353
17.67026 1032.6085 1035.880952 956.571409 0.000968421
17.67906 1033.2874 1034.798101 956.576841 0.000967785
17.68786 1032.0984 1032.788946 956.582037 0.0009689
17.69666 1030.0215 1030.009651 956.587004 0.000970854
17.70546 1026.1003 1026.680028 956.591746 0.000974564
17.71427 1022.0088 1023.049254 956.596271 0.000978465
17.72307 1018.0746 1019.361576 956.600583 0.000982246
17.73187 1015.568 1015.811436 956.604686 0.000984671
17.74067 1012.5895 1012.531593 956.608585 0.000987567
17.74948 1009.6511 1009.584685 956.612285 0.000990441
17.75828 1006.6644 1006.978503 956.615788 0.00099338
17.76708 1004.5196 1004.680682 956.6191 0.000995501
17.77588 1003.324 1002.639363 956.622224 0.000996687
17.78468 1002.7236 1000.793278 956.625162 0.000997284
17.79349 1001.838 999.107428 956.627918 0.000998165
17.80229 999.6449 997.53533 956.630493 0.001000355
17.81109 998.96942 996.050319 956.632891 0.001001032
17.81989 998.57483 994.648865 956.635112 0.001001427
17.82869 998.43311 993.355615 956.63716 0.001001569
17.83750 996.4104 992.223493 956.639036 0.001003603
17.84630 994.81805 991.327411 956.64074 0.001005209
17.85510 994.11877 990.748422 956.642274 0.001005916
17.86390 994.24689 990.567929 956.643638 0.001005786
17.87270 995.01282 990.857993 956.644834 0.001005012
17.88151 996.15283 991.681313 956.645861 0.001003862
17.89031 996.99902 993.089845 956.646719 0.00100301
17.89911 997.45715 995.120553 956.647408 0.001002549
17.90791 1000.0287 997.79565 956.647928 0.000999971
17.91672 1003.7315 1001.116105 956.648279 0.000996282
17.92552 1007.8808 1005.058628 956.648458 0.000992181
17.93432 1012.3312 1009.566702 956.648466 0.000987819
17.94312 1017.2465 1014.545034 956.648301 0.000983046
17.95192 1023.075 1019.844817 956.647961 0.000977445
17.96073 1028.3126 1025.261544 956.647445 0.000972467
17.96953 1035.5562 1030.511137 956.646751 0.000965665
17.97833 1041.9956 1035.242728 956.645877 0.000959697
17.98713 1049.9075 1039.061088 956.644822 0.000952465
17.99593 1057.2942 1041.589917 956.643581 0.000945811
18.00474 1063.5771 1042.550475 956.642154 0.000940223
18.01354 1064.9851 1041.85022 956.640536 0.00093898
18.02234 1063.4397 1039.613036 956.638726 0.000940345
18.03114 1056.1698 1036.144081 956.636721 0.000946817
18.03995 1046.882 1031.84583 956.634517 0.000955217
18.04875 1037.0256 1027.130349 956.632111 0.000964296
18.05755 1029.2354 1022.354447 956.629499 0.000971595
18.06635 1022.1301 1017.807169 956.626679 0.000978349
18.07515 1017.5727 1013.697142 956.623645 0.000982731
18.08396 1013.5845 1010.172928 956.620396 0.000986598
18.09276 1011.2294 1007.33001 956.616926 0.000988895
18.10156 1009.5996 1005.224283 956.613232 0.000990492
18.11036 1009.3638 1003.87715 956.60931 0.000990723
18.11916 1009.9332 1003.281319 956.605155 0.000990164
18.12797 1011.5558 1003.406509 956.600763 0.000988576
18.13677 1013.673 1004.196828 956.596131 0.000986511
18.14557 1016.4841 1005.577141 956.591252 0.000983783
18.15437 1018.9908 1007.451818 956.586124 0.000981363
18.16317 1021.6725 1009.716328 956.580742 0.000978787
18.17198 1024.5217 1012.269096 956.575101 0.000976065
18.18078 1027.2625 1015.028899 956.569195 0.000973461
18.18958 1029.3846 1017.948631 956.563022 0.000971454
18.19838 1032.3043 1021.017088 956.556575 0.000968707
18.20719 1035.0688 1024.245954 956.54985 0.000966119
18.21599 1036.8425 1027.647649 956.542845 0.000964467
18.22479 1038.6732 1031.230358 956.535551 0.000962767
18.23359 1040.7374 1034.99387 956.527965 0.000960857
18.24239 1043.725 1038.945418 956.520082 0.000958107
18.25120 1047.0815 1043.107931 956.511896 0.000955035
18.26000 1050.4127 1047.500177 956.503405 0.000952007
18.26880 1054.4832 1052.128465 956.494602 0.000948332
18.27760 1058.0891 1056.922265 956.485486 0.0009451
18.28640 1061.4724 1061.727236 956.476046 0.000942088
18.29521 1064.9441 1066.277696 956.466281 0.000939016
18.30401 1067.8252 1070.213701 956.456187 0.000936483
18.31281 1069.6794 1073.137835 956.445756 0.00093486
18.32161 1070.0961 1074.698311 956.434987 0.000934496
18.33041 1068.7618 1074.700363 956.423876 0.000935662
18.33922 1066.2283 1073.17218 956.412415 0.000937885
18.34802 1063.1302 1070.367131 956.4006 0.000940619
18.35682 1059.3241 1066.69787 956.38843 0.000943998
18.36562 1055.6086 1062.63646 956.375897 0.000947321
18.37443 1052.1108 1058.627088 956.362998 0.00095047
18.38323 1049.3801 1055.03796 956.34973 0.000952944
18.39203 1048.2324 1052.133998 956.33609 0.000953987
18.40083 1047.8954 1050.0797 956.322071 0.000954294
18.40963 1047.8788 1048.946321 956.307669 0.000954309
18.41844 1048.5906 1048.721418 956.292883 0.000953661
18.42724 1050.5103 1049.319367 956.277708 0.000951918
18.43604 1053.1373 1050.592147 956.262138 0.000949544
18.44484 1055.0725 1052.337839 956.246178 0.000947802
18.45364 1056.6134 1054.310563 956.229813 0.00094642
18.46245 1057.8754 1056.229822 956.213048 0.000945291
18.47125 1059.7758 1057.80767 956.195875 0.000943596
18.48005 1061.479 1058.786957 956.178296 0.000942082
18.48885 1061.7157 1058.985552 956.160305 0.000941872
18.49766 1061.4447 1058.311106 956.141898 0.000942112
18.50646 1059.8782 1056.752478 956.123082 0.000943505
18.51526 1056.3995 1054.338293 956.10384 0.000946612
18.52406 1051.7908 1051.113706 956.084179 0.000950759
18.53286 1047.2491 1047.136457 956.064093 0.000954883
18.54167 1042.9205 1042.494267 956.043584 0.000958846
18.55047 1038.6364 1037.321936 956.022648 0.000962801
18.55927 1033.6638 1031.797574 956.001287 0.000967433
18.56807 1027.7466 1026.119586 955.979493 0.000973002
18.57687 1022.3847 1020.47955 955.957266 0.000978105
18.58568 1016.3007 1015.034478 955.934609 0.000983961
18.59448 1011.0089 1009.89348 955.911517 0.000989111
18.60328 1006.4971 1005.121888 955.887993 0.000993545
18.61208 1003.0212 1000.747973 955.864035 0.000996988
18.62088 999.74518 996.778322 955.839644 0.001000255
18.62969 996.39056 993.206346 955.814816 0.001003623
18.63849 993.06354 990.023541 955.78955 0.001006985
18.64729 990.4541 987.219042 955.763852 0.001009638
18.65609 988.7428 984.777758 955.737716 0.001011385
18.66490 987.05664 982.681877 955.711149 0.001013113
18.67370 985.36823 980.908851 955.684152 0.001014849
18.68250 983.68475 979.433558 955.656719 0.001016586
18.69130 981.73352 978.230863 955.628855 0.001018606
18.70010 979.87579 977.276167 955.600557 0.001020538
18.70891 978.46851 976.54718 955.571834 0.001022005
18.71771 978.18964 976.02263 955.54268 0.001022297
18.72651 977.91669 975.682752 955.513105 0.001022582
18.73531 977.54498 975.507232 955.483109 0.001022971
18.74411 977.08118 975.4751 955.452689 0.001023456
18.75292 977.70459 975.563785 955.42185 0.001022804
18.76172 978.42603 975.749052 955.390592 0.00102205
18.77052 978.37646 976.005247 955.358924 0.001022101
18.77932 978.52979 976.304666 955.326842 0.001021941
18.78812 979.09564 976.617206 955.294364 0.001021351
18.79693 979.39105 976.91056 955.261474 0.001021043
18.80573 979.8634 977.151902 955.228181 0.00102055
18.81453 980.13818 977.313568 955.194495 0.001020264
18.82333 980.82733 977.380492 955.160412 0.001019547
18.83214 981.29272 977.356647 955.125944 0.001019064
18.84094 980.78235 977.267086 955.091089 0.001019594
18.84974 980.43628 977.153928 955.055865 0.001019954
18.85854 981.41156 977.068775 955.020258 0.001018941
18.86734 981.53888 977.065317 954.984277 0.001018808
18.87615 981.73138 977.193564 954.947935 0.001018609
18.88495 982.30859 977.497836 954.911228 0.00101801
18.89375 983.37592 978.015656 954.87417 0.001016905
18.90255 983.59418 978.778513 954.836767 0.001016679
18.91135 985.03271 979.812662 954.799016 0.001015195
18.92016 986.5307 981.138417 954.760927 0.001013653
18.92896 987.66095 982.771058 954.722502 0.001012493
18.93776 989.48175 984.718882 954.683755 0.00101063
18.94656 992.67651 986.983169 954.644684 0.001007378
18.95537 995.18799 989.554111 954.605305 0.001004835
18.96417 997.65625 992.409284 954.565624 0.001002349
18.97297 1000.6876 995.512227 954.525638 0.000999313
18.98177 1004.2418 998.809147 954.48536 0.000995776
18.99057 1006.0527 1002.237569 954.444791 0.000993984
18.99938 1008.3904 1005.73364 954.403948 0.000991679
19.00818 1011.4447 1009.253228 954.362829 0.000988685
19.01698 1014.351 1012.780306 954.32146 0.000985852
19.02578 1016.9125 1016.341756 954.27982 0.000983369
19.03458 1020.5264 1019.993132 954.237936 0.000979886
19.04339 1023.8408 1023.804136 954.195811 0.000976714
19.05219 1026.8397 1027.837035 954.153448 0.000973862
19.06099 1031.2129 1032.113086 954.110865 0.000969732
19.06979 1037.2297 1036.602435 954.06806 0.000964107
19.07859 1042.6378 1041.193146 954.02506 0.000959106
19.08740 1047.3337 1045.694887 953.981845 0.000954806
19.09620 1050.7705 1049.827865 953.938442 0.000951683
19.10500 1054.0421 1053.247393 953.894856 0.000948729
19.11380 1056.4829 1055.594698 953.851089 0.000946537
19.12261 1059.0253 1056.563984 953.80716 0.000944265
19.13141 1060.4197 1055.988851 953.763078 0.000943023
19.14021 1061.3391 1053.886123 953.718841 0.000942206
19.14901 1058.5039 1050.452793 953.674459 0.00094473
19.15781 1051.6904 1046.007651 953.62995 0.00095085
19.16662 1043.9049 1040.914524 953.585318 0.000957942
19.17542 1037.381 1035.50745 953.540566 0.000963966
19.18422 1030.9063 1030.061381 953.495714 0.00097002
19.19302 1025.322 1024.770501 953.450772 0.000975303
19.20182 1019.6089 1019.761008 953.405736 0.000980768
19.21063 1015.0635 1015.108141 953.360618 0.00098516
19.21943 1011.1595 1010.852918 953.315435 0.000988964
19.22823 1008.1147 1007.017953 953.270193 0.000991951
19.23703 1004.9514 1003.61194 953.224893 0.000995073
19.24583 1002.0104 1000.635786 953.179568 0.000997994
19.25464 1000.738 998.068512 953.134193 0.000999263
19.26344 1000.5099 995.869975 953.0888 0.00099949
19.27224 999.66071 993.9748 953.043386 0.001000339
19.28104 998.71967 992.2968 952.997972 0.001001282
19.28985 997.06183 990.73854 952.95256 0.001002947
19.29865 995.55371 989.205026 952.907155 0.001004466
19.30745 993.47192 987.623586 952.861785 0.001006571
19.31625 991.99585 985.952341 952.81643 0.001008069
19.32505 989.79529 984.187609 952.771118 0.00101031
19.33386 987.9856 982.35484 952.725847 0.001012161
19.34266 984.2522 980.495944 952.680637 0.001016
19.35146 981.62408 978.656078 952.63549 0.00101872
19.36026 978.93689 976.87469 952.590421 0.001021516
19.36906 977.1684 975.180776 952.545428 0.001023365
19.37787 974.61163 973.594612 952.500518 0.00102605
19.38667 972.29803 972.128355 952.455711 0.001028491
19.39547 971.25323 970.78885 952.411004 0.001029598
19.40427 970.7796 969.579762 952.366415 0.0010301
19.41307 969.98083 968.503046 952.321958 0.001030948
19.42188 969.26788 967.558384 952.277614 0.001031707
19.43068 968.67145 966.745118 952.233412 0.001032342
19.43948 967.86932 966.061255 952.189349 0.001033197
19.44828 966.87531 965.504224 952.145442 0.00103426
19.45709 965.99274 965.071369 952.101689 0.001035204
19.46589 966.4043 964.760594 952.058106 0.001034764
19.47469 966.8045 964.570783 952.014706 0.001034335
19.48349 967.23938 964.501905 951.971471 0.00103387
19.49229 967.30377 964.555341 951.928426 0.001033801
19.50110 966.87195 964.733403 951.885569 0.001034263
19.50990 966.82263 965.039041 951.842916 0.001034316
19.51870 967.24829 965.475214 951.800463 0.001033861
19.52750 967.57568 966.044038 951.758235 0.001033511
19.53630 968.37683 966.746597 951.716214 0.001032656
19.54511 969.55359 967.581113 951.674411 0.001031403
19.55391 970.54517 968.542623 951.63284 0.001030349
19.56271 971.80206 969.621799 951.591497 0.001029016
19.57151 973.26959 970.803757 951.550396 0.001027465
19.58032 974.36322 972.066471 951.509533 0.001026311
19.58912 976.05676 973.378362 951.468931 0.001024531
19.59792 977.49976 974.697636 951.428571 0.001023018
19.60672 979.29175 975.968606 951.388462 0.001021146
19.61552 981.17029 977.124013 951.348617 0.001019191
19.62433 982.91138 978.089574 951.309031 0.001017386
19.63313 984.57483 978.793823 951.269716 0.001015667
19.64193 986.15051 979.181689 951.230675 0.001014044
19.65073 986.07629 979.227802 951.191902 0.00101412
19.65953 985.41534 978.943095 951.153405 0.001014801
19.66834 983.21405 978.373411 951.115182 0.001017073
19.67714 980.96899 977.588974 951.077243 0.0010194
19.68594 978.63153 976.670747 951.039583 0.001021835
19.69474 977.01459 975.697464 951.002211 0.001023526
19.70354 975.94904 974.738105 950.965129 0.001024644
19.71235 975.38531 973.847187 950.92833 0.001025236
19.72115 974.87567 973.065744 950.891819 0.001025772
19.72995 974.01056 972.422181 950.855592 0.001026683
19.73875 972.96991 971.933523 950.819659 0.001027781
19.74756 972.89929 971.607677 950.784012 0.001027856
19.75636 972.56787 971.443699 950.748667 0.001028206
19.76516 972.87701 971.433553 950.713598 0.001027879
19.77396 973.59991 971.563145 950.678823 0.001027116
19.78276 973.25055 971.81454 950.644335 0.001027485
19.79157 972.38116 972.168956 950.610131 0.001028403
19.80037 972.77258 972.611282 950.576216 0.00102799
19.80917 973.43823 973.131927 950.542582 0.001027287
19.81797 973.39752 973.729043 950.509241 0.00102733
19.82678 973.42712 974.408823 950.476169 0.001027298
19.83558 973.92682 975.18206 950.443378 0.001026771
19.84438 973.73572 976.063852 950.410863 0.001026973
19.85318 974.05511 977.071346 950.378616 0.001026636
19.86198 975.01691 978.224673 950.346641 0.001025623
19.87079 975.54175 979.545323 950.314936 0.001025071
19.87959 977.26666 981.06161 950.283488 0.001023262
19.88839 979.36481 982.798761 950.252295 0.00102107
19.89719 980.06726 984.778153 950.221359 0.001020338
19.90599 981.47107 987.015948 950.190672 0.001018879
19.91480 984.02765 989.516111 950.160226 0.001016232
19.92360 986.66595 992.271252 950.130023 0.001013514
19.93240 989.07983 995.262963 950.100056 0.001011041
19.94120 992.50781 998.468584 950.070315 0.001007549
19.95001 995.99713 1001.867723 950.040793 0.001004019
19.95881 999.6778 1005.443816 950.011491 0.001000322
19.96761 1003.1516 1009.190599 949.982399 0.000996858
19.97641 1006.3367 1013.10138 949.953508 0.000993703
19.98521 1009.4853 1017.15617 949.924823 0.000990604
19.99402 1012.5955 1021.314811 949.896319 0.000987561
20.00282 1016.6334 1025.498319 949.868 0.000983639
20.01162 1020.4155 1029.60061 949.839854 0.000979993
20.02042 1025.6388 1033.492072 949.811878 0.000975002
20.02922 1030.9329 1037.054052 949.784062 0.000969995
20.03803 1035.2659 1040.203623 949.756394 0.000965935
20.04683 1037.5562 1042.91872 949.728878 0.000963803
20.05563 1039.0833 1045.24332 949.701487 0.000962387
20.06443 1040.3627 1047.260402 949.674225 0.000961203
20.07324 1041.0706 1049.061722 949.647077 0.00096055
20.08204 1041.3855 1050.706432 949.620039 0.000960259
20.09084 1042.3265 1052.200492 949.593098 0.000959392
20.09964 1043.4091 1053.489677 949.56625 0.000958397
20.10844 1044.5118 1054.477246 949.539476 0.000957385
20.11725 1045.7498 1055.049839 949.512769 0.000956252
20.12605 1047.256 1055.13511 949.486122 0.000954876
20.13485 1048.1349 1054.697209 949.459521 0.000954076
20.14365 1048.5896 1053.761892 949.432961 0.000953662
20.15245 1047.8955 1052.390642 949.406427 0.000954294
20.16126 1045.6714 1050.650889 949.379913 0.000956323
20.17006 1043.1448 1048.586177 949.353401 0.00095864
20.17886 1040.6382 1046.201676 949.32688 0.000960949
20.18766 1038.0958 1043.47178 949.300345 0.000963302
20.19646 1036.7883 1040.354817 949.273778 0.000964517
20.20527 1035.344 1036.8272 949.247175 0.000965863
20.21407 1033.0646 1032.90185 949.220526 0.000967994
20.22287 1029.465 1028.63784 949.193805 0.000971378
20.23167 1025.2443 1024.140465 949.167012 0.000975377
20.24047 1019.3568 1019.531332 949.140129 0.000981011
20.24928 1013.2076 1014.93767 949.113151 0.000986965
20.25808 1007.5905 1010.464584 949.086058 0.000992467
20.26688 1003.2154 1006.195723 949.058845 0.000996795
20.27568 998.55396 1002.180687 949.031504 0.001001448
20.28449 994.45264 998.438562 949.004005 0.001005578
20.29329 990.97131 994.969052 948.97635 0.001009111
20.30209 988.24609 991.750537 948.948519 0.001011894
20.31089 986.30243 988.758234 948.920507 0.001013888
20.31969 984.49469 985.96489 948.892294 0.00101575
20.32850 982.19916 983.356406 948.863882 0.001018123
20.33730 980.05078 980.922866 948.835241 0.001020355
20.34610 978.10193 978.663923 948.806362 0.001022388
20.35490 976.32581 976.583948 948.77724 0.001024248
20.36370 973.93555 974.685494 948.747854 0.001026762
20.37251 971.74799 972.970715 948.718201 0.001029073
20.38131 970.5188 971.437605 948.688259 0.001030377
20.39011 969.75482 970.083178 948.658031 0.001031188
20.39891 968.70844 968.901116 948.627487 0.001032302
20.40771 968.33051 967.881018 948.596618 0.001032705
20.41652 967.91858 967.02504 948.565419 0.001033145
20.42532 967.44238 966.322844 948.533871 0.001033653
20.43412 966.04028 965.769878 948.501968 0.001035154
20.44292 964.69385 965.362743 948.469699 0.001036598
20.45172 965.40179 965.100011 948.437044 0.001035838
20.46053 966.44543 964.982468 948.403995 0.00103472
20.46933 967.16736 965.01318 948.370538 0.001033947
20.47813 967.93451 965.197781 948.336666 0.001033128
20.48693 968.17914 965.544383 948.302363 0.001032867
20.49574 968.86035 966.063623 948.267623 0.00103214
20.50454 969.57239 966.768114 948.232436 0.001031383
20.51334 969.92444 967.673085 948.196782 0.001031008
20.52214 970.88013 968.794241 948.160656 0.001029993
20.53094 972.44458 970.148335 948.124041 0.001028336
20.53975 973.73804 971.751009 948.086935 0.00102697
20.54855 975.63184 973.617358 948.04932 0.001024977
20.55735 977.80475 975.757845 948.011203 0.001022699
20.56615 979.41327 978.182247 947.972547 0.001021019
20.57495 981.35712 980.891451 947.933361 0.001018997
20.58376 984.22614 983.882181 947.89363 0.001016027
20.59256 987.44952 987.14104 947.85334 0.00101271
20.60136 990.69928 990.642895 947.81249 0.001009388
20.61016 994.0188 994.349709 947.771064 0.001006017
20.61896 997.64642 998.202101 947.729071 0.001002359
20.62777 1001.0557 1002.123145 947.686474 0.000998945
20.63657 1004.1133 1006.013669 947.643283 0.000995904
20.64537 1007.7133 1009.75891 947.599487 0.000992346
20.65417 1011.3746 1013.243418 947.555072 0.000988753
20.66298 1014.1224 1016.360123 947.510041 0.000986074
20.67178 1017.1368 1019.031185 947.464387 0.000983152
20.68058 1019.1674 1021.213255 947.418093 0.000981193
20.68938 1021.1589 1022.896536 947.371152 0.00097928
20.69818 1023.1941 1024.097798 947.323568 0.000977332
20.70699 1024.7041 1024.847884 947.275331 0.000975891
20.71579 1025.3726 1025.186594 947.226428 0.000975255
20.72459 1025.8645 1025.157661 947.176865 0.000974788
20.73339 1024.7327 1024.811635 947.126638 0.000975864
20.74219 1022.5478 1024.196709 947.075731 0.000977949
20.75100 1020.1549 1023.356395 947.024139 0.000980243
20.75980 1018.0748 1022.312666 946.97187 0.000982246
20.76860 1016.226 1021.06675 946.918913 0.000984033
20.77741 1015.2581 1019.596835 946.865261 0.000984971
20.78620 1014.323 1017.873909 946.810933 0.000985879
20.79501 1013.4648 1015.874362 946.755891 0.000986714
20.80381 1012.2495 1013.603642 946.700158 0.000987899
20.81261 1009.9182 1011.09658 946.643717 0.000990179
20.82141 1007.4625 1008.420087 946.586581 0.000992593
20.83022 1005.7665 1005.657114 946.528743 0.000994267
20.83902 1003.2302 1002.893511 946.470194 0.00099678
20.84782 999.66193 1000.205442 946.410961 0.001000338
20.85662 995.94366 997.650429 946.351003 0.001004073
20.86542 992.35059 995.271218 946.290349 0.001007708
20.87423 989.43219 993.094407 946.228984 0.001010681
20.88303 987.06415 991.134182 946.166924 0.001013105
20.89183 985.2334 989.392752 946.104164 0.001014988
20.90063 983.4649 987.859676 946.040712 0.001016813
20.90943 982.49841 986.511888 945.976556 0.001017813
20.91824 981.12793 985.314888 945.911699 0.001019235
20.92704 979.63599 984.226197 945.846159 0.001020787
20.93584 978.7074 983.201955 945.779924 0.001021756
20.94465 978.97443 982.20571 945.713013 0.001021477
20.95345 978.65656 981.215527 945.645423 0.001021809
20.96225 977.63727 980.228394 945.577166 0.001022874
20.97105 976.32172 979.259078 945.508232 0.001024253
20.97985 975.21527 978.336234 945.438625 0.001025415
20.98866 974.30438 977.493703 945.368369 0.001026373
20.99746 973.4931 976.764581 945.297452 0.001027229
21.00626 972.4693 976.174742 945.225899 0.00102831
21.01506 971.90778 975.740791 945.153723 0.001028904
21.02386 971.26923 975.46732 945.080892 0.001029581
21.03267 970.81024 975.34825 945.007446 0.001030067
21.04147 970.82355 975.36644 944.933377 0.001030053
21.05027 970.37616 975.495876 944.85871 0.001030528
21.05907 970.08954 975.703344 944.783445 0.001030833
21.06788 971.01508 975.951017 944.707585 0.00102985
21.07668 971.35126 976.199692 944.631172 0.001029494
21.08548 971.47272 976.411368 944.554165 0.001029365
21.09428 972.22424 976.551626 944.476609 0.001028569
21.10308 973.23682 976.594358 944.398498 0.001027499
21.11189 973.86584 976.522996 944.31986 0.001026835
21.12069 974.67993 976.333193 944.240699 0.001025978
21.12949 974.87054 976.030964 944.161034 0.001025777
21.13829 974.05774 975.62773 944.080862 0.001026633
21.14709 972.68677 975.139554 944.000193 0.00102808
21.15590 972.0448 974.579087 943.919059 0.001028759
21.16470 972.1084 973.960063 943.837455 0.001028692
21.17350 972.1676 973.296438 943.755414 0.001028629
21.18230 971.375 972.607709 943.67294 0.001029469
21.19110 970.56689 971.917694 943.590057 0.001030326
21.19991 970.54578 971.254003 943.50676 0.001030348
21.20871 970.09119 970.64324 943.423065 0.001030831
21.21751 968.53351 970.108121 943.339006 0.001032489
21.22631 968.03235 969.661131 943.254579 0.001033023
21.23512 967.95667 969.305097 943.169819 0.001033104
21.24392 968.54456 969.029783 943.084742 0.001032477
21.25272 968.40112 968.815236 942.999345 0.00103263
21.26152 968.25922 968.632158 942.913655 0.001032781
21.27032 968.09247 968.447412 942.827679 0.001032959
21.27913 967.65808 968.22691 942.741454 0.001033423
21.28793 966.93927 967.940756 942.654976 0.001034191
21.29673 966.77582 967.565007 942.568284 0.001034366
21.30553 967.36157 967.083172 942.481395 0.00103374
21.31433 967.7439 966.485616 942.394307 0.001033331
21.32314 968.11389 965.769902 942.30705 0.001032936
21.33194 967.66528 964.941495 942.21963 0.001033415
21.34074 966.28418 964.014051 942.132087 0.001034892
21.34954 965.45068 963.009173 942.044419 0.001035786
21.35834 964.46301 961.954675 941.956686 0.001036846
21.36715 962.82141 960.880251 941.868846 0.001038614
21.37595 961.1814 959.816104 941.780959 0.001040386
21.38475 959.6535 958.788741 941.693033 0.001042043
21.39355 958.79382 957.819346 941.60508 0.001042977
21.40236 958.20923 956.924171 941.517137 0.001043613
21.41116 956.53345 956.112897 941.429205 0.001045442
21.41996 955.26147 955.390775 941.341344 0.001046834
21.42876 955.08405 954.757394 941.253513 0.001047028
21.43756 955.15479 954.208614 941.165773 0.001046951
21.44637 954.84357 953.736563 941.078133 0.001047292
21.45517 954.47314 953.330177 940.990603 0.001047698
21.46397 954.2287 952.976463 940.903224 0.001047967
21.47277 954.47119 952.66147 940.816015 0.001047701
21.48157 954.47382 952.371803 940.728977 0.001047698
21.49038 953.77625 952.095976 940.64213 0.001048464
21.49918 953.29395 951.825759 940.555513 0.001048994
21.50798 952.73621 951.555416 940.469137 0.001049608
21.51678 952.53015 951.282999 940.383012 0.001049836
21.52558 952.34052 951.007067 940.297196 0.001050045
21.53439 952.16296 950.72651 940.211653 0.00105024
21.54319 951.94678 950.439913 940.126439 0.001050479
21.55199 951.60608 950.145247 940.041556 0.001050855
21.56079 950.9364 949.840599 939.957042 0.001051595
21.56959 949.9729 949.525132 939.872907 0.001052662
21.57840 949.88354 949.200134 939.789162 0.001052761
21.58720 950.05182 948.869366 939.705862 0.001052574
21.59600 949.73389 948.538671 939.622971 0.001052927
21.60480 950.18988 948.215386 939.540546 0.001052421
21.61360 950.31012 947.907342 939.458595 0.001052288
21.62241 949.659 947.62153 939.377128 0.00105301
21.63121 949.44281 947.364216 939.296181 0.001053249
21.64001 950.05719 947.139946 939.215774 0.001052568
21.64881 949.51538 946.952047 939.135905 0.001053169
21.65762 948.90778 946.802386 939.056592 0.001053843
21.66642 948.7619 946.69173 938.977871 0.001054005
21.67522 948.62128 946.619598 938.89975 0.001054161
21.68402 948.13342 946.584417 938.822237 0.001054704
21.69282 948.38641 946.583556 938.745366 0.001054423
21.70163 948.86633 946.613332 938.669154 0.001053889
21.71043 949.23877 946.669131 938.593598 0.001053476
21.71923 949.72089 946.745913 938.518716 0.001052941
21.72803 949.81842 946.838182 938.44454 0.001052833
21.73683 949.54248 946.9408 938.371076 0.001053139
21.74564 949.7821 947.050044 938.29833 0.001052873
21.75444 950.25598 947.162388 938.226349 0.001052348
21.76324 950.39227 947.275392 938.1551 0.001052197
21.77204 950.38635 947.386622 938.084627 0.001052204
21.78085 950.34058 947.493247 938.014928 0.001052254
21.78965 949.94446 947.591416 937.946032 0.001052693
21.79845 950.00635 947.676415 937.877942 0.001052625
21.80725 950.11469 947.743097 937.810664 0.001052505
21.81605 950.27484 947.787034 937.74424 0.001052327
21.82486 950.66705 947.805608 937.678634 0.001051893
21.83366 950.8067 947.798914 937.613888 0.001051738
21.84246 950.94238 947.770327 937.549997 0.001051588
21.85126 950.71399 947.72625 937.486986 0.001051841
21.86006 950.47083 947.675502 937.424856 0.00105211
21.86887 950.29492 947.628339 937.363624 0.001052305
21.87767 949.99683 947.595619 937.303282 0.001052635
21.88647 949.35327 947.587716 937.24384 0.001053349
21.89527 949.18555 947.614436 937.185318 0.001053535
21.90408 949.27679 947.684266 937.12771 0.001053434
21.91288 949.36749 947.804897 937.071035 0.001053333
21.92168 949.0556 947.982842 937.015292 0.001053679
21.93048 949.54211 948.223933 936.960492 0.001053139
21.93928 950.21063 948.533239 936.906628 0.001052398
21.94809 950.68304 948.915194 936.853704 0.001051875
21.95689 950.57037 949.373262 936.801735 0.001052
21.96569 951.05688 949.910781 936.750714 0.001051462
21.97449 951.59216 950.530493 936.700652 0.00105087
21.98329 951.99182 951.235999 936.651553 0.001050429
21.99210 952.97168 952.032154 936.603406 0.001049349
22.00090 954.33606 952.92581 936.556218 0.001047849
22.00970 955.04156 953.925667 936.509984 0.001047075
22.01850 955.18671 955.04242 936.464713 0.001046916
22.02731 956.05237 956.286867 936.420394 0.001045968
22.03611 957.87433 957.669001 936.377036 0.001043978
22.04491 959.58881 959.195289 936.334637 0.001042113
22.05371 961.09882 960.86827 936.293183 0.001040476
22.06251 962.36652 962.684749 936.252677 0.001039105
22.07132 964.0907 964.635771 936.213109 0.001037247
22.08012 966.02307 966.706031 936.174485 0.001035172
22.08892 968.14417 968.877992 936.13679 0.001032904
22.09772 970.3681 971.130765 936.100036 0.001030537
22.10652 972.59344 973.447096 936.064191 0.001028179
22.11533 975.11017 975.808591 936.029265 0.001025525
22.12413 977.53534 978.198973 935.995246 0.001022981
22.13293 980.45398 980.598662 935.962123 0.001019936
22.14173 983.00269 982.983114 935.929894 0.001017291
22.15054 986.36487 985.318448 935.898542 0.001013824
22.15934 990.16602 987.561462 935.868073 0.001009932
22.16814 993.17981 989.661171 935.838455 0.001006867
22.17694 995.32513 991.556825 935.80969 0.001004697
22.18574 997.69653 993.186033 935.781763 0.001002309
22.19455 999.33978 994.489985 935.75466 0.001000661
22.20335 1000.2118 995.418067 935.728375 0.000999788
22.21215 1000.7927 995.939945 935.702893 0.000999208
22.22095 1000.6497 996.050617 935.678195 0.000999351
22.22975 999.74725 995.771491 935.65427 0.001000253
22.23856 999.3963 995.143657 935.631101 0.001000604
22.24736 998.88904 994.218684 935.608677 0.001001112
22.25616 997.81317 993.04487 935.586977 0.001002192
22.26496 995.75238 991.65948 935.565991 0.001004266
22.27376 993.58319 990.084953 935.5457 0.001006458
22.28257 992.00635 988.331391 935.526084 0.001008058
22.29137 989.90466 986.404166 935.507127 0.001010198
22.30017 987.16693 984.312725 935.488808 0.001013
22.30897 984.17334 982.078387 935.471113 0.001016081
22.31778 981.79309 979.734406 935.454018 0.001018545
22.32658 979.19873 977.328223 935.437512 0.001021243
22.33538 976.74225 974.908914 935.421564 0.001023812
22.34418 974.22375 972.529231 935.406159 0.001026458
22.35298 971.69232 970.23347 935.391276 0.001029132
22.36179 969.22839 968.058991 935.376892 0.001031749
22.37059 967.27948 966.030218 935.362988 0.001033827
22.37939 965.10242 964.1676 935.349539 0.001036159
22.38819 964.12067 962.478665 935.336528 0.001037215
22.39699 962.57733 960.96551 935.323924 0.001038878
22.40580 960.67645 959.626953 935.31171 0.001040933
22.41460 959.71539 958.456588 935.299861 0.001041976
22.42340 958.86084 957.44609 935.288352 0.001042904
22.43220 957.97278 956.586168 935.277162 0.001043871
22.44100 957.48352 955.866768 935.266265 0.001044404
22.44981 957.18494 955.278207 935.255636 0.00104473
22.45861 956.22577 954.811467 935.245249 0.001045778
22.46741 955.72833 954.457848 935.235082 0.001046322
22.47621 955.31964 954.207669 935.225108 0.00104677
22.48502 954.76868 954.050068 935.215301 0.001047374
22.49382 955.03687 953.971458 935.205638 0.00104708
22.50262 955.44299 953.956413 935.196092 0.001046635
22.51142 955.52094 953.987555 935.186636 0.00104655
22.52022 955.37933 954.043843 935.177243 0.001046705
22.52903 954.73987 954.113317 935.16789 0.001047406
22.53783 955.67493 954.177697 935.158549 0.001046381
22.54663 955.86285 954.224572 935.149193 0.001046175
22.55543 955.47815 954.244695 935.139799 0.001046596
22.56423 954.82129 954.231581 935.130334 0.001047316
22.57304 955.01648 954.181231 935.120778 0.001047102
22.58184 955.23383 954.091206 935.1111 0.001046864
22.59064 954.95599 953.961111 935.101276 0.001047169
22.59944 954.67163 953.79031 935.091279 0.001047481
22.60825 954.62482 953.587505 935.081082 0.001047532
22.61705 954.58093 953.358318 935.070662 0.00104758
22.62585 953.84338 953.114039 935.059986 0.00104839
22.63465 952.82904 952.869058 935.049034 0.001049506
22.64345 952.07819 952.640401 935.037775 0.001050334
22.65226 951.48309 952.445755 935.026187 0.001050991
22.66106 951.76825 952.302742 935.014243 0.001050676
22.66986 951.79358 952.227236 935.001918 0.001050648
22.67866 951.33252 952.232649 934.989184 0.001051157
22.68746 951.43958 952.330143 934.976016 0.001051039
22.69627 952.03088 952.527466 934.962393 0.001050386
22.70507 951.96094 952.83024 934.948285 0.001050463
22.71387 951.86951 953.240647 934.933672 0.001050564
22.72267 952.53485 953.759004 934.918527 0.00104983
22.73147 953.07574 954.382705 934.90283 0.001049235
22.74028 953.43066 955.107377 934.886551 0.001048844
22.74908 953.56592 955.927167 934.86967 0.001048695
22.75788 953.69391 956.834799 934.852165 0.001048554
22.76668 954.95508 957.823399 934.83401 0.00104717
22.77549 956.81561 958.887959 934.815188 0.001045133
22.78429 957.02698 960.024104 934.795679 0.001044903
22.79309 957.45612 961.230757 934.77545 0.001044434
22.80189 958.72668 962.507694 934.75449 0.00104305
22.81069 959.39008 963.85763 934.732774 0.001042329
22.81950 960.24591 965.283223 934.710285 0.0010414
22.82830 961.13635 966.787598 934.687001 0.001040435
22.83710 961.47595 968.375804 934.662906 0.001040068
22.84590 962.2124 970.049546 934.637985 0.001039272
22.85470 963.01074 971.810556 934.612207 0.00103841
22.86351 964.49207 973.65456 934.585566 0.001036815
22.87231 965.10449 975.572893 934.558037 0.001036157
22.88111 965.40918 977.544946 934.529612 0.00103583
22.88991 967.57446 979.539657 934.500268 0.001033512
22.89871 969.90253 981.508914 934.470003 0.001031031
22.90752 971.56128 983.393747 934.438787 0.001029271
22.91632 973.00317 985.121325 934.406608 0.001027746
22.92512 975.1604 986.613073 934.37346 0.001025472
22.93392 976.89539 987.793951 934.339324 0.001023651
22.94273 978.10645 988.601654 934.304194 0.001022384
22.95153 980.125 988.997824 934.268053 0.001020278
22.96033 982.70618 988.97487 934.230905 0.001017598
22.96913 984.2002 988.558554 934.192721 0.001016053
22.97793 984.53217 987.802502 934.153494 0.001015711
22.98674 983.61176 986.782228 934.113225 0.001016661
22.99554 982.7854 985.579437 934.071898 0.001017516
23.00434 981.10461 984.276371 934.029515 0.001019259
23.01314 979.14832 982.942814 933.986069 0.001021296
23.02194 977.23602 981.633337 933.941545 0.001023294
23.03075 976.62915 980.38465 933.895944 0.00102393
23.03955 975.56714 979.214922 933.849256 0.001025045
23.04835 974.16833 978.124911 933.801488 0.001026517
23.05715 973.245 977.100183 933.752626 0.001027491
23.06596 973.22192 976.115164 933.702681 0.001027515
23.07476 972.80695 975.13826 933.651651 0.001027953
23.08356 971.96039 974.137542 933.599524 0.001028849
23.09236 972.02704 973.088418 933.546308 0.001028778
23.10116 971.76978 971.976298 933.491996 0.00102905
23.10997 971.34924 970.801588 933.436604 0.001029496
23.11877 970.39545 969.576771 933.380121 0.001030508
23.12757 969.01605 968.32526 933.322577 0.001031975
23.13637 966.77728 967.074444 933.263937 0.001034364
23.14517 964.77277 965.854098 933.204234 0.001036513
23.15398 962.3111 964.689873 933.143465 0.001039165
23.16278 960.99017 963.601599 933.081631 0.001040593
23.17158 960.16827 962.603084 933.018754 0.001041484
23.18038 959.18024 961.69982 932.954826 0.001042557
23.18918 958.00232 960.892046 932.889887 0.001043839
23.19799 956.68201 960.173177 932.823902 0.001045279
23.20679 955.54999 959.534105 932.756911 0.001046518
23.21559 955.31134 958.963258 932.688918 0.001046779
23.22439 954.73663 958.449402 932.619927 0.001047409
23.23320 954.02484 957.98362 932.549965 0.001048191
23.24200 952.74438 957.560593 932.479048 0.001049599
23.25080 951.64404 957.179439 932.407172 0.001050813
23.25960 951.68817 956.843836 932.334353 0.001050764
23.26840 952.716 956.560976 932.260621 0.001049631
23.27721 952.77887 956.339905 932.185986 0.001049561
23.28601 952.73907 956.189864 932.110454 0.001049605
23.29481 953.15289 956.118438 932.034061 0.00104915
23.30361 952.50421 956.130189 931.956825 0.001049864
23.31241 952.55902 956.225711 931.878747 0.001049804
23.32122 953.255 956.4009 931.799846 0.001049037
23.33002 953.92773 956.647309 931.720159 0.001048297
23.33882 954.25677 956.952217 931.639698 0.001047936
23.34762 955.3844 957.300362 931.558475 0.001046699
23.35642 957.41754 957.675059 931.476548 0.001044476
23.36523 959.83002 958.061651 931.393884 0.001041851
23.37403 960.84546 958.448867 931.310541 0.00104075
23.38283 961.67151 958.83162 931.226525 0.001039856
23.39163 962.92578 959.211608 931.141877 0.001038502
23.40044 964.23358 959.597378 931.056612 0.001037093
23.40924 964.25146 960.002676 930.970744 0.001037074
23.41804 963.34369 960.444586 930.884337 0.001038051
23.42684 962.57898 960.940071 930.797358 0.001038876
23.43564 962.75385 961.506521 930.70987 0.001038687
23.44445 962.78387 962.154775 930.62188 0.001038655
23.45325 962.862 962.891644 930.533433 0.00103857
23.46205 962.50842 963.71578 930.444547 0.001038952
23.47085 962.30151 964.619423 930.355257 0.001039175
23.47965 963.00507 965.587943 930.265569 0.001038416
23.48846 963.82727 966.601033 930.175512 0.00103753
23.49726 964.55884 967.634749 930.085132 0.001036743
23.50606 966.10474 968.664896 929.994436 0.001035084
23.51486 967.57159 969.669017 929.903472 0.001033515
23.52367 969.10187 970.629071 929.812257 0.001031883
23.53247 971.60626 971.532478 929.72083 0.001029224
23.54127 974.61627 972.371354 929.629196 0.001026045
23.55007 977.20258 973.141148 929.537385 0.001023329
23.55887 978.81665 973.835758 929.445443 0.001021642
23.56768 980.75946 974.44753 929.353378 0.001019618
23.57648 982.58051 974.962022 929.261238 0.001017728
23.58528 984.63464 975.361837 929.169062 0.001015605
23.59408 986.67749 975.625071 929.076823 0.001013502
23.60288 988.68665 975.731212 928.984592 0.001011443
23.61169 990.73657 975.661381 928.892373 0.00100935
23.62049 991.73773 975.404466 928.800215 0.001008331
23.62929 991.16144 974.955932 928.708124 0.001008917
23.63809 989.66663 974.323 928.616146 0.001010441
23.64689 988.74506 973.522808 928.524319 0.001011383
23.65570 987.65448 972.584806 928.432614 0.0010125
23.66450 986.32025 971.548093 928.3411 0.001013869
23.67330 984.37592 970.459634 928.24978 0.001015872
23.68210 981.88885 969.369173 928.1587 0.001018445
23.69091 978.67126 968.325823 928.067863 0.001021794
23.69971 975.0274 967.374232 927.977334 0.001025612
23.70851 972.69751 966.550903 927.887084 0.001028069
23.71731 971.08917 965.885085 927.797146 0.001029772
23.72611 968.91412 965.396291 927.707563 0.001032083
23.73492 967.97467 965.095353 927.618336 0.001033085
23.74372 967.98053 964.984064 927.529506 0.001033079
23.75252 968.61115 965.056526 927.441093 0.001032406
23.76132 969.4502 965.300491 927.353096 0.001031513
23.77012 969.15692 965.698242 927.265544 0.001031825
23.77893 969.56512 966.230293 927.178446 0.00103139
23.78773 970.80975 966.876655 927.091838 0.001030068
23.79653 972.54016 967.620728 927.005718 0.001028235
23.80533 972.99805 968.449133 926.920122 0.001027751
23.81414 972.04388 969.352815 926.835062 0.00102876
23.82294 972.21826 970.324329 926.750536 0.001028576
23.83174 973.77582 971.355346 926.666565 0.00102693
23.84054 974.31659 972.431328 926.583154 0.00102636
23.84934 975.36383 973.531187 926.500331 0.001025258
23.85815 976.22656 974.622169 926.41809 0.001024352
23.86695 976.81207 975.662678 926.336476 0.001023738
23.87575 977.33936 976.60212 926.255444 0.001023186
23.88455 978.13544 977.385527 926.175037 0.001022353
23.89335 978.69336 977.959407 926.095254 0.00102177
23.90216 979.54852 978.278805 926.016091 0.001020878
23.91096 980.50391 978.314786 925.937571 0.001019884
23.91976 981.3457 978.057576 925.85968 0.001019009
23.92856 981.08191 977.519651 925.782456 0.001019283
23.93736 979.44757 976.729652 925.705847 0.001020984
23.94617 978.25006 975.728431 925.62989 0.001022234
23.95497 977.66632 974.559751 925.554574 0.001022844
23.96377 976.48303 973.26524 925.47989 0.001024083
23.97257 974.2572 971.878322 925.405852 0.001026423
23.98137 973.03992 970.425673 925.332456 0.001027707
23.99018 971.89166 968.925092 925.25968 0.001028921
23.99898 970.92786 967.392197 925.187518 0.001029943
24.00778 969.68109 965.84127 925.11598 0.001031267
24.01658 968.66937 964.288956 925.045048 0.001032344
24.02539 968.16223 962.75359 924.974705 0.001032885
24.03419 967.17993 961.257304 924.904957 0.001033934
24.04299 965.55542 959.821322 924.835792 0.001035673
24.05179 963.30627 958.465625 924.76718 0.001038091
24.06059 960.82874 957.207405 924.699108 0.001040768
24.06940 959.68579 956.060647 924.631577 0.001042008
24.07820 959.23535 955.035294 924.564561 0.001042497
24.08700 957.93256 954.138462 924.498037 0.001043915
24.09580 957.25732 953.375733 924.432015 0.001044651
24.10460 956.73755 952.750238 924.366432 0.001045219
24.11341 955.3512 952.265278 924.301295 0.001046735
24.12221 954.03638 951.922475 924.236569 0.001048178
24.13101 953.18567 951.722412 924.172245 0.001049114
24.13981 951.74872 951.663171 924.108293 0.001050697
24.14862 951.30536 951.741198 924.044679 0.001051187
24.15742 951.73645 951.949377 923.981407 0.001050711
24.16622 952.50989 952.280021 923.918407 0.001049858
24.17502 953.03485 952.723216 923.855678 0.00104928
24.18382 953.1701 953.270498 923.79318 0.001049131
24.19263 953.1499 953.913912 923.730894 0.001049153
24.20143 953.66754 954.64891 923.668785 0.001048583
24.21023 954.28131 955.471753 923.606826 0.001047909
24.21903 954.83569 956.381724 923.544973 0.001047301
24.22783 955.64349 957.37612 923.48319 0.001046415
24.23664 955.78955 958.451404 923.421459 0.001046255
24.24544 956.87408 959.599124 923.35973 0.00104507
24.25424 958.177 960.807062 923.297982 0.001043649
24.26304 958.74164 962.055774 923.236171 0.001043034
24.27184 959.77026 963.320142 923.174268 0.001041916
24.28065 961.00085 964.568353 923.11222 0.001040582
24.28945 961.5473 965.762466 923.04999 0.00103999
24.29825 961.99005 966.859303 922.987553 0.001039512
24.30705 962.64349 967.814418 922.924856 0.001038806
24.31586 963.78094 968.584307 922.861873 0.00103758
24.32466 964.54254 969.131378 922.79857 0.001036761
24.33346 964.81018 969.427968 922.734873 0.001036473
24.34226 965.3075 969.458693 922.670768 0.001035939
24.35106 965.39093 969.221559 922.606199 0.00103585
24.35987 965.16528 968.727256 922.541141 0.001036092
24.36867 965.13202 967.996115 922.475535 0.001036128
24.37747 964.99536 967.054179 922.409357 0.001036274
24.38627 964.63446 965.931045 922.342571 0.001036662
24.39507 964.01239 964.654307 922.275097 0.001037331
24.40388 962.57336 963.253426 922.206924 0.001038882
24.41268 961.82733 961.753134 922.137994 0.001039688
24.42148 960.73553 960.18489 922.068282 0.001040869
24.43029 959.16559 958.573668 921.997729 0.001042573
24.43908 957.86987 956.948652 921.926326 0.001043983
24.44789 956.59436 955.336376 921.853993 0.001045375
24.45669 954.21265 953.764322 921.780694 0.001047984
24.46549 951.08575 952.256927 921.706408 0.00105143
24.47430 949.49835 950.835866 921.631076 0.001053188
24.48310 947.90179 949.519152 921.554676 0.001054962
24.49190 945.96368 948.321387 921.47716 0.001057123
24.50070 944.7959 947.254015 921.398499 0.00105843
24.50950 944.75873 946.324912 921.318637 0.001058471
24.51831 944.87878 945.540092 921.237536 0.001058337
24.52711 943.25519 944.903194 921.155179 0.001060158
24.53591 941.54749 944.415775 921.07151 0.001062081
24.54471 941.89996 944.077466 920.986515 0.001061684
24.55351 941.9884 943.886099 920.90016 0.001061584
24.56232 940.80554 943.837592 920.812393 0.001062919
24.57112 940.27472 943.925614 920.723191 0.001063519
24.57992 940.28748 944.141685 920.632513 0.001063505
24.58872 940.74286 944.47496 920.540351 0.00106299
24.59753 940.87341 944.912154 920.446655 0.001062842
24.60633 940.71082 945.437842 920.351419 0.001063026
24.61513 940.75391 946.03499 920.254619 0.001062977
24.62393 941.22919 946.686006 920.156208 0.00106244
24.63273 941.5791 947.373195 920.056174 0.001062046
24.64154 942.20337 948.080499 919.954484 0.001061342
24.65034 942.43018 948.793325 919.851141 0.001061087
24.65914 942.71082 949.500261 919.746104 0.001060771
24.66794 943.60406 950.191782 919.639404 0.001059767
24.67674 944.61346 950.86198 919.530954 0.001058634
24.68555 945.47131 951.506501 919.420788 0.001057674
24.69435 946.75903 952.123641 919.308884 0.001056235
24.70315 948.29962 952.713945 919.195218 0.001054519
24.71195 948.65991 953.278941 919.079809 0.001054119
24.72076 949.18994 953.822112 918.962624 0.00105353
24.72956 949.5155 954.347265 918.843714 0.001053169
24.73836 950.87567 954.857992 918.722995 0.001051662
24.74716 952.04144 955.358029 918.600521 0.001050374
24.75596 952.33215 955.84895 918.476282 0.001050054
24.76477 951.94556 956.332131 918.350267 0.00105048
24.77357 952.16595 956.806881 918.222511 0.001050237
24.78237 952.83246 957.27321 918.093022 0.001049502
24.79117 953.81543 957.731135 917.961782 0.001048421
24.79997 955.20227 958.18279 917.828804 0.001046899
24.80878 955.9201 958.630042 917.694132 0.001046113
24.81758 956.43237 959.075535 917.557768 0.001045552
24.82638 957.32837 959.520397 917.419717 0.001044574
24.83518 957.92206 959.960951 917.280031 0.001043926
24.84398 957.54163 960.390103 917.138734 0.001044341
24.85279 955.65802 960.793403 916.995822 0.001046399
24.86159 953.82727 961.152203 916.851321 0.001048408
24.87039 953.73145 961.442254 916.705295 0.001048513
24.87919 954.28973 961.637521 916.557762 0.0010479
24.88800 955.4682 961.709762 916.408739 0.001046607
24.89680 956.72107 961.631664 916.258333 0.001045237
24.90560 957.72034 961.378981 916.10648 0.001044146
24.91440 959.28766 960.933988 915.953291 0.00104244
24.92320 961.77051 960.288205 915.798776 0.001039749
24.93201 963.19263 959.445155 915.643016 0.001038214
24.94081 962.28162 958.419963 915.486043 0.001039197
24.94961 959.79138 957.238448 915.327889 0.001041893
24.95841 957.67151 955.933795 915.16868 0.001044199
24.96721 955.17133 954.541906 915.008362 0.001046933
24.97602 952.12518 953.098975 914.847066 0.001050282
24.98482 949.75305 951.638054 914.684812 0.001052905
24.99362 947.28717 950.188808 914.521701 0.001055646
25.00242 944.90857 948.77689 914.357776 0.001058303
25.01122 943.03973 947.42474 914.19312 0.001060401
25.02003 941.43469 946.152635 914.027764 0.001062209
25.02883 940.43988 944.978588 913.861776 0.001063332
25.03763 939.28497 943.92001 913.695264 0.00106464
25.04643 939.07117 942.990836 913.52828 0.001064882
25.05523 938.68469 942.203692 913.360881 0.00106532
25.06404 938.39032 941.567534 913.193178 0.001065655
25.07284 937.95349 941.088833 913.025248 0.001066151
25.08164 937.77539 940.770362 912.85713 0.001066353
25.09044 938.40778 940.611724 912.688905 0.001065635
25.09924 939.21326 940.609591 912.52069 0.001064721
25.10805 939.24835 940.757614 912.352548 0.001064681
25.11685 939.17877 941.047311 912.184542 0.00106476
25.12565 939.31696 941.46801 912.016832 0.001064603
25.13445 940.03815 942.007819 911.849387 0.001063787
25.14325 940.75226 942.654428 911.682368 0.001062979
25.15206 941.323 943.394561 911.515823 0.001062335
25.16086 942.08179 944.215821 911.349876 0.001061479
25.16966 943.06671 945.105255 911.184595 0.00106037
25.17846 944.58612 946.050923 911.020046 0.001058665
25.18727 945.0896 947.038929 910.856391 0.001058101
25.19607 945.91833 948.054633 910.693606 0.001057174
25.20487 947.4118 949.082227 910.531852 0.001055507
25.21367 949.78473 950.099274 910.371177 0.00105287
25.22247 951.18188 951.078679 910.211706 0.001051324
25.23128 952.14886 951.989458 910.053505 0.001050256
25.24008 953.69885 952.796367 909.896677 0.001048549
25.24888 955.229 953.463474 909.741271 0.001046869
25.25768 957.37579 953.956308 909.587372 0.001044522
25.26648 958.99377 954.245074 909.435095 0.00104276
25.27529 960.18213 954.307695 909.284489 0.001041469
25.28409 961.21545 954.130498 909.135666 0.001040349
25.29289 962.78088 953.710099 908.98869 0.001038658
25.30169 964.97314 953.052681 908.843654 0.001036298
25.31049 966.32867 952.173555 908.700598 0.001034845
25.31930 965.66272 951.096238 908.559599 0.001035558
25.32810 964.44312 949.851846 908.42076 0.001036868
25.33690 964.20441 948.475139 908.284117 0.001037124
25.34570 964.10425 947.004383 908.149771 0.001037232
25.35451 963.86371 945.476686 908.017784 0.001037491
25.36331 962.15564 943.92727 907.888188 0.001039333
25.37211 960.04779 942.388049 907.761058 0.001041615
25.38091 956.32019 940.887024 907.636437 0.001045675
25.38971 952.49664 939.447516 907.514407 0.001049872
25.39852 949.03162 938.090181 907.39499 0.001053706
25.40732 945.33435 936.830486 907.27826 0.001057827
25.41612 943.34784 935.680673 907.16426 0.001060054
25.42492 941.08197 934.649213 907.053004 0.001062607
25.43372 938.80823 933.741477 906.944543 0.00106518
25.44253 936.27399 932.959363 906.838896 0.001068063
25.45133 934.06586 932.302769 906.736117 0.001070588
25.46013 932.94739 931.767768 906.636207 0.001071872
25.46893 932.05713 931.348843 906.53923 0.001072896
25.47774 931.18976 931.037329 906.445137 0.001073895
25.48654 929.90894 930.8227 906.353983 0.001075374
25.49534 928.74109 930.692664 906.265765 0.001076726
25.50414 928.93042 930.633811 906.180475 0.001076507
25.51294 929.59753 930.632258 906.098131 0.001075734
25.52175 929.69232 930.676713 906.018707 0.001075625
25.53055 928.94763 930.756844 905.942227 0.001076487
25.53935 928.3064 930.866097 905.868622 0.001077231
25.54815 928.35303 931.00214 905.797903 0.001077176
25.55695 929.4635 931.166144 905.730036 0.001075889
25.56576 929.99359 931.362952 905.664981 0.001075276
25.57456 929.1286 931.599326 905.602715 0.001076277
25.58336 929.17816 931.883233 905.543195 0.00107622
25.59216 929.38141 932.222015 905.486359 0.001075985
25.60096 929.5874 932.621528 905.43216 0.001075746
25.60977 929.75116 933.085357 905.380533 0.001075557
25.61857 930.30682 933.613257 905.331426 0.001074914
25.62737 931.56677 934.202451 905.284759 0.00107346
25.63618 932.66736 934.845686 905.240464 0.001072194
25.64498 933.60522 935.533255 905.198465 0.001071117
25.65378 933.7699 936.252697 905.15866 0.001070928
25.66258 934.08972 936.988669 905.120968 0.001070561
25.67138 934.65582 937.725623 905.085286 0.001069913
25.68019 935.53156 938.44633 905.051519 0.001068911
25.68899 936.13623 939.134347 905.019553 0.001068221
25.69779 936.64734 939.771829 904.989288 0.001067638
25.70659 936.63416 940.342441 904.960589 0.001067653
25.71539 937.48541 940.827801 904.933345 0.001066683
25.72420 938.67273 941.210885 904.907424 0.001065334
25.73300 938.90466 941.475243 904.882694 0.001065071
25.74180 938.67218 941.607229 904.859021 0.001065335
25.75060 938.71564 941.598132 904.836259 0.001065285
25.75940 938.64886 941.446645 904.814273 0.001065361
25.76821 938.86212 941.159072 904.792896 0.001065119
25.77701 939.29852 940.750504 904.771988 0.001064624
25.78581 939.7879 940.242672 904.751383 0.00106407
25.79461 939.19806 939.66163 904.730921 0.001064738
25.80342 938.87787 939.034855 904.71044 0.001065101
25.81222 939.1532 938.388484 904.689772 0.001064789
25.82102 937.79144 937.745185 904.668742 0.001066335
25.82982 936.17676 937.12319 904.647174 0.001068174
25.83862 935.53137 936.536761 904.624898 0.001068911
25.84743 934.42566 935.995624 904.601733 0.001070176
25.85623 932.97583 935.506446 904.577493 0.001071839
25.86503 932.36646 935.074289 904.552009 0.00107254
25.87383 932.08984 934.702479 904.525078 0.001072858
25.88263 932.24438 934.393431 904.49653 0.00107268
25.89144 931.75317 934.149144 904.46617 0.001073246
25.90024 933.06311 933.970208 904.433818 0.001071739
25.90904 934.06293 933.85617 904.399288 0.001070592
25.91784 934.12848 933.804664 904.362387 0.001070517
25.92664 934.39502 933.811292 904.322949 0.001070211
25.93545 934.97821 933.868985 904.280761 0.001069544
25.94425 936.49677 933.968311 904.235662 0.001067809
25.95305 937.48322 934.096667 904.187455 0.001066686
25.96185 939.3877 934.239088 904.135977 0.001064523
25.97066 940.35535 934.377982 904.081046 0.001063428
25.97946 941.57196 934.494828 904.022492 0.001062054
25.98826 941.99744 934.570877 903.960136 0.001061574
25.99706 942.23962 934.589114 903.893808 0.001061301
26.00586 942.50116 934.535828 903.823362 0.001061007
26.01467 943.30341 934.40226 903.748626 0.001060104
26.02347 943.74316 934.185095 903.669462 0.00105961
26.03227 942.99994 933.887287 903.585718 0.001060445
26.04107 942.96661 933.517156 903.497262 0.001060483
26.04987 941.31165 933.08781 903.40394 0.001062347
26.05868 941.09058 932.616252 903.305624 0.001062597
26.06748 940.11011 932.122 903.202215 0.001063705
26.07628 938.23224 931.625682 903.093579 0.001065834
26.08508 936.78101 931.147823 902.979632 0.001067485
26.09388 935.78259 930.707797 902.860286 0.001068624
26.10269 934.91156 930.321532 902.735423 0.00106962
26.11149 933.18829 930.004654 902.604981 0.001071595
26.12029 931.80273 929.767042 902.468873 0.001073189
26.12909 930.41486 929.6151 902.327078 0.001074789
26.13790 929.46661 929.552212 902.179508 0.001075886
26.14670 928.44342 929.577472 902.026166 0.001077072
26.15550 928.40991 929.687423 901.86703 0.00107711
26.16430 928.20282 929.875621 901.702048 0.001077351
26.17310 927.58789 930.132867 901.531236 0.001078065
26.18191 926.56134 930.44887 901.354583 0.001079259
26.19071 925.23627 930.811089 901.172154 0.001080805
26.19951 924.84021 931.20679 900.983941 0.001081268
26.20831 924.91895 931.621808 900.790079 0.001081176
26.21711 924.57404 932.042587 900.590524 0.001081579
26.22592 924.02484 932.455847 900.385366 0.001082222
26.23472 924.03979 932.848009 900.174742 0.001082204
26.24352 924.35345 933.206008 899.958706 0.001081837
26.25232 924.55109 933.518468 899.737419 0.001081606
26.26113 924.03937 933.771497 899.510961 0.001082205
26.26993 924.26355 933.950077 899.279581 0.001081942
26.27873 924.23993 934.037772 899.043303 0.00108197
26.28753 924.28149 934.017069 898.802319 0.001081921
26.29633 925.45953 933.870127 898.556872 0.001080544
26.30514 925.67676 933.581494 898.307096 0.001080291
26.31394 925.34216 933.140288 898.053264 0.001080681
26.32274 925.32111 932.542808 897.795593 0.001080706
26.33154 925.82465 931.793809 897.534262 0.001080118
26.34034 926.25342 930.907264 897.269549 0.001079618
26.34915 925.87982 929.904397 897.001681 0.001080054
26.35795 925.50635 928.812891 896.730994 0.00108049
26.36675 924.75677 927.662004 896.457702 0.001081365
26.37555 922.9671 926.482389 896.182166 0.001083462
26.38435 921.32898 925.30152 895.904683 0.001085389
26.39316 920.55542 924.14361 895.625504 0.001086301
26.40196 919.50305 923.029087 895.344984 0.001087544
26.41076 917.78638 921.973056 895.063412 0.001089578
26.41956 917.18793 920.987652 894.781197 0.001090289
26.42837 917.90875 920.080068 894.498607 0.001089433
26.43717 917.16992 919.256063 894.216118 0.001090311
26.44597 916.37048 918.51768 893.933897 0.001091262
26.45477 916.17725 917.867114 893.652414 0.001091492
26.46357 915.52612 917.305192 893.372004 0.001092268
26.47238 915.89825 916.832718 893.092987 0.001091824
26.48118 916.63 916.450926 892.815783 0.001090953
26.48998 917.02124 916.160671 892.540685 0.001090487
26.49878 916.91132 915.962566 892.268171 0.001090618
26.50758 916.30719 915.856587 891.998406 0.001091337
26.51639 917.24536 915.840684 891.731852 0.001090221
26.52519 919.70575 915.911185 891.468815 0.001087304
26.53399 921.11676 916.063812 891.209597 0.001085639
26.54279 921.52411 916.287501 890.95457 0.001085159
26.55159 921.61304 916.577547 890.704039 0.001085054
26.56040 922.52466 916.918801 890.458233 0.001083982
26.56920 924.50024 917.294993 890.217446 0.001081665
26.57800 925.27466 917.688103 889.981982 0.00108076
26.58680 924.99976 918.0763 889.752055 0.001081081
26.59561 925.10864 918.436456 889.527872 0.001080954
26.60441 926.18298 918.743596 889.309675 0.0010797
26.61321 927.03149 918.974035 889.097641 0.001078712
26.62201 926.59741 919.106701 888.891877 0.001079217
26.63081 925.97571 919.126038 888.692505 0.001079942
26.63962 925.25311 919.024005 888.499681 0.001080785
26.64842 924.13104 918.801173 888.313434 0.001082098
26.65722 923.40515 918.467071 888.133784 0.001082948
26.66602 922.70337 918.038672 887.960824 0.001083772
26.67482 921.02362 917.538569 887.794386 0.001085748
26.68363 919.08405 916.991942 887.634492 0.00108804
26.69243 918.39923 916.425178 887.481009 0.001088851
26.70123 917.05835 915.862025 887.333821 0.001090443
26.71003 915.32166 915.324211 887.192734 0.001092512
26.71884 914.51208 914.828636 887.057502 0.001093479
26.72764 913.46967 914.38888 886.927954 0.001094727
26.73644 913.47504 914.0128 886.803676 0.001094721
26.74524 913.41003 913.706109 886.684394 0.001094799
26.75404 912.36224 913.469458 886.569706 0.001096056
26.76285 911.57159 913.302212 886.459212 0.001097007
26.77165 910.9754 913.200475 886.352447 0.001097724
26.78045 910.68311 913.160721 886.24892 0.001098077
26.78925 910.91461 913.178102 886.148082 0.001097798
26.79805 911.13196 913.24986 886.049362 0.001097536
26.80686 911.21289 913.373297 885.95219 0.001097438
26.81566 910.83655 913.548424 885.855908 0.001097892
26.82446 910.8703 913.775456 885.759892 0.001097851
26.83326 911.83606 914.056598 885.663442 0.001096688
26.84206 911.73596 914.392886 885.565887 0.001096809
26.85087 911.22589 914.786015 885.466495 0.001097423
26.85967 911.56403 915.235473 885.364554 0.001097016
26.86847 911.25745 915.73881 885.259373 0.001097385
26.87727 910.78314 916.290884 885.150223 0.001097956
26.88608 911.45972 916.883092 885.03644 0.001097141
26.89488 912.70276 917.50314 884.917383 0.001095647
26.90368 913.37482 918.135604 884.792346 0.001094841
26.91248 914.09918 918.76027 884.660798 0.001093973
26.92128 915.27386 919.354537 884.522213 0.001092569
26.93009 916.64349 919.893092 884.376135 0.001090937
26.93889 917.72076 920.350547 884.222205 0.001089656
26.94769 919.20807 920.70285 884.06019 0.001087893
26.95649 920.27313 920.929897 883.889956 0.001086634
26.96529 921.26447 921.018259 883.711442 0.001085465
26.97410 923.13257 920.961636 883.524883 0.001083268
26.98290 924.30164 920.763506 883.330594 0.001081898
26.99170 924.60419 920.434731 883.129181 0.001081544
27.00050 924.6449 919.994296 882.921406 0.001081496
27.00930 924.90436 919.4652 882.708429 0.001081193
27.01811 923.75916 918.873665 882.491482 0.001082533
27.02691 921.90295 918.245046 882.272298 0.001084713
27.03571 920.87738 917.604668 882.052983 0.001085921
27.04451 919.76031 916.972868 881.83594 0.00108724
27.05332 918.07703 916.368366 881.624134 0.001089233
27.06212 915.91663 915.803817 881.420907 0.001091802
27.07092 914.91394 915.29005 881.230268 0.001092999
27.07972 915.00525 914.832102 881.056647 0.00109289
27.08852 914.53534 914.433092 880.905199 0.001093451
27.09733 913.6441 914.091785 880.78183 0.001094518
27.10613 913.41394 913.805027 880.69312 0.001094794
27.11493 914.33307 913.566557 880.646523 0.001093693
27.12373 914.18597 913.369444 880.650321 0.001093869
27.13253 914.17694 913.205912 880.713833 0.00109388
27.14134 915.26563 913.06907 880.847389 0.001092579
27.15014 915.21393 912.953418 881.06244 0.001092641
27.15894 915.75714 912.85687 881.371662 0.001091993
27.16774 916.30145 912.780373 881.789051 0.001091344
27.17655 916.88696 912.729835 882.329928 0.001090647
27.18535 916.53906 912.716347 883.01113 0.001091061
27.19415 915.24261 912.756829 883.851327 0.001092606
27.20295 914.90125 912.875162 884.870695 0.001093014
27.21175 914.71118 913.101401 886.091516 0.001093241
27.22056 913.96436 913.47191 887.537582 0.001094135
27.22936 912.66071 914.028198 889.235499 0.001095697
27.23816 912.2489 914.815941 891.212904 0.001096192
27.24696 911.63263 915.884045 893.502104 0.001096933
27.25576 910.50787 917.283321 896.135678 0.001098288
27.26457 909.79572 919.06573 899.150201 0
27.27337 909.06488 0 0 0
27.28217 908.37561 0 0 0
27.29097 907.53967 0 0 0
27.29977 906.95795 0 0 0
27.30858 906.71423 0 0 0
27.31738 905.62177 0 0 0
27.32618 905.69604 0 0 0
27.33498 906.6109 0 0 0
27.34379 904.73169 0 0 0
27.35259 903.91071 0 0 0
27.36139 904.43445 0 0 0
27.37019 903.42627 0 0 0
27.37899 903.05487 0 0 0
27.38780 902.3429 0 0 0
27.39660 900.95642 0 0 0
27.40540 901.27533 0 0 0
27.41420 902.43475 0 0 0
27.42300 901.67273 0 0 0
27.43181 901.4455 0 0 0
27.44061 902.36224 0 0 0
27.44941 901.85016 0 0 0
27.45821 901.45642 0 0 0
27.46701 901.93152 0 0 0
27.47582 902.1897 0 0 0
27.48462 901.80157 0 0 0
27.49342 900.84845 0 0 0
27.50222 900.65613 0 0 0
27.51103 901.21771 0 0 0
27.51983 901.96393 0 0 0
27.52863 901.07806 0 0 0
27.53743 899.54938 0 0 0
27.54623 900.15753 0 0 0
27.55504 901.07361 0 0 0
27.56384 900.83588 0 0 0
27.57264 900.39258 0 0 0
27.58144 900.66357 0 0 0
27.59024 900.86377 0 0 0
27.59905 900.14996 0 0 0
27.60785 899.1936 0 0 0
27.61665 898.85968 0 0 0
27.62545 898.51135 0 0 0
27.63426 897.91815 0 0 0
27.64306 897.52386 0 0 0
27.65186 898.2713 0 0 0
27.66066 898.8678 0 0 0
27.66946 899.10699 0 0 0
27.67827 898.58929 0 0 0
27.68707 897.09796 0 0 0
27.69587 896.68628 0 0 0
27.70467 898.18555 0 0 0
27.71347 899.03168 0 0 0
27.72228 898.92499 0 0 0
27.73108 899.51184 0 0 0
27.73988 899.56604 0 0 0
27.74868 900.35645 0 0 0
27.75748 900.66638 0 0 0
27.76629 900.43793 0 0 0
27.77509 900.95831 0 0 0
27.78389 901.61377 0 0 0
27.79269 902.51929 0 0 0
27.80150 903.73108 0 0 0
27.81030 903.88385 0 0 0
27.81910 902.4975 0 0 0
27.82790 901.83801 0 0 0
27.83670 902.28265 0 0 0
27.84551 904.08069 0 0 0
27.85431 905.25085 0 0 0
27.86311 904.44983 0 0 0
27.87191 905.07025 0 0 0
27.88071 906.159 0 0 0
27.88952 905.90247 0 0 0
27.89832 904.65924 0 0 0
27.90712 903.96362 0 0 0
27.91592 904.95056 0 0 0
27.92472 905.89209 0 0 0
27.93353 905.27118 0 0 0
27.94233 904.69427 0 0 0
27.95113 904.44849 0 0 0
27.95993 904.68378 0 0 0
27.96874 904.8139 0 0 0
27.97754 904.71088 0 0 0
27.98634 905.78723 0 0 0
27.99514 905.05029 0 0 0
28.00394 903.82605 0 0 0
28.01275 903.03925 0 0 0
28.02155 902.69177 0 0 0
28.03035 902.52313 0 0 0
28.03915 902.66473 0 0 0
28.04796 902.08795 0 0 0
28.05676 901.82129 0 0 0
28.06556 902.59247 0 0 0
28.07436 901.90704 0 0 0
28.08316 900.56799 0 0 0
28.09196 899.85852 0 0 0
28.10077 900.64063 0 0 0
28.10957 901.91577 0 0 0
28.11837 903.08801 0 0 0
28.12717 902.76276 0 0 0
28.13598 902.97638 0 0 0
28.14478 903.37555 0 0 0
28.15358 903.58887 0 0 0
28.16238 903.6601 0 0 0
28.17119 902.61438 0 0 0
28.17999 902.91193 0 0 0
28.18879 904.56433 0 0 0
28.19759 904.78589 0 0 0
28.20639 903.60217 0 0 0
28.21520 903.86682 0 0 0
28.22400 904.47565 0 0 0
28.23280 905.2243 0 0 0
28.24160 905.771 0 0 0
28.25040 905.59827 0 0 0
28.25921 905.33624 0 0 0
28.26801 906.13269 0 0 0
28.27681 907.59766 0 0 0
28.28561 907.13184 0 0 0
28.29442 906.5127 0 0 0
28.30322 906.81427 0 0 0
28.31202 906.56543 0 0 0
28.32082 905.60565 0 0 0
28.32962 900.87128 0 0 0
28.33843 885.63763 0 0 0
28.34723 882.40875 0 0 0
28.35603 891.28174 0 0 0
28.36483 893.77191 0 0 0
28.37363 896.05121 0 0 0
28.38244 898.15552 0 0 0
28.39124 898.52429 0 0 0
28.40004 898.75793 0 0 0
28.40884 899.57556 0 0 0
28.41765 899.3479 0 0 0
28.42645 898.96088 0 0 0
28.43525 898.54382 0 0 0
28.44405 899.07465 0 0 0
28.45285 900.2417 0 0 0
28.46166 901.17865 0 0 0
28.47046 900.45923 0 0 0
28.47926 897.99701 0 0 0
28.48806 896.79211 0 0 0
28.49686 896.20233 0 0 0
28.50567 896.02203 0 0 0
28.51447 895.54236 0 0 0
28.52327 894.25293 0 0 0
28.53207 892.45471 0 0 0
28.54087 892.27435 0 0 0
28.54968 892.90729 0 0 0
28.55848 893.21198 0 0 0
28.56728 893.17969 0 0 0
28.57608 892.14844 0 0 0
28.58488 890.99548 0 0 0
28.59369 890.35333 0 0 0
28.60249 890.64508 0 0 0
28.61129 891.42297 0 0 0
28.62009 892.45483 0 0 0
28.62889 892.39874 0 0 0
28.63770 892.37994 0 0 0
28.64650 892.85687 0 0 0
28.65530 892.76959 0 0 0
28.66410 892.59961 0 0 0
28.67291 894.54706 0 0 0
28.68171 895.71521 0 0 0
28.69051 894.05017 0 0 0
28.69931 894.27356 0 0 0
28.70811 895.66077 0 0 0
28.71692 895.62646 0 0 0
28.72572 895.45636 0 0 0
28.73452 895.76495 0 0 0
28.74332 895.16125 0 0 0
28.75212 894.75452 0 0 0
28.76093 895.46796 0 0 0
28.76973 894.58691 0 0 0
28.77853 894.42542 0 0 0
28.78733 895.06622 0 0 0
28.79613 895.35547 0 0 0
28.80494 895.69598 0 0 0
28.81374 895.65436 0 0 0
28.82254 897.24316 0 0 0
28.83134 897.66205 0 0 0
28.84014 898.93475 0 0 0
28.84895 900.17957 0 0 0
28.85775 899.94623 0 0 0
28.86655 900.74707 0 0 0
28.87535 900.37225 0 0 0
28.88416 901.44623 0 0 0
28.89296 904.41852 0 0 0
28.90176 904.66736 0 0 0
28.91056 904.85596 0 0 0
28.91936 906.28271 0 0 0
28.92817 906.51898 0 0 0
28.93697 906.36993 0 0 0
28.94577 905.96045 0 0 0
28.95457 905.49689 0 0 0
28.96337 904.31189 0 0 0
28.97218 903.06586 0 0 0
28.98098 903.9303 0 0 0
28.98978 905.67432 0 0 0
28.99858 906.13464 0 0 0
29.00738 905.95679 0 0 0
29.01619 905.50171 0 0 0
29.02499 905.17859 0 0 0
29.03379 904.89001 0 0 0
29.04259 904.18359 0 0 0
29.05140 903.62628 0 0 0
29.06020 903.50067 0 0 0
29.06900 903.12518 0 0 0
29.07780 902.20166 0 0 0
29.08660 901.57306 0 0 0
29.09541 901.28131 0 0 0
29.10421 901.12598 0 0 0
29.11301 900.84058 0 0 0
29.12181 899.49231 0 0 0
29.13061 898.38446 0 0 0
29.13942 897.55621 0 0 0
29.14822 896.6535 0 0 0
29.15702 894.80713 0 0 0
29.16583 893.61444 0 0 0
29.17463 893.5141 0 0 0
29.18343 893.19006 0 0 0
29.19223 891.9054 0 0 0
29.20103 890.69806 0 0 0
29.20984 890.53961 0 0 0
29.21864 889.58868 0 0 0
29.22744 889.7204 0 0 0
29.23624 891.06946 0 0 0
29.24504 890.36053 0 0 0
29.25384 889.13678 0 0 0
29.26265 888.67133 0 0 0
29.27145 888.46576 0 0 0
29.28025 887.60706 0 0 0
29.28906 887.95978 0 0 0
29.29785 890.31964 0 0 0
29.30666 890.86597 0 0 0
29.31546 888.87091 0 0 0
29.32426 888.58539 0 0 0
29.33307 889.20111 0 0 0
29.34187 888.73322 0 0 0
29.35067 887.82806 0 0 0
29.35947 887.58307 0 0 0
29.36827 888.86414 0 0 0
29.37708 890.00726 0 0 0
29.38588 890.11646 0 0 0
29.39468 888.8537 0 0 0
29.40348 888.27118 0 0 0
29.41228 887.97369 0 0 0
29.42109 888.55212 0 0 0
29.42989 890.96112 0 0 0
29.43869 892.11444 0 0 0
29.44749 892.03943 0 0 0
29.45630 893.38 0 0 0
29.46510 893.11597 0 0 0
29.47390 893.3197 0 0 0
29.48270 895.48077 0 0 0
29.49150 895.55939 0 0 0
29.50031 895.57916 0 0 0
29.50911 896.93115 0 0 0
29.51791 897.57941 0 0 0
29.52671 898.25781 0 0 0
29.53551 899.92645 0 0 0
29.54432 899.99713 0 0 0
29.55312 900.81903 0 0 0
29.56192 902.14758 0 0 0
29.57072 903.1828 0 0 0
29.57952 904.64246 0 0 0
29.58833 905.34119 0 0 0
29.59713 904.86194 0 0 0
29.60593 902.58466 0 0 0
29.61473 901.73718 0 0 0
29.62354 902.46387 0 0 0
29.63234 901.86957 0 0 0
29.64114 900.24792 0 0 0
29.64994 900.87872 0 0 0
29.65874 902.8623 0 0 0
29.66755 902.83441 0 0 0
29.67635 903.30682 0 0 0
29.68515 903.4165 0 0 0
29.69395 902.3573 0 0 0
29.70275 901.97241 0 0 0
29.71156 900.97595 0 0 0
29.72036 900.36908 0 0 0
29.72916 900.99438 0 0 0
29.73796 900.33569 0 0 0
29.74676 898.89526 0 0 0
29.75557 897.80066 0 0 0
29.76437 897.23938 0 0 0
29.77317 898.72076 0 0 0
29.78197 899.90192 0 0 0
29.79078 898.92871 0 0 0
29.79958 897.83789 0 0 0
29.80838 898.30402 0 0 0
29.81718 899.95941 0 0 0
29.82598 898.73431 0 0 0
29.83479 897.69098 0 0 0
29.84359 898.01257 0 0 0
29.85239 897.94965 0 0 0
29.86119 898.86237 0 0 0
29.86999 898.98486 0 0 0
29.87880 899.53119 0 0 0
29.88760 900.7984 0 0 0
29.89640 900.87762 0 0 0
29.90520 901.83557 0 0 0
29.91400 902.61694 0 0 0
29.92281 902.27045 0 0 0
29.93161 902.11322 0 0 0
29.94041 900.97565 0 0 0
29.94921 902.34216 0 0 0
29.95801 903.10706 0 0 0
29.96682 902.25305 0 0 0
29.97562 902.3891 0 0 0
29.98442 903.21936 0 0 0
29.99322 902.55261 0 0 0
30.00203 902.43726 0 0 0
30.01083 905.80463 0 0 0
30.01963 907.69861 0 0 0
30.02843 907.93048 0 0 0
30.03723 908.79401 0 0 0
30.04604 906.12927 0 0 0
30.05484 903.74402 0 0 0
30.06364 903.09979 0 0 0
30.07244 902.38751 0 0 0
30.08124 902.47437 0 0 0
30.09005 902.66351 0 0 0
30.09885 901.78101 0 0 0
30.10765 901.7298 0 0 0
30.11645 901.16956 0 0 0
30.12526 900.01392 0 0 0
30.13406 899.59369 0 0 0
30.14286 897.50977 0 0 0
30.15166 895.91602 0 0 0
30.16046 896.03625 0 0 0
30.16927 896.34326 0 0 0
30.17807 895.81061 0 0 0
30.18687 896.6084 0 0 0
30.19567 896.76306 0 0 0
30.20447 895.04382 0 0 0
30.21328 894.51617 0 0 0
30.22208 893.4325 0 0 0
30.23088 890.40588 0 0 0
30.23968 888.63336 0 0 0
30.24849 890.56171 0 0 0
30.25729 892.76324 0 0 0
30.26609 892.48047 0 0 0
30.27489 892.66339 0 0 0
30.28369 892.37958 0 0 0
30.29250 891.95526 0 0 0
30.30130 893.62262 0 0 0
30.31010 895.50092 0 0 0
30.31890 897.67303 0 0 0
30.32770 897.55328 0 0 0
30.33651 894.61853 0 0 0
30.34531 893.63654 0 0 0
30.35411 893.69763 0 0 0
30.36291 894.0484 0 0 0
30.37172 895.08575 0 0 0
30.38052 895.07758 0 0 0
30.38932 894.57373 0 0 0
30.39812 894.54327 0 0 0
30.40692 895.74347 0 0 0
30.41573 897.46405 0 0 0
30.42453 897.58563 0 0 0
30.43333 897.08209 0 0 0
30.44213 897.54974 0 0 0
30.45093 895.16309 0 0 0
30.45974 895.98517 0 0 0
30.46854 896.85309 0 0 0
30.47734 894.82245 0 0 0
30.48614 892.8811 0 0 0
30.49494 892.80389 0 0 0
30.50375 893.10156 0 0 0
30.51255 892.91718 0 0 0
30.52135 894.6889 0 0 0
30.53015 896.6087 0 0 0
30.53896 895.41467 0 0 0
30.54776 894.22369 0 0 0
30.55656 893.60321 0 0 0
30.56536 893.71649 0 0 0
30.57416 893.2027 0 0 0
30.58297 893.99786 0 0 0
30.59177 895.43176 0 0 0
30.60057 895.25726 0 0 0
30.60937 895.19598 0 0 0
30.61817 894.66974 0 0 0
30.62698 894.67706 0 0 0
30.63578 892.66504 0 0 0
30.64458 890.92798 0 0 0
30.65338 889.60992 0 0 0
30.66218 890.61902 0 0 0
30.67099 891.32184 0 0 0
30.67979 889.14551 0 0 0
30.68859 891.21588 0 0 0
30.69739 894.30389 0 0 0
30.70620 894.49695 0 0 0
30.71500 892.32391 0 0 0
30.72380 892.33789 0 0 0
30.73260 893.47479 0 0 0
30.74140 891.83832 0 0 0
30.75021 889.10168 0 0 0
30.75901 888.21771 0 0 0
30.76781 890.34833 0 0 0
30.77661 891.01178 0 0 0
30.78541 889.41125 0 0 0
30.79422 889.1131 0 0 0
30.80302 887.45801 0 0 0
30.81182 886.65619 0 0 0
30.82062 887.01233 0 0 0
30.82943 885.2486 0 0 0
30.83823 884.22754 0 0 0
30.84703 886.55072 0 0 0
30.85583 887.32562 0 0 0
30.86463 885.8902 0 0 0
30.87344 883.86169 0 0 0
30.88224 883.32458 0 0 0
30.89104 883.54572 0 0 0
30.89984 883.54962 0 0 0
30.90864 881.19324 0 0 0
30.91745 879.57263 0 0 0
30.92625 879.83594 0 0 0
30.93505 879.04993 0 0 0
30.94385 878.45642 0 0 0
30.95265 878.61047 0 0 0
30.96146 878.64496 0 0 0
30.97026 879.06165 0 0 0
30.97906 879.7373 0 0 0
30.98786 878.85608 0 0 0
30.99667 877.80261 0 0 0
31.00547 878.54449 0 0 0
31.01427 877.06781 0 0 0
31.02307 876.45245 0 0 0
31.03187 875.89685 0 0 0
31.04068 873.80859 0 0 0
31.04948 873.21039 0 0 0
31.05828 875.64612 0 0 0
31.06708 876.98145 0 0 0
31.07588 875.59448 0 0 0
31.08469 876.04321 0 0 0
31.09349 875.26758 0 0 0
31.10229 873.37988 0 0 0
31.11109 872.02997 0 0 0
31.11989 872.24817 0 0 0
31.12870 873.85815 0 0 0
31.13750 874.20892 0 0 0
31.14630 875.28247 0 0 0
31.15510 875.2674 0 0 0
31.16391 871.57361 0 0 0
31.17271 870.86273 0 0 0
31.18151 872.10693 0 0 0
31.19031 870.14764 0 0 0
31.19911 870.29596 0 0 0
31.20792 872.10999 0 0 0
31.21672 872.11456 0 0 0
31.22552 873.43329 0 0 0
31.23432 873.90149 0 0 0
31.24312 870.47888 0 0 0
31.25193 869.21722 0 0 0
31.26073 869.59943 0 0 0
31.26953 867.87097 0 0 0
31.27833 868.75146 0 0 0
31.28714 872.31439 0 0 0
31.29594 873.01672 0 0 0
31.30474 872.80188 0 0 0
31.31354 874.90021 0 0 0
31.32234 875.9798 0 0 0
31.33115 874.4942 0 0 0
31.33995 875.67468 0 0 0
31.34875 875.75238 0 0 0
31.35755 875.18298 0 0 0
31.36635 872.38013 0 0 0
31.37516 871.84058 0 0 0
31.38396 874.17566 0 0 0
31.39276 875.08405 0 0 0
31.40156 876.27667 0 0 0
31.41036 874.66144 0 0 0
31.41917 874.70862 0 0 0
31.42797 875.0802 0 0 0
31.43677 871.46149 0 0 0
31.44557 868.45508 0 0 0
31.45438 870.31073 0 0 0
31.46318 873.86279 0 0 0
31.47198 874.16034 0 0 0
31.48078 874.44446 0 0 0
31.48958 872.93384 0 0 0
31.49839 871.32153 0 0 0
31.50719 870.93713 0 0 0
31.51599 870.18164 0 0 0
31.52479 870.71826 0 0 0
31.53359 871.98285 0 0 0
31.54240 870.30939 0 0 0
31.55120 869.97839 0 0 0
31.56000 872.78278 0 0 0
31.56880 873.7561 0 0 0
31.57760 872.3924 0 0 0
31.58641 873.16907 0 0 0
31.59521 875.45123 0 0 0
31.60401 872.14587 0 0 0
31.61281 865.47278 0 0 0
31.62162 866.59448 0 0 0
31.63042 869.63733 0 0 0
31.63922 869.23663 0 0 0
31.64802 866.97424 0 0 0
31.65682 866.90173 0 0 0
31.66563 865.9317 0 0 0
31.67443 863.3576 0 0 0
31.68323 863.85199 0 0 0
31.69203 861.05402 0 0 0
31.70083 864.70013 0 0 0
31.70964 866.93677 0 0 0
31.71844 863.30426 0 0 0
31.72724 862.63287 0 0 0
31.73604 860.62817 0 0 0
31.74485 861.90137 0 0 0
31.75365 862.56683 0 0 0
31.76245 860.75507 0 0 0
31.77125 859.04376 0 0 0
31.78005 857.63831 0 0 0
31.78886 858.80957 0 0 0
31.79766 863.47284 0 0 0
31.80646 865.20966 0 0 0
31.81526 864.53192 0 0 0
31.82406 864.83636 0 0 0
31.83287 864.75574 0 0 0
31.84167 866.08105 0 0 0
31.85047 866.38257 0 0 0
31.85927 864.70966 0 0 0
31.86807 860.32019 0 0 0
31.87688 862.25726 0 0 0
31.88568 864.86426 0 0 0
31.89448 864.9989 0 0 0
31.90328 860.64417 0 0 0
31.91209 859.3299 0 0 0
31.92089 863.71967 0 0 0
31.92969 866.49091 0 0 0
31.93849 867.97723 0 0 0
31.94729 869.68561 0 0 0
31.95610 870.73785 0 0 0
31.96490 872.59943 0 0 0
31.97370 869.14984 0 0 0
31.98250 869.78986 0 0 0
31.99130 876.35681 0 0 0
32.00011 878.7019 0 0 0
32.00891 879.63159 0 0 0
32.01771 874.67426 0 0 0
32.02651 875.39966 0 0 0
32.03532 878.29883 0 0 0
32.04412 879.33881 0 0 0
32.05292 880.91357 0 0 0
32.06172 879.04706 0 0 0
32.07052 875.67358 0 0 0
32.07933 881.97754 0 0 0
32.08813 881.59094 0 0 0
32.09693 878.95886 0 0 0
32.10573 878.65625 0 0 0
32.11454 876.27869 0 0 0
32.12334 875.15179 0 0 0
32.13214 868.86346 0 0 0
32.14094 863.84308 0 0 0
32.14974 862.49207 0 0 0
32.15855 860.76593 0 0 0
32.16735 868.77484 0 0 0
32.17615 866.4397 0 0 0
32.18495 857.97546 0 0 0
32.19375 857.02771 0 0 0
32.20256 858.11151 0 0 0
32.21136 856.91901 0 0 0
32.22016 858.12189 0 0 0
32.22896 857.5459 0 0 0
32.23776 855.45563 0 0 0
32.24657 855.17657 0 0 0
32.25537 859.75739 0 0 0
32.26417 855.74738 0 0 0
32.27297 847.37415 0 0 0
32.28178 844.09088 0 0 0
32.29058 839.57306 0 0 0
32.29938 841.20251 0 0 0
32.30818 841.57257 0 0 0
32.31698 834.60052 0 0 0
32.32579 837.23627 0 0 0
32.33459 842.66949 0 0 0
32.34339 837.85876 0 0 0
32.35219 840.98303 0 0 0
32.36099 837.40564 0 0 0
32.36980 830.3407 0 0 0
32.37860 833.16852 0 0 0
32.38740 832.80017 0 0 0
32.39620 826.09698 0 0 0
32.40500 826.81415 0 0 0
32.41381 827.06604 0 0 0
32.42261 819.57971 0 0 0
32.43141 820.34003 0 0 0
32.44021 818.56305 0 0 0
32.44902 820.48505 0 0 0
32.45782 824.53455 0 0 0
32.46662 815.12793 0 0 0
32.47542 813.9057 0 0 0
32.48422 820.89606 0 0 0
32.49303 814.63239 0 0 0
32.50183 816.75763 0 0 0
32.51063 817.09656 0 0 0
32.51943 812.49683 0 0 0
32.52823 819.41217 0 0 0
32.53704 819.008 0 0 0
32.54584 807.5957 0 0 0
32.55464 804.73822 0 0 0
32.56344 809.95056 0 0 0
32.57225 806.66113 0 0 0
32.58105 797.75421 0 0 0
32.58985 793.06189 0 0 0
32.59865 790.78558 0 0 0
32.60745 787.54321 0 0 0
32.61626 783.66534 0 0 0
32.62506 785.41345 0 0 0
32.63386 794.15381 0 0 0
32.64266 801.49103 0 0 0
32.65146 799.18921 0 0 0
32.66027 780.4826 0 0 0
32.66907 785.75415 0 0 0
32.67787 782.13684 0 0 0
32.68667 761.37189 0 0 0
32.69547 752.328 0 0 0
32.70428 747.18488 0 0 0
32.71308 739.92108 0 0 0
32.72188 725.5575 0 0 0
32.73068 727.91669 0 0 0
32.73949 724.51794 0 0 0
32.74829 711.13782 0 0 0
32.75709 696.18195 0 0 0
32.76589 678.26044 0 0 0
32.77469 654.31122 0 0 0
32.78350 645.32214 0 0 0
32.79230 631.27936 0 0 0
32.80110 604.89569 0 0 0
32.80990 563.1272 0 0 0
32.81870 487.17111 0 0 0
32.82751 400.02991 0 0 0
32.83631 277.30502 0 0 0
32.84511 200.83118 0 0 0
32.85391 208.54968 0 0 0
32.86271 199.87343 0 0 0
32.87152 190.63889 0 0 0
32.88032 180.89525 0 0 0
32.88912 170.46031 0 0 0
32.89792 173.09834 0 0 0
32.90673 186.55354 0 0 0
32.91553 192.38901 0 0 0
32.92433 196.44261 0 0 0
32.93313 195.50389 0 0 0
32.94193 194.43756 0 0 0
32.95074 190.97395 0 0 0
32.95954 188.32568 0 0 0
32.96834 188.28973 0 0 0
32.97714 184.41425 0 0 0
32.98594 185.75919 0 0 0
32.99475 193.38206 0 0 0
33.00355 191.01273 0 0 0
33.01235 180.48067 0 0 0
33.02115 168.09129 0 0 0
33.02996 170.03036 0 0 0
33.03876 172.61882 0 0 0
33.04756 181.7204 0 0 0
33.05636 195.20189 0 0 0
33.06516 200.17201 0 0 0
33.07397 201.36847 0 0 0
33.08277 202.39792 0 0 0
33.09157 205.61661 0 0 0
33.10037 201.30626 0 0 0
33.10917 191.17815 0 0 0
33.11798 188.57137 0 0 0
33.12678 196.22089 0 0 0
33.13558 200.56152 0 0 0
33.14438 197.63216 0 0 0
33.15318 191.74875 0 0 0
33.16199 186.2888 0 0 0
33.17079 191.37781 0 0 0
33.17959 189.74878 0 0 0
33.18839 190.054 0 0 0
33.19720 193.19441 0 0 0
33.20600 191.01294 0 0 0
33.21480 180.80232 0 0 0
33.22360 172.13814 0 0 0
33.23240 176.99536 0 0 0
33.24121 193.56076 0 0 0
33.25001 204.87503 0 0 0
33.25881 197.76077 0 0 0
33.26761 191.40565 0 0 0
33.27641 197.09079 0 0 0
33.28522 191.42831 0 0 0
33.29402 190.68701 0 0 0
33.30282 186.84856 0 0 0
33.31162 185.27098 0 0 0
33.32042 180.40555 0 0 0
33.32923 184.12273 0 0 0
33.33803 203.48335 0 0 0
33.34683 223.14722 0 0 0
33.35563 225.99034 0 0 0
33.36444 202.71718 0 0 0
33.37324 191.01642 0 0 0
33.38204 197.34708 0 0 0
33.39084 191.89685 0 0 0
33.39964 188.71773 0 0 0
33.40845 193.55898 0 0 0
33.41725 200.39742 0 0 0
33.42605 199.86589 0 0 0
33.43485 203.27472 0 0 0
33.44365 212.68991 0 0 0
33.45246 216.20891 0 0 0
33.46126 202.10974 0 0 0
33.47006 196.87714 0 0 0
33.47886 202.66745 0 0 0
33.48766 211.93265 0 0 0
33.49647 207.34782 0 0 0
33.50527 199.01913 0 0 0
33.51407 198.47121 0 0 0
33.52287 196.26228 0 0 0
33.53168 196.78827 0 0 0
33.54048 191.19774 0 0 0
33.54928 186.13528 0 0 0
33.55808 194.99588 0 0 0
33.56688 203.79951 0 0 0
33.57569 199.86234 0 0 0
33.58449 196.81784 0 0 0
33.59329 191.03539 0 0 0
33.60209 185.03831 0 0 0
33.61089 183.46579 0 0 0
33.61970 181.35139 0 0 0
33.62850 181.82794 0 0 0
33.63730 188.08084 0 0 0
33.64610 199.21516 0 0 0
33.65491 205.76595 0 0 0
33.66371 196.10815 0 0 0
33.67251 196.61372 0 0 0
33.68131 204.63354 0 0 0
33.69011 201.35201 0 0 0
33.69892 192.75569 0 0 0
33.70772 189.9106 0 0 0
33.71652 199.69487 0 0 0
33.72532 212.81915 0 0 0
33.73412 213.6828 0 0 0
33.74293 204.78589 0 0 0
33.75173 199.3573 0 0 0
33.76053 200.56868 0 0 0
33.76933 207.13908 0 0 0
33.77813 207.49046 0 0 0
33.78694 204.29088 0 0 0
33.79574 201.81505 0 0 0
33.80454 198.21289 0 0 0
33.81334 193.88713 0 0 0
33.82215 184.69214 0 0 0
33.83095 186.53027 0 0 0
33.83975 192.90678 0 0 0
33.84855 192.36757 0 0 0
33.85735 186.0352 0 0 0
33.86616 194.95236 0 0 0
33.87496 209.86479 0 0 0
33.88376 204.69437 0 0 0
33.89256 208.20836 0 0 0
33.90136 202.29756 0 0 0
33.91017 197.48428 0 0 0
33.91897 196.10645 0 0 0
33.92777 194.5293 0 0 0
33.93657 206.09409 0 0 0
33.94537 207.69556 0 0 0
33.95418 199.36194 0 0 0
33.96298 197.3535 0 0 0
33.97178 199.78456 0 0 0
33.98058 195.39592 0 0 0
33.98939 197.19846 0 0 0
33.99819 198.91463 0 0 0
34.00699 196.41241 0 0 0
34.01579 192.3102 0 0 0
34.02459 198.12669 0 0 0
34.03340 207.42665 0 0 0
34.04220 196.87035 0 0 0
34.05100 185.76334 0 0 0
34.05980 182.90529 0 0 0
34.06860 193.8367 0 0 0
34.07741 205.77719 0 0 0
34.08621 203.85475 0 0 0
34.09501 201.61192 0 0 0
34.10381 202.26938 0 0 0
34.11262 207.2318 0 0 0
34.12142 218.88737 0 0 0
34.13022 223.51598 0 0 0
34.13902 214.54553 0 0 0
34.14782 206.38617 0 0 0
34.15663 204.6178 0 0 0
34.16543 205.9212 0 0 0
34.17423 208.12418 0 0 0
34.18303 204.24565 0 0 0
34.19183 205.90071 0 0 0
34.20064 204.38792 0 0 0
34.20944 210.59166 0 0 0
34.21824 221.25302 0 0 0
34.22704 216.94901 0 0 0
34.23584 204.91605 0 0 0
34.24465 207.26204 0 0 0
34.25345 214.40648 0 0 0
34.26225 211.19553 0 0 0
34.27105 204.96416 0 0 0
34.27986 205.5929 0 0 0
34.28866 211.75636 0 0 0
34.29746 209.2917 0 0 0
34.30626 206.47371 0 0 0
34.31506 200.92758 0 0 0
34.32387 199.64363 0 0 0
34.33267 207.08681 0 0 0
34.34147 210.0009 0 0 0
34.35027 209.69128 0 0 0
34.35907 207.17621 0 0 0
34.36788 206.87964 0 0 0
34.37668 218.17456 0 0 0
34.38548 221.64873 0 0 0
34.39428 210.13489 0 0 0
34.40308 198.85298 0 0 0
34.41189 199.69647 0 0 0
34.42069 205.61131 0 0 0
34.42949 212.00325 0 0 0
34.43829 214.82361 0 0 0
34.44710 215.54977 0 0 0
34.45590 217.17758 0 0 0
34.46470 222.90172 0 0 0
34.47350 214.71828 0 0 0
34.48230 213.84819 0 0 0
34.49111 206.83701 0 0 0
34.49991 203.44681 0 0 0
34.50871 199.60497 0 0 0
34.51751 200.70581 0 0 0
34.52631 209.6851 0 0 0
34.53512 217.04976 0 0 0
34.54392 216.45424 0 0 0
34.55272 215.87361 0 0 0
34.56152 210.92018 0 0 0
34.57033 209.87843 0 0 0
34.57913 210.54736 0 0 0
34.58793 210.42343 0 0 0
34.59673 211.03691 0 0 0
34.60553 207.44206 0 0 0
34.61434 211.00238 0 0 0
34.62314 211.97153 0 0 0
34.63194 208.69109 0 0 0
34.64074 203.07628 0 0 0
34.64954 198.78764 0 0 0
34.65835 204.8605 0 0 0
34.66715 198.42647 0 0 0
34.67595 182.17238 0 0 0
34.68475 189.20491 0 0 0
34.69355 211.28203 0 0 0
34.70236 210.61285 0 0 0
34.71116 218.42441 0 0 0
34.71996 229.61621 0 0 0
34.72876 232.03142 0 0 0
34.73757 225.33826 0 0 0
34.74637 215.16261 0 0 0
34.75517 205.58646 0 0 0
34.76397 204.17905 0 0 0
34.77277 205.4427 0 0 0
34.78158 199.89061 0 0 0
34.79038 195.61752 0 0 0
34.79918 201.28246 0 0 0
34.80798 206.77365 0 0 0
34.81678 221.29056 0 0 0
34.82559 220.27022 0 0 0
34.83439 217.08032 0 0 0
34.84319 218.70927 0 0 0
34.85199 205.84416 0 0 0
34.86079 194.49858 0 0 0
34.86960 189.61203 0 0 0
34.87840 196.91644 0 0 0
34.88720 204.36345 0 0 0
34.89600 216.07739 0 0 0
34.90481 218.66991 0 0 0
34.91361 199.54947 0 0 0
34.92241 183.68254 0 0 0
34.93121 192.41209 0 0 0
34.94001 207.1579 0 0 0
34.94882 210.84804 0 0 0
34.95762 212.3614 0 0 0
34.96642 210.30888 0 0 0
34.97522 207.73135 0 0 0
34.98402 201.29607 0 0 0
34.99283 200.89772 0 0 0
35.00163 207.31764 0 0 0
35.01043 210.15039 0 0 0
35.01923 208.45786 0 0 0
35.02804 204.57013 0 0 0
35.03684 211.97935 0 0 0
35.04564 213.45573 0 0 0
35.05444 214.83545 0 0 0
35.06324 213.24655 0 0 0
35.07205 204.72818 0 0 0
35.08085 211.68785 0 0 0
35.08965 218.00075 0 0 0
35.09845 221.49983 0 0 0
35.10725 224.94632 0 0 0
35.11606 218.74596 0 0 0
35.12486 216.08507 0 0 0
35.13366 215.97505 0 0 0
35.14246 217.58624 0 0 0
35.15126 224.84174 0 0 0
35.16007 228.62462 0 0 0
35.16887 221.51027 0 0 0
35.17767 217.90714 0 0 0
35.18647 210.38347 0 0 0
35.19528 204.72855 0 0 0
35.20408 208.38385 0 0 0
loop_
_gsas_i100_meas
1.88
14.58
3.08
2.38
6.13
0.95
44.52
16.43
65.88
91.28
84.08
23.49
1.38
0.57
43.32
100.00
1.37
64.40
24.95
24.39
6.27
0.10
2.96
11.36
3.83
47.24
5.90
38.34
7.27
1.16
4.67
0.01
0.03
3.68
2.79
0.52
7.05
2.29
12.67
26.42
21.67
6.39
10.83
0.02
3.14
0.06
0.00
0.54
17.40
0.29
6.42
9.44
1.44
13.95
6.28
5.74
0.75
11.79
11.21
0.09
10.17
35.90
0.03
0.61
3.40
2.16
5.10
4.79
3.24
0.42
5.91
1.61
3.85
20.44
1.00
3.00
0.01
3.87
4.15
0.76
2.09
7.44
0.06
9.89
0.21
17.14
33.23
23.83
3.81
1.87
0.47
5.44
3.96
0.47
0.67
2.00
7.56
1.72
0.46
5.78
0.89
0.15
2.12
2.60
0.14
0.74
19.23
4.18
0.47
5.46
20.86
1.90
2.53
12.71
6.55
3.64
1.28
0.11
0.12
0.34
2.09
0.28
0.21
4.71
2.16
0.00
23.43
2.58
0.86
3.85
0.05
0.26
0.02
0.10
3.21
2.71
1.00
0.28
0.47
0.49
3.00
0.05
0.27
12.04
13.27
0.50
0.78
0.01
10.37
0.30
1.17
2.41
0.15
0.30
0.22
2.92
2.49
4.90
6.59
0.12
2.11
7.41
0.72
0.79
2.00
2.11
0.06
0.40
1.01
3.12
2.55
2.43
2.23
0.49
0.06
0.01
0.29
0.78
0.11
0.76
0.02
0.53
0.02
0.00
0.85
0.43
0.01
0.02
0.07
0.73
0.00
2.09
0.76
2.86
2.97
8.02
5.88
0.98
0.54
0.42
0.82
1.12
0.50
0.78
0.09
1.20
0.01
0.53
0.90
0.39
1.44
2.11
7.02
2.68
0.17
0.00
4.32
0.07
1.72
0.11
0.02
0.77
0.57
0.37
0.76
0.14
2.59
1.06
0.00
1.46
4.05
2.73
1.70
0.77
6.38
0.18
0.23
4.02
0.69
0.26
1.28
5.87
3.83
0.10
0.81
1.66
1.83
0.38
1.03
0.06
0.09
2.17
0.17
0.23
0.42
2.34
6.58
1.23
0.53
2.55
0.21
0.00
0.12
0.40
0.19
1.70
1.24
0.29
0.57
0.03
0.23
1.40
3.37
2.60
7.62
0.10
0.10
1.49
0.12
0.08
0.00
0.86
0.11
1.65
0.31
6.66
0.64
1.24
4.97
0.06
0.26
0.09
1.15
0.11
0.37
1.81
1.18
0.34
0.06
0.08
0.19
1.21
0.91
1.10
6.67
0.00
0.04
0.01
0.00
1.70
0.53
0.65
0.26
0.35
4.19
1.49
0.96
0.44
0.27
0.78
1.68
0.26
0.20
0.18
0.50
0.08
5.16
1.72
0.10
1.49
0.25
0.31
0.01
1.01
0.00
0.71
6.23
0.00
0.52
0.07
2.08
0.00
0.00
0.54
0.10
0.13
0.15
0.11
0.27
0.00
4.43
4.05
0.27
0.11
0.68
2.77
0.10
0.27
1.51
2.12
0.18
