#------------------------------------------------------------------------------
#$Date: 2021-02-05 01:04:31 +0200 (Fri, 05 Feb 2021) $
#$Revision: 261628 $
#$URL: file:///home/coder/svn-repositories/cod/cif/7/24/18/7241834.cif $
#------------------------------------------------------------------------------
#
# This file is available in the Crystallography Open Database (COD),
# http://www.crystallography.net/
#
# All data on this site have been placed in the public domain by the
# contributors.
#
data_7241834
loop_
_publ_author_name
'Gu\'nka, Piotr A.'
'Hanfland, Michael'
'Chen, Yu-Sheng'
'Zachara, Janusz'
_publ_section_title
;
 High-pressure and low-temperature structural study of claudetite I, a
 monoclinic layered As2O3 polymorph
;
_journal_issue                   3
_journal_name_full               CrystEngComm
_journal_page_first              638
_journal_page_last               644
_journal_paper_doi               10.1039/D0CE01401J
_journal_volume                  23
_journal_year                    2021
_chemical_formula_moiety         'As2 O3'
_chemical_formula_sum            'As2 O3'
_chemical_formula_weight         197.84
_chemical_name_common            'claudetite I'
_chemical_name_systematic
;
arsenic(III) oxide
;
_space_group_IT_number           14
_space_group_name_Hall           '-P 2yn'
_space_group_name_H-M_alt        'P 1 21/n 1'
_symmetry_cell_setting           monoclinic
_symmetry_space_group_name_H-M   'P 1 21/n 1'
_audit_creation_date             2020-10-21T13:18
_audit_creation_method           'created in GSAS-II'
_audit_update_record
;
2020-10-22 deposited with the CCDC.	2020-12-10 downloaded from the CCDC.
;
_cell_angle_alpha                90
_cell_angle_beta                 94.764(4)
_cell_angle_gamma                90
_cell_formula_units_Z            4
_cell_length_a                   4.7015(4)
_cell_length_b                   11.7503(4)
_cell_length_c                   4.13870(30)
_cell_measurement_pressure       1.857e7(5)
_cell_measurement_temperature    293
_cell_volume                     227.85(3)
_computing_data_reduction        Fit2D
_computing_structure_refinement
'GSAS-II (Toby & Von Dreele, J. Appl. Cryst. 46, 544-549, 2013)'
_diffrn_ambient_pressure         1.857e7(5)
_diffrn_ambient_temperature      293
_diffrn_detector                 'Mar555 flat panel'
_diffrn_detector_type            'Mar555 flat panel'
_diffrn_measurement_device_type  'ESRF ID09A beamline'
_diffrn_radiation_monochromator  Si
_diffrn_radiation_polarisn_ratio 0.9900
_diffrn_radiation_probe          x-ray
_diffrn_radiation_wavelength     0.41421
_diffrn_source                   'ESRF ID09A'
_diffrn_source_type              synchrotron
_exptl_crystal_colour            colourless
_exptl_crystal_density_diffrn    5.7673
_exptl_crystal_description       'white powder'
_pd_block_id                     2020-10-21T13:18|clau1_017rietveld||id09a
_pd_calc_method                  'Rietveld Refinement'
_pd_meas_number_of_points        2921
_pd_phase_name                   claudetiteI
_pd_prep_pressure                100.0(1)
_pd_prep_temperature             293
_pd_proc_info_datetime           2020-10-21T13:18
_pd_proc_ls_background_function
;
Background function: "chebyschev" function with 30 terms:
    906.7(9), 536.4(25), 243(5), -13020(13), -58961(12), 455429(18), 
    1.572431(3)e6, -8.836992(13)e6, -2.1397274(8)e7, 1.01372557(7)e8, 
    1.70895428(10)e8, -7.35360270(18)e8, -8.60498868(7)e8, 3.531847748(18)e9, 
    2.8696572353(30)e9, -1.1610050460(10)e10, -6.541869680(6)e9, 
    2.6688714604(5)e10, 1.0353872798(10)e10, -4.3306634631(15)e10, 
    -1.1372307564(11)e10, 4.9401439842(22)e10, 8.503308030(9)e9, 
    -3.8779304530(22)e10, -4.127560327(4)e9, 1.9952442679(13)e10, 
    1.171988033(6)e9, -6.059851363(7)e9, -1.47601791(17)e8, 8.2377813(4)e8, 
;
_pd_proc_ls_pref_orient_corr
;
Simple spherical harmonic correction Order = 6
    Coefficients:  0:0:C(4,4) = 0.373(18); 0:0:C(6,6) = -0.168(19); 
    0:0:C(6,-2) = 0.012(22); 0:0:C(2,-2) = -0.159(11); 0:0:C(4,-4) = -0.177(17); 
    0:0:C(2,2) = 0.210(12); 0:0:C(4,0) = -0.131(14); 0:0:C(6,-6) = -0.079(22); 
    0:0:C(6,4) = -0.026(19); 0:0:C(4,2) = -0.224(14); 0:0:C(6,2) = 0.162(22); 
    0:0:C(6,-4) = -0.019(16); 0:0:C(6,0) = -0.220(21); 0:0:C(2,0) = 0.147(11); 
    0:0:C(4,-2) = 0.044(16); 
;
_pd_proc_ls_profile_function
;
Finger-Cox-Jephcoat function parameters U, V, W, X, Y, SH/L:
  peak variance(Gauss) = Utan(Th)^2^+Vtan(Th)+W:
  peak HW(Lorentz) = X/cos(Th)+Ytan(Th); SH/L = S/L+H/L
  U, V, W in (centideg)^2^, X & Y in centideg
    2.37(32)e3, -2.1(4)e2, 10.0(19), 8.7(3), 61(9), 0.002, 
  Crystallite size in microns with "isotropic" model:
  parameters: Size, G/L mix
    1.000, 1.000, 
  Microstrain, "isotropic" model (10^6^ * delta Q/Q)
    parameters: Mustrain, G/L mix
    1000.000, 1.000, 

;
_pd_proc_ls_prof_R_factor        0.00562
_pd_proc_ls_prof_wR_expected     0.03438
_pd_proc_ls_prof_wR_factor       0.00825
_refine_ls_goodness_of_fit_all   0.243
_refine_ls_matrix_type           full
_refine_ls_number_parameters     72
_refine_ls_R_Fsqd_factor         0.05433
_refine_ls_shift/su_max          0.0005
_refine_ls_wR_factor_obs         0.00826
_reflns_d_resolution_high        0.859
_reflns_d_resolution_low         5.875
_reflns_limit_h_max              5
_reflns_limit_h_min              0
_reflns_limit_k_max              13
_reflns_limit_k_min              0
_reflns_limit_l_max              4
_reflns_limit_l_min              -4
_reflns_number_total             379
_cod_data_source_file            d0ce01401j3.cif
_cod_data_source_block           clau1_017rietveld
_cod_depositor_comments
'Adding full bibliography for 7241824--7241862.cif.'
_cod_original_cell_volume        227.850(13)
_cod_database_code               7241834
_refine_ls_r_f_factor            0.02723
_gsas_proc_ls_prof_r_b_factor    0.00887
_gsas_proc_ls_prof_wr_b_factor   0.01752
loop_
_space_group_symop_id
_space_group_symop_operation_xyz
1 x,y,z
2 1/2-x,1/2+y,1/2-z
3 -x,-y,-z
4 1/2+x,1/2-y,1/2+z
loop_
_atom_site_label
_atom_site_type_symbol
_atom_site_fract_x
_atom_site_fract_y
_atom_site_fract_z
_atom_site_occupancy
_atom_site_adp_type
_atom_site_U_iso_or_equiv
_atom_site_symmetry_multiplicity
As1 As 0.2891(5) 0.08666(20) 0.0697(8) 1.000 Uiso 0.0030(11) 4
As2 As 0.3219(5) 0.35896(23) 0.0328(8) 1.000 Uiso 0.0030 4
O3 O 0.4645(12) 0.21983(26) 0.076(4) 1.000 Uiso 0.0030 4
O4 O 0.6659(13) 0.4134(10) 0.1523(11) 1.000 Uiso 0.0030 4
O5 O -0.0512(17) 0.1404(13) 0.1418(15) 1.000 Uiso 0.0030 4
loop_
_atom_type_symbol
_atom_type_number_in_cell
_atom_type_scat_Cromer_Mann_a1
_atom_type_scat_Cromer_Mann_a2
_atom_type_scat_Cromer_Mann_a3
_atom_type_scat_Cromer_Mann_a4
_atom_type_scat_Cromer_Mann_b1
_atom_type_scat_Cromer_Mann_b2
_atom_type_scat_Cromer_Mann_b3
_atom_type_scat_Cromer_Mann_b4
_atom_type_scat_Cromer_Mann_c
_atom_type_scat_length_neutron
_atom_type_scat_source
_atom_type_scat_dispersion_real
_atom_type_scat_dispersion_imag
_atom_type_scat_dispersion_source
As 8 16.6723 6.0701 3.4313 4.2779 2.6345 0.2647 12.9479 47.7972 2.531 0.658
https://subversion.xray.aps.anl.gov/pyGSAS/trunk/atmdata.py 0.283 0.775
https://subversion.xray.aps.anl.gov/pyGSAS/trunk/atmdata.py
O 12 3.0485 2.2868 1.5463 0.867 13.2771 5.7011 0.3239 32.9089 0.2508 0.5805
https://subversion.xray.aps.anl.gov/pyGSAS/trunk/atmdata.py 0.002 0.002
https://subversion.xray.aps.anl.gov/pyGSAS/trunk/atmdata.py
loop_
_geom_angle_atom_site_label_1
_geom_angle_atom_site_label_2
_geom_angle_atom_site_label_3
_geom_angle
_geom_angle_site_symmetry_1
_geom_angle_site_symmetry_2
_geom_angle_site_symmetry_3
_geom_angle_publ_flag
O3 As1 O4 97.4(7) 1_555 1_555 4_454 yes
O3 As1 O5 96.2(7) 1_555 1_555 1_555 yes
O4 As1 O5 86.4(3) 4_454 1_555 1_555 yes
O3 As2 O4 88.6(4) 1_555 1_555 1_555 yes
O3 As2 O5 86.7(7) 1_555 1_555 4_554 yes
O4 As2 O5 83.4(3) 1_555 1_555 4_554 yes
As1 O3 As2 130.1(3) 1_555 1_555 1_555 yes
As1 O4 As2 119.2(3) 4_555 1_555 1_555 yes
As1 O5 As2 122.3(4) 1_555 1_555 4_455 yes
loop_
_geom_bond_atom_site_label_1
_geom_bond_atom_site_label_2
_geom_bond_distance
_geom_bond_site_symmetry_1
_geom_bond_site_symmetry_2
_geom_bond_publ_flag
As1 O3 1.7679(24) 1_555 1_555 yes
As1 O4 1.7755(24) 1_555 4_454 yes
As1 O5 1.7685(24) 1_555 1_555 yes
As2 O3 1.7703(24) 1_555 1_555 yes
As2 O4 1.7708(24) 1_555 1_555 yes
As2 O5 1.7707(24) 1_555 4_554 yes
loop_
_pd_meas_2theta_scan
_pd_meas_intensity_total
_pd_calc_intensity_total
_pd_proc_intensity_bkg_calc
_pd_proc_ls_weight
2.75946 374.64957 0 0 0
2.76827 375.97028 0 0 0
2.77707 376.18076 0 0 0
2.78587 376.11581 0 0 0
2.79467 376.49191 0 0 0
2.80348 377.7569 0 0 0
2.81228 377.60495 0 0 0
2.82108 377.35211 0 0 0
2.82988 377.39474 381.487485 381.390157 0.002649745
2.83868 378.36884 381.647931 381.550188 0.002642924
2.84749 378.32864 381.746564 381.648402 0.002643205
2.85629 379.28271 381.796181 381.697597 0.002636556
2.86509 379.8858 381.808152 381.709142 0.00263237
2.87389 379.57571 381.79252 381.69308 0.002634521
2.88269 378.53073 381.758174 381.658289 0.002641793
2.89150 378.4631 381.712818 381.612496 0.002642266
2.90030 380.4032 381.663256 381.562493 0.00262879
2.90910 381.55048 381.61529 381.514081 0.002620885
2.91790 381.68027 381.573885 381.472227 0.002619994
2.92670 382.21069 381.543246 381.441134 0.002616358
2.93551 382.04462 381.526889 381.424319 0.002617495
2.94431 381.87122 381.527669 381.424637 0.002618684
2.95311 381.82129 381.547907 381.444409 0.002619026
2.96191 382.12299 381.58936 381.485392 0.002616958
2.97072 382.22311 381.653351 381.548907 0.002616273
2.97952 382.9006 381.740766 381.635843 0.002611644
2.98832 383.91882 381.852146 381.746738 0.002604717
2.99712 385.14783 381.987705 381.881807 0.002596406
3.00592 385.45773 382.147349 382.040957 0.002594318
3.01473 385.56717 382.330752 382.22386 0.002593582
3.02353 385.58649 382.537329 382.429933 0.002593452
3.03233 385.54562 382.766393 382.658487 0.002593727
3.04113 385.91272 383.01701 382.908588 0.002591259
3.04993 386.26852 383.288164 383.179221 0.002588873
3.05874 385.82809 383.578703 383.469234 0.002591828
3.06754 385.00977 383.887402 383.7774 0.002597337
3.07634 385.81287 384.212989 384.102449 0.00259193
3.08514 386.79153 384.554095 384.443011 0.002585372
3.09395 387.81726 384.909343 384.797709 0.002578534
3.10275 388.24918 385.277369 385.165178 0.002575665
3.11155 388.75946 385.656733 385.543979 0.002572285
3.12035 388.68964 386.075168 385.932734 0.002572747
3.12915 388.12347 386.473153 386.330063 0.0025765
3.13796 388.0791 386.878349 386.734594 0.002576794
3.14676 387.9928 387.289466 387.14504 0.002577367
3.15556 388.22406 387.705184 387.560079 0.002575832
3.16436 389.05252 388.1243 387.978507 0.002570347
3.17316 389.86374 388.545603 388.399115 0.002564999
3.18197 390.96368 388.967989 388.820797 0.002557782
3.19077 391.53262 389.390384 389.242479 0.002554066
3.19957 390.96851 389.811788 389.663162 0.002557751
3.20837 390.43854 390.231236 390.081879 0.002561223
3.21717 390.40753 390.647873 390.497776 0.002561426
3.22598 391.10321 391.060895 390.910049 0.00255687
3.23478 392.13177 391.469544 391.317938 0.002550163
3.24358 393.35825 391.873148 391.720771 0.002542212
3.25238 393.97137 392.271097 392.11794 0.002538256
3.26119 393.41302 392.662861 392.508912 0.002541858
3.26999 392.7937 393.048187 392.893213 0.002545866
3.27879 392.04922 393.426202 393.270412 0.0025507
3.28759 393.05826 393.796782 393.640164 0.002544152
3.29639 394.76398 394.159656 394.002197 0.002533159
3.30520 394.63715 394.523001 394.356266 0.002533973
3.31400 394.06927 394.869824 394.7022 0.002537625
3.32280 394.08398 395.208395 395.039867 0.00253753
3.33160 395.20261 395.538662 395.369217 0.002530348
3.34040 395.64471 395.860593 395.690214 0.00252752
3.34921 395.1095 396.179848 396.002894 0.002530944
3.35801 394.31061 396.485266 396.307332 0.002536072
3.36681 394.46698 396.782543 396.603612 0.002535066
3.37561 394.8623 397.07186 396.891913 0.002532528
3.38442 395.77118 397.353385 397.172404 0.002526713
3.39322 396.66199 397.62735 397.445315 0.002521038
3.40202 397.22083 397.893989 397.71088 0.002517491
3.41082 396.98514 398.153584 397.969379 0.002518986
3.41962 397.22012 398.412543 398.221117 0.002517496
3.42843 398.27328 398.658992 398.466409 0.002510839
3.43723 398.47113 398.899361 398.705595 0.002509592
3.44603 398.7536 399.134008 398.939035 0.002507814
3.45483 397.56711 399.363318 399.16711 0.002515299
3.46363 396.47046 399.587664 399.390192 0.002522256
3.47244 396.65506 399.807435 399.60867 0.002521082
3.48124 398.14899 400.023047 399.822956 0.002511623
3.49004 399.05121 400.234907 400.033457 0.002505944
3.49884 398.87451 400.44342 400.240575 0.002507054
3.50764 399.28552 400.649 400.444724 0.002504473
3.51645 400.00412 400.85206 400.646312 0.002499974
3.52525 399.80615 401.053017 400.845755 0.002501212
3.53405 399.76837 401.252271 401.043451 0.002501449
3.54285 400.01587 401.450214 401.239788 0.002499901
3.55166 400.18365 401.647248 401.435165 0.002498853
3.56046 400.59033 401.843763 401.629969 0.002496316
3.56926 401.14319 402.040133 401.824571 0.002492875
3.57806 402.11041 402.236719 402.019327 0.002486879
3.58686 402.29129 402.433872 402.214583 0.002485761
3.59567 402.01038 402.631939 402.410684 0.002487498
3.60447 401.67212 402.831253 402.607954 0.002489593
3.61327 401.86166 403.033779 402.80669 0.002488419
3.62207 403.008 403.236513 403.007191 0.00248134
3.63087 403.94522 403.441352 403.209716 0.002475583
3.63968 404.42871 403.6486 403.414546 0.002472624
3.64848 404.16678 403.858493 403.621909 0.002474226
3.65728 403.7811 404.07127 403.832034 0.002476589
3.66608 403.9827 404.28714 404.045118 0.002475354
3.67489 404.78613 404.506305 404.261353 0.00247044
3.68369 405.03745 404.728956 404.480914 0.002468908
3.69249 405.14209 404.955247 404.70394 0.00246827
3.70129 405.38727 405.185324 404.93056 0.002466777
3.71009 405.96069 405.419337 405.160905 0.002463293
3.71890 406.84393 405.657392 405.395056 0.002457945
3.72770 406.50909 405.899584 405.633086 0.00245997
3.73650 406.69211 406.146007 405.875056 0.002458863
3.74530 406.56311 406.396948 406.121008 0.002459643
3.75410 406.89713 406.652042 406.370966 0.002457624
3.76291 407.57483 406.913282 406.624934 0.002453537
3.77171 407.93756 407.177251 406.882898 0.002451356
3.78051 407.62408 407.446167 407.14482 0.002453241
3.78931 407.57608 407.719133 407.410674 0.00245353
3.79811 407.84897 407.996638 407.680394 0.002451888
3.80692 407.46533 408.278703 407.953901 0.002454197
3.81572 408.24374 408.571484 408.2311 0.002449517
3.82452 409.82477 408.862784 408.511909 0.002440067
3.83332 410.05124 409.158758 408.796189 0.00243872
3.84213 409.32605 409.459497 409.083828 0.00244304
3.85093 408.94812 409.765696 409.374673 0.002445298
3.85973 409.1348 410.076343 409.668582 0.002444182
3.86853 409.81223 410.397701 409.965391 0.002440142
3.87733 409.65884 410.719202 410.264924 0.002441056
3.88614 410.39996 411.046728 410.567005 0.002436647
3.89494 411.19254 411.38089 410.87143 0.002431951
3.90374 411.86349 411.724588 411.17802 0.002427989
3.91254 412.10117 412.075346 411.486559 0.002426589
3.92134 412.62 412.437687 411.796847 0.002423537
3.93015 412.3418 412.81654 412.108653 0.002425173
3.93895 412.17297 413.221952 412.421764 0.002426166
3.94775 413.0484 413.674042 412.735961 0.002421024
3.95655 413.78381 414.209917 413.051005 0.002416721
3.96535 413.94937 414.892297 413.366658 0.002415754
3.97416 414.22705 415.812896 413.682706 0.002414135
3.98296 416.03784 417.083373 413.998902 0.002403628
3.99176 418.68286 418.80587 414.315009 0.002388443
4.00056 420.16257 421.023637 414.630797 0.002380031
4.00937 421.89133 423.658886 414.946021 0.002370279
4.01817 424.57263 426.463968 415.260469 0.00235531
4.02697 428.31152 428.983724 415.573873 0.002334749
4.03577 430.95648 430.60086 415.886028 0.00232042
4.04457 431.87576 430.819107 416.196717 0.002315481
4.05338 429.03552 429.677813 416.505683 0.002330809
4.06218 425.07309 427.713299 416.812727 0.002352537
4.07098 420.8811 425.531572 417.11765 0.002375968
4.07978 419.62192 423.559876 417.420211 0.002383098
4.08858 419.67987 422.022324 417.720234 0.002382769
4.09739 418.9859 420.977022 418.01749 0.002386715
4.10619 417.94019 420.370423 418.31181 0.002392687
4.11499 417.72406 420.095652 418.603015 0.002393925
4.12379 417.96481 420.042364 418.890898 0.002392546
4.13260 417.83572 420.121985 419.175317 0.002393285
4.14140 417.98935 420.275032 419.456108 0.002392405
4.15020 418.86081 420.466451 419.733096 0.002387428
4.15900 418.98828 420.677488 420.006165 0.002386702
4.16780 418.91162 420.898592 420.275151 0.002387138
4.17661 418.82614 421.124973 420.539935 0.002387626
4.18541 418.88553 421.355126 420.800421 0.002387287
4.19421 419.30768 421.584768 421.05647 0.002384884
4.20301 419.42331 421.814083 421.308007 0.002384226
4.21181 419.64224 422.042509 421.554922 0.002382982
4.22062 420.15704 422.270052 421.797146 0.002380062
4.22942 419.86002 422.493829 422.034627 0.002381746
4.23822 419.52957 422.714717 422.267275 0.002383622
4.24702 419.6004 422.936472 422.495059 0.00238322
4.25582 419.60092 423.150644 422.717952 0.002383217
4.26463 419.38773 423.363806 422.935904 0.002384428
4.27343 420.0347 423.570322 423.148918 0.002380756
4.28223 421.09991 423.772761 423.356966 0.002374733
4.29103 421.9165 423.972011 423.560065 0.002370137
4.29984 422.31345 424.167309 423.758236 0.002367909
4.30864 422.92151 424.356999 423.951482 0.002364505
4.31744 423.0011 424.542348 424.139859 0.00236406
4.32624 423.62564 424.723322 424.323392 0.002360575
4.33504 423.5249 424.899932 424.502141 0.002361136
4.34385 424.16284 425.07221 424.676183 0.002357585
4.35265 423.87921 425.240176 424.845573 0.002359163
4.36145 423.7518 425.403884 425.010397 0.002359872
4.37025 423.97101 425.563408 425.170758 0.002358652
4.37905 424.67422 425.718831 425.326741 0.002354746
4.38786 425.3912 425.870215 425.478473 0.002350777
4.39666 425.83725 426.018359 425.626052 0.002348315
4.40546 426.82974 426.16199 425.769615 0.002342855
4.41426 426.60138 426.301959 425.909304 0.002344109
4.42307 426.82031 426.438331 426.045248 0.002342906
4.43187 427.01498 426.571277 426.177607 0.002341838
4.44067 427.11011 426.700936 426.306526 0.002341317
4.44947 426.88257 426.82747 426.432178 0.002342565
4.45827 427.00293 426.951049 426.554738 0.002341904
4.46708 427.64841 427.071829 426.67437 0.00233837
4.47588 428.2868 427.189996 426.791265 0.002334884
4.48468 428.51227 427.305905 426.905618 0.002333655
4.49348 428.25143 427.4194 427.017607 0.002335077
4.50228 428.20663 427.530858 427.127448 0.002335321
4.51109 428.79584 427.640467 427.235334 0.002332112
4.51989 428.77579 427.748437 427.341476 0.002332221
4.52869 429.33499 427.854985 427.446092 0.002329184
4.53749 429.64365 427.960315 427.54939 0.00232751
4.54630 430.10971 428.066637 427.651599 0.002324988
4.55510 429.80807 428.1702 427.752929 0.00232662
4.56390 430.25281 428.273214 427.853613 0.002324215
4.57270 430.62442 428.375912 427.953885 0.002322209
4.58150 431.03839 428.478518 428.05396 0.002319979
4.59031 431.25491 428.581255 428.154077 0.002318814
4.59911 431.67343 428.684368 428.254474 0.002316566
4.60791 431.76492 428.788083 428.355374 0.002316075
4.61671 431.21729 428.894435 428.457019 0.002319016
4.62551 430.97516 429.000066 428.559633 0.002320319
4.63432 431.48944 429.107007 428.663457 0.002317554
4.64312 432.49423 429.2155 428.768729 0.00231217
4.65192 433.12143 429.325765 428.875669 0.002308821
4.66072 432.86319 429.438046 428.984518 0.002310199
4.66952 432.86963 429.554489 429.095508 0.002310164
4.67833 433.04636 429.671495 429.208856 0.002309222
4.68713 433.51321 429.791214 429.324803 0.002306735
4.69593 433.4585 429.91486 429.443558 0.002307026
4.70473 433.34595 430.040665 429.565348 0.002307625
4.71354 433.45499 430.170422 429.690399 0.002307045
4.72234 434.16675 430.303206 429.818911 0.002303263
4.73114 434.75119 430.439814 429.951112 0.002300166
4.73994 434.66949 430.580439 430.087191 0.002300599
4.74874 434.73965 430.725373 430.227359 0.002300227
4.75755 435.1731 430.874681 430.371826 0.002297936
4.76635 435.31 431.028623 430.520769 0.002297213
4.77515 435.53745 431.187398 430.674383 0.002296014
4.78395 436.14966 431.351209 430.832862 0.002292791
4.79275 436.26401 431.520227 430.99637 0.00229219
4.80156 436.46054 431.695842 431.165095 0.002291158
4.81036 436.99011 431.875826 431.339187 0.002288381
4.81916 437.21384 432.062833 431.518818 0.00228721
4.82796 437.70209 432.254479 431.704152 0.002284659
4.83676 437.67831 432.452182 431.895318 0.002284783
4.84557 437.65329 432.656118 432.092481 0.002284914
4.85437 437.96811 432.866432 432.295756 0.002283271
4.86317 437.55255 433.088197 432.505279 0.00228544
4.87197 437.72986 433.311717 432.721187 0.002284514
4.88078 438.48459 433.541964 432.943573 0.002280582
4.88958 438.78177 433.779113 433.172552 0.002279037
4.89838 438.39301 434.0233 433.408242 0.002281058
4.90718 438.39075 434.274609 433.650708 0.00228107
4.91598 438.63089 434.53318 433.900066 0.002279821
4.92479 439.60291 434.799077 434.156361 0.00227478
4.93359 440.28906 435.072415 434.41968 0.002271235
4.94239 441.21988 435.353298 434.690102 0.002266444
4.95119 441.34567 435.641783 434.967654 0.002265798
4.95999 441.50064 435.937976 435.252409 0.002265002
4.96880 442.15747 436.241921 435.544376 0.002261638
4.97760 442.97281 436.554251 435.843607 0.002257475
4.98640 443.18027 436.873957 436.150137 0.002256418
4.99520 442.39246 437.203367 436.463949 0.002260436
5.00401 441.99023 437.539049 436.785074 0.002262493
5.01281 442.53885 437.882875 437.113522 0.002259689
5.02161 443.65854 438.236126 437.449252 0.002253986
5.03041 443.71097 438.596331 437.792288 0.002253719
5.03921 443.23083 438.964646 438.142571 0.002256161
5.04802 443.6532 439.341243 438.500082 0.002254013
5.05682 443.65811 439.728343 438.864807 0.002253988
5.06562 443.9079 440.121675 439.236659 0.00225272
5.07442 444.57025 440.523488 439.615632 0.002249363
5.08322 445.69049 440.933874 440.001612 0.00224371
5.09203 445.72794 441.35277 440.394558 0.002243521
5.10083 445.41104 441.780628 440.794418 0.002245117
5.10963 446.10538 442.216977 441.201068 0.002241623
5.11843 446.61377 442.66221 441.614433 0.002239071
5.12723 446.63528 443.117263 442.034445 0.002238963
5.13604 447.49832 443.580688 442.460959 0.002234645
5.14484 448.05725 444.053996 442.893904 0.002231858
5.15364 448.06113 444.536439 443.333121 0.002231838
5.16244 448.26321 445.02895 443.778517 0.002230832
5.17125 448.01736 445.531363 444.229981 0.002232056
5.18005 448.18768 446.044301 444.687332 0.002231208
5.18885 448.84363 446.568254 445.150455 0.002227947
5.19765 449.90759 447.103819 445.61924 0.002222679
5.20645 450.52383 447.652903 446.093469 0.002219638
5.21526 451.20441 448.213791 446.573047 0.00221629
5.22406 451.72 448.790014 447.057765 0.002213761
5.23286 451.93314 449.38018 447.547473 0.002212717
5.24166 451.81198 449.987109 448.042034 0.00221331
5.25046 452.10187 450.61255 448.541218 0.002211891
5.25927 452.33252 451.263624 449.044909 0.002210763
5.26807 453.22418 451.933408 449.552853 0.002206414
5.27687 454.21045 452.630207 450.0649 0.002201623
5.28567 454.66296 453.358422 450.580889 0.002199431
5.29448 455.073 454.126108 451.100572 0.00219745
5.30328 455.75601 454.935758 451.623772 0.002194156
5.31208 456.64832 455.799105 452.150324 0.002189869
5.32088 457.74988 456.731035 452.679971 0.002184599
5.32968 459.26358 457.752425 453.212558 0.002177399
5.33849 460.77774 458.900687 453.747822 0.002170244
5.34729 462.66473 460.244715 454.285591 0.002161392
5.35609 465.2066 461.909781 454.825673 0.002149583
5.36489 468.49881 464.116111 455.3678 0.002134477
5.37369 473.08029 467.222789 455.91182 0.002113806
5.38250 477.59076 471.755131 456.457462 0.002093843
5.39130 483.87543 478.381001 457.00453 0.002066648
5.40010 491.68671 487.795203 457.552843 0.002033815
5.40890 501.39081 500.493226 458.102125 0.001994452
5.41770 512.56787 516.468222 458.652195 0.001950961
5.42651 526.61932 534.870945 459.202855 0.001898905
5.43531 545.63647 553.642852 459.753832 0.001832722
5.44411 565.2146 569.234406 460.304974 0.00176924
5.45291 578.57666 577.160688 460.856008 0.001728379
5.46172 579.7583 574.548269 461.40674 0.001724857
5.47052 561.98883 562.693025 461.956994 0.001779395
5.47932 536.1731 545.826693 462.506503 0.001865069
5.48812 514.14362 528.049313 463.055105 0.001944982
5.49692 496.77985 512.018666 463.602538 0.002012964
5.50573 486.00128 499.034239 464.148634 0.002057608
5.51453 478.7215 489.411748 464.693206 0.002088897
5.52333 474.18164 482.816481 465.235998 0.002108896
5.53213 471.68256 478.604486 465.776843 0.00212007
5.54093 470.01794 476.076444 466.315582 0.002127578
5.54974 469.03912 474.640808 466.851949 0.002132018
5.55854 468.25107 473.871048 467.385822 0.002135606
5.56734 467.46021 473.493699 467.916961 0.00213922
5.57614 466.69427 473.350093 468.445203 0.00214273
5.58495 466.50122 473.35116 468.970405 0.002143617
5.59375 466.18356 473.451119 469.492334 0.002145078
5.60255 466.27139 473.618275 470.010885 0.002144674
5.61135 465.91577 473.837713 470.525822 0.002146311
5.62015 465.595 474.098075 471.03702 0.002147789
5.62896 466.12088 474.392113 471.544351 0.002145366
5.63776 466.80652 474.711162 472.047612 0.002142215
5.64656 467.18805 475.050139 472.546675 0.002140466
5.65536 467.59207 475.405868 473.041433 0.002138616
5.66416 467.71341 475.774625 473.531698 0.002138061
5.67297 468.80426 476.153905 474.017386 0.002133086
5.68177 469.2879 476.541382 474.498323 0.002130888
5.69057 469.11102 476.935255 474.974421 0.002131692
5.69937 469.13785 477.334052 475.445585 0.00213157
5.70817 469.85052 477.736187 475.911659 0.002128336
5.71698 470.11411 478.140701 476.372569 0.002127143
5.72578 470.03244 478.546684 476.82825 0.002127513
5.73458 469.78604 478.953304 477.278553 0.002128629
5.74338 470.28845 479.360342 477.723451 0.002126355
5.75219 470.995 479.766297 478.162817 0.002123165
5.76099 471.36011 480.172922 478.596614 0.00212152
5.76979 471.15231 480.576301 479.024792 0.002122456
5.77859 470.64886 480.977812 479.447251 0.002124726
5.78739 471.00415 481.37745 479.863991 0.002123124
5.79620 472.03265 481.774498 480.274927 0.002118498
5.80500 472.61157 482.169298 480.680036 0.002115902
5.81380 473.20114 482.561229 481.079318 0.002113266
5.82260 473.88388 482.95045 481.472711 0.002110222
5.83140 474.42975 483.336953 481.860212 0.002107794
5.84021 474.71048 483.720811 482.24184 0.002106547
5.84901 475.08386 484.102073 482.617556 0.002104892
5.85781 475.60837 484.480942 482.987399 0.00210257
5.86661 476.16922 484.857579 483.351346 0.002100094
5.87541 476.70282 485.23273 483.709438 0.002097743
5.88422 476.65414 485.605978 484.061726 0.002097957
5.89302 476.5538 485.978178 484.408197 0.002098399
5.90182 476.7793 486.349997 484.748936 0.002097406
5.91062 477.27353 486.722285 485.083956 0.002095235
5.91943 477.53445 487.095847 485.413326 0.00209409
5.92823 478.14197 487.471929 485.737129 0.002091429
5.93703 478.65186 487.852419 486.055399 0.002089201
5.94583 479.22391 488.238655 486.368234 0.002086707
5.95463 480.49438 488.63364 486.675728 0.00208119
5.96344 481.18277 489.042136 486.97794 0.002078212
5.97224 482.06799 489.468984 487.275001 0.002074396
5.98104 481.9968 489.923019 487.566985 0.002074703
5.98984 482.23099 490.423192 487.854012 0.002073695
5.99864 483.28906 490.997224 488.136219 0.002069155
6.00745 484.49493 491.696293 488.413699 0.002064005
6.01625 485.83142 492.600363 488.686609 0.002058327
6.02505 487.68903 493.822341 488.955057 0.002050487
6.03385 491.30569 495.505833 489.219203 0.002035393
6.04266 494.81644 497.802326 489.479206 0.002020951
6.05146 498.51669 500.829191 489.735194 0.002005951
6.06026 502.49908 504.612337 489.987342 0.001990053
6.06906 506.65366 509.018249 490.235834 0.001973735
6.07786 511.11069 513.675659 490.480808 0.001956523
6.08667 515.43109 517.897046 490.722474 0.001940124
6.09547 519.79443 520.697925 490.960987 0.001923837
6.10427 521.43555 521.199823 491.196553 0.001917783
6.11307 520.24713 519.301553 491.429374 0.001922163
6.12187 516.36646 515.770555 491.659626 0.001936609
6.13068 510.82559 511.618227 491.88754 0.001957615
6.13948 505.19299 507.605076 492.113301 0.001979442
6.14828 501.86099 504.161957 492.337132 0.001992584
6.15708 499.53232 501.464602 492.559267 0.002001872
6.16589 497.31808 499.515645 492.779905 0.002010786
6.17469 495.95935 498.211906 492.999284 0.002016294
6.18349 495.98294 497.404222 493.217648 0.002016198
6.19229 495.42548 496.946563 493.435211 0.002018467
6.20109 494.27155 496.718245 493.652234 0.002023179
6.20990 493.89374 496.633815 493.868936 0.002024727
6.21870 494.38489 496.63783 494.085578 0.002022716
6.22750 494.92401 496.697144 494.302424 0.002020512
6.23630 494.64975 496.793319 494.519699 0.002021632
6.24510 494.35724 496.915942 494.737673 0.002022829
6.25391 494.98911 497.059076 494.956621 0.002020246
6.26271 495.73431 497.218996 495.176774 0.00201721
6.27151 496.17679 497.393494 495.398427 0.002015411
6.28031 497.24292 497.58091 495.621819 0.002011089
6.28911 498.22815 497.780294 495.847236 0.002007113
6.29792 498.74329 497.991042 496.074956 0.00200504
6.30672 498.85828 498.212902 496.30523 0.002004577
6.31552 499.26498 498.445919 496.538358 0.002002944
6.32432 499.36755 498.690371 496.774593 0.002002533
6.33313 499.24579 498.947049 497.01422 0.002003021
6.34193 499.97293 499.217224 497.257534 0.002000108
6.35073 501.19147 499.503039 497.504789 0.001995245
6.35953 502.25269 499.808046 497.756275 0.00199103
6.36833 502.5134 500.138609 498.01229 0.001989997
6.37714 503.67102 500.505874 498.273089 0.001985423
6.38594 504.53976 500.927323 498.538977 0.001982004
6.39474 505.17935 501.431455 498.810208 0.001979495
6.40354 506.11182 502.056363 499.087079 0.001975848
6.41234 508.23431 502.852617 499.369891 0.001967596
6.42115 509.98123 503.872019 499.658885 0.001960856
6.42995 511.70822 505.158094 499.954377 0.001954239
6.43875 513.41431 506.725655 500.256613 0.001947745
6.44755 515.28101 508.539502 500.565891 0.001940689
6.45636 517.6452 510.489243 500.882499 0.001931825
6.46516 519.85016 512.358676 501.20668 0.001923631
6.47396 521.34235 513.818991 501.538729 0.001918125
6.48276 522.06342 514.525347 501.87893 0.001915476
6.49156 521.89398 514.344785 502.227518 0.001916098
6.50037 520.7641 513.473078 502.584801 0.001920255
6.50917 518.4635 512.268237 502.951009 0.001928776
6.51797 516.53906 511.039418 503.326417 0.001935962
6.52677 515.56171 509.978507 503.711311 0.001939632
6.53557 514.79242 509.179775 504.105911 0.001942531
6.54438 514.60919 508.665306 504.510507 0.001943222
6.55318 514.56488 508.413284 504.925311 0.00194339
6.56198 515.13165 508.378303 505.350592 0.001941251
6.57078 515.09229 508.507504 505.786628 0.0019414
6.57958 515.2345 508.753552 506.2336 0.001940864
6.58839 515.80707 509.08019 506.691776 0.001938709
6.59719 516.84869 509.462197 507.161417 0.001934802
6.60599 517.6792 509.883448 507.642706 0.001931698
6.61479 518.91443 510.334887 508.135913 0.0019271
6.62360 519.50909 510.810741 508.641209 0.001924894
6.63240 519.49762 511.308104 509.158844 0.001924937
6.64120 519.09033 511.82536 509.689052 0.001926447
6.65000 519.76416 512.36149 510.231985 0.00192395
6.65880 520.56506 512.915741 510.787908 0.001920989
6.66761 521.49323 513.487534 511.356965 0.00191757
6.67641 521.86725 514.076191 511.939366 0.001916196
6.68521 522.37701 514.681937 512.535339 0.001914326
6.69401 523.75299 515.304616 513.145009 0.001909297
6.70281 524.86346 515.94445 513.768571 0.001905257
6.71162 525.34558 516.601104 514.406241 0.001903509
6.72042 526.20905 517.275493 515.05812 0.001900385
6.72922 526.51898 517.96626 515.724429 0.001899267
6.73802 527.24066 518.674595 516.405254 0.001896667
6.74682 527.2309 519.400137 517.10078 0.001896702
6.75563 527.50641 520.143513 517.811201 0.001895712
6.76443 528.55316 520.904755 518.536555 0.001891957
6.77323 530.19836 521.684492 519.27702 0.001886087
6.78203 531.20691 522.482779 520.032766 0.001882506
6.79084 531.40497 523.300183 520.803831 0.001881804
6.79964 531.78485 524.137378 521.590398 0.00188046
6.80844 532.49512 524.994454 522.392491 0.001877951
6.81724 533.71338 525.871903 523.210262 0.001873665
6.82604 534.67847 526.770746 524.04383 0.001870283
6.83485 534.93927 527.691743 524.893197 0.001869371
6.84365 535.24774 528.63602 525.758535 0.001868294
6.85245 536.25903 529.604847 526.639829 0.00186477
6.86125 537.62793 530.599721 527.537171 0.001860022
6.87005 538.7074 531.622472 528.450681 0.001856295
6.87886 539.16479 532.675626 529.380316 0.001854721
6.88766 540.81616 533.76244 530.32615 0.001849057
6.89646 542.53461 534.888577 531.288284 0.0018432
6.90526 542.85834 536.062228 532.26664 0.001842101
6.91407 543.08032 537.296353 533.261361 0.001841348
6.92287 544.22992 538.613696 534.272327 0.001837459
6.93167 545.93555 540.051179 535.299613 0.001831718
6.94047 547.05219 541.665546 536.343279 0.001827979
6.94927 548.54163 543.537561 537.403214 0.001823016
6.95808 550.41357 545.771686 538.479498 0.001816816
6.96688 553.37177 548.487065 539.572002 0.001807103
6.97568 555.64313 551.795187 540.680771 0.001799716
6.98448 558.68439 555.767507 541.805808 0.001789919
6.99328 562.3064 560.392471 542.946956 0.00177839
7.00209 566.21155 565.527486 544.104242 0.001766124
7.01089 570.45508 570.837807 545.27765 0.001752986
7.01969 574.61456 575.730974 546.466996 0.001740297
7.02849 579.41229 579.388866 547.672344 0.001725887
7.03729 582.9967 581.075114 548.893493 0.001715276
7.04610 584.27734 580.646191 550.130399 0.001711516
7.05490 583.12909 578.672162 551.383053 0.001714886
7.06370 579.5127 575.995951 552.65123 0.001725588
7.07250 575.62128 573.307725 553.934939 0.001737253
7.08131 573.03754 571.031879 555.233934 0.001745086
7.09011 571.1756 569.374685 556.548169 0.001750775
7.09891 569.67664 568.390306 557.877607 0.001755382
7.10771 568.79419 568.032637 559.221934 0.001758105
7.11651 569.07129 568.200473 560.5811 0.001757249
7.12532 569.48358 568.774847 561.955036 0.001755977
7.13412 569.65149 569.644475 563.343448 0.001755459
7.14292 569.39612 570.719248 564.746303 0.001756247
7.15172 570.25946 571.934668 566.16329 0.001753588
7.16052 571.49097 573.247048 567.594332 0.001749809
7.16933 573.28131 574.630095 569.0393 0.001744344
7.17813 574.90857 576.067981 570.497859 0.001739407
7.18693 576.11237 577.551499 571.969985 0.001735772
7.19573 576.76648 579.075571 573.455328 0.001733804
7.20453 576.72424 580.638017 574.953734 0.001733931
7.21334 577.4671 582.23737 576.465097 0.0017317
7.22214 579.09229 583.875095 577.989048 0.00172684
7.23094 580.71814 585.555044 579.525414 0.001722006
7.23974 582.35217 587.283912 581.074076 0.001717174
7.24855 584.01447 589.073272 582.634623 0.001712286
7.25735 584.97986 590.941002 584.207015 0.001709461
7.26615 585.97015 592.90991 585.790793 0.001706572
7.27495 588.14551 595.008064 587.385815 0.00170026
7.28375 590.17511 597.264704 588.991919 0.001694412
7.29256 592.35437 599.702961 590.608683 0.001688179
7.30136 594.18005 602.331498 592.235897 0.001682992
7.31016 596.40027 605.133228 593.873404 0.001676726
7.31896 598.31061 608.053685 595.520764 0.001671373
7.32777 600.31476 610.983954 597.177849 0.001665793
7.33657 601.81232 613.751186 598.844207 0.001661648
7.34537 603.32428 616.148873 600.519665 0.001657483
7.35417 605.67566 618.040808 602.203989 0.001651049
7.36297 607.81165 619.463882 603.896713 0.001645247
7.37178 609.65173 620.601062 605.597731 0.001640281
7.38058 610.20142 621.659987 607.306565 0.001638803
7.38938 611.909 622.795546 609.022968 0.00163423
7.39818 613.95654 624.100556 610.746746 0.00162878
7.40698 616.94733 625.621099 612.477411 0.001620884
7.41579 619.73102 627.371376 614.214704 0.001613603
7.42459 622.41998 629.345986 615.958424 0.001606632
7.43339 624.99152 631.5299 617.70805 0.001600022
7.44219 628.3125 633.908176 619.463476 0.001591565
7.45099 632.35675 636.471538 621.224133 0.001581386
7.45980 636.42365 639.222264 622.989809 0.00157128
7.46860 641.23669 642.177877 624.760272 0.001559487
7.47740 647.10242 645.376371 626.535004 0.00154535
7.48620 655.37848 648.887736 628.313828 0.001525836
7.49501 664.48608 652.830471 630.096222 0.001504922
7.50381 674.13678 657.401242 631.881965 0.001483378
7.51261 682.57294 662.912825 633.670773 0.001465045
7.52141 693.79913 669.836101 635.462118 0.001441339
7.53021 707.34332 678.835911 637.255775 0.001413741
7.53902 722.25922 690.771771 639.051454 0.001384544
7.54782 737.95551 706.635302 640.848624 0.001355095
7.55662 755.84894 727.4133 642.647137 0.001323016
7.56542 775.39728 753.847858 644.446456 0.001289661
7.57422 797.64539 786.14314 646.24629 0.00125369
7.58303 822.47931 823.605457 648.046408 0.001215836
7.59183 847.80353 864.197797 649.846251 0.001179519
7.60063 873.88867 904.015407 651.645689 0.001144311
7.60943 896.51569 936.92292 653.444122 0.001115429
7.61823 918.10291 955.611442 655.241317 0.001089203
7.62704 930.66748 955.077157 657.037022 0.001074498
7.63584 932.34302 936.213042 658.830697 0.001072567
7.64464 920.30078 905.106458 660.622049 0.001086601
7.65344 895.55249 868.992314 662.410846 0.001116629
7.66225 864.8205 833.414481 664.196552 0.001156309
7.67105 835.66205 801.711665 665.978974 0.001196656
7.67985 808.14105 775.508804 667.757579 0.001237408
7.68865 788.14368 755.220149 669.532137 0.001268804
7.69745 769.27283 740.467037 671.302358 0.001299929
7.70626 753.20789 730.421889 673.067712 0.001327655
7.71506 741.63684 724.086811 674.828052 0.001348369
7.72386 732.67883 720.508054 676.582851 0.001364855
7.73266 726.50513 718.891202 678.331826 0.001376453
7.74146 721.69788 718.644691 680.074752 0.001385621
7.75027 717.87402 719.368009 681.811111 0.001393002
7.75907 716.13293 720.816043 683.540622 0.001396389
7.76787 715.46973 722.861581 685.263066 0.001397683
7.77667 714.01013 725.466464 686.977914 0.00140054
7.78548 715.09961 728.668217 688.685046 0.001398407
7.79428 717.41693 732.577213 690.383902 0.00139389
7.80308 721.73987 737.384342 692.074269 0.001385541
7.81188 727.69116 743.367182 693.755919 0.001374209
7.82068 734.33722 750.886121 695.428358 0.001361772
7.82949 743.50006 760.366322 697.091325 0.00134499
7.83829 755.67065 772.254751 698.744617 0.001323328
7.84709 771.03784 786.955238 700.387753 0.001296953
7.85589 790.81427 804.76261 702.020573 0.001264519
7.86469 814.00879 825.778323 703.642604 0.001228488
7.87350 841.755 849.82256 705.253654 0.001187994
7.88230 873.64404 876.296131 706.85348 0.001144631
7.89110 909.19257 904.090667 708.441623 0.001099877
7.89990 944.25397 931.946924 710.017971 0.001059037
7.90870 976.12738 959.541353 711.582077 0.001024456
7.91751 998.56049 988.544534 713.13371 0.001001442
7.92631 1024.1677 1022.092434 714.672697 0.000976403
7.93511 1052.0815 1062.927176 716.198587 0.000950497
7.94391 1094.0648 1111.807452 717.711215 0.000914023
7.95272 1148.2828 1166.589399 719.210363 0.000870866
7.96152 1203.9669 1221.637064 720.695618 0.000830588
7.97032 1262.9105 1267.71625 722.166889 0.000791822
7.97912 1303.8879 1294.190008 723.623774 0.000766937
7.98792 1332.2288 1294.649319 725.066074 0.000750622
7.99673 1320.8674 1271.936258 726.493643 0.000757078
8.00553 1291.1957 1236.659189 727.906176 0.000774476
8.01433 1236.7859 1201.119746 729.303248 0.000808547
8.02313 1204.15 1174.921575 730.684965 0.000830461
8.03193 1168.4404 1163.854862 732.050942 0.000855842
8.04074 1164.0503 1170.118931 733.400823 0.000859069
8.04954 1154.3802 1192.547228 734.734671 0.000866266
8.05834 1175.8557 1226.519378 736.052137 0.000850444
8.06714 1209.9095 1263.717092 737.352887 0.000826508
8.07594 1266.7986 1292.586511 738.636988 0.000789391
8.08475 1326.9712 1301.362585 739.904114 0.000753596
8.09355 1350.6218 1283.865968 741.153949 0.0007404
8.10235 1303.5756 1243.172147 742.386569 0.000767121
8.11115 1212.6927 1188.827442 743.601668 0.000824611
8.11996 1120.5951 1131.173729 744.799075 0.000892383
8.12876 1055.2954 1078.164175 745.978505 0.000947602
8.13756 1015.3978 1035.083834 747.14004 0.000984836
8.14636 993.36761 1005.223378 748.283404 0.001006677
8.15516 985.98468 990.450348 749.408336 0.001014215
8.16397 992.93713 991.58683 750.514922 0.001007113
8.17277 1013.2367 1008.553739 751.60291 0.000986936
8.18157 1044.3607 1040.371217 752.67206 0.000957524
8.19037 1094.2534 1085.015756 753.722467 0.000913865
8.19917 1144.8779 1139.028858 754.7539 0.000873456
8.20798 1200.5175 1196.905979 755.766132 0.000832974
8.21678 1251.1781 1250.427773 756.759296 0.000799247
8.22558 1286.0115 1288.848961 757.733153 0.000777598
8.23438 1303.1003 1301.944055 758.687618 0.000767401
8.24319 1290.0234 1285.496508 759.622495 0.00077518
8.25199 1242.9531 1244.19068 760.537923 0.000804536
8.26079 1178.2673 1188.339979 761.433697 0.000848704
8.26959 1108.2428 1128.393862 762.309656 0.000902329
8.27839 1047.696 1072.036361 763.165932 0.000954475
8.28720 1002.7131 1024.035889 764.002374 0.000997294
8.29600 966.87158 986.863965 764.818818 0.001034264
8.30480 944.09375 961.274065 765.615408 0.001059217
8.31360 929.9649 946.750496 766.39201 0.001075309
8.32240 924.95532 941.795899 767.148509 0.001081133
8.33121 925.99658 944.141792 767.88503 0.001079918
8.34001 933.37616 950.82619 768.601469 0.001071379
8.34881 943.33282 958.214981 769.297807 0.001060071
8.35761 952.84619 962.356682 769.973962 0.001049487
8.36641 958.09924 960.099541 770.630065 0.001043733
8.37522 954.92938 950.474409 771.266043 0.001047198
8.38402 940.41644 934.907446 771.881839 0.001063359
8.39282 918.02167 915.977648 772.477588 0.001089299
8.40162 896.56512 896.142983 773.053242 0.001115368
8.41043 876.1084 877.206991 773.608765 0.001141411
8.41923 857.72235 860.280779 774.144298 0.001165878
8.42803 843.81958 845.914371 774.659814 0.001185087
8.43683 833.88818 834.227368 775.155303 0.001199202
8.44563 826.01117 825.044799 775.630908 0.001210637
8.45444 819.79907 818.022833 776.086626 0.001219811
8.46324 815.00055 812.750083 776.522512 0.001226993
8.47204 811.10413 808.821241 776.938583 0.001232887
8.48084 808.27435 805.881458 777.334988 0.001237204
8.48964 806.22632 803.648963 777.711756 0.001240347
8.49845 804.55225 801.913711 778.068924 0.001242927
8.50725 802.81036 800.527098 778.406647 0.001245624
8.51605 801.91064 799.388334 778.724973 0.001247022
8.52485 800.60486 798.430449 779.023962 0.001249056
8.53366 799.28998 797.608576 779.303771 0.00125111
8.54246 798.86298 796.892507 779.56447 0.001251779
8.55126 798.87268 796.260881 779.806137 0.001251764
8.56006 798.79272 795.69788 780.02894 0.001251889
8.56886 799.44128 795.191492 780.232961 0.001250874
8.57767 798.48285 794.732035 780.418321 0.001252375
8.58647 796.58032 794.311687 780.585128 0.001255366
8.59527 795.97162 793.9238 780.733549 0.001256326
8.60407 796.56732 793.5629 780.863695 0.001255387
8.61287 796.10052 793.224304 780.975694 0.001256123
8.62168 795.56317 792.903955 781.069713 0.001256971
8.63048 795.60016 792.598428 781.145886 0.001256913
8.63928 795.91974 792.304805 781.204356 0.001256408
8.64808 796.01642 792.020464 781.245293 0.001256255
8.65689 795.28583 791.743232 781.268847 0.00125741
8.66569 794.12354 791.47119 781.275181 0.00125925
8.67449 793.69556 791.202642 781.264465 0.001259929
8.68329 793.63379 790.936149 781.236866 0.001260027
8.69209 793.29517 790.67044 781.19256 0.001260565
8.70090 793.52527 790.404458 781.131732 0.001260199
8.70970 793.61041 790.137186 781.05455 0.001260064
8.71850 793.18683 789.867834 780.961206 0.001260737
8.72730 792.71265 789.595704 780.851899 0.001261491
8.73610 792.27393 789.320145 780.7268 0.00126219
8.74491 791.74768 789.040651 780.586114 0.001263029
8.75371 790.95807 788.756805 780.430056 0.00126429
8.76251 790.19751 788.468207 780.258796 0.001265506
8.77131 789.86353 788.174568 780.072554 0.001266041
8.78011 789.49152 787.875694 779.871557 0.001266638
8.78892 789.43182 787.571369 779.655976 0.001266734
8.79772 789.34399 787.261536 779.426043 0.001266875
8.80652 789.33295 786.946176 779.181973 0.001266893
8.81532 789.40369 786.625403 778.924013 0.001266779
8.82413 789.57495 786.299374 778.652329 0.001266504
8.83293 789.2608 785.968446 778.36717 0.001267008
8.84173 788.46033 785.633157 778.068794 0.001268295
8.85053 787.79938 785.294103 777.757367 0.001269359
8.85933 787.73755 784.952131 777.433147 0.001269458
8.86814 787.8559 784.608151 777.096403 0.001269268
8.87694 787.70599 784.262964 776.747299 0.001269509
8.88574 787.70111 783.917292 776.386103 0.001269517
8.89454 786.79553 783.57152 776.013097 0.001270978
8.90334 786.13367 783.225327 775.62843 0.001272048
8.91215 786.21875 782.877696 775.232394 0.001271911
8.92095 786.32391 782.52641 774.825225 0.001271741
8.92975 785.31549 782.167774 774.407216 0.001273374
8.93855 783.40283 781.796614 773.978511 0.001276482
8.94736 781.83649 781.407841 773.539413 0.00127904
8.95616 781.54523 780.998928 773.090216 0.001279516
8.96496 781.26257 780.571599 772.631066 0.001279979
8.97376 780.32166 780.131203 772.162257 0.001281523
8.98256 779.44257 779.68396 771.684105 0.001282968
8.99137 778.38446 779.234872 771.196745 0.001284712
9.00017 777.08551 778.787577 770.700485 0.00128686
9.00897 776.28699 778.344398 770.195627 0.001288183
9.01777 776.09558 777.906602 769.682322 0.001288501
9.02657 775.2334 777.474941 769.160873 0.001289934
9.03538 774.52649 777.049724 768.631533 0.001291111
9.04418 774.07397 776.631068 768.094612 0.001291866
9.05298 773.47882 776.21893 767.550254 0.00129286
9.06178 772.57056 775.813463 766.998766 0.00129438
9.07058 771.29028 775.414988 766.440461 0.001296529
9.07939 769.8222 775.023893 765.875477 0.001299001
9.08819 768.57397 774.640893 765.304125 0.001301111
9.09699 767.70508 774.266917 764.726719 0.001302584
9.10579 766.83221 773.902946 764.143392 0.001304066
9.11460 765.76306 773.550251 763.554457 0.001305887
9.12340 765.67999 773.210256 762.960226 0.001306029
9.13220 765.53424 772.884463 762.36083 0.001306277
9.14100 765.88501 772.574627 761.756579 0.001305679
9.14980 765.89252 772.282675 761.147788 0.001305666
9.15861 765.95825 772.010675 760.53458 0.001305554
9.16741 764.87512 771.76098 759.917267 0.001307403
9.17621 763.62787 771.536181 759.296095 0.001309538
9.18501 762.79437 771.339153 758.671376 0.001310969
9.19381 762.47656 771.173092 758.043228 0.001311516
9.20262 763.39502 771.041591 757.411957 0.001309938
9.21142 763.37976 770.948655 756.777874 0.001309964
9.22022 763.25983 770.898827 756.141089 0.00131017
9.22902 763.03271 770.897216 755.501908 0.00131056
9.23782 762.28656 770.949589 754.860642 0.001311843
9.24663 761.69507 771.062574 754.217377 0.001312861
9.25543 761.88098 771.2437 753.572435 0.001312541
9.26423 762.03778 771.501547 752.926118 0.001312271
9.27303 761.94226 771.846167 752.278509 0.001312435
9.28184 761.83685 772.289036 751.629908 0.001312617
9.29064 762.0249 772.843569 750.980556 0.001312293
9.29944 762.85651 773.52533 750.330748 0.001310863
9.30824 763.57983 774.353047 749.680561 0.001309621
9.31704 765.1413 775.348664 749.030286 0.001306948
9.32585 766.18823 776.53867 748.38023 0.001305162
9.33465 768.4433 777.956347 747.730459 0.001301332
9.34345 770.34741 779.64338 747.081262 0.001298116
9.35225 774.31781 781.654668 746.432922 0.001291459
9.36105 779.13849 784.06601 745.785517 0.001283469
9.36986 783.70764 786.984772 745.139324 0.001275986
9.37866 790.12061 790.567108 744.494616 0.00126563
9.38746 796.94989 795.045224 743.851466 0.001254784
9.39626 806.47748 800.759277 743.210144 0.00123996
9.40507 818.02795 808.202025 742.570849 0.001222452
9.41387 832.31659 818.061675 741.933844 0.001201466
9.42267 849.8089 831.265843 741.299194 0.001176735
9.43147 871.93237 848.994601 740.667157 0.001146878
9.44027 899.48364 872.655495 740.037986 0.001111749
9.44908 931.37573 903.811245 739.411739 0.001073681
9.45788 971.53656 944.004782 738.788666 0.001029297
9.46668 1016.5233 994.532454 738.169012 0.000983745
9.47548 1071.7905 1056.148921 737.552827 0.000933018
9.48428 1131.6246 1128.664805 736.940351 0.000883685
9.49309 1201.3922 1210.518963 736.33182 0.000832368
9.50189 1276.5648 1298.242304 735.727278 0.000783352
9.51069 1360.9868 1385.820483 735.126955 0.000734761
9.51949 1441.3878 1464.435771 734.531015 0.000693776
9.52829 1514.0724 1523.301035 733.93968 0.00066047
9.53710 1561.1942 1552.267988 733.352985 0.000640535
9.54590 1565.7576 1545.518376 732.771148 0.000638668
9.55470 1525.1213 1504.213331 732.194378 0.000655686
9.56350 1456.621 1436.024336 731.622706 0.00068652
9.57231 1362.8232 1351.881497 731.056338 0.000733771
9.58111 1255.9626 1262.23216 730.495478 0.000796202
9.58991 1155.2175 1174.935312 729.940132 0.000865638
9.59871 1066.3328 1095.047362 729.390514 0.000937794
9.60751 995.83582 1025.291664 728.846811 0.001004182
9.61632 939.87311 966.649942 728.30903 0.001063973
9.62512 896.28925 918.933333 727.777352 0.001115711
9.63392 862.45007 881.158325 727.251914 0.001159487
9.64272 836.14294 851.907938 726.732889 0.001195968
9.65152 816.11237 829.599415 726.220274 0.001225321
9.66033 800.89038 812.716719 725.714237 0.00124861
9.66913 788.80396 799.926062 725.214956 0.001267742
9.67793 779.48755 790.134405 724.72242 0.001282894
9.68673 772.40247 782.506404 724.236788 0.001294662
9.69553 766.0473 776.430145 723.75821 0.001305402
9.70434 760.72156 771.473025 723.286686 0.001314541
9.71314 755.90485 767.341152 722.822359 0.001322918
9.72194 752.48065 763.836302 722.365365 0.001328938
9.73074 750.11359 760.824238 721.915699 0.001333131
9.73955 747.91467 758.214292 721.473492 0.001337051
9.74835 746.34088 755.943174 721.038825 0.00133987
9.75715 744.91589 753.965798 720.611819 0.001342433
9.76595 743.39673 752.248597 720.192462 0.001345177
9.77475 741.87311 750.767685 719.780867 0.001347939
9.78356 741.04639 749.506047 719.377145 0.001349443
9.79236 741.07544 748.452433 718.981277 0.00134939
9.80116 740.96454 747.601538 718.593367 0.001349592
9.80996 741.18042 746.953696 718.213512 0.001349199
9.81876 741.14191 746.514795 717.841688 0.001349269
9.82757 741.58539 746.296957 717.477988 0.001348462
9.83637 743.07397 746.318545 717.122497 0.001345761
9.84517 744.88025 746.605236 716.775187 0.001342498
9.85397 746.34497 747.1912 716.436138 0.001339863
9.86278 748.05664 748.1216 716.105389 0.001336797
9.87158 751.11169 749.456593 715.78301 0.00133136
9.88038 755.25623 751.278064 715.468968 0.001324054
9.88918 759.53845 753.695687 715.163328 0.001316589
9.89798 763.36456 756.854221 714.866146 0.00130999
9.90679 768.24152 760.940545 714.577386 0.001301674
9.91559 774.86389 766.185286 714.2971 0.001290549
9.92439 783.05969 772.869991 714.025339 0.001277042
9.93319 792.43292 781.340443 713.762052 0.001261936
9.94199 803.47162 791.997275 713.50729 0.001244599
9.95080 816.63281 805.252078 713.261087 0.001224541
9.95960 833.68756 821.441173 713.023395 0.00119949
9.96840 851.61035 840.701115 712.794244 0.001174246
9.97720 872.19507 862.862703 712.57364 0.001146533
9.98600 893.07587 887.330327 712.361604 0.001119726
9.99481 913.25037 912.955413 712.158084 0.00109499
10.00361 930.53156 937.869383 711.963089 0.001074655
10.01241 944.7171 959.455118 711.776657 0.001058518
10.02121 955.27814 974.74515 711.598696 0.001046816
10.03002 967.99829 981.364548 711.429254 0.00103306
10.03882 973.31226 978.750146 711.26831 0.00102742
10.04762 972.11304 968.561537 711.115794 0.001028687
10.05642 964.99023 953.914472 710.971736 0.00103628
10.06522 953.91016 938.120091 710.836094 0.001048317
10.07403 939.52789 923.844212 710.708843 0.001064364
10.08283 927.74103 912.841453 710.589939 0.001077887
10.09163 917.77063 906.000262 710.47938 0.001089597
10.10043 909.90289 903.418027 710.377128 0.001099018
10.10923 904.39606 904.462756 710.283115 0.00110571
10.11804 900.44781 907.768029 710.197337 0.001110559
10.12684 898.85187 911.301716 710.119743 0.00111253
10.13564 899.34406 912.665856 710.050289 0.001111922
10.14444 897.77661 909.765828 709.988927 0.001113863
10.15325 894.71008 901.630262 709.935629 0.00111768
10.16205 888.03235 888.751989 709.890328 0.001126085
10.17085 876.88165 872.67314 709.852976 0.001140405
10.17965 861.89679 855.226617 709.823534 0.001160232
10.18845 847.21832 837.968284 709.801933 0.001180333
10.19726 833.58118 822.042077 709.788127 0.001199643
10.20606 821.88458 808.204359 709.782056 0.001216716
10.21486 812.51978 796.933609 709.78366 0.001230739
10.22366 806.43933 788.510582 709.79288 0.001240019
10.23246 802.82611 783.089909 709.809655 0.0012456
10.24127 801.1712 780.745324 709.833914 0.001248173
10.25007 801.35333 781.496296 709.865602 0.001247889
10.25887 803.23792 785.325761 709.904644 0.001244961
10.26767 806.80664 792.16846 709.950974 0.001239454
10.27647 812.63489 801.890081 710.004521 0.001230565
10.28528 820.13934 814.234013 710.065216 0.001219305
10.29408 830.15161 828.77188 710.132985 0.001204599
10.30288 842.19623 844.806085 710.207755 0.001187372
10.31168 856.40723 861.272576 710.28946 0.001167669
10.32048 871.0506 876.639625 710.377995 0.001148039
10.32929 885.47815 888.939391 710.473322 0.001129333
10.33809 896.58905 896.083081 710.575334 0.001115338
10.34689 901.75714 896.5587 710.683959 0.001108946
10.35569 899.24237 890.124132 710.799117 0.001112047
10.36450 886.27344 877.923432 710.920728 0.00112832
10.37330 865.52216 861.914177 711.048723 0.001155372
10.38210 842.65472 844.114568 711.182976 0.001186726
10.39090 821.60956 826.138307 711.323461 0.001217123
10.39971 803.54877 809.1055 711.470049 0.00124448
10.40851 789.46991 793.703335 711.622651 0.001266673
10.41731 777.49017 780.282747 711.781233 0.00128619
10.42611 767.65381 768.957747 711.945657 0.001302671
10.43491 759.09668 759.66602 712.115851 0.001317355
10.44371 752.55237 752.223831 712.291729 0.001328811
10.45252 748.46942 746.383828 712.473222 0.00133606
10.46132 745.0119 741.871741 712.660199 0.00134226
10.47012 742.0072 738.420451 712.85257 0.001347696
10.47892 739.14532 735.789481 713.05031 0.001352914
10.48773 736.62036 733.778721 713.253263 0.001357551
10.49653 733.99976 732.229264 713.461361 0.001362398
10.50533 733.07343 731.02009 713.674513 0.00136412
10.51413 732.38287 730.063496 713.892626 0.001365406
10.52293 731.73529 729.296587 714.115611 0.001366614
10.53174 730.88263 728.675759 714.343375 0.001368209
10.54054 730.43567 728.170586 714.575853 0.001369046
10.54934 730.54913 727.759761 714.812874 0.001368833
10.55814 730.34576 727.427927 715.054454 0.001369214
10.56695 729.95349 727.16386 715.300419 0.00136995
10.57575 730.23639 726.959019 715.550705 0.00136942
10.58455 730.46234 726.806726 715.80522 0.001368996
10.59335 729.48059 726.70147 716.063873 0.001370838
10.60215 729.05005 726.638881 716.326603 0.001371648
10.61096 729.8717 726.615247 716.593227 0.001370104
10.61976 731.0542 726.627545 716.863777 0.001367888
10.62856 731.19916 726.673183 717.13807 0.001367616
10.63736 730.56506 726.75015 717.416045 0.001368803
10.64616 730.79822 726.8567 717.697614 0.001368367
10.65497 731.52344 726.991562 717.982686 0.00136701
10.66377 731.89471 727.153789 718.271173 0.001366317
10.67257 731.18591 727.342691 718.562984 0.001367641
10.68137 730.31927 727.558082 718.858065 0.001369264
10.69017 730.46765 727.799948 719.156262 0.001368986
10.69898 730.72791 728.068903 719.457521 0.001368498
10.70778 731.21735 728.366031 719.761753 0.001367582
10.71658 731.25165 728.693176 720.068874 0.001367518
10.72538 732.54852 729.053241 720.378797 0.001365097
10.73419 733.85284 729.450548 720.691437 0.001362671
10.74299 734.27002 729.891767 721.006746 0.001361897
10.75179 734.1001 730.386218 721.324533 0.001362212
10.76059 734.38513 730.948032 721.644858 0.001361683
10.76939 735.16302 731.596321 721.967531 0.001360243
10.77820 735.78674 732.357578 722.292469 0.001359089
10.78700 736.57629 733.266924 722.619703 0.001357633
10.79580 737.33411 734.367897 722.949042 0.001356237
10.80460 739.01764 735.713988 723.280482 0.001353148
10.81340 740.49615 737.364431 723.613831 0.001350446
10.82221 742.03424 739.383874 723.949125 0.001347647
10.83101 743.92926 741.833317 724.286289 0.001344214
10.83981 746.46387 744.763235 724.625131 0.00133965
10.84861 749.63116 748.205881 724.965732 0.001333989
10.85741 751.98993 752.159049 725.307902 0.001329805
10.86622 753.61346 756.579741 725.651607 0.00132694
10.87502 755.98724 761.362905 725.996776 0.001322774
10.88382 759.37854 766.326827 726.343337 0.001316866
10.89262 763.36072 771.187393 726.691223 0.001309997
10.90142 767.34729 775.548719 727.040363 0.001303191
10.91023 771.09302 778.934232 727.390732 0.00129686
10.91903 774.1073 780.88326 727.742182 0.001291811
10.92783 776.78833 781.117737 728.094689 0.001287352
10.93663 776.26013 779.663665 728.448188 0.001288228
10.94544 772.67792 776.838766 728.802617 0.0012942
10.95424 767.13452 773.114789 729.157914 0.001303552
10.96304 762.33862 768.961796 729.514018 0.001311753
10.97184 757.61243 764.756087 729.87091 0.001319936
10.98064 753.68652 760.767227 730.228411 0.001326812
10.98945 749.98395 757.161137 730.586625 0.001333362
10.99825 747.93854 754.034258 730.945375 0.001337008
11.00705 746.81812 751.421897 731.304647 0.001339014
11.01585 745.46344 749.319535 731.664388 0.001341447
11.02465 743.79669 747.692911 732.024544 0.001344453
11.03346 742.97095 746.488414 732.385107 0.001345948
11.04226 743.13037 745.645153 732.745903 0.001345659
11.05106 742.75775 745.099161 733.107047 0.001346334
11.05986 742.23169 744.792305 733.46837 0.001347288
11.06867 741.88574 744.673125 733.829866 0.001347916
11.07747 742.1933 744.699835 734.191491 0.001347358
11.08627 742.39191 744.8397 734.5532 0.001346997
11.09507 742.04395 745.068233 734.914951 0.001347629
11.10387 742.73193 745.368147 735.276704 0.001346381
11.11268 743.7298 745.727608 735.638459 0.001344574
11.12148 744.51917 746.139159 736.000055 0.001343149
11.13028 744.44672 746.598837 736.361577 0.001343279
11.13908 744.92694 747.105261 736.72299 0.001342414
11.14789 745.72729 747.659242 737.084177 0.001340973
11.15669 746.45557 748.263951 737.445144 0.001339664
11.16549 746.56055 748.924912 737.80586 0.001339476
11.17429 748.13281 749.650342 738.166334 0.001336661
11.18309 749.87189 750.451597 738.526414 0.001333561
11.19190 751.17212 751.344367 738.886194 0.001331253
11.20070 752.70154 752.349083 739.245646 0.001328548
11.20950 754.35406 753.491288 739.604622 0.001325637
11.21830 756.0733 754.803717 739.96326 0.001322623
11.22710 758.37872 756.325289 740.321413 0.001318602
11.23591 760.86224 758.101744 740.679101 0.001314298
11.24471 763.27948 760.185299 741.036302 0.001310136
11.25351 766.26288 762.631258 741.392996 0.001305035
11.26231 769.38062 765.496397 741.749203 0.001299747
11.27111 772.49115 768.829782 742.104785 0.001294513
11.27992 776.26642 772.669799 742.459888 0.001288218
11.28872 780.32288 777.030599 742.814374 0.001281521
11.29752 785.05328 781.895719 743.168269 0.001273799
11.30632 789.94574 787.216392 743.52156 0.00126591
11.31513 795.23901 792.910498 743.874236 0.001257484
11.32393 800.13965 798.87033 744.226285 0.001249782
11.33273 804.80762 804.951111 744.577697 0.001242533
11.34153 808.74451 810.949094 744.928504 0.001236484
11.35033 813.60449 816.580624 745.278577 0.001229098
11.35914 818.15485 821.50717 745.628071 0.001222263
11.36794 823.24261 825.421106 745.976859 0.001214709
11.37674 828.82709 828.188647 746.324978 0.001206524
11.38554 834.86188 829.944065 746.672423 0.001197803
11.39434 839.9054 831.07178 747.019192 0.00119061
11.40315 843.5564 832.08062 747.365322 0.001185457
11.41195 846.56348 833.474804 747.710696 0.001181246
11.42075 850.76807 835.688845 748.055471 0.001175408
11.42955 857.04974 839.086017 748.39953 0.001166793
11.43835 862.05432 843.98043 748.742877 0.00116002
11.44716 868.98444 850.637408 749.08563 0.001150769
11.45596 874.24481 859.230206 749.427677 0.001143844
11.46476 881.50781 869.784436 749.769063 0.00113442
11.47356 890.8844 882.128538 750.109792 0.00112248
11.48237 902.28387 895.834849 750.449911 0.001108299
11.49117 914.94812 910.175491 750.789311 0.001092958
11.49997 926.05005 924.088591 751.128115 0.001079855
11.50877 936.68054 936.192464 751.466334 0.0010676
11.51757 945.3877 944.968655 751.803899 0.001057767
11.52638 954.03326 949.14049 752.140861 0.001048181
11.53518 955.88318 948.134923 752.477229 0.001046153
11.54398 951.40363 942.335398 752.813056 0.001051079
11.55278 941.24359 932.938563 753.148238 0.001062424
11.56158 928.04187 921.515307 753.482904 0.001077538
11.57039 912.72266 909.602996 753.817067 0.001095623
11.57919 897.35626 898.470119 754.15063 0.001114385
11.58799 884.77228 889.059923 754.483757 0.001130234
11.59679 875.65881 882.024995 754.816353 0.001141997
11.60559 872.06232 877.760419 755.148471 0.001146707
11.61440 870.69257 876.440882 755.480128 0.001148511
11.62320 872.35413 878.027866 755.811343 0.001146323
11.63200 876.56342 882.314668 756.14217 0.001140819
11.64080 884.25647 888.940643 756.472516 0.001130894
11.64961 892.59766 897.447688 756.802551 0.001120326
11.65841 902.28009 907.276271 757.13218 0.001108303
11.66721 911.38098 917.728128 757.461462 0.001097236
11.67601 920.47076 927.905274 757.790417 0.001086401
11.68481 927.36493 936.674145 758.119066 0.001078324
11.69362 932.18567 942.792488 758.447431 0.001072748
11.70242 934.8576 945.187143 758.775532 0.001069682
11.71122 935.6488 943.338241 759.10343 0.001068777
11.72002 931.67261 937.503667 759.431034 0.001073338
11.72883 923.52051 928.617386 759.758516 0.001082813
11.73763 912.77832 917.943657 760.085788 0.001095556
11.74643 900.02747 906.716085 760.412909 0.001111077
11.75523 886.96863 895.911653 760.739903 0.001127436
11.76403 874.63055 886.201489 761.066794 0.00114334
11.77284 864.74805 877.956381 761.393642 0.001156406
11.78164 857.08868 871.286237 761.72036 0.00116674
11.79044 851.46301 866.065708 762.047121 0.001174449
11.79924 847.25159 861.962905 762.373837 0.001180287
11.80804 844.47357 858.486068 762.700533 0.00118417
11.81685 841.88959 855.065465 763.027344 0.001187804
11.82565 838.98767 851.198433 763.354184 0.001191913
11.83445 834.50238 846.5907 763.681115 0.001198319
11.84325 829.85315 841.221554 764.008161 0.001205032
11.85206 824.67212 835.294681 764.335384 0.001212603
11.86086 819.00629 829.121071 764.662734 0.001220992
11.86966 813.1601 823.00405 764.990236 0.00122977
11.87846 808.10266 817.184352 765.318026 0.001237467
11.88726 804.37579 811.829648 765.646018 0.0012432
11.89607 801.19983 807.040364 765.974272 0.001248128
11.90487 798.73059 802.863568 766.302814 0.001251987
11.91367 796.15497 799.302078 766.631705 0.001256037
11.92247 794.56091 796.328011 766.960857 0.001258557
11.93127 792.93927 793.883002 767.290406 0.001261131
11.94008 792.39771 791.894223 767.620377 0.001261993
11.94888 791.42603 790.281598 767.95068 0.001263542
11.95768 790.78052 788.969998 768.28149 0.001264573
11.96648 789.36688 787.900863 768.612717 0.001266838
11.97528 788.28412 787.031972 768.94446 0.001268578
11.98409 787.0163 786.343748 769.276628 0.001270622
11.99289 786.72253 785.822548 769.609357 0.001271096
12.00169 786.87128 785.464318 769.94267 0.001270856
12.01049 786.7442 785.269379 770.276475 0.001271061
12.01929 786.38702 785.241178 770.610946 0.001271638
12.02810 786.0094 785.385163 770.94599 0.001272249
12.03690 786.53119 785.707277 771.281667 0.001271405
12.04570 787.54761 786.212175 771.617997 0.001269765
12.05450 788.33765 786.901548 771.955002 0.001268492
12.06330 788.78418 787.771786 772.292701 0.001267774
12.07211 789.53418 788.811792 772.631114 0.00126657
12.08091 791.20734 790.001281 772.970299 0.001263891
12.08971 791.56049 791.306328 773.310198 0.001263327
12.09851 792.85718 792.677845 773.650868 0.001261261
12.10732 793.97607 794.046133 773.992327 0.001259484
12.11612 795.80872 795.320768 774.334594 0.001256583
12.12492 797.0257 796.394839 774.677685 0.001254665
12.13372 798.67035 797.162659 775.021618 0.001252081
12.14252 800.86444 797.547785 775.366447 0.001248651
12.15133 802.49548 797.529286 775.712072 0.001246113
12.16013 802.83716 797.149875 776.058665 0.001245583
12.16893 801.65527 796.499902 776.406122 0.001247419
12.17773 799.41174 795.687205 776.754458 0.00125092
12.18653 796.75848 794.812744 777.103806 0.001255085
12.19534 795.32495 793.959107 777.454061 0.001257348
12.20414 793.9682 793.186324 777.805314 0.001259496
12.21294 793.04346 792.537232 778.157459 0.001260965
12.22174 792.75299 792.03861 778.510667 0.001261427
12.23055 792.70331 791.707535 778.864829 0.001261506
12.23935 793.58582 791.552194 779.219956 0.001260103
12.24815 794.27197 791.576029 779.576179 0.001259015
12.25695 794.87012 791.780069 779.933386 0.001258067
12.26575 795.15436 792.163791 780.291628 0.001257617
12.27456 796.13367 792.726453 780.650912 0.00125607
12.28336 796.49176 793.465177 781.011288 0.001255506
12.29216 796.74976 794.373872 781.372639 0.001255099
12.30096 797.64288 795.441848 781.735095 0.001253694
12.30977 798.68134 796.651237 782.098664 0.001252064
12.31857 799.70508 797.975449 782.463267 0.001250461
12.32737 801.15857 799.376069 782.828951 0.001248192
12.33617 802.97211 800.800521 783.195721 0.001245373
12.34497 804.97632 802.179184 783.563622 0.001242273
12.35378 805.59882 803.428139 783.932531 0.001241313
12.36258 806.45776 804.461041 784.302577 0.001239991
12.37138 807.67053 805.208512 784.673761 0.001238129
12.38018 808.49249 805.642241 785.04596 0.00123687
12.38898 808.95508 805.787579 785.419341 0.001236163
12.39779 809.9375 805.715331 785.79378 0.001234663
12.40659 809.54523 805.520174 786.169316 0.001235261
12.41539 808.65057 805.296408 786.54595 0.001236628
12.42419 807.71149 805.122547 786.923679 0.001238066
12.43299 807.17413 805.056041 787.302502 0.00123889
12.44180 807.45306 805.132045 787.682414 0.001238462
12.45060 807.64111 805.366475 788.063457 0.001238174
12.45940 808.16064 805.755474 788.445539 0.001237378
12.46820 809.17987 806.277714 788.828699 0.001235819
12.47701 810.17926 806.893153 789.212932 0.001234295
12.48581 811.74127 807.544984 789.598231 0.00123192
12.49461 813.59552 808.164258 789.98459 0.001229112
12.50341 814.58569 808.680914 790.372003 0.001227618
12.51221 814.8493 809.040726 790.760505 0.001227221
12.52102 815.20569 809.220125 791.149956 0.001226684
12.52982 815.60803 809.232445 791.540524 0.001226079
12.53862 815.42975 809.119934 791.932066 0.001226347
12.54742 814.94568 808.938695 792.324573 0.001227076
12.55622 813.45074 808.744107 792.718168 0.001229331
12.56503 812.70319 808.584217 793.112705 0.001230462
12.57383 812.05188 808.496623 793.508264 0.001231448
12.58263 811.71765 808.510964 793.904697 0.001231955
12.59143 811.44116 808.650156 794.302171 0.001232375
12.60023 811.70752 808.933408 794.700538 0.001231971
12.60904 811.59698 809.378071 795.099784 0.001232139
12.61784 812.9856 810.000989 795.50003 0.001230034
12.62664 814.625 810.820277 795.901127 0.001227559
12.63544 814.94421 811.856125 796.303105 0.001227078
12.64424 815.8504 813.131511 796.705947 0.001225715
12.65305 818.27716 814.672857 797.109683 0.00122208
12.66185 820.72076 816.507197 797.51416 0.001218441
12.67065 822.55658 818.664283 797.919497 0.001215722
12.67945 825.33826 821.170881 798.325677 0.001211624
12.68826 828.30994 824.049309 798.732591 0.001207278
12.69706 831.91986 827.314027 799.140266 0.001202039
12.70586 835.45776 830.966763 799.548683 0.001196949
12.71466 839.24786 834.994769 799.95787 0.001191543
12.72346 842.78198 839.360332 800.367666 0.001186546
12.73227 846.62482 844.005731 800.778193 0.001181161
12.74107 852.03888 848.840343 801.189429 0.001173655
12.74987 857.27222 853.740156 801.601213 0.001166491
12.75867 862.33606 858.551578 802.013712 0.001159641
12.76747 866.1615 863.094559 802.426764 0.001154519
12.77628 871.29828 867.202275 802.840394 0.001147713
12.78508 875.1272 870.765373 803.254579 0.001142691
12.79388 877.87866 873.784511 803.669297 0.00113911
12.80268 879.03955 876.386571 804.084572 0.001137605
12.81148 880.26141 878.792887 804.50024 0.001136026
12.82029 880.94226 881.26368 804.916467 0.001135148
12.82909 883.15302 884.033464 805.333087 0.001132307
12.83789 886.09009 887.27895 805.750123 0.001128553
12.84669 889.07471 891.105 806.167551 0.001124765
12.85550 892.71808 895.547511 806.585348 0.001120174
12.86430 897.81134 900.588735 807.003487 0.00111382
12.87310 905.42944 906.171913 807.421946 0.001104448
12.88190 912.71191 912.225933 807.840745 0.001095636
12.89070 921.02356 918.693892 808.259718 0.001085749
12.89951 930.25775 925.573827 808.679029 0.001074971
12.90831 939.17267 932.931974 809.09851 0.001064767
12.91711 947.5813 940.887727 809.518184 0.001055318
12.92591 956.82355 949.557347 809.938023 0.001045125
12.93472 965.9541 958.969642 810.358003 0.001035246
12.94352 975.53534 969.000721 810.778146 0.001025078
12.95232 986.97925 979.32734 811.198281 0.001013193
12.96112 998.84674 989.429983 811.618573 0.001001155
12.96992 1011.3463 998.628473 812.038854 0.000988781
12.97873 1023.7702 1006.204094 812.459097 0.000976782
12.98753 1032.191 1011.565808 812.879418 0.000968813
12.99633 1035.2443 1014.367451 813.299649 0.000965956
13.00513 1034.8291 1014.553327 813.71981 0.000966343
13.01393 1028.1748 1012.268095 814.139876 0.000972597
13.02274 1018.4708 1007.757935 814.559866 0.000981864
13.03154 1007.5159 1001.313093 814.979661 0.00099254
13.04034 996.71863 993.299463 815.399233 0.001003292
13.04914 986.81256 984.190224 815.818699 0.001013364
13.05795 976.96124 974.559575 816.23789 0.001023582
13.06675 966.78265 965.001769 816.656827 0.001034359
13.07555 957.02692 956.036383 817.075484 0.001044903
13.08435 947.41931 948.046237 817.493884 0.001055499
13.09315 939.185 941.24156 817.911856 0.001064753
13.10196 933.23022 935.662004 818.32952 0.001071547
13.11076 928.58392 931.191094 818.746847 0.001076909
13.11956 925.0036 927.585316 819.163671 0.001081077
13.12836 922.48865 924.501575 819.580157 0.001084024
13.13716 919.36005 921.559592 819.996136 0.001087713
13.14597 917.0188 918.398836 820.411679 0.00109049
13.15477 915.54181 914.738292 820.826618 0.001092249
13.16357 913.53729 910.422483 821.241072 0.001094646
13.17237 909.0885 905.436647 821.655015 0.001100003
13.18117 903.35632 899.897723 822.068283 0.001106983
13.18998 896.20062 894.003109 822.481039 0.001115822
13.19878 888.59503 887.984976 822.893119 0.001125372
13.20758 880.30231 882.058181 823.304546 0.001135973
13.21638 872.72443 876.396908 823.715298 0.001145837
13.22518 866.70496 871.127368 824.125351 0.001153795
13.23399 861.97601 866.330945 824.534683 0.001160125
13.24279 858.17316 862.052839 824.943272 0.001165266
13.25159 854.68945 858.307243 825.351143 0.001170016
13.26039 850.75226 855.08773 825.75818 0.00117543
13.26920 846.64331 852.368827 826.164409 0.001181135
13.27800 844.0639 850.113805 826.56981 0.001184744
13.28680 842.39795 848.27812 826.974361 0.001187087
13.29560 840.80878 846.813773 827.378042 0.001189331
13.30440 839.74756 845.672885 827.780834 0.001190834
13.31321 838.67426 844.809731 828.182762 0.001192358
13.32201 837.32129 844.183991 828.583672 0.001194285
13.33081 837.12366 843.760545 828.983726 0.001194567
13.33961 836.90186 843.511614 829.382769 0.001194883
13.34841 836.54755 843.415981 829.780785 0.001195389
13.35722 836.22491 843.458992 830.17789 0.001195851
13.36602 837.57886 843.632135 830.573934 0.001193917
13.37482 838.68549 843.931907 830.968988 0.001192342
13.38362 840.20624 844.35901 831.362904 0.001190184
13.39243 842.62622 844.917361 831.755843 0.001186766
13.40123 846.4259 845.612097 832.147657 0.001181438
13.41003 849.86127 846.448969 832.538331 0.001176663
13.41883 851.93231 847.432523 832.927984 0.001173802
13.42763 851.63086 848.564329 833.31647 0.001174218
13.43644 850.75421 849.842242 833.703819 0.001175428
13.44524 849.1394 851.259036 834.090019 0.001177663
13.45404 848.86322 852.802195 834.4751 0.001178046
13.46284 849.43982 854.449711 834.858921 0.001177246
13.47164 850.35553 856.170945 835.2416 0.001175979
13.48045 851.5437 857.919394 835.623127 0.001174338
13.48925 852.66455 859.630747 836.003362 0.001172794
13.49805 853.57745 861.222447 836.382467 0.00117154
13.50685 855.16986 862.595138 836.760304 0.001169358
13.51566 856.34473 863.648007 837.13695 0.001167754
13.52446 856.85138 864.296684 837.512269 0.001167064
13.53326 857.81049 864.497994 837.886382 0.001165759
13.54206 858.99451 864.2618 838.25928 0.001164152
13.55086 858.45746 863.648194 838.630831 0.00116488
13.55967 857.61804 862.748415 839.001197 0.00116602
13.56847 856.53845 861.662955 839.370246 0.00116749
13.57727 854.29401 860.482756 839.738016 0.001170557
13.58607 853.00854 859.281739 840.104503 0.001172321
13.59487 851.2605 858.114622 840.469701 0.001174729
13.60368 849.88263 857.02097 840.833609 0.001176633
13.61248 849.19745 856.028066 841.196223 0.001177582
13.62128 848.62708 855.153259 841.557583 0.001178374
13.63008 847.7417 854.407401 841.917604 0.001179605
13.63889 846.9856 853.794051 842.276327 0.001180658
13.64769 846.38043 853.312068 842.633751 0.001181502
13.65649 845.94696 852.955716 842.989876 0.001182107
13.66529 845.92145 852.716684 843.344703 0.001182143
13.67409 844.8855 852.584928 843.698233 0.001183592
13.68290 844.22375 852.549729 844.050507 0.00118452
13.69170 843.91083 852.600939 844.401409 0.001184959
13.70050 843.71265 852.729266 844.751101 0.001185238
13.70930 843.32458 852.92696 845.099465 0.001185783
13.71810 843.89758 853.187735 845.446508 0.001184978
13.72691 844.74481 853.507115 845.792351 0.001183789
13.73571 845.03949 853.881743 846.136881 0.001183377
13.74451 844.66486 854.309599 846.480182 0.001183902
13.75331 844.94293 854.789094 846.822143 0.001183512
13.76211 845.46381 855.319313 847.162927 0.001182783
13.77092 845.89221 855.898856 847.502424 0.001182184
13.77972 846.48712 856.525761 847.840642 0.001181353
13.78852 846.93054 857.197404 848.177705 0.001180734
13.79732 847.40955 857.908931 848.513506 0.001180067
13.80612 848.23749 858.653925 848.848093 0.001178915
13.81493 849.29205 859.423018 849.181475 0.001177451
13.82373 849.77161 860.203717 849.5137 0.001176787
13.83253 850.71649 860.979715 849.844667 0.00117548
13.84133 851.37207 861.732142 850.174498 0.001174575
13.85014 851.83032 862.44115 850.503207 0.001173943
13.85894 852.14996 863.089534 850.830729 0.001173502
13.86774 853.08936 863.668647 851.157115 0.00117221
13.87654 854.43414 864.181963 851.482379 0.001170365
13.88534 855.67169 864.647003 851.80657 0.001168673
13.89415 856.43286 865.092608 852.129593 0.001167634
13.90295 857.05865 865.555619 852.451571 0.001166781
13.91175 857.81158 866.076275 852.772521 0.001165757
13.92055 859.0885 866.695394 853.092347 0.001164024
13.92935 860.50775 867.454467 853.411211 0.001162105
13.93816 862.47723 868.39352 853.729021 0.001159451
13.94696 864.5932 869.55311 854.045828 0.001156613
13.95576 867.2431 870.972261 854.361651 0.001153079
13.96456 870.09558 872.688131 854.676507 0.001149299
13.97337 873.11957 874.735135 854.990449 0.001145319
13.98217 876.03046 877.139914 855.303388 0.001141513
13.99097 879.03448 879.924071 855.615486 0.001137612
13.99977 882.82343 883.094097 855.926654 0.001132729
14.00857 886.02325 886.644835 856.236948 0.001128639
14.01738 890.73212 890.55114 856.546387 0.001122672
14.02618 896.25946 894.765134 856.854991 0.001115748
14.03498 901.27917 899.212604 857.16278 0.001109534
14.04378 905.64783 903.783197 857.469775 0.001104182
14.05259 910.23315 908.32892 857.776032 0.00109862
14.06139 914.5824 912.653176 858.081467 0.001093395
14.07019 918.87927 916.523039 858.38624 0.001088282
14.07899 922.49255 919.681062 858.690271 0.00108402
14.08779 926.14514 921.886533 858.993614 0.001079744
14.09660 928.90948 922.967058 859.296293 0.001076531
14.10540 930.01874 922.86419 859.59833 0.001075247
14.11420 929.84735 921.652134 859.899782 0.001075445
14.12300 927.66284 919.519353 860.200569 0.001077978
14.13180 924.52618 916.718834 860.500851 0.001081635
14.14061 919.88666 913.519385 860.80055 0.00108709
14.14941 915.54095 910.169454 861.099688 0.00109225
14.15821 911.29541 906.874746 861.398392 0.001097339
14.16701 906.90607 903.804409 861.696583 0.00110265
14.17581 903.46173 901.085505 861.99432 0.001106854
14.18462 900.96228 898.815877 862.291627 0.001109924
14.19342 898.98761 897.067246 862.588561 0.001112362
14.20222 898.12909 895.889153 862.885081 0.001113426
14.21102 897.35406 895.313972 863.18121 0.001114387
14.21983 898.16888 895.355946 863.477075 0.001113376
14.22863 901.06982 896.016789 863.772598 0.001109792
14.23743 904.46027 897.281597 864.06784 0.001105632
14.24623 907.25568 899.122204 864.362823 0.001102225
14.25503 908.89124 901.495357 864.657575 0.001100242
14.26384 909.2356 904.33966 864.952118 0.001099825
14.27264 910.92749 907.576683 865.24648 0.001097782
14.28144 913.87347 911.103307 865.540717 0.001094243
14.29024 917.18689 914.789076 865.834756 0.00109029
14.29904 921.64526 918.473373 866.128754 0.001085016
14.30785 926.80933 921.959799 866.422637 0.001078971
14.31665 931.09302 925.029292 866.716462 0.001074007
14.32545 935.02271 927.457737 867.010256 0.001069493
14.33425 938.33862 929.055039 867.304042 0.001065713
14.34305 941.40118 929.705783 867.59788 0.001062246
14.35186 943.17438 929.401867 867.891694 0.001060249
14.36066 941.617 928.246812 868.185641 0.001062003
14.36946 937.62244 926.430804 868.479648 0.001066527
14.37826 933.15289 924.188065 868.77377 0.001071636
14.38706 928.23785 921.759047 869.068034 0.00107731
14.39587 923.4942 919.360441 869.362463 0.001082844
14.40467 920.2384 917.177389 869.657081 0.001086675
14.41347 917.9516 915.358135 869.951912 0.001089382
14.42227 915.68121 914.017494 870.247014 0.001092083
14.43108 914.2384 913.242329 870.542343 0.001093807
14.43988 913.96118 913.090806 870.837957 0.001094138
14.44868 914.98584 913.598601 871.133877 0.001092913
14.45748 915.8855 914.774963 871.430128 0.00109184
14.46628 917.47919 916.60848 871.726733 0.001089943
14.47509 919.9068 919.061696 872.023713 0.001087067
14.48389 923.39313 922.073977 872.321125 0.001082962
14.49269 926.16132 925.556029 872.61889 0.001079726
14.50149 929.2019 929.389348 872.917165 0.001076192
14.51029 932.9765 933.420803 873.215869 0.001071838
14.51910 936.80457 937.461787 873.515025 0.001067458
14.52790 940.15045 941.297404 873.814754 0.00106366
14.53670 944.83569 944.700368 874.114976 0.001058385
14.54550 949.65338 947.466925 874.415745 0.001053016
14.55430 952.61127 949.456214 874.717081 0.001049746
14.56311 955.41547 950.622034 875.019003 0.001046665
14.57191 956.6134 951.023414 875.321566 0.001045354
14.58071 956.60394 950.802646 875.624686 0.001045365
14.58951 955.66241 950.146175 875.928518 0.001046395
14.59832 954.35242 949.23735 876.232977 0.001047831
14.60712 952.06299 948.227217 876.538116 0.001050351
14.61592 950.30292 947.211113 876.843953 0.001052296
14.62472 948.11304 946.228065 877.150505 0.001054727
14.63352 946.44617 945.263201 877.457787 0.001056584
14.64233 945.14142 944.264875 877.765818 0.001058043
14.65113 944.0293 943.165569 878.074647 0.001059289
14.65993 942.59442 941.906113 878.384184 0.001060902
14.66873 940.85547 940.455417 878.694586 0.001062863
14.67754 939.89685 938.816451 879.005761 0.001063947
14.68634 938.55768 937.017127 879.317759 0.001065465
14.69514 937.04834 935.09096 879.630593 0.001067181
14.70394 934.37036 933.065058 879.944276 0.001070239
14.71274 932.24902 930.950264 880.258858 0.001072675
14.72155 930.85291 928.750088 880.574243 0.001074284
14.73035 929.52704 926.468743 880.890585 0.001075816
14.73915 927.39392 924.125374 881.207789 0.00107829
14.74795 924.87872 921.757538 881.525901 0.001081223
14.75675 922.82196 919.416538 881.844932 0.001083633
14.76556 921.58325 917.15981 882.164892 0.001085089
14.77436 920.2359 915.04035 882.485788 0.001086678
14.78316 919.02936 913.100645 882.807631 0.001088105
14.79196 917.89886 911.370577 883.130466 0.001089445
14.80077 916.6781 909.867786 883.454226 0.001090895
14.80957 914.94366 908.598699 883.778918 0.001092963
14.81837 913.67487 907.561067 884.10466 0.001094481
14.82717 913.35095 906.747025 884.431346 0.001094869
14.83597 913.42499 906.143902 884.759021 0.001094781
14.84478 912.49402 905.736872 885.087688 0.001095898
14.85358 911.35986 905.510748 885.417389 0.001097261
14.86238 910.97461 905.452961 885.748016 0.001097725
14.87118 911.23529 905.555357 886.079684 0.001097411
14.87998 912.03851 905.816277 886.412397 0.001096445
14.88879 912.93701 906.240681 886.746043 0.001095366
14.89759 914.0036 906.839894 887.080775 0.001094088
14.90639 915.39362 907.629318 887.416481 0.001092426
14.91519 916.42273 908.627924 887.753237 0.001091199
14.92399 916.43909 909.855156 888.090928 0.00109118
14.93280 916.74731 911.331965 888.429669 0.001090813
14.94160 917.57129 913.07752 888.769458 0.001089834
14.95040 918.94147 915.108695 889.110178 0.001088209
14.95920 921.21722 917.440216 889.451981 0.00108552
14.96800 924.46246 920.079952 889.794748 0.00108171
14.97681 927.50793 923.030711 890.138513 0.001078158
14.98561 930.16449 926.285241 890.483274 0.001075079
14.99441 932.68689 929.825373 890.829025 0.001072171
15.00321 935.61859 933.617347 891.17576 0.001068812
15.01201 938.68951 937.608509 891.523474 0.001065315
15.02082 941.48688 941.726408 891.872201 0.00106215
15.02962 944.81415 945.8741 892.221853 0.001058409
15.03842 948.17493 949.939487 892.572463 0.001054658
15.04722 951.30341 953.804578 892.924022 0.001051189
15.05603 955.09888 957.364488 893.276522 0.001047012
15.06483 958.38721 960.548649 893.629954 0.00104342
15.07363 961.5885 963.333903 893.984307 0.001039946
15.08243 964.22821 965.744157 894.339612 0.001037099
15.09123 967.28198 967.83628 894.695736 0.001033825
15.10004 969.42633 969.67599 895.052829 0.001031538
15.10884 971.42352 971.317951 895.410759 0.001029417
15.11764 973.4281 972.792386 895.769511 0.001027297
15.12644 976.13489 974.110703 896.129195 0.001024449
15.13524 979.80615 975.280115 896.489675 0.00102061
15.14405 983.18964 976.32508 896.851019 0.001017098
15.15285 986.95355 977.312294 897.213088 0.001013219
15.16165 990.31744 978.356968 897.576031 0.001009777
15.17045 994.14673 979.618303 897.93971 0.001005888
15.17925 997.51678 981.276283 898.304107 0.001002489
15.18806 1002.9239 983.508502 898.669329 0.000997085
15.19686 1008.5374 986.465722 899.035236 0.000991535
15.20566 1012.2715 990.256476 899.40185 0.000987877
15.21446 1012.9017 994.94032 899.769153 0.000987263
15.22327 1011.9179 1000.520115 900.137168 0.000988222
15.23207 1011.7546 1006.938333 900.50575 0.000988382
15.24087 1015.0353 1014.076073 900.875004 0.000985187
15.24967 1019.2924 1021.741477 901.24491 0.000981073
15.25848 1024.6211 1029.664121 901.615364 0.000975971
15.26728 1030.2949 1037.489929 901.986386 0.000970596
15.27608 1037.193 1044.785792 902.357955 0.000964141
15.28488 1043.5846 1051.05582 902.73009 0.000958236
15.29368 1050.5306 1055.789051 903.102641 0.0009519
15.30249 1057.1097 1058.535097 903.475713 0.000945976
15.31129 1063.2981 1058.983987 903.849283 0.00094047
15.32009 1066.4011 1057.035744 904.223198 0.000937733
15.32889 1067.6827 1052.818508 904.597604 0.000936608
15.33769 1063.5466 1046.653842 904.97235 0.00094025
15.34650 1055.6942 1038.980267 905.347453 0.000947244
15.35530 1042.9543 1030.273112 905.722887 0.000958815
15.36410 1029.9675 1020.976822 906.098625 0.000970904
15.37290 1015.8281 1011.475154 906.474686 0.000984419
15.38170 1002.8857 1002.078862 906.850913 0.000997123
15.39051 991.18018 993.021709 907.227451 0.001008898
15.39931 981.15289 984.479832 907.604144 0.001019209
15.40811 971.58392 976.573544 907.981008 0.001029247
15.41691 964.6391 969.379922 908.358014 0.001036657
15.42572 958.7395 962.936086 908.735134 0.001043036
15.43452 953.68701 957.251196 909.11234 0.001048562
15.44332 949.71393 952.307034 909.489603 0.001052949
15.45212 946.5011 948.067787 909.866936 0.001056523
15.46092 942.80261 944.48391 910.244181 0.001060667
15.46973 939.93549 941.494817 910.621481 0.001063903
15.47853 937.74292 939.038266 910.998676 0.00106639
15.48733 936.08136 937.044055 911.375781 0.001068283
15.49613 934.03149 935.459186 911.752763 0.001070628
15.50493 932.55078 934.220473 912.129592 0.001072328
15.51374 931.83984 933.275588 912.506282 0.001073146
15.52254 931.93628 932.579293 912.882671 0.001073035
15.53134 931.84973 932.092211 913.258901 0.001073134
15.54014 931.50623 931.78304 913.634811 0.00107353
15.54894 931.37476 931.62642 914.010369 0.001073682
15.55775 931.74585 931.603414 914.385674 0.001073254
15.56655 931.62054 931.700483 914.760564 0.001073398
15.57535 931.72546 931.909185 915.13505 0.001073278
15.58415 932.50995 932.225446 915.5091 0.001072375
15.59296 933.67841 932.649074 915.882725 0.001071033
15.60176 934.5108 933.183248 916.255764 0.001070079
15.61056 935.35284 933.834502 916.628314 0.001069115
15.61936 935.47278 934.611965 917.000341 0.001068978
15.62816 936.12506 935.52695 917.371728 0.001068233
15.63697 937.57574 936.593037 917.742485 0.00106658
15.64577 939.53906 937.825271 918.112579 0.001064352
15.65457 941.65979 939.240018 918.48202 0.001061955
15.66337 944.17377 940.853475 918.85065 0.001059127
15.67217 946.12946 942.682508 919.218561 0.001056938
15.68098 948.36621 944.74277 919.585721 0.001054445
15.68978 950.69952 947.046496 919.951972 0.001051857
15.69858 953.52881 949.604463 920.317447 0.001048736
15.70738 956.55615 952.419989 920.681991 0.001045417
15.71618 959.71741 955.490506 921.045612 0.001041973
15.72499 962.5741 958.803792 921.408276 0.001038881
15.73379 965.63336 962.336571 921.769953 0.00103559
15.74259 969.99792 966.054674 922.130651 0.00103093
15.75139 975.03241 969.910437 922.490215 0.001025607
15.76020 979.12347 973.85251 922.848776 0.001021322
15.76900 982.64838 977.823767 923.20618 0.001017658
15.77780 987.18451 981.771447 923.562436 0.001012982
15.78660 991.82428 985.648257 923.917513 0.001008243
15.79540 995.88354 989.410276 924.271379 0.001004133
15.80421 998.08118 993.011483 924.624002 0.001001923
15.81301 1001.0804 996.396036 924.975351 0.000998921
15.82181 1003.5154 999.495377 925.325436 0.000996497
15.83061 1005.6907 1002.231778 925.674106 0.000994342
15.83942 1008.6788 1004.532686 926.02149 0.000991396
15.84822 1011.3976 1006.343975 926.367437 0.000988731
15.85702 1012.3636 1007.649715 926.711959 0.000987787
15.86582 1012.6408 1008.476962 927.055025 0.000987517
15.87462 1012.46 1008.895994 927.396605 0.000987693
15.88343 1010.601 1009.006577 927.736708 0.00098951
15.89223 1009.5928 1008.924741 928.07519 0.000990498
15.90103 1008.1158 1008.763695 928.412177 0.00099195
15.90983 1006.3879 1008.619625 928.747523 0.000993653
15.91863 1004.5354 1008.563292 929.081203 0.000995485
15.92744 1004.0825 1008.629496 929.4133 0.000995934
15.93624 1002.5847 1008.818679 929.743675 0.000997422
15.94504 1001.847 1009.097034 930.072337 0.000998156
15.95384 1001.5521 1009.404069 930.399261 0.00099845
15.96265 1003.2407 1009.668076 930.724456 0.00099677
15.97145 1003.7627 1009.818451 931.047822 0.000996251
15.98025 1004.6463 1009.809961 931.369333 0.000995375
15.98905 1004.5933 1009.631748 931.689075 0.000995428
15.99785 1005.506 1009.322793 932.006912 0.000994524
16.00665 1004.5254 1008.954145 932.322856 0.000995495
16.01546 1002.9217 1008.621853 932.636884 0.000997087
16.02426 999.04755 1008.427897 932.949005 0.001000953
16.03306 996.50012 1008.462246 933.259127 0.001003512
16.04186 995.35291 1008.792775 933.567262 0.001004669
16.05066 995.42664 1009.456328 933.873352 0.001004594
16.05947 995.4079 1010.456415 934.177445 0.001004613
16.06827 996.68408 1011.761164 934.479518 0.001003327
16.07707 997.34479 1013.300176 934.779482 0.001002662
16.08588 998.17279 1014.967729 935.077384 0.001001831
16.09468 999.50079 1016.621101 935.373136 0.001000499
16.10348 1001.1021 1018.091398 935.666686 0.000998899
16.11228 1003.0845 1019.197298 935.95818 0.000996925
16.12108 1003.9733 1019.766561 936.247468 0.000996042
16.12989 1005.6429 1019.658861 936.534595 0.000994389
16.13869 1006.9041 1018.820452 936.81948 0.000993143
16.14749 1006.957 1017.249985 937.102169 0.000993091
16.15629 1005.695 1015.026861 937.382581 0.000994337
16.16509 1003.5448 1012.281289 937.66067 0.000996468
16.17390 999.99738 1009.167119 937.936577 0.001000003
16.18270 996.44891 1005.843237 938.21016 0.001003564
16.19150 991.74005 1002.449118 938.481468 0.001008329
16.20030 987.19409 999.10519 938.750424 0.001012972
16.20911 982.93506 995.903455 939.017076 0.001017361
16.21790 980.05389 992.918032 939.281291 0.001020352
16.22671 976.85992 990.199903 939.543206 0.001023688
16.23551 974.43744 987.784908 939.802778 0.001026233
16.24431 972.72748 985.696231 940.059937 0.001028037
16.25312 970.50415 983.940818 940.31473 0.001030392
16.26192 969.09814 982.51697 940.56709 0.001031887
16.27072 969.09015 981.411988 940.817064 0.001031896
16.27952 969.07208 980.610435 941.064529 0.001031915
16.28832 968.91895 980.094692 941.309619 0.001032078
16.29713 968.84906 979.85001 941.552296 0.001032153
16.30593 968.67267 979.866912 941.792498 0.00103234
16.31473 969.09772 980.130534 942.030271 0.001031888
16.32353 969.56323 980.651216 942.265557 0.001031392
16.33233 969.93372 981.413231 942.49835 0.001030998
16.34114 969.56409 982.403843 942.728697 0.001031391
16.34994 969.45801 983.602725 942.956568 0.001031504
16.35874 970.80658 984.979001 943.181984 0.001030071
16.36754 972.32434 986.491345 943.404891 0.001028463
16.37635 973.38214 988.086938 943.625336 0.001027346
16.38515 974.75067 989.703166 943.843266 0.001025903
16.39395 976.71411 991.271003 944.058682 0.001023841
16.40275 979.10046 992.721986 944.271631 0.001021346
16.41155 981.1485 993.995495 944.482088 0.001019214
16.42036 983.14789 995.046668 944.690076 0.001017141
16.42916 985.06824 995.850395 944.89555 0.001015158
16.43796 986.57623 996.40139 945.098556 0.001013606
16.44676 987.33081 996.707733 945.299005 0.001012832
16.45556 987.55383 996.784937 945.497037 0.001012603
16.46437 986.72131 996.650046 945.692563 0.001013457
16.47317 987.10468 996.319987 945.885609 0.001013064
16.48197 987.72351 995.814074 946.076202 0.001012429
16.49077 988.0448 995.156999 946.264303 0.0010121
16.49958 988.07892 994.380974 946.449959 0.001012065
16.50838 988.44104 993.525875 946.633093 0.001011694
16.51718 989.21521 992.634779 946.813837 0.001010902
16.52598 990.01093 991.751431 946.992113 0.00101009
16.53478 990.31427 990.915105 947.167951 0.00100978
16.54359 990.18286 990.157817 947.341377 0.001009914
16.55239 990.00262 989.504972 947.512361 0.001010098
16.56119 989.8161 988.975236 947.680914 0.001010289
16.56999 991.41376 988.584674 947.847082 0.001008661
16.57879 993.04712 988.350631 948.010875 0.001007002
16.58760 993.92267 988.286101 948.172266 0.001006114
16.59640 994.32019 988.433913 948.331286 0.001005712
16.60520 995.09351 988.817167 948.487964 0.001004931
16.61400 994.66248 989.4697 948.642276 0.001005366
16.62280 994.44342 990.423578 948.794237 0.001005588
16.63161 994.77527 991.707201 948.943893 0.001005252
16.64041 995.87299 993.342987 949.091258 0.001004144
16.64921 996.72437 995.343522 949.236312 0.001003286
16.65801 998.23926 997.713923 949.379087 0.001001764
16.66681 999.82025 1000.447526 949.519614 0.00100018
16.67562 1001.878 1003.525241 949.657845 0.000998126
16.68442 1004.5397 1006.917484 949.793891 0.000995481
16.69322 1007.9905 1010.57497 949.927705 0.000992073
16.70202 1011.2761 1014.436078 950.059336 0.00098885
16.71082 1014.3135 1018.418598 950.188769 0.000985888
16.71963 1017.1005 1022.429915 950.31604 0.000983187
16.72843 1021.4137 1026.367732 950.441179 0.000979035
16.73723 1025.5033 1030.131548 950.564149 0.000975131
16.74603 1029.364 1033.639475 950.685053 0.000971474
16.75483 1033.7207 1036.831091 950.803855 0.000967379
16.76364 1036.9971 1039.682067 950.920602 0.000964323
16.77244 1039.6455 1042.195732 951.035287 0.000961866
16.78124 1042.8181 1044.399235 951.147945 0.00095894
16.79004 1046.108 1046.329468 951.258583 0.000955924
16.79885 1047.7311 1048.026918 951.367249 0.000954443
16.80765 1049.2201 1049.533111 951.473964 0.000953089
16.81645 1051.3365 1050.894485 951.578724 0.00095117
16.82525 1054.6451 1052.180518 951.681577 0.000948186
16.83405 1057.2482 1053.477413 951.782521 0.000945852
16.84286 1060.2554 1054.897004 951.881592 0.000943169
16.85166 1062.3103 1056.568842 951.978801 0.000941345
16.86046 1065.5577 1058.626409 952.074194 0.000938476
16.86926 1068.386 1061.191996 952.167795 0.000935991
16.87806 1071.6639 1064.365664 952.259606 0.000933128
16.88687 1074.8816 1068.214681 952.349672 0.000930335
16.89567 1080.1639 1072.767853 952.437999 0.000925785
16.90447 1084.9443 1078.011011 952.5246 0.000921706
16.91327 1090.3365 1083.889335 952.609551 0.000917148
16.92207 1095.1993 1090.294397 952.692837 0.000913076
16.93088 1100.9741 1097.071072 952.774503 0.000908287
16.93968 1105.6627 1104.009353 952.854556 0.000904435
16.94848 1111.0614 1110.854802 952.93304 0.00090004
16.95728 1116.0972 1117.31207 953.009964 0.000895979
16.96608 1120.6542 1123.073342 953.085345 0.000892336
16.97489 1124.7356 1127.852509 953.159253 0.000889098
16.98369 1129.4333 1131.415815 953.231679 0.0008854
16.99249 1131.9297 1133.630754 953.302669 0.000883447
17.00129 1133.7769 1134.481699 953.372231 0.000882008
17.01010 1134.1746 1134.076883 953.440408 0.000881698
17.01890 1131.14 1132.622859 953.507198 0.000884064
17.02770 1127.2225 1130.386971 953.572666 0.000887136
17.03650 1120.6735 1127.655755 953.63683 0.000892321
17.04530 1114.1128 1124.695872 953.699703 0.000897575
17.05411 1107.4033 1121.727241 953.761328 0.000903013
17.06291 1102.845 1118.907832 953.821717 0.000906746
17.07171 1099.3414 1116.326695 953.880904 0.000909636
17.08051 1097.3566 1114.00373 953.938912 0.000911281
17.08931 1095.1766 1111.895424 953.99578 0.000913095
17.09812 1094.995 1109.905989 954.051536 0.000913246
17.10692 1095.6437 1107.904658 954.106194 0.000912705
17.11572 1097.5869 1105.747896 954.159795 0.00091109
17.12452 1097.6342 1103.308544 954.212353 0.00091105
17.13333 1099.663 1100.497308 954.263897 0.00090937
17.14213 1100.6558 1097.279589 954.314466 0.000908549
17.15093 1100.0177 1093.676728 954.36408 0.000909076
17.15973 1096.9969 1089.753391 954.412773 0.00091158
17.16853 1094.0328 1085.604258 954.460562 0.000914049
17.17734 1088.8158 1081.325502 954.507483 0.000918429
17.18614 1083.1669 1077.007295 954.553553 0.000923219
17.19494 1076.8359 1072.713153 954.5988 0.000928647
17.20374 1071.5831 1068.479217 954.64326 0.000933199
17.21254 1066.8857 1064.31376 954.686955 0.000937308
17.22135 1063.2417 1060.197536 954.729917 0.00094052
17.23015 1060.1356 1056.097895 954.772161 0.000943276
17.23895 1056.7129 1051.970342 954.813724 0.000946331
17.24775 1052.5176 1047.77851 954.854614 0.000950103
17.25656 1048.8408 1043.493097 954.894883 0.000953434
17.26536 1044.8068 1039.108029 954.934539 0.000957115
17.27416 1039.9272 1034.637911 954.973613 0.000961606
17.28296 1035.134 1030.115541 955.012133 0.000966059
17.29177 1030.1829 1025.591324 955.050117 0.000970701
17.30057 1024.9966 1021.121757 955.087589 0.000975613
17.30937 1019.9086 1016.763519 955.124582 0.00098048
17.31817 1014.7211 1012.570804 955.161121 0.000985492
17.32697 1008.7505 1008.588562 955.197221 0.000991325
17.33578 1003.9773 1004.851599 955.23291 0.000996038
17.34458 1000.1324 1001.383053 955.268216 0.000999868
17.35338 997.60126 998.198092 955.303155 0.001002405
17.36218 994.5824 995.302157 955.337749 0.001005447
17.37098 992.03741 992.692674 955.372029 0.001008027
17.37979 989.17584 990.362672 955.406018 0.001010943
17.38859 987.59314 988.299635 955.439729 0.001012563
17.39739 986.33197 986.487061 955.473189 0.001013857
17.40619 985.13702 984.904639 955.506423 0.001015087
17.41499 983.34216 983.530619 955.539436 0.00101694
17.42380 982.47571 982.340069 955.572273 0.001017837
17.43260 981.4928 981.308891 955.604938 0.001018856
17.44140 980.67395 980.41355 955.637459 0.001019707
17.45020 980.14459 979.632962 955.669849 0.001020258
17.45901 980.38318 978.949916 955.702131 0.001020009
17.46781 980.216 978.351717 955.734327 0.001020183
17.47661 979.71637 977.831085 955.766441 0.001020704
17.48541 979.26855 977.384665 955.798513 0.00102117
17.49421 979.00323 977.013202 955.830548 0.001021447
17.50302 978.86639 976.71989 955.862569 0.00102159
17.51182 978.61627 976.509416 955.894586 0.001021851
17.52062 978.3399 976.387408 955.926619 0.00102214
17.52942 977.91687 976.359714 955.958682 0.001022582
17.53822 978.41779 976.43245 955.990796 0.001022058
17.54703 978.67822 976.611793 956.022979 0.001021786
17.55583 977.98901 976.903731 956.055236 0.001022506
17.56463 978.49115 977.314278 956.08759 0.001021982
17.57343 979.69861 977.848941 956.120048 0.001020722
17.58224 980.45477 978.51281 956.152627 0.001019935
17.59104 981.24603 979.310094 956.185337 0.001019112
17.59984 982.21667 980.243966 956.218197 0.001018105
17.60864 983.013 981.316168 956.25122 0.001017281
17.61744 984.30975 982.526749 956.28441 0.00101594
17.62625 985.42969 983.874639 956.317783 0.001014786
17.63505 986.5459 985.358875 956.351353 0.001013638
17.64385 987.80176 986.977208 956.385114 0.001012349
17.65265 989.3288 988.731101 956.419101 0.001010786
17.66145 991.19293 990.621361 956.453308 0.001008885
17.67026 992.9035 992.651303 956.48775 0.001007147
17.67906 994.40863 994.822832 956.522429 0.001005623
17.68786 996.54669 997.13555 956.557356 0.001003465
17.69666 999.22607 999.583868 956.592544 0.001000775
17.70546 1000.9461 1002.152099 956.627983 0.000999055
17.71427 1002.7099 1004.817661 956.663704 0.000997297
17.72307 1004.0045 1007.542108 956.699697 0.000996011
17.73187 1005.2753 1010.27698 956.735976 0.000994752
17.74067 1006.7205 1012.960401 956.772538 0.000993324
17.74948 1008.8767 1015.521868 956.809391 0.000991201
17.75828 1010.2928 1017.88556 956.846536 0.000989812
17.76708 1012.1596 1019.975481 956.883985 0.000987986
17.77588 1013.7657 1021.720655 956.921741 0.000986421
17.78468 1015.3213 1023.059334 956.959797 0.00098491
17.79349 1016.7086 1023.946264 956.998166 0.000983566
17.80229 1018.2805 1024.353843 957.036841 0.000982048
17.81109 1018.1304 1024.277186 957.075826 0.000982192
17.81989 1018.1976 1023.735489 957.115118 0.000982128
17.82869 1018.6516 1022.770209 957.154726 0.00098169
17.83750 1018.8868 1021.442212 957.194652 0.000981463
17.84630 1018.0975 1019.825222 957.234884 0.000982224
17.85510 1016.6413 1017.997216 957.275431 0.000983631
17.86390 1013.8789 1016.033851 957.316282 0.000986311
17.87270 1011.9951 1014.003969 957.357435 0.000988147
17.88151 1011.0562 1011.965555 957.398897 0.000989065
17.89031 1010.3501 1009.969217 957.440661 0.000989756
17.89911 1009.7209 1008.056916 957.482728 0.000990373
17.90791 1008.7212 1006.266575 957.525084 0.000991354
17.91672 1007.0004 1004.631475 957.567735 0.000993048
17.92552 1006.1071 1003.182185 957.610666 0.00099393
17.93432 1005.6411 1001.946823 957.653873 0.000994391
17.94312 1005.9893 1000.949681 957.697359 0.000994046
17.95192 1005.9183 1000.213724 957.741114 0.000994117
17.96073 1005.5651 999.758856 957.785136 0.000994466
17.96953 1005.5765 999.602691 957.829409 0.000994454
17.97833 1005.7576 999.759949 957.873934 0.000994275
17.98713 1006.7551 1000.241588 957.918685 0.00099329
17.99593 1007.6165 1001.054472 957.963683 0.000992441
18.00474 1009.5269 1002.198329 958.0089 0.000990563
18.01354 1010.3936 1003.667213 958.054332 0.000989713
18.02234 1011.3629 1005.446282 958.099975 0.000988765
18.03114 1012.7552 1007.511926 958.145809 0.000987405
18.03995 1016.001 1009.830704 958.191834 0.000984251
18.04875 1018.4421 1012.357454 958.238019 0.000981892
18.05755 1021.0566 1015.037451 958.284385 0.000979378
18.06635 1023.1459 1017.799051 958.330899 0.000977378
18.07515 1027.1804 1020.559708 958.377556 0.000973539
18.08396 1030.796 1023.221978 958.424348 0.000970124
18.09276 1035.2833 1025.677984 958.471254 0.000965919
18.10156 1039.5493 1027.814697 958.51826 0.000961955
18.11036 1045.3038 1029.524101 958.565365 0.00095666
18.11916 1050.177 1030.714409 958.612555 0.00095222
18.12797 1055.2791 1031.322218 958.659807 0.000947617
18.13677 1058.5999 1031.324459 958.707112 0.000944644
18.14557 1061.6823 1030.741292 958.754461 0.000941901
18.15437 1061.1171 1029.633574 958.801829 0.000942403
18.16317 1058.2638 1028.093793 958.849203 0.000944944
18.17198 1051.847 1026.232733 958.896577 0.000950709
18.18078 1045.2306 1024.166245 958.943937 0.000956727
18.18958 1038.0919 1022.008207 958.991257 0.000963306
18.19838 1033.0571 1019.859145 959.038526 0.000968001
18.20719 1027.0127 1017.807177 959.085735 0.000973698
18.21599 1022.9471 1015.925358 959.132846 0.000977568
18.22479 1019.5896 1014.270609 959.179874 0.000980787
18.23359 1018.0634 1012.889051 959.226782 0.000982257
18.24239 1016.4693 1011.812188 959.273559 0.000983798
18.25120 1015.8677 1011.061541 959.320193 0.00098438
18.26000 1015.2838 1010.647355 959.366657 0.000984946
18.26880 1015.2562 1010.570985 959.412944 0.000984973
18.27760 1015.6662 1010.824769 959.459016 0.000984575
18.28640 1016.0938 1011.394919 959.504887 0.000984161
18.29521 1016.3302 1012.262756 959.550518 0.000983932
18.30401 1016.9902 1013.407046 959.595897 0.000983294
18.31281 1018.8785 1014.806633 959.641012 0.000981471
18.32161 1021.0061 1016.440668 959.685834 0.000979426
18.33041 1022.5079 1018.290158 959.730345 0.000977988
18.33922 1023.8549 1020.337221 959.774537 0.000976701
18.34802 1025.4453 1022.564354 959.818393 0.000975186
18.35682 1027.2283 1024.952074 959.861884 0.000973493
18.36562 1028.567 1027.481451 959.904996 0.000972226
18.37443 1030.646 1030.131642 959.947716 0.000970265
18.38323 1033.1167 1032.880341 959.990017 0.000967945
18.39203 1035.1744 1035.702171 960.031879 0.000966021
18.40083 1037.0579 1038.567255 960.073294 0.000964266
18.40963 1039.7014 1041.437593 960.114244 0.000961815
18.41844 1042.9398 1044.261389 960.1547 0.000958828
18.42724 1046.9464 1046.976823 960.194649 0.000955159
18.43604 1050.2789 1049.509048 960.234077 0.000952128
18.44484 1054.0477 1051.77731 960.272948 0.000948724
18.45364 1056.8472 1053.706275 960.311271 0.000946211
18.46245 1059.1417 1055.232903 960.349008 0.000944161
18.47125 1060.6063 1056.323367 960.386151 0.000942857
18.48005 1062.2118 1056.977549 960.422674 0.000941432
18.48885 1062.5294 1057.233146 960.458561 0.00094115
18.49766 1063.0621 1057.159354 960.4938 0.000940679
18.50646 1062.4355 1056.846407 960.528357 0.000941234
18.51526 1062.4995 1056.392051 960.562238 0.000941177
18.52406 1061.5291 1055.889906 960.595408 0.000942037
18.53286 1060.7473 1055.417855 960.62786 0.000942732
18.54167 1060.1362 1055.033689 960.659566 0.000943275
18.55047 1060.2152 1054.769547 960.690515 0.000943205
18.55927 1060.1487 1054.63295 960.720686 0.000943264
18.56807 1060.0416 1054.606245 960.750069 0.000943359
18.57687 1059.7324 1054.64866 960.778647 0.000943634
18.58568 1060.3495 1054.700787 960.806396 0.000943085
18.59448 1060.1748 1054.687464 960.833308 0.000943241
18.60328 1060.535 1054.526411 960.859359 0.00094292
18.61208 1060.502 1054.134013 960.884537 0.00094295
18.62088 1060.5963 1053.436224 960.908824 0.000942866
18.62969 1060.5139 1052.374886 960.932209 0.000942939
18.63849 1059.2244 1050.913024 960.954678 0.000944087
18.64729 1057.2471 1049.0396 960.976209 0.000945853
18.65609 1054.4463 1046.763862 960.996794 0.000948365
18.66490 1051.2344 1044.117263 961.016413 0.000951263
18.67370 1047.6815 1041.143991 961.035053 0.000954489
18.68250 1043.0242 1037.899082 961.052703 0.000958751
18.69130 1038.2246 1034.445026 961.069349 0.000963183
18.70010 1034.0635 1030.844548 961.084978 0.000967059
18.70891 1030.2365 1027.161944 961.099574 0.000970651
18.71771 1026.4126 1023.453784 961.113127 0.000974267
18.72651 1021.4202 1019.773314 961.125623 0.000979029
18.73531 1016.7687 1016.164154 961.137049 0.000983508
18.74411 1012.3414 1012.662767 961.147397 0.000987809
18.75292 1008.3851 1009.299889 961.156653 0.000991685
18.76172 1005.3067 1006.099414 961.164808 0.000994721
18.77052 1002.7709 1003.08196 961.171849 0.000997237
18.77932 1000.0214 1000.261527 961.177767 0.000999979
18.78812 997.79187 997.649979 961.182551 0.001002213
18.79693 995.83307 995.251905 961.186193 0.001004184
18.80573 993.07922 993.06953 961.188683 0.001006969
18.81453 991.30963 991.101544 961.190013 0.001008767
18.82333 990.25665 989.342307 961.190173 0.001009839
18.83214 989.12488 987.784466 961.189156 0.001010995
18.84094 987.80396 986.41792 961.186953 0.001012347
18.84974 986.42316 985.232068 961.18356 0.001013764
18.85854 985.33374 984.214134 961.178968 0.001014885
18.86734 984.84003 983.3517 961.173169 0.001015393
18.87615 984.58136 982.631941 961.16616 0.00101566
18.88495 984.27637 982.041715 961.157933 0.001015975
18.89375 983.93896 981.568161 961.148485 0.001016323
18.90255 983.67218 981.1987 961.137812 0.001016599
18.91135 983.73749 980.921326 961.125907 0.001016531
18.92016 983.3446 980.724797 961.112767 0.001016938
18.92896 982.93329 980.599272 961.098387 0.001017363
18.93776 983.02582 980.536235 961.082767 0.001017267
18.94656 982.93195 980.529301 961.065902 0.001017364
18.95537 983.32135 980.574461 961.047793 0.001016962
18.96417 983.8468 980.670633 961.028439 0.001016418
18.97297 984.00555 980.820027 961.007834 0.001016254
18.98177 984.16156 981.027743 960.98598 0.001016093
18.99057 983.86542 981.301831 960.962873 0.001016399
18.99938 984.15491 981.652308 960.938519 0.0010161
19.00818 984.37891 982.090671 960.912914 0.001015869
19.01698 984.73352 982.622988 960.88607 0.001015503
19.02578 985.23779 983.272623 960.85797 0.001014983
19.03458 986.42297 984.044861 960.82863 0.001013764
19.04339 987.01031 984.941687 960.798047 0.001013161
19.05219 987.06091 985.986814 960.766223 0.001013109
19.06099 988.18713 987.178286 960.733166 0.001011954
19.06979 989.23773 988.519977 960.698873 0.001010879
19.07859 990.21735 990.011592 960.663365 0.001009879
19.08740 991.76343 991.650952 960.626622 0.001008305
19.09620 993.55371 993.430618 960.588666 0.001006488
19.10500 994.883 995.339217 960.549498 0.001005143
19.11380 996.47186 997.362348 960.50912 0.001003541
19.12261 999.00049 999.481001 960.467547 0.001001001
19.13141 1000.8191 1001.675547 960.424786 0.000999182
19.14021 1002.1027 1003.926273 960.380836 0.000997902
19.14901 1004.0701 1006.213909 960.335704 0.000995946
19.15781 1006.3751 1008.521786 960.289409 0.000993665
19.16662 1007.7922 1010.834888 960.241953 0.000992268
19.17542 1009.429 1013.140154 960.193342 0.000990659
19.18422 1010.1878 1015.420159 960.143595 0.000989915
19.19302 1012.1335 1017.65453 960.092722 0.000988012
19.20182 1013.3744 1019.814095 960.040724 0.000986802
19.21063 1014.2867 1021.858997 959.987609 0.000985915
19.21943 1015.6902 1023.738391 959.933403 0.000984552
19.22823 1017.3134 1025.391683 959.87811 0.000982981
19.23703 1019.0872 1026.753232 959.821736 0.00098127
19.24583 1020.1446 1027.756025 959.76432 0.000980253
19.25464 1020.4563 1028.343098 959.705835 0.000979954
19.26344 1021.1836 1028.472873 959.646321 0.000979256
19.27224 1021.7673 1028.127242 959.585778 0.000978696
19.28104 1022.3553 1027.314147 959.524234 0.000978134
19.28985 1021.6693 1026.067 959.461697 0.00097879
19.29865 1020.8041 1024.437958 959.398173 0.00097962
19.30745 1018.3453 1022.49331 959.333709 0.000981985
19.31625 1015.8093 1020.301162 959.268275 0.000984437
19.32505 1013.3497 1017.929216 959.201916 0.000986826
19.33386 1011.0222 1015.43849 959.134634 0.000989098
19.34266 1008.4832 1012.881572 959.06646 0.000991588
19.35146 1006.2616 1010.303142 958.997405 0.000993777
19.36026 1004.1133 1007.739528 958.927492 0.000995904
19.36906 1001.9144 1005.220633 958.856724 0.000998089
19.37787 999.29443 1002.771222 958.785119 0.001000706
19.38667 997.00861 1000.4104 958.712711 0.001003
19.39547 994.55225 998.151569 958.639501 0.001005478
19.40427 992.83112 996.002829 958.565526 0.001007221
19.41307 991.06494 993.967154 958.490812 0.001009016
19.42188 989.56787 992.041131 958.415338 0.001010542
19.43068 987.78479 990.219511 958.339155 0.001012366
19.43948 986.57684 988.493911 958.262268 0.001013606
19.44828 985.50537 986.855809 958.184713 0.001014708
19.45709 984.15558 985.297275 958.106492 0.0010161
19.46589 982.98816 983.812824 958.027646 0.001017306
19.47469 982.11798 982.399584 957.948202 0.001018208
19.48349 981.08197 981.056085 957.868137 0.001019283
19.49229 980.06293 979.78402 957.787509 0.001020343
19.50110 979.41516 978.58553 957.70632 0.001021017
19.50990 978.1853 977.463426 957.62461 0.001022301
19.51870 976.82141 976.420142 957.542382 0.001023729
19.52750 976.05347 975.458129 957.459696 0.001024534
19.53630 974.93372 974.578417 957.376527 0.001025711
19.54511 974.0816 973.782303 957.292905 0.001026608
19.55391 973.77826 973.070484 957.208873 0.001026928
19.56271 973.28467 972.443221 957.124433 0.001027449
19.57151 972.39807 971.900581 957.039628 0.001028385
19.58032 972.2887 971.442348 956.954459 0.001028501
19.58912 971.43823 971.068193 956.86899 0.001029402
19.59792 970.49762 970.777219 956.783193 0.001030399
19.60672 970.10406 970.568585 956.697102 0.001030817
19.61552 970.88312 970.440925 956.610759 0.00102999
19.62433 971.52362 970.392531 956.524167 0.001029311
19.63313 971.60522 970.421081 956.437368 0.001029225
19.64193 971.22632 970.523761 956.350386 0.001029626
19.65073 971.56067 970.697007 956.263224 0.001029272
19.65953 971.39667 970.936488 956.175914 0.001029446
19.66834 970.84448 971.237084 956.08847 0.001030031
19.67714 971.29639 971.592496 956.000935 0.001029552
19.68594 972.81628 971.995585 955.913311 0.001027943
19.69474 973.95703 972.437732 955.825641 0.001026739
19.70354 974.34662 972.909156 955.737948 0.001026329
19.71235 974.65973 973.398618 955.650235 0.001025999
19.72115 975.02679 973.893262 955.562535 0.001025613
19.72995 975.7392 974.378895 955.474859 0.001024864
19.73875 977.09076 974.839887 955.387251 0.001023446
19.74756 977.95526 975.26039 955.299713 0.001022542
19.75636 978.16254 975.624587 955.212307 0.001022325
19.76516 978.2005 975.918837 955.124995 0.001022285
19.77396 978.3017 976.132286 955.03784 0.00102218
19.78276 978.95624 976.258651 954.950852 0.001021496
19.79157 979.12292 976.297015 954.864045 0.001021322
19.80037 979.2243 976.252216 954.777459 0.001021216
19.80917 978.92084 976.134145 954.691095 0.001021533
19.81797 979.32416 975.956787 954.605015 0.001021112
19.82678 978.91064 975.736725 954.51918 0.001021544
19.83558 977.19067 975.492 954.433651 0.001023342
19.84438 975.37738 975.240248 954.348437 0.001025244
19.85318 974.94507 974.998184 954.26355 0.001025699
19.86198 974.83606 974.780687 954.17903 0.001025814
19.87079 974.64545 974.600629 954.094894 0.001026014
19.87959 974.05756 974.468665 954.011145 0.001026633
19.88839 973.75317 974.39333 953.927801 0.001026954
19.89719 974.08716 974.3815 953.844901 0.001026602
19.90599 974.50171 974.438298 953.762453 0.001026165
19.91480 974.54095 974.567935 953.680467 0.001026124
19.92360 974.6875 974.773783 953.59898 0.00102597
19.93240 975.12933 975.059224 953.518008 0.001025505
19.94120 975.51508 975.427978 953.437551 0.001025099
19.95001 976.00256 975.884374 953.357627 0.001024587
19.95881 977.18433 976.433423 953.27827 0.001023348
19.96761 978.08368 977.080912 953.199487 0.001022407
19.97641 978.62244 977.829283 953.121286 0.001021845
19.98521 978.85425 978.692046 953.043718 0.001021603
19.99402 979.80005 979.671819 952.966745 0.001020616
20.00282 980.90674 980.773302 952.890417 0.001019465
20.01162 980.91248 982.00104 952.814732 0.001019459
20.02042 981.25354 983.357556 952.739721 0.001019105
20.02922 982.01794 984.844495 952.665388 0.001018311
20.03803 983.30005 986.461617 952.591739 0.001016984
20.04683 984.32172 988.205808 952.51882 0.001015928
20.05563 985.77563 990.073938 952.446594 0.00101443
20.06443 987.54126 992.058826 952.375106 0.001012616
20.07324 989.17694 994.153753 952.304351 0.001010941
20.08204 990.79236 996.34976 952.234356 0.001009293
20.09084 993.08911 998.639191 952.165124 0.001006959
20.09964 995.89429 1001.013764 952.096673 0.001004123
20.10844 998.18433 1003.465818 952.028997 0.001001819
20.11725 1000.9732 1005.98704 951.962105 0.000999028
20.12605 1003.7996 1008.565333 951.896023 0.000996215
20.13485 1007.1296 1011.187001 951.830742 0.000992921
20.14365 1008.9579 1013.831308 951.766286 0.000991122
20.15245 1011.4541 1016.473931 951.702655 0.000988676
20.16126 1014.1996 1019.084833 951.639862 0.000985999
20.17006 1017.1968 1021.631883 951.5779 0.000983094
20.17886 1017.8164 1024.082571 951.516774 0.000982495
20.18766 1019.2568 1026.405838 951.456505 0.000981107
20.19646 1019.5468 1028.576917 951.397082 0.000980828
20.20527 1021.5408 1030.572865 951.338525 0.000978913
20.21407 1022.9804 1032.384527 951.280843 0.000977536
20.22287 1024.5667 1033.999226 951.224007 0.000976022
20.23167 1025.6665 1035.406589 951.168046 0.000974976
20.24047 1026.2548 1036.596736 951.112948 0.000974417
20.24928 1026.5901 1037.557889 951.05873 0.000974099
20.25808 1027.7362 1038.277707 951.005378 0.000973012
20.26688 1028.4664 1038.743629 950.952908 0.000972322
20.27568 1029.344 1038.94565 950.901323 0.000971493
20.28449 1029.9271 1038.874992 950.850595 0.000970943
20.29329 1029.9603 1038.525787 950.800745 0.000970911
20.30209 1029.6987 1037.893853 950.751762 0.000971158
20.31089 1028.811 1036.976267 950.703655 0.000971996
20.31969 1027.6868 1035.771332 950.656409 0.000973059
20.32850 1025.946 1034.280674 950.610044 0.00097471
20.33730 1024.973 1032.509349 950.56453 0.000975635
20.34610 1024.0654 1030.470238 950.519867 0.0009765
20.35490 1022.6542 1028.185288 950.476061 0.000977848
20.36370 1020.4312 1025.684752 950.433099 0.000979978
20.37251 1017.8707 1023.007178 950.390982 0.000982443
20.38131 1015.3648 1020.195438 950.349697 0.000984868
20.39011 1013.2546 1017.295884 950.309255 0.000986919
20.39891 1009.8659 1014.350655 950.269625 0.00099023
20.40771 1006.1608 1011.399038 950.230805 0.000993877
20.41652 1002.866 1008.475295 950.192796 0.000997142
20.42532 1000.8044 1005.604299 950.15558 0.000999196
20.43412 997.9032 1002.80595 950.119157 0.001002101
20.44292 995.64886 1000.092433 950.083516 0.00100437
20.45172 993.45886 997.470325 950.04864 0.001006584
20.46053 990.97894 994.944321 950.014522 0.001009103
20.46933 988.89734 992.516267 949.981146 0.001011227
20.47813 987.43317 990.189307 949.94851 0.001012727
20.48693 985.91443 987.966234 949.916594 0.001014287
20.49574 984.71277 985.851866 949.885392 0.001015525
20.50454 983.34747 983.85267 949.854891 0.001016935
20.51334 982.05444 981.974848 949.825071 0.001018273
20.52214 979.63605 980.225782 949.795921 0.001020787
20.53094 977.63196 978.611274 949.767425 0.00102288
20.53975 976.97821 977.137781 949.739573 0.001023564
20.54855 977.20038 975.808925 949.712344 0.001023332
20.55735 976.71863 974.629195 949.685735 0.001023836
20.56615 975.87335 973.599611 949.659712 0.001024723
20.57495 974.94196 972.722984 949.63427 0.001025702
20.58376 974.04352 972.000085 949.609389 0.001026648
20.59256 973.94086 971.429298 949.58505 0.001026756
20.60136 974.5238 971.0172 949.56124 0.001026142
20.61016 973.75366 970.761969 949.537937 0.001026954
20.61896 973.3092 970.664593 949.515132 0.001027423
20.62777 973.85455 970.726607 949.492791 0.001026847
20.63657 975.17169 970.948707 949.470905 0.00102546
20.64537 975.76038 971.3325 949.449453 0.001024842
20.65417 976.12567 971.878643 949.428412 0.001024458
20.66298 976.98053 972.587792 949.407768 0.001023562
20.67178 977.88861 973.459572 949.387499 0.001022611
20.68058 978.80023 974.493421 949.367581 0.001021659
20.68938 979.57562 975.687094 949.347993 0.00102085
20.69818 980.83795 977.037127 949.328718 0.001019536
20.70699 983.03186 978.538392 949.309733 0.001017261
20.71579 984.20007 980.183779 949.291014 0.001016054
20.72459 984.93665 981.963807 949.272543 0.001015294
20.73339 987.40747 983.866116 949.254298 0.001012753
20.74219 989.80945 985.875773 949.236252 0.001010295
20.75100 991.54779 987.974974 949.218384 0.001008524
20.75980 993.76324 990.140263 949.200674 0.001006276
20.76860 995.84515 992.346502 949.183097 0.001004172
20.77741 997.66846 994.564159 949.165629 0.001002337
20.78620 1000.2586 996.759255 949.148253 0.000999741
20.79501 1003.3787 998.898332 949.130936 0.000996633
20.80381 1006.0803 1000.944198 949.11366 0.000993956
20.81261 1007.4495 1002.862046 949.096399 0.000992606
20.82141 1009.6881 1004.618142 949.079132 0.000990405
20.83022 1011.2023 1006.183886 949.061834 0.000988922
20.83902 1013.5198 1007.534147 949.044479 0.000986661
20.84782 1015.281 1008.650675 949.027051 0.000984949
20.85662 1016.4425 1009.520678 949.009513 0.000983823
20.86542 1017.8548 1010.136511 948.99185 0.000982458
20.87423 1019.7081 1010.496763 948.974033 0.000980673
20.88303 1020.4725 1010.604155 948.956042 0.000979938
20.89183 1020.1798 1010.465632 948.937851 0.000980219
20.90063 1018.18 1010.091505 948.919438 0.000982145
20.90943 1016.5471 1009.493714 948.900775 0.000983722
20.91824 1014.3172 1008.686847 948.881836 0.000985885
20.92704 1012.1851 1007.687452 948.862603 0.000987962
20.93584 1010.4419 1006.514705 948.843047 0.000989666
20.94465 1008.4887 1005.191108 948.823149 0.000991583
20.95345 1006.6277 1003.742039 948.802881 0.000993416
20.96225 1004.2082 1002.196338 948.782224 0.000995809
20.97105 1001.3381 1000.584028 948.761148 0.000998664
20.97985 998.42847 998.93534 948.739629 0.001001574
20.98866 996.0733 997.2808 948.71765 0.001003942
20.99746 993.49023 995.646781 948.695182 0.001006552
21.00626 991.52887 994.058253 948.672206 0.001008544
21.01506 989.61682 992.535486 948.648703 0.001010492
21.02386 987.26563 991.093727 948.624637 0.001012899
21.03267 985.39996 989.746707 948.599996 0.001014816
21.04147 984.26471 988.502581 948.574751 0.001015987
21.05027 983.3609 987.367304 948.548887 0.001016921
21.05907 982.09583 986.342096 948.522379 0.001018231
21.06788 980.55969 985.426755 948.495201 0.001019826
21.07668 979.40332 984.617304 948.467346 0.00102103
21.08548 978.72345 983.908846 948.438772 0.001021739
21.09428 978.20313 983.296081 948.409473 0.001022283
21.10308 978.09265 982.773131 948.37942 0.001022398
21.11189 977.87646 982.335815 948.348601 0.001022624
21.12069 977.56079 981.980674 948.316992 0.001022954
21.12949 977.40411 981.705698 948.284577 0.001023118
21.13829 977.48969 981.509823 948.251331 0.001023029
21.14709 976.91486 981.391783 948.217233 0.001023631
21.15590 975.9845 981.350299 948.182273 0.001024606
21.16470 975.29279 981.381785 948.146426 0.001025333
21.17350 974.54584 981.48128 948.109681 0.001026119
21.18230 973.91589 981.640456 948.072017 0.001026783
21.19110 973.66626 981.848893 948.033422 0.001027046
21.19991 973.72858 982.093056 947.99387 0.00102698
21.20871 974.02112 982.357011 947.953347 0.001026672
21.21751 974.19495 982.622696 947.911844 0.001026489
21.22631 974.27637 982.870921 947.869337 0.001026403
21.23512 974.39435 983.081934 947.825822 0.001026279
21.24392 974.23199 983.236781 947.781285 0.00102645
21.25272 973.67731 983.318443 947.735702 0.001027034
21.26152 973.38336 983.31285 947.689065 0.001027344
21.27032 973.40747 983.210229 947.641356 0.001027319
21.27913 973.91443 983.005433 947.592573 0.001026784
21.28793 974.35193 982.698544 947.542694 0.001026323
21.29673 974.24731 982.293934 947.491718 0.001026433
21.30553 973.73236 981.800436 947.439637 0.001026976
21.31433 972.97882 981.229483 947.386427 0.001027772
21.32314 972.284 980.594765 947.332086 0.001028506
21.33194 972.16577 979.910547 947.276598 0.001028631
21.34074 971.74512 979.192139 947.219967 0.001029076
21.34954 971.55859 978.452931 947.162172 0.001029274
21.35834 970.65112 977.706362 947.103234 0.001030236
21.36715 969.54114 976.962022 947.043106 0.001031416
21.37595 968.74628 976.228451 946.981807 0.001032262
21.38475 968.44617 975.510482 946.919327 0.001032582
21.39355 968.83948 974.810641 946.855653 0.001032163
21.40236 968.73901 974.127846 946.790794 0.00103227
21.41116 967.64966 973.45923 946.724734 0.001033432
21.41996 967.2677 972.799421 946.657499 0.00103384
21.42876 967.25153 972.141715 946.589041 0.001033857
21.43756 966.83325 971.479392 946.519389 0.001034305
21.44637 965.63232 970.80564 946.448535 0.001035591
21.45517 964.9989 970.11438 946.376469 0.001036271
21.46397 965.39838 969.402102 946.303207 0.001035842
21.47277 965.47827 968.666479 946.228752 0.001035756
21.48157 964.98132 967.907663 946.153087 0.001036289
21.49038 964.93854 967.128263 946.076215 0.001036335
21.49918 964.19794 966.332648 945.998155 0.001037131
21.50798 963.6347 965.526866 945.918901 0.001037738
21.51678 963.23792 964.717685 945.83845 0.001038165
21.52558 962.57739 963.912825 945.756841 0.001038878
21.53439 962.2406 963.118696 945.674025 0.001039241
21.54319 961.39349 962.342389 945.590045 0.001040157
21.55199 959.97858 961.589058 945.504888 0.00104169
21.56079 958.9577 960.863568 945.418581 0.001042799
21.56959 958.86255 960.168933 945.331122 0.001042902
21.57840 958.05872 959.507303 945.242508 0.001043777
21.58720 957.29401 958.879968 945.152791 0.001044611
21.59600 956.74933 958.28683 945.061917 0.001045206
21.60480 956.39716 957.727397 944.969939 0.001045591
21.61360 956.22919 957.200534 944.876856 0.001045774
21.62241 955.46326 956.704512 944.78267 0.001046613
21.63121 955.15442 956.237739 944.687415 0.001046951
21.64001 954.7207 955.798315 944.591102 0.001047427
21.64881 954.10388 955.384479 944.493724 0.001048104
21.65762 953.74225 954.994512 944.395294 0.001048501
21.66642 953.82886 954.627223 944.295849 0.001048406
21.67522 954.40631 954.281102 944.195394 0.001047772
21.68402 954.56366 953.954945 944.093931 0.001047599
21.69282 954.22559 953.64743 943.9915 0.00104797
21.70163 954.22772 953.357263 943.888119 0.001047968
21.71043 954.31464 953.082931 943.783782 0.001047872
21.71923 953.66119 952.823027 943.678505 0.00104859
21.72803 953.24921 952.576238 943.572331 0.001049044
21.73683 952.71301 952.341398 943.465268 0.001049634
21.74564 952.09741 952.116816 943.357323 0.001050313
21.75444 952.23816 951.903618 943.248564 0.001050157
21.76324 951.78998 951.700707 943.138939 0.001050652
21.77204 951.39374 951.508345 943.028518 0.00105109
21.78085 952.06537 951.326895 942.917298 0.001050348
21.78965 952.19727 951.15689 942.805325 0.001050203
21.79845 951.7431 950.998839 942.69261 0.001050704
21.80725 949.92706 950.853094 942.579162 0.001052712
21.81605 949.10675 950.719953 942.465057 0.001053622
21.82486 949.30963 950.599245 942.350241 0.001053397
21.83366 950.17346 950.490691 942.234791 0.001052439
21.84246 950.79175 950.393649 942.118704 0.001051755
21.85126 950.88983 950.307238 942.002031 0.001051647
21.86006 950.33521 950.230358 941.884787 0.00105226
21.86887 949.60205 950.161748 941.767009 0.001053073
21.87767 949.81152 950.100088 941.648697 0.00105284
21.88647 949.82983 950.044147 941.529877 0.00105282
21.89527 949.51178 949.992733 941.410604 0.001053173
21.90408 949.68536 949.944915 941.290877 0.00105298
21.91288 949.90741 949.899913 941.170752 0.001052734
21.92168 949.46771 949.857245 941.050242 0.001053222
21.93048 950.06702 949.816633 940.929389 0.001052557
21.93928 950.43384 949.778053 940.808195 0.001052151
21.94809 950.68823 949.741765 940.686688 0.00105187
21.95689 951.34961 949.708356 940.564924 0.001051138
21.96569 951.51947 949.678799 940.442905 0.001050951
21.97449 950.87628 949.654535 940.320688 0.001051662
21.98329 951.14459 949.637511 940.198302 0.001051365
21.99210 951.27643 949.630195 940.07575 0.001051219
22.00090 951.73932 949.635494 939.953074 0.001050708
22.00970 951.95215 949.656767 939.830292 0.001050473
22.01850 952.06073 949.6977 939.70746 0.001050353
22.02731 952.19031 949.762152 939.584582 0.00105021
22.03611 952.12537 949.854138 939.461716 0.001050282
22.04491 951.63007 949.977657 939.338892 0.001050829
22.05371 951.75604 950.136674 939.216113 0.001050689
22.06251 952.02875 950.335199 939.093422 0.001050388
22.07132 952.85657 950.577043 938.970838 0.001049476
22.08012 954.26532 950.865742 938.848417 0.001047927
22.08892 955.19983 951.204867 938.726164 0.001046901
22.09772 954.9389 951.597429 938.604163 0.001047187
22.10652 954.48199 952.046505 938.482363 0.001047689
22.11533 955.68268 952.554602 938.360849 0.001046372
22.12413 957.47504 953.12385 938.239637 0.001044414
22.13293 958.32861 953.755952 938.118745 0.001043483
22.14173 958.29956 954.452157 937.99823 0.001043515
22.15054 959.10779 955.213166 937.878094 0.001042636
22.15934 960.09619 956.038818 937.758422 0.001041562
22.16814 960.42761 956.929243 937.639162 0.001041203
22.17694 960.76886 957.882376 937.520399 0.001040833
22.18574 961.2616 958.89622 937.402147 0.0010403
22.19455 961.74512 959.967392 937.284423 0.001039777
22.20335 963.18054 961.09071 937.167283 0.001038227
22.21215 964.55908 962.259712 937.050755 0.001036743
22.22095 965.8429 963.466972 936.93484 0.001035365
22.22975 967.43713 964.703463 936.819581 0.001033659
22.23856 968.99005 965.958769 936.704992 0.001032002
22.24736 969.79022 967.222615 936.591128 0.001031151
22.25616 970.95374 968.48403 936.477988 0.001029915
22.26496 972.70654 969.733049 936.365627 0.001028059
22.27376 974.44586 970.959872 936.25407 0.001026224
22.28257 976.49207 972.156081 936.143318 0.001024074
22.29137 977.49805 973.313803 936.03341 0.00102302
22.30017 978.88727 974.425336 935.924359 0.001021568
22.30897 981.2923 975.482468 935.816214 0.001019064
22.31778 983.40582 976.476929 935.708975 0.001016874
22.32658 984.80426 977.398287 935.602715 0.00101543
22.33538 985.53943 978.236554 935.497386 0.001014673
22.34418 985.94281 978.978398 935.393057 0.001014258
22.35298 986.18591 979.611397 935.289741 0.001014008
22.36179 986.73273 980.12182 935.187448 0.001013446
22.37059 988.06427 980.497212 935.086221 0.00101208
22.37939 988.76331 980.726584 934.986061 0.001011364
22.38819 988.00366 980.801689 934.887031 0.001012142
22.39699 988.39117 980.71756 934.789086 0.001011745
22.40580 988.84344 980.472857 934.692287 0.001011282
22.41460 988.09625 980.069656 934.596645 0.001012047
22.42340 987.586 979.512921 934.502165 0.00101257
22.43220 987.0517 978.810769 934.408888 0.001013118
22.44100 985.97485 977.97299 934.316828 0.001014225
22.44981 984.01978 977.011113 934.225983 0.00101624
22.45861 982.58777 975.938435 934.136368 0.001017721
22.46741 981.58331 974.770233 934.048018 0.001018762
22.47621 981.50549 973.522697 933.960937 0.001018843
22.48502 980.52136 972.213516 933.875129 0.001019866
22.49382 978.13116 970.860956 933.790627 0.001022358
22.50262 976.19409 969.483721 933.707443 0.001024386
22.51142 975.03973 968.09975 933.625569 0.001025599
22.52022 972.84784 966.725565 933.545016 0.00102791
22.52903 970.70184 965.377565 933.465813 0.001030182
22.53783 969.20752 964.06864 933.38796 0.001031771
22.54663 968.16077 962.810684 933.311457 0.001032886
22.55543 966.68646 961.613428 933.236346 0.001034462
22.56423 964.59955 960.483228 933.162583 0.0010367
22.57304 963.68652 959.426235 933.090208 0.001037682
22.58184 963.04413 958.44535 933.019211 0.001038374
22.59064 962.16211 957.542986 932.949611 0.001039326
22.59944 960.92969 956.719248 932.881406 0.001040659
22.60825 960.06085 955.973596 932.814591 0.001041601
22.61705 959.67944 955.304448 932.749199 0.001042015
22.62585 959.02417 954.708694 932.685185 0.001042727
22.63465 957.87811 954.183278 932.622582 0.001043974
22.64345 957.26044 953.723503 932.561374 0.001044648
22.65226 956.75464 953.323808 932.501575 0.0010452
22.66106 956.73645 952.979831 932.443176 0.00104522
22.66986 956.57886 952.684695 932.386182 0.001045392
22.67866 956.3797 952.431979 932.330575 0.00104561
22.68746 956.35352 952.215154 932.276354 0.001045638
22.69627 956.40454 952.028387 932.223525 0.001045583
22.70507 956.4021 951.866044 932.172071 0.001045585
22.71387 956.39349 951.723683 932.121998 0.001045595
22.72267 955.64246 951.597567 932.073291 0.001046416
22.73147 955.39423 951.485299 932.02595 0.001046688
22.74028 956.11029 951.385423 931.979953 0.001045904
22.74908 956.05347 951.297615 931.935293 0.001045967
22.75788 955.88464 951.222509 931.891969 0.001046151
22.76668 955.82257 951.162179 931.849959 0.001046219
22.77549 955.77649 951.119296 931.809263 0.00104627
22.78429 955.98523 951.097218 931.769871 0.001046041
22.79309 956.38556 951.100403 931.731748 0.001045603
22.80189 955.83679 951.133652 931.694896 0.001046204
22.81069 955.16949 951.202539 931.659294 0.001046935
22.81950 954.70062 951.312505 931.624934 0.001047449
22.82830 955.08167 951.469431 931.59179 0.001047031
22.83710 955.18628 951.678491 931.559855 0.001046916
22.84590 955.19006 951.944841 931.529112 0.001046912
22.85470 955.72296 952.272668 931.499527 0.001046328
22.86351 955.758 952.66557 931.471093 0.00104629
22.87231 955.53833 953.125832 931.443785 0.00104653
22.88111 955.44037 953.655186 931.417588 0.001046638
22.88991 955.73169 954.25378 931.392474 0.001046319
22.89871 956.19159 954.92115 931.368434 0.001045816
22.90752 956.19897 955.655712 931.34543 0.001045807
22.91632 956.18872 956.455482 931.323442 0.001045819
22.92512 957.46051 957.316798 931.302452 0.001044429
22.93392 958.23645 958.236614 931.28243 0.001043584
22.94273 958.38446 959.210193 931.263356 0.001043423
22.95153 958.50354 960.233645 931.2452 0.001043293
22.96033 959.02277 961.301202 931.227944 0.001042728
22.96913 959.96808 962.405883 931.211551 0.001041701
22.97793 960.98749 963.547026 931.195995 0.001040596
22.98674 961.23773 964.716172 931.181253 0.001040325
22.99554 961.88953 965.906459 931.167294 0.00103962
23.00434 962.64282 967.111149 931.154091 0.001038807
23.01314 964.01477 968.321863 931.141614 0.001037329
23.02194 965.17682 969.529837 931.129832 0.00103608
23.03075 966.51385 970.724735 931.118716 0.001034646
23.03955 966.92316 971.894782 931.108234 0.001034208
23.04835 967.20715 973.025457 931.098357 0.001033905
23.05715 969.04346 974.101624 931.089051 0.001031945
23.06596 970.71722 975.105577 931.080288 0.001030166
23.07476 970.94019 976.019587 931.072035 0.00102993
23.08356 971.552 976.826083 931.064257 0.001029281
23.09236 972.63055 977.508649 931.056923 0.00102814
23.10116 973.88519 978.05367 931.05 0.001026815
23.10997 975.10632 978.451631 931.043454 0.001025529
23.11877 975.862 978.697714 931.037253 0.001024735
23.12757 976.73016 978.792245 931.031364 0.001023824
23.13637 976.80066 978.741 931.025749 0.00102375
23.14517 976.17761 978.55383 931.020377 0.001024404
23.15398 975.24438 978.244577 931.015214 0.001025384
23.16278 974.76581 977.828793 931.010223 0.001025887
23.17158 973.19763 977.323978 931.005373 0.001027541
23.18038 971.68109 976.74626 931.000627 0.001029144
23.18918 970.9939 976.111715 930.995952 0.001029873
23.19799 970.85718 975.432442 930.991311 0.001030018
23.20679 969.96545 974.71979 930.986671 0.001030965
23.21559 968.862 973.980645 930.981996 0.001032139
23.22439 968.78998 973.219901 930.977252 0.001032215
23.23320 968.26837 972.439561 930.972405 0.001032772
23.24200 967.07153 971.640643 930.96742 0.00103405
23.25080 966.56036 970.822936 930.962261 0.001034597
23.25960 966.29218 969.986452 930.956894 0.001034884
23.26840 966.39172 969.132845 930.951286 0.001034777
23.27721 966.55756 968.264878 930.945402 0.0010346
23.28601 966.12268 967.386893 930.939207 0.001035065
23.29481 965.1427 966.506238 930.932669 0.001036116
23.30361 965.32983 965.630514 930.925754 0.001035915
23.31241 964.81189 964.768457 930.918428 0.001036471
23.32122 963.36078 963.926519 930.910656 0.001038033
23.33002 963.16559 963.118053 930.902409 0.001038243
23.33882 962.41345 962.347598 930.893652 0.001039054
23.34762 960.70996 961.621162 930.884353 0.001040897
23.35642 958.90686 960.942644 930.874483 0.001042854
23.36523 957.60986 960.314387 930.864006 0.001044267
23.37403 957.03754 959.737877 930.852894 0.001044891
23.38283 956.89911 959.212814 930.841113 0.001045042
23.39163 956.0708 958.738856 930.828637 0.001045948
23.40044 955.97101 958.314844 930.815435 0.001046057
23.40924 955.86151 957.939587 930.801475 0.001046177
23.41804 955.79895 957.612719 930.786735 0.001046245
23.42684 955.74683 957.333489 930.771178 0.001046302
23.43564 955.38898 957.101975 930.754781 0.001046694
23.44445 954.5202 956.918534 930.737514 0.001047647
23.45325 954.26294 956.783366 930.719355 0.001047929
23.46205 955.94562 956.696656 930.700274 0.001046085
23.47085 956.35803 956.658106 930.680251 0.001045634
23.47965 955.50391 956.666953 930.659254 0.001046568
23.48846 955.08344 956.721452 930.637259 0.001047029
23.49726 955.67957 956.819698 930.614248 0.001046376
23.50606 956.24042 956.958859 930.590193 0.001045762
23.51486 957.44635 957.136377 930.565077 0.001044445
23.52367 958.28467 957.349343 930.538877 0.001043531
23.53247 958.86578 957.595681 930.511573 0.001042899
23.54127 959.69727 957.873764 930.483141 0.001041995
23.55007 960.69312 958.182971 930.453561 0.001040915
23.55887 960.75061 958.523301 930.422821 0.001040853
23.56768 960.84186 958.894768 930.390896 0.001040754
23.57648 961.37134 959.300222 930.357777 0.001040181
23.58528 962.242 959.739958 930.323453 0.00103924
23.59408 962.76636 960.214792 930.287887 0.001038674
23.60288 963.15155 960.724736 930.251081 0.001038258
23.61169 962.94403 961.268344 930.213015 0.001038482
23.62049 962.43811 961.843084 930.173682 0.001039028
23.62929 963.04578 962.444581 930.133063 0.001038372
23.63809 964.11951 963.067116 930.091156 0.001037216
23.64689 964.31219 963.70323 930.047956 0.001037009
23.65570 964.67072 964.345044 930.003429 0.001036623
23.66450 965.63275 964.983232 929.957586 0.00103559
23.67330 966.27307 965.608519 929.91041 0.001034904
23.68210 967.13202 966.211612 929.861904 0.001033985
23.69091 967.41669 966.783843 929.812053 0.001033681
23.69971 968.33069 967.31707 929.760873 0.001032705
23.70851 969.28961 967.804373 929.708333 0.001031683
23.71731 970.24963 968.239705 929.654435 0.001030663
23.72611 971.04169 968.617187 929.599189 0.001029822
23.73492 970.83197 968.932589 929.542581 0.001030044
23.74372 971.1449 969.181434 929.484624 0.001029712
23.75252 972.47729 969.360737 929.425319 0.001028302
23.76132 973.67712 969.468231 929.364655 0.001027035
23.77012 974.47321 969.502551 929.302639 0.001026195
23.77893 974.73529 969.464066 929.239269 0.00102592
23.78773 974.34119 969.354844 929.174563 0.001026335
23.79653 973.79742 969.178919 929.108512 0.001026908
23.80533 973.04205 968.942537 929.041137 0.001027705
23.81414 972.83636 968.654181 928.972444 0.001027922
23.82294 972.69757 968.324177 928.902428 0.001028069
23.83174 972.08789 967.964905 928.831103 0.001028714
23.84054 970.8277 967.590284 928.758471 0.001030049
23.84934 970.2926 967.214718 928.68456 0.001030617
23.85815 969.71613 966.852813 928.609363 0.00103123
23.86695 968.96027 966.518963 928.532928 0.001032034
23.87575 967.63983 966.226027 928.455215 0.001033442
23.88455 966.55872 965.98559 928.376274 0.001034598
23.89335 965.98236 965.807007 928.296109 0.001035216
23.90216 965.12036 965.697172 928.214728 0.00103614
23.91096 964.88104 965.660987 928.132164 0.001036397
23.91976 965.05603 965.700321 928.048416 0.001036209
23.92856 964.23895 965.815235 927.963539 0.001037087
23.93736 963.95129 966.003357 927.877496 0.001037397
23.94617 964.547 966.260136 927.790343 0.001036756
23.95497 965.08356 966.580017 927.70209 0.00103618
23.96377 966.09357 966.95588 927.612748 0.001035096
23.97257 966.27045 967.379454 927.522359 0.001034907
23.98137 966.15454 967.841824 927.430944 0.001035031
23.99018 965.64716 968.333425 927.338505 0.001035575
23.99898 965.78809 968.844132 927.245065 0.001035424
24.00778 965.79474 969.36237 927.150669 0.001035417
24.01658 966.72528 969.876495 927.055329 0.00103442
24.02539 968.11914 970.373024 926.959061 0.001032931
24.03419 968.23395 970.838372 926.861911 0.001032808
24.04299 968.03314 971.257541 926.763905 0.001033022
24.05179 967.9187 971.615749 926.665047 0.001033145
24.06059 968.42737 971.898659 926.565363 0.001032602
24.06940 969.26349 972.092819 926.464903 0.001031711
24.07820 969.63208 972.18708 926.363683 0.001031319
24.08700 969.78516 972.173057 926.26172 0.001031156
24.09580 968.94507 972.045521 926.159087 0.00103205
24.10460 968.23438 971.802983 926.055744 0.001032808
24.11341 968.38654 971.447268 925.951765 0.001032645
24.12221 968.729 970.983647 925.847156 0.00103228
24.13101 969.48743 970.419748 925.741971 0.001031473
24.13981 968.77484 969.765182 925.636226 0.001032232
24.14862 967.9679 969.030947 925.529939 0.001033092
24.15742 967.11896 968.228551 925.423187 0.001033999
24.16622 966.71613 967.369307 925.315929 0.00103443
24.17502 967.04419 966.465718 925.208243 0.001034079
24.18382 966.8739 965.528929 925.100133 0.001034261
24.19263 965.69049 964.571431 924.991655 0.001035528
24.20143 964.70953 963.604524 924.882826 0.001036581
24.21023 964.03088 962.640176 924.773688 0.001037311
24.21903 962.53046 961.689395 924.664247 0.001038928
24.22783 961.17993 960.764081 924.554531 0.001040388
24.23664 959.94391 959.874756 924.444595 0.001041728
24.24544 959.45612 959.031458 924.334445 0.001042257
24.25424 959.20105 958.243353 924.224133 0.001042534
24.26304 959.02716 957.518413 924.113676 0.001042723
24.27184 958.31152 956.863855 924.003116 0.001043502
24.28065 956.39124 956.285292 923.892456 0.001045597
24.28945 954.82147 955.786869 923.781723 0.001047316
24.29825 955.07214 955.372179 923.670971 0.001047041
24.30705 955.12506 955.042504 923.560202 0.001046983
24.31586 954.42975 954.798535 923.449467 0.001047746
24.32466 954.21094 954.638904 923.338807 0.001047986
24.33346 953.96698 954.561325 923.228183 0.001048254
24.34226 952.99304 954.561932 923.117672 0.001049326
24.35106 952.63226 954.636088 923.007273 0.001049723
24.35987 953.06836 954.77792 922.897036 0.001049243
24.36867 953.5282 954.980796 922.78696 0.001048737
24.37747 953.82251 955.238111 922.677092 0.001048413
24.38627 953.28052 955.542215 922.567467 0.001049009
24.39507 953.33661 955.88633 922.458046 0.001048947
24.40388 954.21069 956.262712 922.348898 0.001047987
24.41268 954.65228 956.664304 922.24002 0.001047502
24.42148 955.04089 957.083091 922.131455 0.001047076
24.43029 955.88074 957.511516 922.023198 0.001046156
24.43908 956.53796 957.940404 921.915316 0.001045437
24.44789 956.99213 958.360894 921.807764 0.001044941
24.45669 957.13202 958.762709 921.700572 0.001044788
24.46549 957.31195 959.134598 921.593778 0.001044592
24.47430 957.49469 959.465058 921.487374 0.001044392
24.48310 957.74316 959.742038 921.381396 0.001044121
24.49190 958.61652 959.95365 921.275845 0.00104317
24.50070 958.44507 960.088956 921.170746 0.001043357
24.50950 959.04419 960.138245 921.066084 0.001042705
24.51831 959.88751 960.094 920.961869 0.001041789
24.52711 960.45959 959.950677 920.858134 0.001041168
24.53591 960.4826 959.705867 920.754862 0.001041143
24.54471 960.51166 959.359654 920.652084 0.001041112
24.55351 960.64825 958.915171 920.549805 0.001040964
24.56232 960.77527 958.377691 920.448005 0.001040826
24.57112 960.50531 957.754882 920.3467 0.001041119
24.57992 960.30554 957.056229 920.24588 0.001041335
24.58872 959.89612 956.292776 920.14557 0.001041779
24.59753 958.68372 955.476791 920.045746 0.001043097
24.60633 958.24823 954.620966 919.94643 0.001043571
24.61513 957.77338 953.739046 919.847619 0.001044088
24.62393 956.63824 952.843913 919.749287 0.001045327
24.63273 954.91656 951.949187 919.651441 0.001047212
24.64154 954.25421 951.067242 919.554064 0.001047939
24.65034 953.81073 950.210477 919.45717 0.001048426
24.65914 952.87524 949.389488 919.360731 0.001049455
24.66794 950.78894 948.614804 919.264779 0.001051758
24.67674 948.87952 947.894478 919.169239 0.001053875
24.68555 947.9903 947.236573 919.074142 0.001054863
24.69435 948.10089 946.64711 918.979466 0.00105474
24.70315 948.11224 946.13148 918.885186 0.001054727
24.71195 948.01569 945.69358 918.791307 0.001054835
24.72076 947.95251 945.336137 918.697792 0.001054905
24.72956 946.34784 945.060632 918.604667 0.001056694
24.73836 944.95465 944.867419 918.511848 0.001058252
24.74716 943.81287 944.755738 918.419359 0.001059532
24.75596 943.25775 944.723846 918.327169 0.001060156
24.76477 943.16223 944.768759 918.235245 0.001060263
24.77357 942.89166 944.886762 918.143586 0.001060567
24.78237 943.1145 945.073092 918.052167 0.001060317
24.79117 942.88983 945.322541 917.960943 0.001060569
24.79997 942.33319 945.629127 917.869888 0.001061196
24.80878 942.09918 945.986485 917.778995 0.001061459
24.81758 942.0163 946.387946 917.688228 0.001061553
24.82638 942.3869 946.826859 917.597546 0.001061135
24.83518 943.00067 947.296162 917.506941 0.001060445
24.84398 943.63 947.789159 917.416382 0.001059737
24.85279 944.53424 948.299295 917.325817 0.001058723
24.86159 945.07971 948.820079 917.235214 0.001058112
24.87039 945.13403 949.345517 917.144561 0.001058051
24.87919 946.02979 949.869958 917.053813 0.001057049
24.88800 947.27399 950.388506 916.962927 0.001055661
24.89680 947.54333 950.896679 916.871907 0.001055361
24.90560 947.92505 951.391299 916.780657 0.001054936
24.91440 948.04974 951.869377 916.689182 0.001054797
24.92320 948.22833 952.329027 916.597423 0.001054598
24.93201 948.94043 952.768885 916.505364 0.001053807
24.94081 949.84155 953.188249 916.412956 0.001052807
24.94961 949.84357 953.587363 916.320152 0.001052805
24.95841 949.30389 953.965906 916.226954 0.001053403
24.96721 949.93134 954.324357 916.133259 0.001052708
24.97602 950.49237 954.662694 916.039071 0.001052086
24.98482 950.35382 954.98056 915.944328 0.00105224
24.99362 950.62311 955.276684 915.849013 0.001051942
25.00242 951.45593 955.548466 915.753073 0.001051021
25.01122 950.95093 955.792286 915.656481 0.001051579
25.02003 950.96747 956.002795 915.559173 0.001051561
25.02883 951.16565 956.173607 915.461109 0.001051342
25.03763 950.79358 956.29671 915.362272 0.001051753
25.04643 951.51624 956.36376 915.262609 0.001050954
25.05523 952.49762 956.366332 915.16207 0.001049871
25.06404 953.00262 956.296061 915.060637 0.001049315
25.07284 953.19427 956.146474 914.958272 0.001049104
25.08164 954.03461 955.912588 914.854911 0.00104818
25.09044 955.01105 955.59216 914.750515 0.001047108
25.09924 955.99384 955.185796 914.645069 0.001046032
25.10805 957.23474 954.697048 914.538525 0.001044676
25.11685 957.60938 954.131831 914.430831 0.001044267
25.12565 956.82104 953.499034 914.322 0.001045128
25.13445 955.1297 952.808306 914.211922 0.001046978
25.14325 953.20947 952.070958 914.100611 0.001049087
25.15206 951.34454 951.29875 913.988007 0.001051144
25.16086 949.67401 950.503291 913.874101 0.001052993
25.16966 947.54181 949.696033 913.758847 0.001055362
25.17846 946.16589 948.887448 913.6422 0.001056897
25.18727 945.03839 948.088017 913.524182 0.001058158
25.19607 943.49731 947.306716 913.404682 0.001059886
25.20487 942.02826 946.552087 913.283726 0.001061539
25.21367 941.43103 945.832155 913.161257 0.001062213
25.22247 941.19995 945.153647 913.037277 0.001062473
25.23128 940.21692 944.52294 912.911747 0.001063584
25.24008 938.56171 943.944956 912.784656 0.00106546
25.24888 938.14771 943.4237 912.655954 0.00106593
25.25768 938.11462 942.962312 912.525618 0.001065968
25.26648 938.10126 942.562628 912.393658 0.001065983
25.27529 938.31836 942.225465 912.260026 0.001065736
25.28409 937.74347 941.950415 912.124735 0.00106639
25.29289 937.40936 941.736233 911.987755 0.00106677
25.30169 936.84857 941.580637 911.849089 0.001067408
25.31049 937.09308 941.480576 911.708692 0.00106713
25.31930 937.93713 941.432584 911.566556 0.00106617
25.32810 938.26019 941.432387 911.422702 0.001065802
25.33690 938.39056 941.475657 911.277094 0.001065654
25.34570 938.86505 941.557421 911.129758 0.001065116
25.35451 939.08295 941.672683 910.980693 0.001064869
25.36331 938.91138 941.816061 910.829865 0.001065063
25.37211 939.47693 941.981544 910.677291 0.001064422
25.38091 940.9776 942.16302 910.522959 0.001062725
25.38971 942.56207 942.353325 910.366907 0.001060938
25.39852 942.22028 942.544998 910.209108 0.001061323
25.40732 941.34772 942.72944 910.049608 0.001062307
25.41612 941.92432 942.897709 909.888419 0.001061656
25.42492 943.10059 943.04021 909.725518 0.001060332
25.43372 943.6217 943.147218 909.56094 0.001059747
25.44253 944.28015 943.209222 909.394684 0.001059008
25.45133 945.26807 943.21747 909.226807 0.001057901
25.46013 946.42535 943.164441 909.057296 0.001056607
25.46893 947.26886 943.044544 908.886252 0.001055666
25.47774 947.37994 942.854271 908.713586 0.001055543
25.48654 947.53076 942.59246 908.539405 0.001055375
25.49534 946.72882 942.260683 908.363721 0.001056269
25.50414 946.43402 941.862583 908.186549 0.001056598
25.51294 947.71698 941.40425 908.007963 0.001055167
25.52175 948.47565 940.893027 907.827964 0.001054323
25.53055 947.90277 940.338187 907.646672 0.001054961
25.53935 946.94867 939.747869 907.464008 0.001056023
25.54815 945.43823 939.133806 907.280099 0.001057711
25.55695 943.98169 938.504679 907.094971 0.001059343
25.56576 943.41528 937.869952 906.908652 0.001059979
25.57456 942.52338 937.238268 906.721237 0.001060982
25.58336 941.04388 936.617574 906.532778 0.00106265
25.59216 939.99188 936.014443 906.34329 0.001063839
25.60096 939.53851 935.435059 906.15285 0.001064352
25.60977 938.05334 934.88378 905.961496 0.001066037
25.61857 937.3255 934.364617 905.769334 0.001066865
25.62737 936.74548 933.879742 905.576383 0.001067526
25.63618 934.8905 933.431035 905.382753 0.001069644
25.64498 933.92932 933.018792 905.188509 0.001070745
25.65378 933.9447 932.642777 904.993678 0.001070727
25.66258 933.16498 932.301521 904.798351 0.001071622
25.67138 931.60199 931.993536 904.602578 0.00107342
25.68019 931.1908 931.716241 904.406478 0.001073894
25.68899 930.77454 931.467255 904.21008 0.001074374
25.69779 930.42957 931.243558 904.01355 0.001074772
25.70659 930.64081 931.04272 903.816832 0.001074528
25.71539 930.31006 930.86242 903.620095 0.00107491
25.72420 929.71497 930.70111 903.423396 0.001075598
25.73300 929.69568 930.557187 903.226793 0.001075621
25.74180 929.78699 930.430587 903.030414 0.001075515
25.75060 929.35846 930.320837 902.834298 0.001076011
25.75940 928.5827 930.22885 902.638616 0.00107691
25.76821 928.00854 930.154227 902.443319 0.001077576
25.77701 928.12634 930.098894 902.248583 0.00107744
25.78581 928.35162 930.062439 902.05447 0.001077178
25.79461 928.30554 930.04479 901.861044 0.001077232
25.80342 928.02722 930.044804 901.668434 0.001077555
25.81222 928.35608 930.060956 901.476728 0.001077173
25.82102 928.69373 930.090581 901.285968 0.001076781
25.82982 928.51758 930.130421 901.09624 0.001076986
25.83862 928.11389 930.176223 900.907673 0.001077454
25.84743 928.47998 930.223399 900.720332 0.001077029
25.85623 928.82874 930.266274 900.534281 0.001076625
25.86503 928.66693 930.299603 900.349687 0.001076812
25.87383 928.5661 930.317562 900.166511 0.001076929
25.88263 929.75232 930.314255 899.984916 0.001075555
25.89144 930.71356 930.284671 899.804947 0.001074444
25.90024 930.20026 930.223645 899.626722 0.001075037
25.90904 930.5434 930.127415 899.450302 0.001074641
25.91784 930.49847 929.992815 899.275746 0.001074693
25.92664 929.88043 929.818164 899.103209 0.001075407
25.93545 929.80267 929.602737 898.932647 0.001075497
25.94425 929.7196 929.347819 898.764213 0.001075593
25.95305 929.30054 929.055555 898.59794 0.001076078
25.96185 929.7782 928.728086 898.433935 0.001075525
25.97066 930.09442 928.373747 898.272245 0.00107516
25.97946 930.41522 927.996543 898.112955 0.001074789
25.98826 930.6626 927.602363 897.956088 0.001074503
25.99706 930.23145 927.197674 897.801707 0.001075001
26.00586 929.95197 926.788511 897.649902 0.001075324
26.01467 929.12579 926.380746 897.500694 0.001076281
26.02347 928.20715 925.97957 897.354168 0.001077346
26.03227 928.07788 925.589807 897.210352 0.001077496
26.04107 928.20862 925.215263 897.06931 0.001077344
26.04987 927.74805 924.859599 896.931048 0.001077879
26.05868 926.43823 924.524112 896.795606 0.001079403
26.06748 925.91986 924.214008 896.663049 0.001080007
26.07628 925.5553 923.929464 896.533375 0.001080432
26.08508 925.26428 923.672153 896.406641 0.001080772
26.09388 926.20154 923.442648 896.282868 0.001079679
26.10269 927.56543 923.241225 896.162046 0.001078091
26.11149 928.1803 923.067868 896.044202 0.001077377
26.12029 928.39362 922.921721 895.929334 0.001077129
26.12909 928.6944 922.801663 895.817472 0.00107678
26.13790 929.16614 922.705872 895.708592 0.001076234
26.14670 929.23987 922.632267 895.602714 0.001076148
26.15550 928.7785 922.578124 895.49983 0.001076683
26.16430 928.4173 922.540615 895.3999 0.001077102
26.17310 928.74182 922.516454 895.30292 0.001076725
26.18191 929.31842 922.502403 895.208855 0.001076057
26.19071 929.31396 922.495181 895.1177 0.001076063
26.19951 928.93573 922.491986 895.029399 0.001076501
26.20831 928.93225 922.490209 894.943953 0.001076505
26.21711 929.1557 922.488267 894.861271 0.001076246
26.22592 928.08063 922.484915 894.781317 0.001077493
26.23472 927.41602 922.480164 894.704052 0.001078265
26.24352 927.32617 922.474514 894.629403 0.001078369
26.25232 927.43188 922.469558 894.557321 0.001078246
26.26113 927.4256 922.467156 894.487723 0.001078254
26.26993 926.59863 922.469874 894.420564 0.001079216
26.27873 925.41846 922.479675 894.355728 0.001080592
26.28753 924.8125 922.500091 894.29314 0.0010813
26.29633 924.59467 922.532788 894.232722 0.001081555
26.30514 923.91522 922.5794 894.17437 0.00108235
26.31394 923.24371 922.640964 894.117998 0.001083138
26.32274 924.26477 922.717368 894.063498 0.001081941
26.33154 925.30939 922.807657 894.010756 0.00108072
26.34034 925.0166 922.911186 893.959659 0.001081062
26.34915 923.87848 923.025001 893.910087 0.001082393
26.35795 922.77643 923.146003 893.86193 0.001083686
26.36675 922.90045 923.270477 893.815049 0.00108354
26.37555 923.45386 923.39429 893.769327 0.001082891
26.38435 923.22241 923.513085 893.724627 0.001083163
26.39316 922.45966 923.62255 893.680802 0.001084058
26.40196 921.81793 923.718392 893.637716 0.001084813
26.41076 922.84033 923.796692 893.595219 0.001083611
26.41956 923.6814 923.854038 893.553172 0.001082624
26.42837 923.45203 923.886932 893.511413 0.001082893
26.43717 923.08417 923.893175 893.469808 0.001083325
26.44597 923.45923 923.870198 893.428172 0.001082885
26.45477 924.17987 923.816403 893.386365 0.00108204
26.46357 923.6217 923.730091 893.34422 0.001082694
26.47238 922.76282 923.610351 893.30157 0.001083702
26.48118 922.51642 923.456229 893.258259 0.001083992
26.48998 923.36646 923.267691 893.214114 0.001082994
26.49878 923.37585 923.044927 893.168985 0.001082983
26.50758 923.75641 922.789167 893.122678 0.001082536
26.51639 924.99182 922.502234 893.075043 0.001081091
26.52519 925.16022 922.187208 893.025906 0.001080894
26.53399 924.37384 921.847742 892.975097 0.001081813
26.54279 923.97974 921.488737 892.922459 0.001082275
26.55159 923.54492 921.115556 892.867829 0.001082784
26.56040 922.29639 920.733764 892.811027 0.00108425
26.56920 921.83203 920.349655 892.751892 0.001084796
26.57800 920.97247 919.968871 892.690276 0.001085809
26.58680 920.26251 919.597148 892.626021 0.001086646
26.59561 919.66071 919.239448 892.558955 0.001087358
26.60441 918.31305 918.900013 892.488948 0.001088953
26.61321 916.65179 918.58248 892.415852 0.001090927
26.62201 915.57745 918.289391 892.339509 0.001092207
26.63081 915.24493 918.022532 892.259775 0.001092604
26.63962 915.4483 917.7834 892.176542 0.001092361
26.64842 915.62164 917.572246 892.089668 0.001092154
26.65722 914.67444 917.38943 891.999017 0.001093285
26.66602 914.05652 917.234377 891.904524 0.001094024
26.67482 914.22021 917.106781 891.806008 0.001093828
26.68363 913.836 917.005488 891.703416 0.001094288
26.69243 914.02478 916.929966 891.59663 0.001094062
26.70123 914.21985 916.87869 891.485586 0.001093829
26.71003 913.33362 916.85064 891.370193 0.00109489
26.71884 913.10028 916.844237 891.250374 0.00109517
26.72764 913.30359 916.857655 891.126122 0.001094926
26.73644 913.9082 916.888342 890.997302 0.001094202
26.74524 914.02515 916.934077 890.863934 0.001094062
26.75404 914.23651 916.991264 890.725955 0.001093809
26.76285 914.41437 917.056741 890.583379 0.001093596
26.77165 914.38361 917.126073 890.436188 0.001093633
26.78045 914.18787 917.195197 890.284399 0.001093867
26.78925 913.54858 917.259284 890.127994 0.001094633
26.79805 914.27856 917.31391 889.967004 0.001093759
26.80686 914.71228 917.354381 889.801505 0.00109324
26.81566 914.25928 917.376767 889.63151 0.001093782
26.82446 914.55048 917.377465 889.457125 0.001093433
26.83326 915.11499 917.353969 889.278418 0.001092759
26.84206 914.89764 917.304767 889.095495 0.001093018
26.85087 915.28027 917.229481 888.908429 0.001092562
26.85967 915.33112 917.128896 888.717334 0.001092501
26.86847 913.86945 917.005107 888.522392 0.001094248
26.87727 913.21381 916.861061 888.323706 0.001095034
26.88608 912.98907 916.700564 888.121483 0.001095303
26.89488 913.75061 916.527959 887.915933 0.001094391
26.90368 914.07037 916.347542 887.707118 0.001094008
26.91248 912.55853 916.163814 887.495347 0.00109582
26.92128 911.63971 915.980771 887.280787 0.001096925
26.93009 912.0733 915.802032 887.063719 0.001096403
26.93889 911.79974 915.630476 886.844348 0.001096732
26.94769 911.31891 915.468407 886.622971 0.001097311
26.95649 912.10712 915.317451 886.399904 0.001096362
26.96529 912.10364 915.178647 886.175295 0.001096367
26.97410 911.36139 915.052653 885.949543 0.00109726
26.98290 911.203 914.939796 885.72292 0.00109745
26.99170 911.40381 914.840305 885.49579 0.001097208
27.00050 911.98859 914.754244 885.268444 0.001096505
27.00930 912.34656 914.681914 885.04132 0.001096075
27.01811 911.5777 914.623458 884.814653 0.001096999
27.02691 911.53906 914.579257 884.588825 0.001097046
27.03571 911.96063 914.549533 884.364265 0.001096539
27.04451 911.63586 914.534472 884.141298 0.001096929
27.05332 911.70032 914.533807 883.920368 0.001096852
27.06212 912.63818 914.546987 883.701812 0.001095724
27.07092 913.24805 914.572648 883.48613 0.001094993
27.07972 912.99817 914.609015 883.273601 0.001095292
27.08852 913.07739 914.652756 883.064654 0.001095197
27.09733 913.67828 914.701308 882.859742 0.001094477
27.10613 913.46637 914.749829 882.659228 0.001094731
27.11493 913.72333 914.793873 882.46356 0.001094423
27.12373 914.7865 914.828092 882.273148 0.001093151
27.13253 915.27802 914.847681 882.08834 0.001092564
27.14134 915.55969 914.847765 881.909559 0.001092228
27.15014 916.52441 914.824439 881.737171 0.001091078
27.15894 917.23505 914.774659 881.571593 0.001090233
27.16774 916.79962 914.696846 881.413168 0.001090751
27.17655 917.26642 914.590774 881.262284 0.001090196
27.18535 918.69025 914.457804 881.119288 0.001088506
27.19415 918.63696 914.300673 880.984473 0.001088569
27.20295 917.55298 914.123213 880.858179 0.001089855
27.21175 917.59222 913.930301 880.740677 0.001089809
27.22056 917.62244 913.72715 880.632287 0.001089773
27.22936 916.49597 913.519324 880.533215 0.001091112
27.23816 915.21771 913.311991 880.443747 0.001092636
27.24696 914.52246 913.110015 880.364026 0.001093467
27.25576 913.15381 912.917222 880.294249 0.001095106
27.26457 912.57074 912.7371 880.234567 0.001095805
27.27337 913.14581 912.57182 880.185084 0.001095115
27.28217 912.52222 912.42275 880.145891 0.001095864
27.29097 911.83948 912.290251 880.117013 0.001096684
27.29977 911.29303 912.173952 880.098471 0.001097342
27.30858 911.01257 912.07241 880.090219 0.00109768
27.31738 911.00134 911.983964 880.092189 0.001097693
27.32618 911.23938 911.905989 880.104262 0.001097406
27.33498 911.13879 911.836013 880.126276 0.001097528
27.34379 911.36786 911.770774 880.158013 0.001097252
27.35259 911.68042 911.707633 880.199227 0.001096876
27.36139 911.32587 911.643292 880.249607 0.001097302
27.37019 911.35315 911.575568 880.308821 0.001097269
27.37899 911.55823 911.501851 880.376451 0.001097023
27.38780 912.67053 911.420612 880.452036 0.001095686
27.39660 913.73322 911.33041 880.535098 0.001094411
27.40540 913.1427 911.230378 880.625049 0.001095119
27.41420 912.52216 911.119948 880.721282 0.001095864
27.42300 912.52917 910.998885 880.823174 0.001095855
27.43181 913.34674 910.866751 880.930004 0.001094874
27.44061 913.36835 910.723628 881.041011 0.001094849
27.44941 912.02136 910.568793 881.155375 0.001096466
27.45821 911.53448 910.401986 881.272282 0.001097051
27.46701 912.13531 910.222121 881.390788 0.001096329
27.47582 911.40369 910.028416 881.510019 0.001097209
27.48462 910.10986 909.819609 881.628983 0.001098768
27.49342 910.42505 909.594897 881.746683 0.001098388
27.50222 910.56805 909.353281 881.862077 0.001098216
27.51103 909.83832 909.094385 881.974129 0.001099096
27.51983 908.44952 908.817866 882.081767 0.001100777
27.52863 907.58917 908.524309 882.183879 0.00110182
27.53743 907.74506 908.213938 882.279459 0.001101631
27.54623 906.90662 907.888187 882.367381 0.001102649
27.55504 906.3183 907.548044 882.446619 0.001103365
27.56384 907.27747 907.195282 882.516113 0.001102199
27.57264 908.10406 906.831142 882.574899 0.001101195
27.58144 907.29663 906.457346 882.622025 0.001102175
27.59024 905.76764 906.074938 882.656637 0.001104036
27.59905 905.80554 905.68524 882.677927 0.00110399
27.60785 905.47375 905.289055 882.685216 0.001104394
27.61665 904.49182 904.887124 882.677912 0.001105593
27.62545 903.84882 904.479802 882.655598 0.00110638
27.63426 903.41302 904.06739 882.617983 0.001106913
27.64306 902.58929 903.649889 882.564976 0.001107924
27.65186 902.41809 903.227166 882.496663 0.001108134
27.66066 903.04626 902.799045 882.413391 0.001107363
27.66946 902.51917 902.365668 882.315791 0.00110801
27.67827 901.86823 901.926963 882.204722 0.001108809
27.68707 901.41351 901.483512 882.081455 0.001109369
27.69587 901.755 901.036103 881.947586 0.001108949
27.70467 901.63666 900.58591 881.805069 0.001109094
27.71347 900.91486 900.135027 881.656383 0.001109983
27.72228 901.25183 899.685986 881.504429 0.001109568
27.73108 900.90472 899.242326 881.352743 0.001109995
27.73988 900.69324 898.808032 881.205323 0.001110256
27.74868 900.6217 898.388239 881.066936 0.001110344
27.75748 900.39868 897.988659 880.942998 0.001110619
27.76629 899.50232 897.615633 880.839611 0.001111726
27.77509 898.68097 897.276559 880.763852 0.001112742
27.78389 898.99847 896.979471 880.723574 0.001112349
27.79269 899.07336 896.733149 880.727686 0.001112256
27.80150 899.29022 896.547181 880.786128 0.001111988
27.81030 898.77081 896.432019 880.909891 0.001112631
27.81910 898.78583 896.39899 881.111335 0.001112612
27.82790 899.51276 896.460259 881.404085 0.001111713
27.83670 900.24097 896.629321 881.803082 0.001110814
27.84551 899.71838 896.920745 882.325009 0.001111459
27.85431 897.94324 897.350652 882.987889 0.001113656
27.86311 898.15051 897.936674 883.811692 0.001113399
27.87191 898.62811 898.698375 884.818146 0.001112807
27.88071 898.43951 899.657602 886.031245 0.001113041
27.88952 898.24493 900.838675 887.477026 0.001113282
27.89832 898.26917 902.267967 889.183405 0.001113252
27.90712 898.57062 903.975661 891.18149 0.001112879
27.91592 899.18579 905.994005 893.504084 0.001112117
27.92472 900.3349 908.35916 896.187156 0
27.93353 900.92944 0 0 0
27.94233 901.02863 0 0 0
27.95113 900.98792 0 0 0
27.95993 901.22675 0 0 0
27.96874 902.41461 0 0 0
27.97754 903.14362 0 0 0
27.98634 903.69049 0 0 0
27.99514 903.32928 0 0 0
28.00394 902.72321 0 0 0
28.01275 902.86713 0 0 0
28.02155 902.47815 0 0 0
28.03035 903.0528 0 0 0
28.03915 902.6405 0 0 0
28.04796 901.90039 0 0 0
28.05676 902.3808 0 0 0
28.06556 902.79517 0 0 0
28.07436 903.7312 0 0 0
28.08316 905.20667 0 0 0
28.09196 905.56781 0 0 0
28.10077 905.56616 0 0 0
28.10957 906.56958 0 0 0
28.11837 906.73865 0 0 0
28.12717 906.28717 0 0 0
28.13598 906.53577 0 0 0
28.14478 906.12939 0 0 0
28.15358 904.63641 0 0 0
28.16238 904.25824 0 0 0
28.17119 905.52234 0 0 0
28.17999 905.41876 0 0 0
28.18879 904.54456 0 0 0
28.19759 904.15039 0 0 0
28.20639 903.5329 0 0 0
28.21520 903.66907 0 0 0
28.22400 903.21173 0 0 0
28.23280 902.95117 0 0 0
28.24160 902.95532 0 0 0
28.25040 903.36188 0 0 0
28.25921 903.36926 0 0 0
28.26801 902.88531 0 0 0
28.27681 902.39941 0 0 0
28.28561 901.3338 0 0 0
28.29442 901.79315 0 0 0
28.30322 902.73303 0 0 0
28.31202 902.67322 0 0 0
28.32082 901.49078 0 0 0
28.32962 896.1463 0 0 0
28.33843 879.84802 0 0 0
28.34723 875.17096 0 0 0
28.35603 883.15405 0 0 0
28.36483 887.20386 0 0 0
28.37363 890.35809 0 0 0
28.38244 891.15875 0 0 0
28.39124 892.70026 0 0 0
28.40004 894.10852 0 0 0
28.40884 893.72241 0 0 0
28.41765 893.57495 0 0 0
28.42645 895.2959 0 0 0
28.43525 896.70502 0 0 0
28.44405 896.54047 0 0 0
28.45285 896.12653 0 0 0
28.46166 896.18817 0 0 0
loop_
_gsas_i100_meas
1.59
16.91
3.85
3.42
5.97
0.50
54.66
20.63
92.05
90.43
93.92
26.60
1.64
0.07
74.14
100.00
1.50
54.73
37.33
41.54
10.56
0.10
1.61
13.09
3.67
46.08
4.24
38.69
13.37
0.74
4.34
0.00
0.17
4.14
3.14
0.74
11.54
2.81
11.41
35.22
23.29
8.07
10.35
0.16
4.33
0.14
0.01
0.55
18.28
0.08
7.48
10.70
2.61
16.17
10.05
5.94
0.86
12.40
13.57
0.18
44.13
7.27
0.10
0.34
4.28
1.70
6.01
7.58
5.08
0.49
7.25
6.05
1.05
19.32
0.69
2.18
0.04
6.93
4.83
0.80
3.16
14.45
0.16
14.89
0.10
22.89
31.29
29.42
4.65
1.83
1.04
9.64
5.76
0.70
1.04
2.49
7.94
1.31
0.63
11.10
0.21
0.56
3.11
2.08
0.22
0.97
27.47
4.06
1.10
5.31
26.44
1.56
1.93
20.04
5.60
4.40
2.25
0.13
0.27
0.34
0.45
1.34
0.28
4.66
1.13
0.00
22.01
2.88
1.19
2.33
0.06
0.08
0.03
0.14
3.40
2.53
1.18
0.39
0.16
0.58
4.42
0.03
0.11
13.04
12.56
0.06
1.06
0.19
15.10
0.39
1.35
4.60
0.16
0.48
0.19
3.74
3.32
3.39
9.70
1.63
8.56
0.28
0.55
1.18
1.85
2.06
0.21
0.73
1.15
6.14
2.34
2.38
2.66
0.21
0.00
0.01
0.13
0.68
0.01
0.72
0.00
0.63
0.01
0.00
0.90
0.14
0.03
0.00
0.20
0.71
0.00
1.08
4.86
2.67
2.98
9.68
7.23
0.84
1.20
0.41
1.15
1.55
0.96
0.13
1.24
1.65
0.00
0.67
1.31
0.51
2.72
3.04
8.39
5.14
0.10
0.06
4.84
0.34
2.76
0.03
0.01
0.68
0.53
0.42
1.55
0.15
3.39
0.94
0.01
1.44
4.88
3.91
0.85
1.57
6.63
0.05
0.06
4.05
0.88
0.26
1.95
5.72
5.67
0.22
1.77
1.92
1.50
0.26
0.93
0.32
0.16
3.29
0.26
0.50
0.29
3.00
7.40
1.48
0.43
3.75
0.39
0.18
0.02
0.43
0.15
2.13
0.18
2.42
0.88
0.03
0.72
1.68
3.21
3.72
9.49
0.04
0.26
2.18
0.39
0.10
0.17
1.07
0.11
1.77
0.43
6.03
0.71
1.47
3.70
0.31
0.20
0.10
1.53
0.20
0.88
3.35
0.25
1.85
0.00
0.04
0.23
0.78
1.33
1.62
7.76
0.00
0.31
0.03
0.03
1.86
0.67
1.38
0.28
0.39
4.73
0.91
1.10
0.90
1.12
0.39
0.63
3.82
0.27
0.49
0.19
0.40
1.62
5.64
0.08
2.59
0.16
0.66
0.07
1.51
0.63
0.02
5.84
0.00
0.42
0.01
0.16
3.43
0.00
0.68
0.15
0.09
0.10
0.09
0.08
0.07
5.78
5.05
0.06
0.03
0.79
2.57
0.51
2.76
2.34
0.57
0.18
0.07
0.05
2.09
2.49
0.66
0.02
0.61
0.09
0.68
0.85
1.82
0.80
0.13
0.11
0.98
0.02
0.85
1.74
