#------------------------------------------------------------------------------
#$Date: 2021-02-05 01:04:31 +0200 (Fri, 05 Feb 2021) $
#$Revision: 261628 $
#$URL: file:///home/coder/svn-repositories/cod/cif/7/24/18/7241825.cif $
#------------------------------------------------------------------------------
#
# This file is available in the Crystallography Open Database (COD),
# http://www.crystallography.net/
#
# All data on this site have been placed in the public domain by the
# contributors.
#
data_7241825
loop_
_publ_author_name
'Gu\'nka, Piotr A.'
'Hanfland, Michael'
'Chen, Yu-Sheng'
'Zachara, Janusz'
_publ_section_title
;
 High-pressure and low-temperature structural study of claudetite I, a
 monoclinic layered As2O3 polymorph
;
_journal_issue                   3
_journal_name_full               CrystEngComm
_journal_page_first              638
_journal_page_last               644
_journal_paper_doi               10.1039/D0CE01401J
_journal_volume                  23
_journal_year                    2021
_chemical_formula_moiety         'As2 O3'
_chemical_formula_sum            'As2 O3'
_chemical_formula_weight         197.84
_chemical_name_common            'claudetite I'
_chemical_name_systematic
;
arsenic(III) oxide
;
_space_group_IT_number           14
_space_group_name_Hall           '-P 2yn'
_space_group_name_H-M_alt        'P 1 21/n 1'
_symmetry_cell_setting           monoclinic
_symmetry_space_group_name_H-M   'P 1 21/n 1'
_audit_creation_date             2020-10-21T10:56
_audit_creation_method           'created in GSAS-II'
_audit_update_record
;
2020-10-22 deposited with the CCDC.	2020-12-10 downloaded from the CCDC.
;
_cell_angle_alpha                90
_cell_angle_beta                 94.413(3)
_cell_angle_gamma                90
_cell_formula_units_Z            4
_cell_length_a                   5.2379(4)
_cell_length_b                   12.75457(17)
_cell_length_c                   4.49625(22)
_cell_measurement_pressure       9.6e5(5)
_cell_measurement_temperature    293
_cell_volume                     299.49(3)
_computing_data_reduction        Fit2D
_computing_structure_refinement
'GSAS-II (Toby & Von Dreele, J. Appl. Cryst. 46, 544-549, 2013)'
_diffrn_ambient_pressure         9.6e5(5)
_diffrn_ambient_temperature      293
_diffrn_detector                 'Mar555 flat panel'
_diffrn_detector_type            'Mar555 flat panel'
_diffrn_measurement_device_type  'ESRF ID09A beamline'
_diffrn_radiation_monochromator  Si
_diffrn_radiation_polarisn_ratio 0.9900
_diffrn_radiation_probe          x-ray
_diffrn_radiation_wavelength     0.41421
_diffrn_source                   'ESRF ID09A'
_diffrn_source_type              synchrotron
_exptl_crystal_colour            colourless
_exptl_crystal_density_diffrn    4.3878
_exptl_crystal_description       'white powder'
_pd_block_id                     2020-10-21T10:56|clau1_004rietveld||id09a
_pd_calc_method                  'Rietveld Refinement'
_pd_meas_number_of_points        4000
_pd_phase_name                   claudetiteI
_pd_prep_pressure                100.0(1)
_pd_prep_temperature             293
_pd_proc_info_datetime           2020-10-21T10:56
_pd_proc_ls_background_function
;
Background function: "chebyschev" function with 20 terms:
    695.9(13), 307(7), -613(21), 1.40(7)e3, 1.686(8)e4, -2.204(18)e4, 
    -1.5080(7)e5, 1.4223(6)e5, 6.4095(8)e5, -4.6847(18)e5, -1.507328(26)e6, 
    8.4506(8)e5, 2.07054(7)e6, -8.1739(11)e5, -1.64906(10)e6, 
    3.4920(20)e5, 7.0179(4)e5, 5.48(11)e3, -1.2237(12)e5, -3.551(23)e4, 
;
_pd_proc_ls_pref_orient_corr
;
Simple spherical harmonic correction Order = 6
    Coefficients:  0:0:C(4,4) = 0.881(15); 0:0:C(6,6) = 0.383(13); 
    0:0:C(6,-2) = 0.054(16); 0:0:C(2,-2) = 0.399(9); 0:0:C(4,-4) = 0.208(12); 
    0:0:C(2,2) = 0.707(9); 0:0:C(4,0) = 0.083(13); 0:0:C(6,-6) = -0.289(17); 
    0:0:C(6,4) = -0.007(18); 0:0:C(4,2) = 0.054(13); 0:0:C(6,2) = 0.009(15); 
    0:0:C(6,-4) = 0.005(15); 0:0:C(6,0) = -0.105(16); 0:0:C(2,0) = 0.505(11); 
    0:0:C(4,-2) = -0.024(12); 
;
_pd_proc_ls_profile_function
;
Finger-Cox-Jephcoat function parameters U, V, W, X, Y, SH/L:
  peak variance(Gauss) = Utan(Th)^2^+Vtan(Th)+W:
  peak HW(Lorentz) = X/cos(Th)+Ytan(Th); SH/L = S/L+H/L
  U, V, W in (centideg)^2^, X & Y in centideg
    4.8(4)e2, -70(6), 3.90(29), 60.49(9), -5.4(22), 0.002, 
  Crystallite size in microns with "isotropic" model:
  parameters: Size, G/L mix
    1.000, 1.000, 
  Microstrain, "isotropic" model (10^6^ * delta Q/Q)
    parameters: Mustrain, G/L mix
    1000.000, 1.000, 

;
_pd_proc_ls_prof_R_factor        0.01579
_pd_proc_ls_prof_wR_expected     0.03545
_pd_proc_ls_prof_wR_factor       0.02487
_refine_ls_goodness_of_fit_all   0.718
_refine_ls_matrix_type           full
_refine_ls_number_parameters     62
_refine_ls_R_Fsqd_factor         0.10166
_refine_ls_shift/su_max          0.0006
_refine_ls_wR_factor_obs         0.02508
_reflns_d_resolution_high        1.184
_reflns_d_resolution_low         6.377
_reflns_limit_h_max              4
_reflns_limit_h_min              0
_reflns_limit_k_max              10
_reflns_limit_k_min              0
_reflns_limit_l_max              3
_reflns_limit_l_min              -3
_reflns_number_total             189
_cod_data_source_file            d0ce01401j3.cif
_cod_data_source_block           clau1_004rietveld
_cod_depositor_comments
'Adding full bibliography for 7241824--7241862.cif.'
_cod_original_cell_volume        299.489(10)
_cod_database_code               7241825
_refine_ls_r_f_factor            0.05325
_gsas_proc_ls_prof_r_b_factor    0.02574
_gsas_proc_ls_prof_wr_b_factor   0.03652
loop_
_space_group_symop_id
_space_group_symop_operation_xyz
1 x,y,z
2 1/2-x,1/2+y,1/2-z
3 -x,-y,-z
4 1/2+x,1/2-y,1/2+z
loop_
_atom_site_label
_atom_site_type_symbol
_atom_site_fract_x
_atom_site_fract_y
_atom_site_fract_z
_atom_site_occupancy
_atom_site_adp_type
_atom_site_U_iso_or_equiv
_atom_site_symmetry_multiplicity
As1 As 0.2580(8) 0.09841(15) 0.0498(4) 1.000 Uiso 0.0110(10) 4
As2 As 0.3509(6) 0.35202(16) 0.0071(4) 1.000 Uiso 0.0110 4
O3 O 0.4171(25) 0.2188(4) 0.0871(25) 1.000 Uiso 0.0110 4
O4 O 0.6589(17) 0.3967(8) 0.1633(14) 1.000 Uiso 0.0110 4
O5 O -0.0485(17) 0.1424(10) 0.1382(16) 1.000 Uiso 0.0110 4
loop_
_atom_type_symbol
_atom_type_number_in_cell
_atom_type_scat_Cromer_Mann_a1
_atom_type_scat_Cromer_Mann_a2
_atom_type_scat_Cromer_Mann_a3
_atom_type_scat_Cromer_Mann_a4
_atom_type_scat_Cromer_Mann_b1
_atom_type_scat_Cromer_Mann_b2
_atom_type_scat_Cromer_Mann_b3
_atom_type_scat_Cromer_Mann_b4
_atom_type_scat_Cromer_Mann_c
_atom_type_scat_length_neutron
_atom_type_scat_source
_atom_type_scat_dispersion_real
_atom_type_scat_dispersion_imag
_atom_type_scat_dispersion_source
As 8 16.6723 6.0701 3.4313 4.2779 2.6345 0.2647 12.9479 47.7972 2.531 0.658
https://subversion.xray.aps.anl.gov/pyGSAS/trunk/atmdata.py 0.283 0.775
https://subversion.xray.aps.anl.gov/pyGSAS/trunk/atmdata.py
O 12 3.0485 2.2868 1.5463 0.867 13.2771 5.7011 0.3239 32.9089 0.2508 0.5805
https://subversion.xray.aps.anl.gov/pyGSAS/trunk/atmdata.py 0.002 0.002
https://subversion.xray.aps.anl.gov/pyGSAS/trunk/atmdata.py
loop_
_geom_angle_atom_site_label_1
_geom_angle_atom_site_label_2
_geom_angle_atom_site_label_3
_geom_angle
_geom_angle_site_symmetry_1
_geom_angle_site_symmetry_2
_geom_angle_site_symmetry_3
_geom_angle_publ_flag
O3 As1 O4 99.4(5) 1_555 1_555 4_454 yes
O3 As1 O5 97.7(6) 1_555 1_555 1_555 yes
O4 As1 O5 90.4(4) 4_454 1_555 1_555 yes
O3 As2 O4 93.9(5) 1_555 1_555 1_555 yes
O3 As2 O5 99.3(6) 1_555 1_555 4_554 yes
O4 As2 O5 91.7(4) 1_555 1_555 4_554 yes
As1 O3 As2 137.8(7) 1_555 1_555 1_555 yes
As1 O4 As2 125.3(5) 4_555 1_555 1_555 yes
As1 O5 As2 124.0(6) 1_555 1_555 4_455 yes
loop_
_geom_bond_atom_site_label_1
_geom_bond_atom_site_label_2
_geom_bond_distance
_geom_bond_site_symmetry_1
_geom_bond_site_symmetry_2
_geom_bond_publ_flag
As1 O3 1.749(6) 1_555 1_555 yes
As1 O4 1.776(5) 1_555 4_454 yes
As1 O5 1.774(6) 1_555 1_555 yes
As2 O3 1.766(6) 1_555 1_555 yes
As2 O4 1.802(6) 1_555 1_555 yes
As2 O5 1.780(6) 1_555 4_554 yes
loop_
_pd_meas_2theta_scan
_pd_meas_intensity_total
_pd_calc_intensity_total
_pd_proc_intensity_bkg_calc
_pd_proc_ls_weight
0.00440 106.2352 0 0 0
0.01320 103.66692 0 0 0
0.02201 103.10173 0 0 0
0.03081 103.21276 0 0 0
0.03961 102.09218 0 0 0
0.04841 101.90839 0 0 0
0.05721 102.79491 0 0 0
0.06602 106.1789 0 0 0
0.07482 107.79392 0 0 0
0.08362 108.78307 0 0 0
0.09242 106.40212 0 0 0
0.10122 104.48788 0 0 0
0.11003 103.63107 0 0 0
0.11883 103.30737 0 0 0
0.12763 103.66911 0 0 0
0.13643 103.92597 0 0 0
0.14523 103.18611 0 0 0
0.15404 103.12768 0 0 0
0.16284 103.66429 0 0 0
0.17164 104.91698 0 0 0
0.18044 104.96548 0 0 0
0.18925 105.62775 0 0 0
0.19805 105.63298 0 0 0
0.20685 105.53353 0 0 0
0.21565 106.20969 0 0 0
0.22445 107.83527 0 0 0
0.23326 108.79157 0 0 0
0.24206 110.05354 0 0 0
0.25086 111.23485 0 0 0
0.25966 111.51656 0 0 0
0.26846 110.24506 0 0 0
0.27727 110.72678 0 0 0
0.28607 110.8372 0 0 0
0.29487 109.27177 0 0 0
0.30367 109.04932 0 0 0
0.31248 110.17182 0 0 0
0.32128 110.60157 0 0 0
0.33008 111.12637 0 0 0
0.33888 111.19029 0 0 0
0.34768 111.93987 0 0 0
0.35649 111.08657 0 0 0
0.36529 111.62537 0 0 0
0.37409 111.94528 0 0 0
0.38289 113.17075 0 0 0
0.39169 111.88346 0 0 0
0.40050 111.24974 0 0 0
0.40930 111.93372 0 0 0
0.41810 112.69264 0 0 0
0.42690 111.67559 0 0 0
0.43570 111.74618 0 0 0
0.44451 112.10072 0 0 0
0.45331 111.92036 0 0 0
0.46211 110.55984 0 0 0
0.47091 108.87592 0 0 0
0.47972 108.57214 0 0 0
0.48852 109.17404 0 0 0
0.49732 109.57142 0 0 0
0.50612 109.06885 0 0 0
0.51492 110.56882 0 0 0
0.52373 111.01385 0 0 0
0.53253 111.58955 0 0 0
0.54133 112.35855 0 0 0
0.55013 111.82593 0 0 0
0.55893 109.93787 0 0 0
0.56774 109.47234 0 0 0
0.57654 109.17015 0 0 0
0.58534 109.74603 0 0 0
0.59414 109.32787 0 0 0
0.60295 109.62469 0 0 0
0.61175 110.58192 0 0 0
0.62055 110.8735 0 0 0
0.62935 109.62521 0 0 0
0.63815 108.80019 0 0 0
0.64696 109.19581 0 0 0
0.65576 110.15353 0 0 0
0.66456 110.76132 0 0 0
0.67336 111.40591 0 0 0
0.68216 110.98885 0 0 0
0.69097 111.25455 0 0 0
0.69977 111.01904 0 0 0
0.70857 111.66063 0 0 0
0.71737 110.78084 0 0 0
0.72617 110.54913 0 0 0
0.73498 110.60668 0 0 0
0.74378 111.40248 0 0 0
0.75258 112.31097 0 0 0
0.76138 112.56553 0 0 0
0.77019 111.83414 0 0 0
0.77899 111.68676 0 0 0
0.78779 111.45267 0 0 0
0.79659 112.23576 0 0 0
0.80539 112.85327 0 0 0
0.81420 113.71081 0 0 0
0.82300 113.90401 0 0 0
0.83180 113.48788 0 0 0
0.84060 114.16917 0 0 0
0.84940 114.88725 0 0 0
0.85821 114.87755 0 0 0
0.86701 115.75178 0 0 0
0.87581 118.96272 0 0 0
0.88461 120.82455 0 0 0
0.89342 121.36989 0 0 0
0.90222 120.98208 0 0 0
0.91102 122.04312 0 0 0
0.91982 123.06406 0 0 0
0.92862 123.34493 0 0 0
0.93743 124.74711 0 0 0
0.94623 129.40816 0 0 0
0.95503 132.7812 0 0 0
0.96383 134.77875 0 0 0
0.97263 132.64343 0 0 0
0.98144 132.67191 0 0 0
0.99024 134.54662 0 0 0
0.99904 137.79196 0 0 0
1.00784 139.30583 0 0 0
1.01664 144.77663 0 0 0
1.02545 150.98676 0 0 0
1.03425 157.95566 0 0 0
1.04305 161.53152 0 0 0
1.05185 167.95047 0 0 0
1.06066 174.69301 0 0 0
1.06946 186.76292 0 0 0
1.07826 193.15208 0 0 0
1.08706 197.21764 0 0 0
1.09586 201.60182 0 0 0
1.10467 207.83072 0 0 0
1.11347 216.53442 0 0 0
1.12227 222.42221 0 0 0
1.13107 228.24564 0 0 0
1.13987 232.33775 0 0 0
1.14868 236.12422 0 0 0
1.15748 237.84973 0 0 0
1.16628 240.06125 0 0 0
1.17508 242.86487 0 0 0
1.18389 244.23962 0 0 0
1.19269 246.72212 0 0 0
1.20149 248.24762 0 0 0
1.21029 249.98135 0 0 0
1.21909 252.66782 0 0 0
1.22790 255.68727 0 0 0
1.23670 258.5679 0 0 0
1.24550 260.58405 0 0 0
1.25430 262.95633 0 0 0
1.26310 264.24457 0 0 0
1.27191 265.96487 0 0 0
1.28071 266.03802 0 0 0
1.28951 267.15991 0 0 0
1.29831 268.94174 0 0 0
1.30711 271.53052 0 0 0
1.31592 273.54276 0 0 0
1.32472 274.75851 0 0 0
1.33352 277.63089 0 0 0
1.34232 278.93497 0 0 0
1.35113 279.67932 0 0 0
1.35993 280.19751 0 0 0
1.36873 282.03903 0 0 0
1.37753 283.61377 0 0 0
1.38633 284.87543 0 0 0
1.39514 285.35678 0 0 0
1.40394 286.33289 0 0 0
1.41274 287.59872 0 0 0
1.42154 288.70538 0 0 0
1.43034 290.49133 0 0 0
1.43915 290.40381 0 0 0
1.44795 291.40771 0 0 0
1.45675 293.27881 0 0 0
1.46555 295.52011 0 0 0
1.47436 296.62561 0 0 0
1.48316 296.48834 0 0 0
1.49196 296.51114 0 0 0
1.50076 297.41531 0 0 0
1.50956 299.07379 0 0 0
1.51837 299.99945 0 0 0
1.52717 301.42371 0 0 0
1.53597 302.77286 0 0 0
1.54477 304.76089 0 0 0
1.55357 305.24252 0 0 0
1.56238 305.01212 0 0 0
1.57118 306.07486 0 0 0
1.57998 306.85345 0 0 0
1.58878 307.2056 0 0 0
1.59758 308.08463 0 0 0
1.60639 309.84415 0 0 0
1.61519 311.73846 0 0 0
1.62399 312.97589 0 0 0
1.63279 313.66519 0 0 0
1.64160 313.54047 0 0 0
1.65040 313.79132 0 0 0
1.65920 315.12689 0 0 0
1.66800 315.7562 0 0 0
1.67680 316.66339 0 0 0
1.68561 316.8826 0 0 0
1.69441 318.28778 0 0 0
1.70321 318.70743 0 0 0
1.71201 319.16949 0 0 0
1.72081 319.49677 0 0 0
1.72962 320.76678 0 0 0
1.73842 320.67569 0 0 0
1.74722 320.22263 0 0 0
1.75602 320.81671 0 0 0
1.76483 322.98419 0 0 0
1.77363 324.49634 0 0 0
1.78243 325.94498 0 0 0
1.79123 327.98456 0 0 0
1.80003 328.3046 0 0 0
1.80884 327.98352 0 0 0
1.81764 329.10239 0 0 0
1.82644 330.26019 0 0 0
1.83524 330.49774 0 0 0
1.84404 331.58533 0 0 0
1.85285 333.05069 0 0 0
1.86165 332.9248 0 0 0
1.87045 331.8399 0 0 0
1.87925 332.22964 0 0 0
1.88805 333.91953 0 0 0
1.89686 335.25256 0 0 0
1.90566 335.517 0 0 0
1.91446 335.11099 0 0 0
1.92326 335.38498 0 0 0
1.93207 336.08435 0 0 0
1.94087 338.04388 0 0 0
1.94967 338.50879 0 0 0
1.95847 338.77692 0 0 0
1.96727 339.90164 0 0 0
1.97608 341.40714 0 0 0
1.98488 342.35974 0 0 0
1.99368 342.31073 0 0 0
2.00248 342.20047 0 0 0
2.01128 342.81586 0 0 0
2.02009 344.06656 0 0 0
2.02889 343.96841 0 0 0
2.03769 344.51758 0 0 0
2.04649 344.97714 0 0 0
2.05530 344.80682 0 0 0
2.06410 345.59946 0 0 0
2.07290 346.0704 0 0 0
2.08170 347.1391 0 0 0
2.09050 348.20566 0 0 0
2.09931 349.34366 0 0 0
2.10811 349.2388 0 0 0
2.11691 349.22037 0 0 0
2.12571 350.27811 0 0 0
2.13451 351.13495 0 0 0
2.14332 351.38351 0 0 0
2.15212 350.77646 0 0 0
2.16092 351.66434 0 0 0
2.16972 352.95447 0 0 0
2.17852 354.01416 0 0 0
2.18733 355.28577 0 0 0
2.19613 355.79193 0 0 0
2.20493 356.08539 0 0 0
2.21373 355.68265 0 0 0
2.22254 356.05884 0 0 0
2.23134 356.76419 0 0 0
2.24014 358.30682 0 0 0
2.24894 358.19836 0 0 0
2.25774 357.47101 0 0 0
2.26655 358.22675 0 0 0
2.27535 359.98734 0 0 0
2.28415 360.46091 0 0 0
2.29295 360.11575 0 0 0
2.30175 360.41193 0 0 0
2.31056 361.97867 0 0 0
2.31936 362.71075 0 0 0
2.32816 362.91119 0 0 0
2.33696 363.43765 0 0 0
2.34576 363.89999 0 0 0
2.35457 364.90665 0 0 0
2.36337 365.56049 0 0 0
2.37217 365.4509 0 0 0
2.38097 365.19547 0 0 0
2.38978 366.01495 0 0 0
2.39858 367.09079 0 0 0
2.40738 366.60123 0 0 0
2.41618 366.31195 377.577763 377.535116 0.002729914
2.42498 366.74466 376.268933 376.225852 0.002726693
2.43379 367.13501 375.092553 375.049031 0.002723794
2.44259 367.63635 374.042 373.998029 0.002720079
2.45139 368.53882 373.110852 373.066424 0.002713418
2.46019 368.33109 372.29298 372.248088 0.002714949
2.46899 368.4303 371.582381 371.537017 0.002714218
2.47780 369.1012 370.973359 370.927514 0.002709284
2.48660 369.57428 370.460394 370.41406 0.002705816
2.49540 369.26279 370.038188 369.991356 0.002708098
2.50420 369.16257 369.701599 369.65426 0.002708834
2.51301 370.35519 369.445725 369.397869 0.002700111
2.52181 370.80942 369.265835 369.217454 0.002696803
2.53061 370.56161 369.157381 369.108465 0.002698607
2.53941 372.27188 369.11599 369.066529 0.002686209
2.54821 374.29083 369.137468 369.087452 0.002671719
2.55702 374.95197 369.217787 369.167205 0.002667008
2.56582 374.9809 369.353076 369.301917 0.002666802
2.57462 374.76022 369.539634 369.487888 0.002668373
2.58342 375.11252 369.773905 369.721559 0.002665867
2.59222 375.43723 370.052482 369.999526 0.002663561
2.60103 377.43457 370.372101 370.318521 0.002649466
2.60983 377.28406 370.729638 370.675423 0.002650523
2.61863 376.25723 371.122116 371.067253 0.002657756
2.62743 375.89307 371.546683 371.491158 0.002660331
2.63624 376.72333 372.000608 371.944409 0.002654468
2.64504 377.9162 372.481272 372.424384 0.002646089
2.65384 378.961 372.986224 372.928634 0.002638794
2.66264 379.30646 373.513083 373.454775 0.002636391
2.67144 379.39096 374.059593 374.000552 0.002635803
2.68025 379.06708 374.623589 374.563799 0.002638056
2.68905 379.55237 375.203068 375.142514 0.002634683
2.69785 379.71848 375.796073 375.734737 0.00263353
2.70665 380.13837 376.400756 376.338622 0.002630621
2.71545 379.67889 377.015385 376.952434 0.002633805
2.72426 380.27158 377.638279 377.574493 0.0026297
2.73306 381.38144 378.267915 378.203276 0.002622047
2.74186 381.98694 378.902793 378.83728 0.002617891
2.75066 382.78625 379.541517 379.475111 0.002612424
2.75946 382.27277 380.182748 380.115428 0.002615933
2.76827 381.86084 380.825293 380.757036 0.002618755
2.77707 381.52347 381.467963 381.398748 0.002621071
2.78587 382.21667 382.109659 382.039462 0.002616317
2.79467 382.90765 382.749357 382.678155 0.002611596
2.80348 383.9035 383.386114 383.313882 0.002604821
2.81228 384.47171 384.019038 383.94575 0.002600972
2.82108 385.58469 384.64729 384.572919 0.002593464
2.82988 385.86938 385.270077 385.194595 0.002591551
2.83868 385.26993 385.886726 385.810105 0.002595583
2.84749 385.13599 386.496557 386.418767 0.002596485
2.85629 385.8313 387.098962 387.019973 0.002591806
2.86509 385.82242 387.693379 387.613158 0.002591866
2.87389 385.73587 388.279299 388.197813 0.002592448
2.88269 386.40723 388.856275 388.77349 0.002587943
2.89150 387.53217 389.423891 389.33977 0.002580431
2.90030 388.44601 389.981767 389.896273 0.00257436
2.90910 389.55295 390.52955 390.442644 0.002567045
2.91790 389.95581 391.066986 390.978628 0.002564393
2.92670 390.47986 391.5938 391.503947 0.002560952
2.93551 390.41312 392.109772 392.018379 0.002561389
2.94431 390.66562 392.614699 392.521722 0.002559734
2.95311 390.46283 393.108463 393.013853 0.002561063
2.96191 390.46069 393.59092 393.494627 0.002561077
2.97072 390.40057 394.061988 393.96396 0.002561472
2.97952 391.04608 394.521598 394.42178 0.002557243
2.98832 391.32816 394.969698 394.868033 0.0025554
2.99712 391.77209 395.406307 395.302735 0.002552504
3.00592 392.60251 395.831423 395.725881 0.002547105
3.01473 393.74942 396.24508 396.137504 0.002539686
3.02353 393.56506 396.647324 396.537644 0.002540876
3.03233 393.10623 397.038259 396.926403 0.002543842
3.04113 393.08652 397.41797 397.303862 0.002543969
3.04993 393.74542 397.786567 397.670128 0.002539712
3.05874 394.4744 398.144183 398.02533 0.002535019
3.06754 394.5737 398.490977 398.369621 0.002534381
3.07634 394.28046 398.827112 398.703161 0.002536266
3.08514 394.08441 399.152763 399.026119 0.002537527
3.09395 394.96161 399.468111 399.338671 0.002531892
3.10275 395.83185 399.773382 399.641038 0.002526325
3.11155 396.42307 400.080321 399.933418 0.002522558
3.12035 396.48505 400.366156 400.216032 0.002522163
3.12915 396.96198 400.64258 400.489106 0.002519133
3.13796 397.99408 400.90984 400.75288 0.0025126
3.14676 397.72369 401.168196 401.007605 0.002514308
3.15556 397.97021 401.41791 401.253535 0.002512751
3.16436 398.27652 401.659249 401.490928 0.002510818
3.17316 399.53162 401.892481 401.720041 0.002502931
3.18197 399.70856 402.117905 401.941162 0.002501823
3.19077 400.31116 402.335799 402.154557 0.002498057
3.19957 400.27896 402.546456 402.360508 0.002498258
3.20837 400.10825 402.750166 402.559289 0.002499324
3.21717 399.77722 402.947245 402.751201 0.002501393
3.22598 400.2959 403.137987 402.936523 0.002498152
3.23478 401.35959 403.322705 403.115548 0.002491531
3.24358 402.10486 403.501708 403.288565 0.002486913
3.25238 401.68759 403.675302 403.455861 0.002489497
3.26119 401.14075 403.843815 403.617739 0.002492891
3.26999 401.25717 404.007559 403.774485 0.002492167
3.27879 401.90808 404.166854 403.926392 0.002488131
3.28759 402.37436 404.322017 404.073743 0.002485248
3.29639 402.82544 404.473383 404.21684 0.002482465
3.30520 403.71735 404.621269 404.355962 0.00247698
3.31400 403.99786 404.766008 404.491399 0.002475261
3.32280 404.10284 404.907925 404.62343 0.002474618
3.33160 404.13028 405.047357 404.752339 0.00247445
3.34040 404.45667 405.184642 404.878405 0.002472453
3.34921 404.6821 405.320118 405.0019 0.002471075
3.35801 405.18539 405.454129 405.123097 0.002468006
3.36681 405.13425 405.587021 405.242259 0.002468318
3.37561 406.30884 405.719159 405.359657 0.002461182
3.38442 405.89133 405.850903 405.475546 0.002463714
3.39322 405.96747 405.990426 405.590184 0.002463252
3.40202 405.81451 406.122572 405.703818 0.00246418
3.41082 406.46442 406.255488 405.816697 0.00246024
3.41962 407.0058 406.389594 405.929063 0.002456967
3.42843 407.62427 406.525329 406.041152 0.00245324
3.43723 407.72693 406.663154 406.153189 0.002452622
3.44603 407.77298 406.80358 406.26541 0.002452345
3.45483 407.91315 406.947139 406.37803 0.002451502
3.46363 408.6012 407.094423 406.491266 0.002447374
3.47244 408.68073 407.246073 406.605321 0.002446898
3.48124 408.85193 407.402826 406.720408 0.002445873
3.49004 409.27673 407.565492 406.83672 0.002443335
3.49884 409.79703 407.735007 406.954452 0.002440232
3.50764 409.89474 407.912452 407.073788 0.002439651
3.51645 409.93942 408.099086 407.194905 0.002439385
3.52525 410.8082 408.296426 407.317986 0.002434226
3.53405 411.42807 408.506275 407.443195 0.002430559
3.54285 411.17407 408.730838 407.570694 0.00243206
3.55166 411.07111 408.972831 407.700635 0.002432669
3.56046 411.55936 409.235685 407.833178 0.002429783
3.56926 411.93066 409.523733 407.96846 0.002427593
3.57806 412.08307 409.842583 408.106623 0.002426695
3.58686 412.92667 410.199576 408.247794 0.002421737
3.59567 413.40134 410.604548 408.392104 0.002418957
3.60447 413.45868 411.070841 408.539673 0.002418621
3.61327 413.54031 411.616987 408.690613 0.002418144
3.62207 414.69772 412.269375 408.845032 0.002411395
3.63087 415.32346 413.067147 409.003027 0.002407762
3.63968 415.9903 414.074603 409.164704 0.002403902
3.64848 416.71805 415.422083 409.330147 0.002399704
3.65728 417.81723 417.446496 409.499443 0.002393391
3.66608 419.1358 421.078918 409.672666 0.002385862
3.67489 421.90622 428.566296 409.849894 0.002370195
3.68369 426.96426 444.019069 410.031194 0.002342116
3.69249 441.64026 472.242267 410.216627 0.002264286
3.70129 480.57965 514.493251 410.406241 0.002080821
3.71009 557.02441 562.373789 410.6001 0.001795253
3.71890 630.97284 593.42586 410.798243 0.001584854
3.72770 621.72168 583.866794 411.000709 0.001608437
3.73650 537.21082 542.133518 411.207531 0.001861467
3.74530 463.21851 495.270517 411.418745 0.002158808
3.75410 436.21887 459.360975 411.634371 0.002292427
3.76291 427.43521 437.739528 411.854432 0.002339536
3.77171 424.75848 426.859453 412.07894 0.002354279
3.78051 423.72159 421.893745 412.307897 0.00236004
3.78931 422.70374 419.566292 412.541325 0.002365723
3.79811 421.8956 418.319224 412.779217 0.002370255
3.80692 421.28122 417.557028 413.021567 0.002373711
3.81572 421.44165 417.064059 413.26836 0.002372808
3.82452 420.7706 416.748331 413.5196 0.002376592
3.83332 420.84979 416.559396 413.775259 0.002376145
3.84213 420.89157 416.46471 414.035322 0.002375909
3.85093 421.80643 416.441913 414.299754 0.002370756
3.85973 421.60696 416.475136 414.568537 0.002371877
3.86853 421.93369 416.552859 414.841637 0.002370041
3.87733 422.27258 416.666565 415.119016 0.002368139
3.88614 422.93549 416.809848 415.400633 0.002364427
3.89494 423.19116 416.977811 415.686435 0.002362998
3.90374 422.61508 417.166673 415.976396 0.002366219
3.91254 423.05084 417.373454 416.270452 0.002363782
3.92134 423.69391 417.595783 416.568556 0.002360194
3.93015 424.05722 417.83176 416.870643 0.002358172
3.93895 423.38745 418.079837 417.176663 0.002361903
3.94775 423.85571 418.338745 417.486555 0.002359293
3.95655 424.09503 418.607425 417.80025 0.002357962
3.96535 424.58853 418.884979 418.117671 0.002355221
3.97416 424.71243 419.170678 418.438769 0.002354534
3.98296 425.14044 419.463869 418.76346 0.002352164
3.99176 425.48581 419.763997 419.091667 0.002350255
4.00056 426.31686 420.070587 419.423321 0.002345673
4.00937 426.56512 420.383206 419.758331 0.002344308
4.01817 426.22964 420.7015 420.096639 0.002346153
4.02697 426.59808 421.036988 420.438128 0.002344127
4.03577 427.39764 421.365702 420.782732 0.002339742
4.04457 427.80984 421.699192 421.13039 0.002337487
4.05338 427.74213 422.037164 421.480965 0.002337857
4.06218 428.31885 422.379408 421.834391 0.002334709
4.07098 428.84042 422.725733 422.1906 0.00233187
4.07978 428.20761 423.075904 422.549462 0.002335316
4.08858 427.47095 423.429766 422.910916 0.00233934
4.09739 428.07855 423.787108 423.274831 0.00233602
4.10619 429.39127 424.147786 423.641137 0.002328878
4.11499 429.80237 424.511653 424.00975 0.002326651
4.12379 429.92468 424.878522 424.380534 0.002325989
4.13260 429.93829 425.248271 424.753418 0.002325915
4.14140 429.35913 425.620773 425.128316 0.002329053
4.15020 428.82254 425.995855 425.50509 0.002331967
4.15900 429.00897 426.373428 425.883684 0.002330954
4.16780 430.02368 426.753326 426.263958 0.002325453
4.17661 430.9722 427.135441 426.645826 0.002320335
4.18541 432.08881 427.519677 427.029214 0.002314339
4.19421 432.66107 427.90588 427.413981 0.002311278
4.20301 432.26578 428.293971 427.800061 0.002313392
4.21181 431.89139 428.683801 428.187315 0.002315397
4.22062 433.18176 429.075283 428.575665 0.0023085
4.22942 434.33896 429.468341 428.965035 0.002302349
4.23822 434.15637 429.862817 429.355274 0.002303318
4.24702 433.56445 430.25864 429.746307 0.002306462
4.25582 433.14191 430.655736 430.138058 0.002308712
4.26463 432.97717 431.053971 430.530387 0.002309591
4.27343 433.11694 431.455746 430.923232 0.002308845
4.28223 434.02576 431.856037 431.316454 0.002304011
4.29103 434.8454 432.257226 431.709983 0.002299668
4.29984 435.17407 432.659245 432.103737 0.002297931
4.30864 435.88675 433.061973 432.497579 0.002294174
4.31744 436.172 433.465381 432.891458 0.002292674
4.32624 436.38837 433.869357 433.285241 0.002291537
4.33504 436.33417 434.273847 433.678848 0.002291821
4.34385 436.53351 434.678814 434.072213 0.002290775
4.35265 436.75165 435.084159 434.465206 0.002289631
4.36145 436.93747 435.489838 434.85775 0.002288657
4.37025 436.99335 435.895829 435.249782 0.002288364
4.37905 437.34232 436.302043 435.641171 0.002286538
4.38786 437.19919 436.70849 436.03188 0.002287287
4.39666 437.35141 437.115082 436.42177 0.002286491
4.40546 437.59921 437.521819 436.810783 0.002285196
4.41426 438.06384 437.928705 437.198861 0.002282772
4.42307 438.93155 438.335686 437.585881 0.00227826
4.43187 439.88831 438.742795 437.971801 0.002273304
4.44067 440.44299 439.149996 438.356502 0.002270441
4.44947 440.10516 439.557332 438.739935 0.002272184
4.45827 440.29675 439.964841 439.122038 0.002271196
4.46708 440.47855 440.372524 439.502698 0.002270258
4.47588 441.45282 440.780455 439.88187 0.002265248
4.48468 441.79932 441.188718 440.259498 0.002263471
4.49348 441.79407 441.597353 440.635473 0.002263498
4.50228 441.65143 442.006505 441.009772 0.002264229
4.51109 442.06207 442.416258 441.382293 0.002262126
4.51989 441.86981 442.826768 441.752986 0.00226311
4.52869 442.85681 443.238235 442.121813 0.002258066
4.53749 443.46774 443.675878 442.488678 0.002254955
4.54630 443.47055 444.090027 442.853557 0.002254941
4.55510 443.24017 444.505793 443.216357 0.002256113
4.56390 443.62772 444.923515 443.577045 0.002254142
4.57270 444.8396 445.343587 443.935594 0.002248001
4.58150 445.89606 445.766377 444.291903 0.002242675
4.59031 445.97891 446.192404 444.645951 0.002242258
4.59911 445.82513 446.622263 444.99771 0.002243032
4.60791 446.30411 447.056569 445.3471 0.002240625
4.61671 447.02579 447.496135 445.694111 0.002237007
4.62551 447.01315 447.941808 446.038667 0.002237071
4.63432 447.39209 448.394667 446.380753 0.002235176
4.64312 447.25235 448.855961 446.720343 0.002235874
4.65192 447.74783 449.327084 447.05737 0.0022334
4.66072 448.12079 449.809782 447.391823 0.002231541
4.66952 448.42749 450.306091 447.723684 0.002230015
4.67833 448.8226 450.818389 448.052889 0.002228052
4.68713 449.69275 451.349638 448.379449 0.002223741
4.69593 450.77588 451.90328 448.703306 0.002218397
4.70473 451.1619 452.483599 449.02445 0.002216499
4.71354 451.52975 453.095847 449.34288 0.002214693
4.72234 451.96732 453.746378 449.658543 0.002212549
4.73114 452.1308 454.443278 449.97146 0.002211749
4.73994 451.92191 455.196504 450.281573 0.002212772
4.74874 452.3457 456.018861 450.588893 0.002210699
4.75755 453.15652 456.926798 450.893424 0.002206743
4.76635 453.81363 457.941509 451.195126 0.002203548
4.77515 454.50461 459.117146 451.494003 0.002200198
4.78395 455.24313 460.439593 451.79007 0.002196628
4.79275 455.54608 461.985884 452.083292 0.002195168
4.80156 456.18771 463.827279 452.373696 0.00219208
4.81036 457.85107 466.06481 452.661251 0.002184116
4.81916 460.18286 468.850388 452.94598 0.002173049
4.82796 463.01074 472.401299 453.227896 0.002159777
4.83676 467.05481 477.108384 453.506976 0.002141076
4.84557 474.21021 483.816835 453.78326 0.002108769
4.85437 485.07187 494.859312 454.056727 0.00206155
4.86317 508.50113 516.763736 454.3274 0.001966564
4.87197 554.66644 564.440554 454.59531 0.001802885
4.88078 650.21484 661.469672 454.860442 0.001537953
4.88958 801.05524 826.077697 455.122824 0.001248353
4.89838 1001.7476 1040.428137 455.38249 0.000998255
4.90718 1179.2526 1215.876794 455.63943 0.000847995
4.91598 1196.8607 1215.721032 455.893698 0.000835519
4.92479 1027.0132 1040.36496 456.145282 0.000973697
4.93359 814.44556 826.624088 456.394224 0.001227829
4.94239 649.31555 662.784659 456.640564 0.001540083
4.95119 561.78741 566.515943 456.884303 0.001780033
4.95999 519.18597 519.498585 457.125494 0.001926092
4.96880 495.54486 498.178513 457.364141 0.002017981
4.97760 483.62085 487.682155 457.600293 0.002067735
4.98640 475.59305 481.505048 457.833992 0.002102638
4.99520 470.56522 477.324996 458.065248 0.002125104
5.00401 467.94431 474.29986 458.294113 0.002137006
5.01281 467.04333 472.043455 458.520632 0.002141129
5.02161 466.32214 470.331 458.744821 0.00214444
5.03041 465.37888 469.165653 458.966746 0.002148787
5.03921 464.43338 468.146422 459.186425 0.002153161
5.04802 463.07922 467.351718 459.403907 0.002159458
5.05682 462.21811 466.753379 459.619253 0.002163481
5.06562 462.6629 466.268088 459.832481 0.002161401
5.07442 463.08173 465.890625 460.043665 0.002159446
5.08322 462.55234 465.599827 460.252823 0.002161918
5.09203 462.22226 465.379362 460.460018 0.002163461
5.10083 462.69171 465.216541 460.66531 0.002161266
5.10963 463.29196 465.101425 460.868729 0.002158466
5.11843 463.90625 465.026075 461.070333 0.002155608
5.12723 463.87271 464.98414 461.270189 0.002155764
5.13604 463.16028 464.970509 461.468327 0.00215908
5.14484 463.04202 464.980994 461.664822 0.002159631
5.15364 463.74863 465.012187 461.859706 0.002156341
5.16244 463.88235 465.061275 462.053051 0.002155719
5.17125 463.72284 465.125932 462.244918 0.002156461
5.18005 464.27011 465.204228 462.435345 0.002153919
5.18885 464.80569 465.294561 462.624401 0.002151437
5.19765 464.75015 465.395605 462.812157 0.002151694
5.20645 464.90482 465.506237 462.998648 0.002150978
5.21526 466.36639 465.625551 463.183956 0.002144237
5.22406 467.30804 465.752779 463.368123 0.002139916
5.23286 467.37964 465.887305 463.551217 0.002139588
5.24166 466.76526 466.028641 463.733311 0.002142405
5.25046 466.22717 466.176382 463.914448 0.002144877
5.25927 466.7699 466.331676 464.094712 0.002142383
5.26807 467.82101 466.491465 464.274142 0.00213757
5.27687 467.95535 466.679247 464.452814 0.002136956
5.28567 467.89771 466.850758 464.630802 0.002137219
5.29448 468.43866 467.028053 464.808151 0.002134751
5.30328 469.21976 467.211254 464.984933 0.002131198
5.31208 469.60529 467.400569 465.161223 0.002129448
5.32088 468.90811 467.596263 465.33707 0.002132614
5.32968 468.20074 467.798728 465.512555 0.002135836
5.33849 467.81677 468.008422 465.687724 0.002137589
5.34729 468.64813 468.225956 465.862656 0.002133797
5.35609 469.84305 468.452072 466.037422 0.00212837
5.36489 470.36826 468.687634 466.21207 0.002125994
5.37369 470.38455 468.933749 466.386687 0.00212592
5.38250 470.29187 469.191698 466.561319 0.002126339
5.39130 470.54724 469.463071 466.73604 0.002125185
5.40010 470.73203 469.749811 466.910926 0.002124351
5.40890 471.77048 470.054235 467.086024 0.002119675
5.41770 472.49509 470.379244 467.261412 0.002116424
5.42651 472.34616 470.728434 467.437161 0.002117091
5.43531 472.49969 471.106213 467.613319 0.002116404
5.44411 472.16284 471.518243 467.789971 0.002117913
5.45291 472.40955 471.971614 467.967165 0.002116807
5.46172 472.32468 472.475543 468.144972 0.002117188
5.47052 472.99802 473.042065 468.323467 0.002114174
5.47932 473.4592 473.686986 468.502699 0.002112114
5.48812 474.13028 474.431753 468.682746 0.002109125
5.49692 474.44086 475.305521 468.863655 0.002107744
5.50573 475.01236 476.349227 469.045501 0.002105208
5.51453 475.92151 477.621436 469.228354 0.002101187
5.52333 476.94107 479.207996 469.412258 0.002096695
5.53213 478.12112 481.241574 469.597285 0.00209152
5.54093 479.09082 483.95178 469.78351 0.002087287
5.54974 480.98834 487.845231 469.970968 0.002079052
5.55854 482.80167 494.346794 470.159745 0.002071244
5.56734 487.64307 507.472754 470.349882 0.00205068
5.57614 498.79758 536.267271 470.541443 0.002004821
5.58495 528.42273 594.280226 470.734503 0.001892424
5.59375 626.87872 689.740655 470.929097 0.001595205
5.60255 813.19446 806.133517 471.125308 0.001229718
5.61135 967.29846 882.376472 471.323166 0.001033807
5.62015 935.29681 849.178566 471.522743 0.001069179
5.62896 748.60492 740.193458 471.724104 0.001335818
5.63776 584.09674 632.016292 471.927286 0.001712045
5.64656 518.1778 558.574069 472.132349 0.00192984
5.65536 496.51471 519.49699 472.339362 0.002014039
5.66416 488.81213 501.640132 472.548356 0.002045776
5.67297 485.57288 493.558516 472.759404 0.002059423
5.68177 484.32855 489.353238 472.972535 0.002064714
5.69057 484.19989 486.774292 473.187814 0.002065263
5.69937 484.83145 485.050993 473.405299 0.002062572
5.70817 485.59009 483.877157 473.625017 0.00205935
5.71698 485.67966 483.093683 473.847029 0.00205897
5.72578 484.31937 482.606361 474.071397 0.002064753
5.73458 483.98737 482.351232 474.298138 0.00206617
5.74338 484.38135 482.293879 474.527324 0.002064489
5.75219 485.48053 482.415719 474.758976 0.002059815
5.76099 486.01538 482.713 474.993153 0.002057548
5.76979 487.20639 483.196784 475.229905 0.002052518
5.77859 487.2868 483.894963 475.469251 0.00205218
5.78739 487.0322 484.858749 475.711259 0.002053252
5.79620 487.51431 486.175432 475.955943 0.002051222
5.80500 489.26065 488.006517 476.203352 0.0020439
5.81380 493.01947 490.727503 476.45354 0.002028317
5.82260 498.63504 495.41811 476.706519 0.002005475
5.83140 509.95529 505.107164 476.962333 0.001960956
5.84021 533.49493 526.418906 477.221035 0.001874432
5.84901 582.18988 568.679004 477.482632 0.001717653
5.85781 659.82593 636.191571 477.747182 0.001515551
5.86661 751.91656 714.07989 478.014688 0.001329935
5.87541 792.00439 755.943465 478.285196 0.001262619
5.88422 746.02618 721.291871 478.558756 0.001340436
5.89302 650.75781 644.818669 478.835358 0.00153667
5.90182 574.24866 575.574391 479.115064 0.001741406
5.91062 530.02441 531.21802 479.397873 0.001886706
5.91943 510.98193 508.653898 479.683819 0.001957016
5.92823 501.62503 498.571746 479.972946 0.001993521
5.93703 498.17065 493.954477 480.265244 0.002007344
5.94583 496.96048 491.477066 480.560756 0.002012232
5.95463 496.15405 489.931809 480.859512 0.002015503
5.96344 494.82245 488.899783 481.161501 0.002020927
5.97224 493.72546 488.2012 481.466777 0.002025417
5.98104 493.67212 487.736011 481.775326 0.002025636
5.98984 493.76099 487.440198 482.087175 0.002025271
5.99864 494.03787 487.270671 482.402361 0.002024136
6.00745 494.36371 487.197562 482.720865 0.002022802
6.01625 495.1174 487.19959 483.042729 0.002019723
6.02505 495.26144 487.261349 483.367933 0.002019136
6.03385 495.15872 487.371446 483.69651 0.002019554
6.04266 495.37711 487.521328 484.028479 0.002018664
6.05146 495.96564 487.70448 484.363817 0.002016269
6.06026 495.63782 487.915891 484.702549 0.002017602
6.06906 495.02197 488.151673 485.044704 0.002020112
6.07786 495.3327 488.408722 485.390242 0.002018845
6.08667 495.57098 488.684645 485.739209 0.002017874
6.09547 495.87234 488.977484 486.091569 0.002016648
6.10427 496.08319 489.28572 486.447347 0.002015791
6.11307 496.41211 489.608152 486.806557 0.002014455
6.12187 497.42929 489.943776 487.169161 0.002010336
6.13068 497.95435 490.291881 487.535198 0.002008216
6.13948 498.23929 490.651861 487.904629 0.002007068
6.14828 498.21109 491.02331 488.277462 0.002007181
6.15708 499.25711 491.40597 488.653719 0.002002976
6.16589 500.25058 491.799656 489.033354 0.001998998
6.17469 500.31009 492.204342 489.416373 0.00199876
6.18349 500.41196 492.62014 489.802795 0.001998354
6.19229 500.73993 493.047211 490.192571 0.001997045
6.20109 501.49811 493.485914 490.585726 0.001994025
6.20990 501.94482 493.936678 490.982209 0.001992251
6.21870 502.42429 494.400122 491.382029 0.00199035
6.22750 503.18375 494.877071 491.7852 0.001987346
6.23630 504.25775 495.368442 492.191654 0.001983113
6.24510 504.63641 495.875492 492.601403 0.001981625
6.25391 504.13574 496.399768 493.014457 0.001983593
6.26271 503.79807 496.943068 493.430743 0.001984922
6.27151 504.17154 497.507775 493.850296 0.001983452
6.28031 505.63007 498.096693 494.273047 0.00197773
6.28911 506.62109 498.764701 494.699004 0.001973862
6.29792 506.72144 499.438313 495.128162 0.001973471
6.30672 506.3027 500.125984 495.560454 0.001975103
6.31552 506.36423 500.859067 495.995905 0.001974863
6.32432 507.59146 501.64695 496.434448 0.001970088
6.33313 509.27393 502.502092 496.876071 0.00196358
6.34193 510.14005 503.441097 497.320778 0.001960246
6.35073 510.37933 504.486223 497.768498 0.001959327
6.35953 510.91617 505.668326 498.219217 0.001957268
6.36833 511.4884 507.030833 498.672938 0.001955079
6.37714 512.75018 508.635949 499.129584 0.001950267
6.38594 513.75635 510.576251 499.589167 0.001946448
6.39474 514.83905 512.994548 500.051608 0.001942355
6.40354 517.12842 516.13776 500.516902 0.001933756
6.41234 520.21387 520.547518 500.985046 0.001922286
6.42115 524.09357 527.750352 501.455944 0.001908056
6.42995 531.86469 542.110934 501.92962 0.001880177
6.43875 549.86176 573.490653 502.405984 0.001818639
6.44755 597.88031 636.330051 502.885033 0.001672576
6.45636 708.61487 737.983103 503.366746 0.001411204
6.46516 883.67676 856.110318 503.851037 0.001131636
6.47396 977.95483 917.85256 504.3379 0.001022542
6.48276 907.49188 861.424069 504.827312 0.001101938
6.49156 739.92761 744.917612 505.319185 0.001351484
6.50037 618.35223 642.98601 505.813533 0.001617201
6.50917 562.92694 579.719685 506.310265 0.001776429
6.51797 541.58698 548.47287 506.809356 0.001846425
6.52677 532.74725 534.777849 507.310798 0.001877063
6.53557 529.76587 528.522016 507.814497 0.001887626
6.54438 528.4198 525.170054 508.320454 0.001892435
6.55318 526.5672 523.128475 508.828575 0.001899093
6.56198 525.47412 521.837155 509.338842 0.001903043
6.57078 525.57959 521.045732 509.851246 0.001902661
6.57958 527.00293 520.612422 510.365671 0.001897523
6.58839 526.29565 520.448483 510.882105 0.001900073
6.59719 525.42035 520.497747 511.400531 0.001903238
6.60599 525.46442 520.726279 511.92085 0.001903078
6.61479 526.22302 521.117192 512.443059 0.001900335
6.62360 526.88232 521.669051 512.967059 0.001897957
6.63240 527.88873 522.398287 513.492835 0.001894339
6.64120 529.15186 523.363182 514.020356 0.001889817
6.65000 530.5321 524.665059 514.549519 0.0018849
6.65880 532.33246 526.698184 515.080335 0.001878525
6.66761 535.27362 530.54025 515.612698 0.001868203
6.67641 540.46008 538.483671 516.146576 0.001850275
6.68521 552.53595 553.510936 516.681954 0.001809837
6.69401 566.88245 576.360901 517.218726 0.001764034
6.70281 585.10315 600.341754 517.75686 0.0017091
6.71162 591.22791 608.581017 518.296339 0.001691395
6.72042 585.75037 593.011332 518.837056 0.001707212
6.72922 569.54944 569.3448 519.379008 0.001755774
6.73802 556.22583 550.77775 519.922087 0.001797831
6.74682 546.20361 540.286029 520.46627 0.001830819
6.75563 541.1936 535.722433 521.011542 0.001847768
6.76443 539.33569 534.185342 521.557774 0.001854133
6.77323 539.09882 533.909185 522.104951 0.001854947
6.78203 538.82941 534.170999 522.65305 0.001855875
6.79084 539.15155 534.731039 523.20196 0.001854766
6.79964 539.71204 535.510039 523.751678 0.00185284
6.80844 540.66284 536.479788 524.302093 0.001849582
6.81724 541.76611 537.653188 524.853189 0.001845815
6.82604 543.2757 539.00607 525.40493 0.001840686
6.83485 543.38898 540.58282 525.957205 0.001840302
6.84365 544.46368 542.428092 526.510023 0.00183667
6.85245 545.64087 544.608947 527.063272 0.001832707
6.86125 548.21484 547.224992 527.616917 0.001824102
6.87005 550.91296 550.424205 528.170941 0.001815169
6.87886 554.08917 554.430173 528.725234 0.001804764
6.88766 558.02393 559.600336 529.279759 0.001792038
6.89646 565.01135 566.589955 529.834499 0.001769876
6.90526 574.86658 576.967967 530.389339 0.001739534
6.91407 595.07813 595.332218 530.944292 0.001680452
6.92287 629.56152 634.192701 531.499228 0.001588407
6.93167 711.28021 718.770825 532.054132 0.001405916
6.94047 848.78595 878.732016 532.608981 0.001178153
6.94927 1076.7975 1113.803927 533.163665 0.00092868
6.95808 1312.8176 1339.759378 533.71818 0.00076172
6.96688 1379.1438 1375.757831 534.272415 0.000725088
6.97568 1238.4313 1183.44116 534.826357 0.000807473
6.98448 1004.3639 939.570342 535.379969 0.000995655
6.99328 811.2915 759.099105 535.933143 0.001232603
7.00209 691.492 658.866389 536.485864 0.001446148
7.01089 638.64252 612.749532 537.038098 0.001565821
7.01969 609.94305 592.589945 537.589736 0.001639497
7.02849 594.97357 582.7612 538.14079 0.001680747
7.03729 585.09644 577.174973 538.69115 0.00170912
7.04610 579.16583 573.782022 539.240785 0.001726621
7.05490 575.92963 571.804046 539.789681 0.001736323
7.06370 574.14642 570.860054 540.33773 0.001741716
7.07250 573.27808 570.739429 540.884933 0.001744354
7.08131 573.39978 571.331419 541.431184 0.001743984
7.09011 573.77289 572.599887 541.976463 0.00174285
7.09891 574.44794 574.574413 542.520758 0.001740802
7.10771 576.26434 577.354266 543.063947 0.001735315
7.11651 580.06976 581.130221 543.606017 0.001723931
7.12532 586.17017 586.23361 544.146952 0.001705989
7.13412 595.72748 593.275492 544.686649 0.00167862
7.14292 610.09363 603.675243 545.225108 0.001639093
7.15172 634.16278 621.522682 545.762228 0.001576882
7.16052 679.79016 658.262955 546.298 0.001471042
7.16933 764.35168 738.3348 546.832395 0.001308298
7.17813 917.90637 893.66698 547.365314 0.001089436
7.18693 1172.338 1131.956747 547.896772 0.000852996
7.19573 1400.3397 1381.8672 548.426671 0.000714112
7.20453 1453.0408 1463.041139 548.954983 0.000688212
7.21334 1281.9393 1303.081468 549.481703 0.000780068
7.22214 1048.8362 1080.070358 550.006733 0.000953438
7.23094 891.49896 924.958732 550.530048 0.001121706
7.23974 826.07263 842.601488 551.051643 0.001210547
7.24855 774.60974 780.03508 551.571417 0.001290973
7.25735 717.78119 719.140515 552.089394 0.001393182
7.26615 663.6264 671.882325 552.605463 0.001506872
7.27495 632.92108 642.988762 553.11962 0.001579976
7.28375 615.89807 628.97821 553.631856 0.001623645
7.29256 608.91302 623.912861 554.142079 0.001642271
7.30136 607.22943 623.534205 554.65027 0.001646824
7.31016 607.17969 625.900404 555.156425 0.001646959
7.31896 609.69739 630.413815 555.660457 0.001640158
7.32777 613.94031 637.056774 556.162375 0.001628823
7.33657 621.18744 646.096358 556.662093 0.00160982
7.34537 631.01404 658.067369 557.15961 0.001584751
7.35417 644.50031 673.832809 557.65491 0.00155159
7.36297 664.33142 694.743497 558.147908 0.001505273
7.37178 695.3114 722.983258 558.638628 0.001438205
7.38058 747.88354 762.50993 559.126988 0.001337107
7.38938 826.92761 822.619093 559.612974 0.001209296
7.39818 971.01508 930.220212 560.096587 0.00102985
7.40698 1206.0342 1158.922505 560.577749 0.000829164
7.41579 1684.2277 1659.176572 561.056447 0.000593744
7.42459 2535.7537 2612.941704 561.532685 0.00039436
7.43339 3939.4285 4032.535464 562.006381 0.000253844
7.44219 5502.668 5434.992858 562.477568 0.00018173
7.45099 5793.5234 5753.500569 562.946155 0.000172607
7.45980 4745.4521 4778.421401 563.412148 0.000210728
7.46860 3507.1191 3545.959776 563.875549 0.000285134
7.47740 2618.9929 2598.481867 564.336286 0.000381826
7.48620 1969.9755 1898.950284 564.794378 0.000507621
7.49501 1508.103 1399.733077 565.249756 0.000663085
7.50381 1150.8976 1081.161299 565.702429 0.000868887
7.51261 934.6889 897.073521 566.15239 0.001069875
7.52141 806.49878 797.783962 566.599575 0.001239927
7.53021 737.38239 743.222147 567.043992 0.001356148
7.53902 697.32904 709.806901 567.48564 0.001434043
7.54782 671.099 686.908854 567.924454 0.001490093
7.55662 653.13361 670.197727 568.360466 0.00153108
7.56542 640.39807 657.689401 568.793617 0.001561529
7.57422 631.6889 648.274583 569.223904 0.001583058
7.58303 624.7876 641.259328 569.651342 0.001600544
7.59183 619.96991 636.21268 570.075868 0.001612982
7.60063 617.36646 632.894158 570.497522 0.001619783
7.60943 616.31738 631.236761 570.916233 0.001622541
7.61823 616.59143 631.388436 571.332018 0.001621819
7.62704 620.22662 633.903879 571.744889 0.001612314
7.63584 628.68707 640.292313 572.154793 0.001590616
7.64464 646.54517 654.196416 572.561736 0.001546682
7.65344 679.17712 683.654018 572.965735 0.00147237
7.66225 735.05133 744.055056 573.366741 0.001360449
7.67105 831.49298 855.884694 573.764783 0.001202656
7.67985 992.58514 1028.126333 574.159814 0.00100747
7.68865 1218.3322 1233.030861 574.551855 0.000820794
7.69745 1353.5575 1356.37843 574.940914 0.000738794
7.70626 1273.5887 1264.755274 575.326947 0.000785183
7.71506 1051.5542 1046.627474 575.709995 0.000950973
7.72386 834.03955 850.76419 576.090014 0.001198984
7.73266 717.60327 727.609806 576.467017 0.001393528
7.74146 662.02307 665.754317 576.841027 0.001510521
7.75027 635.2677 637.702995 577.212006 0.00157414
7.75907 620.13324 624.018506 577.579966 0.001612557
7.76787 610.61646 615.981944 577.944934 0.001637689
7.77667 604.88208 610.527651 578.30687 0.001653215
7.78548 601.17828 606.560917 578.66582 0.0016634
7.79428 598.50677 603.581898 579.021741 0.001670825
7.80308 596.41199 601.292344 579.374659 0.001676693
7.81188 595.38489 599.507828 579.724599 0.001679586
7.82068 594.41473 598.095876 580.071531 0.001682327
7.82949 593.81885 596.969554 580.415474 0.001684015
7.83829 592.46918 596.070076 580.756456 0.001687852
7.84709 590.66937 595.341264 581.09445 0.001692995
7.85589 589.30542 594.753309 581.429496 0.001696913
7.86469 589.48273 594.280105 581.761568 0.001696403
7.87350 589.80664 593.901455 582.090698 0.001695471
7.88230 589.90186 593.601618 582.416908 0.001695197
7.89110 589.70966 593.368248 582.740176 0.00169575
7.89990 589.6839 593.191418 583.060549 0.001695824
7.90870 588.84387 593.063214 583.378007 0.001698243
7.91751 588.00891 592.977177 583.692575 0.001700655
7.92631 587.94153 592.928081 584.004287 0.001700849
7.93511 587.46613 592.911687 584.313122 0.001702226
7.94391 586.98065 592.924555 584.619116 0.001703634
7.95272 587.08063 592.963922 584.922296 0.001703344
7.96152 587.46332 593.027646 585.222645 0.001702234
7.97032 587.43634 593.114135 585.520217 0.001702312
7.97912 587.53699 593.222324 585.814996 0.00170202
7.98792 587.77899 593.351692 586.107013 0.00170132
7.99673 587.86115 593.502331 586.396305 0.001701082
8.00553 588.23273 593.675015 586.682878 0.001700007
8.01433 588.23889 593.871365 586.966714 0.00169999
8.02313 588.17352 594.182227 587.2479 0.001700179
8.03193 588.18695 594.436528 587.526426 0.00170014
8.04074 588.88568 594.728298 587.802286 0.001698122
8.04954 589.77222 595.067668 588.075557 0.00169557
8.05834 590.63483 595.470045 588.346235 0.001693094
8.06714 591.00592 595.959875 588.614315 0.00169203
8.07594 590.86035 596.580453 588.879876 0.001692447
8.08475 591.19843 597.428178 589.142916 0.001691479
8.09355 593.54248 598.777233 589.403432 0.001684799
8.10235 597.42499 601.401961 589.661503 0.00167385
8.11115 603.74884 606.999536 589.917129 0.001656318
8.11996 614.8678 617.888566 590.170336 0.001626366
8.12876 630.50037 634.846474 590.421126 0.001586042
8.13756 645.05127 653.063777 590.669577 0.001550264
8.14636 648.35223 659.388346 590.915692 0.001542371
8.15516 638.38745 647.138772 591.159474 0.001566447
8.16397 622.52148 628.699526 591.401001 0.00160637
8.17277 608.32629 614.351166 591.640279 0.001643855
8.18157 599.45129 606.137802 591.877313 0.001668192
8.19037 595.74652 602.346377 592.112181 0.001678566
8.19917 593.93292 600.758825 592.34489 0.001683692
8.20798 592.37244 600.061719 592.575444 0.001688127
8.21678 592.23676 599.723563 592.803931 0.001688514
8.22558 592.52087 599.563004 593.03035 0.001687704
8.23438 592.80066 599.513541 593.254736 0.001686908
8.24319 592.27155 599.536041 593.477097 0.001688415
8.25199 591.45673 599.612073 593.697519 0.001690741
8.26079 591.62268 599.728147 593.916004 0.001690267
8.26959 591.66864 599.875197 594.132564 0.001690135
8.27839 591.07684 600.047057 594.347282 0.001691827
8.28720 590.95569 600.239418 594.560171 0.001692174
8.29600 592.28882 600.449256 594.771235 0.001688365
8.30480 593.01086 600.674544 594.980561 0.00168631
8.31360 592.5249 600.913851 595.18816 0.001687693
8.32240 592.49457 601.16624 595.394046 0.001687779
8.33121 592.42615 601.431255 595.598296 0.001687974
8.34001 592.30438 601.70866 595.800927 0.001688321
8.34881 592.70801 601.99852 596.001973 0.001687171
8.35761 592.58093 602.301094 596.201451 0.001687533
8.36641 592.58734 602.616959 596.399439 0.001687515
8.37522 592.70898 602.946797 596.595954 0.001687169
8.38402 593.21051 603.291483 596.791011 0.001685742
8.39282 594.15363 603.652239 596.98469 0.001683066
8.40162 594.69073 604.030383 597.177006 0.001681546
8.41043 594.71637 604.427225 597.367979 0.001681474
8.41923 595.14172 604.845266 597.557685 0.001680272
8.42803 595.26166 605.286438 597.746143 0.001679933
8.43683 595.09979 605.753279 597.933373 0.00168039
8.44563 595.86395 606.248884 598.119449 0.001678235
8.45444 597.33624 606.776773 598.304393 0.001674099
8.46324 597.45618 607.34107 598.488242 0.001673763
8.47204 597.4433 607.946582 598.671016 0.001673799
8.48084 597.54395 608.59914 598.852792 0.001673517
8.48964 598.52051 609.305543 599.03359 0.001670787
8.49845 599.02234 610.073819 599.213431 0.001669387
8.50725 599.8432 610.913766 599.392389 0.001667102
8.51605 600.22961 611.837154 599.570486 0.001666029
8.52485 601.28229 612.858122 599.747743 0.001663112
8.53366 602.47223 613.994699 599.924236 0.001659828
8.54246 603.64417 615.267484 600.099984 0.001656605
8.55126 604.31512 616.703716 600.275008 0.001654766
8.56006 604.66772 618.337449 600.449389 0.001653801
8.56886 605.7948 620.211371 600.623141 0.001650724
8.57767 607.18976 622.381104 600.796307 0.001646932
8.58647 609.65161 624.919092 600.968905 0.001640281
8.59527 611.90417 627.920214 601.141016 0.001634243
8.60407 614.38611 631.513212 601.312655 0.001627641
8.61287 617.92242 635.863806 601.483844 0.001618326
8.62168 623.27429 641.238912 601.654661 0.00160443
8.63048 630.71216 647.980099 601.825127 0.001585509
8.63928 639.87238 656.602803 601.995258 0.001562812
8.64808 654.08942 667.893795 602.165132 0.001528843
8.65689 675.30829 683.139818 602.33477 0.001480805
8.66569 708.68176 704.86952 602.504193 0.001411071
8.67449 763.849 739.587826 602.673472 0.001309159
8.68329 860.31006 806.029508 602.84263 0.001162372
8.69209 1030.0487 950.636124 603.011705 0.000970828
8.70090 1351.905 1254.000766 603.180717 0.000739697
8.70970 1867.693 1786.974091 603.349738 0.00053542
8.71850 2518.7588 2492.106774 603.518788 0.000397021
8.72730 2971.0793 3024.963558 603.687889 0.000336578
8.73610 2833.1455 2904.597056 603.857112 0.000352965
8.74491 2199.0129 2260.227332 604.026476 0.000454749
8.75371 1594.0712 1591.649304 604.196001 0.000627325
8.76251 1168.9242 1136.377921 604.365758 0.000855487
8.77131 933.78754 894.268634 604.535767 0.001070907
8.78011 810.12537 782.331489 604.706046 0.001234377
8.78892 740.38867 729.766432 604.876666 0.001350642
8.79772 701.79889 700.861319 605.047645 0.00142491
8.80652 676.77429 682.138175 605.21902 0.001477598
8.81532 660.31732 668.883651 605.390806 0.001514423
8.82413 648.84393 659.105926 605.563075 0.001541203
8.83293 639.85767 651.721031 605.735844 0.001562848
8.84173 633.87262 646.047267 605.909128 0.001577604
8.85053 629.29163 641.630583 606.082999 0.001589088
8.85933 626.4519 638.161509 606.257471 0.001596292
8.86814 624.46582 635.423004 606.432561 0.001601369
8.87694 623.20972 633.259128 606.608336 0.001604596
8.88574 621.18958 631.558005 606.784813 0.001609815
8.89454 620.02509 630.237756 606.962004 0.001612838
8.90334 619.10486 629.237984 607.139982 0.001615235
8.91215 618.6886 628.515365 607.318757 0.001616322
8.92095 618.22394 628.039239 607.49836 0.001617537
8.92975 618.15216 627.789377 607.678803 0.001617725
8.93855 618.06818 627.754482 607.86016 0.001617944
8.94736 618.63849 627.931747 608.042436 0.001616453
8.95616 618.76794 628.326697 608.225642 0.001616115
8.96496 619.51544 628.954131 608.409851 0.001614165
8.97376 621.46289 629.839851 608.595071 0.001609107
8.98256 623.29822 631.023372 608.781308 0.001604368
8.99137 627.43573 632.563307 608.968633 0.001593789
9.00017 630.55023 634.54473 609.157053 0.001585916
9.00897 642.8064 637.091767 609.346577 0.001555678
9.01777 654.82556 640.391498 609.537271 0.001527124
9.02657 698.27759 644.743152 609.729142 0.001432095
9.03538 749.07678 650.721814 609.922217 0.001334977
9.04418 792.82031 659.760986 610.1165 0.00126132
9.05298 795.88019 675.714804 610.312059 0.001256471
9.06178 828.79053 707.526028 610.508897 0.001206577
9.07058 837.73376 769.278117 610.707019 0.001193697
9.07939 885.64594 870.999928 610.90649 0.001129119
9.08819 953.19604 998.305748 611.107313 0.001049102
9.09699 1024.6924 1090.100749 611.309491 0.000975903
9.10579 1089.3899 1088.576569 611.513088 0.000917945
9.11460 1155.6613 1069.393206 611.718105 0.000865305
9.12340 1268.4187 1151.588039 611.924543 0.000788383
9.13220 1453.3452 1382.016624 612.132465 0.000688068
9.14100 1645.2941 1687.504543 612.341872 0.000607794
9.14980 1694.9362 1834.715313 612.552762 0.000589993
9.15861 1544.3346 1644.902531 612.765198 0.000647528
9.16741 1296.1168 1301.237632 612.979178 0.000771535
9.17621 1055.9333 1011.773015 613.19472 0.00094703
9.18501 891.87878 835.231207 613.411822 0.001121229
9.19381 800.14246 748.250505 613.630544 0.001249777
9.20262 751.40875 709.786486 613.850883 0.001330834
9.21142 735.04785 692.543912 614.072833 0.001360456
9.22022 741.80719 684.856481 614.296455 0.001348059
9.22902 767.51868 683.584522 614.521742 0.0013029
9.23782 805.06537 690.488027 614.748685 0.001242135
9.24663 845.6217 713.688736 614.977351 0.001182562
9.25543 889.2243 769.9487 615.207724 0.001124576
9.26423 936.80267 878.37855 615.439795 0.001067461
9.27303 1009.5217 1037.483556 615.673629 0.000990568
9.28184 1072.4926 1188.683061 615.909216 0.000932407
9.29064 1104.8475 1208.5015 616.146562 0.000905102
9.29944 1066.7961 1073.715627 616.385654 0.000937386
9.30824 990.45276 905.195608 616.626558 0.001009639
9.31704 893.62482 779.841435 616.86926 0.001119038
9.32585 816.31464 708.779259 617.113738 0.001225018
9.33465 754.27612 674.735692 617.360058 0.001325774
9.34345 714.75769 658.850596 617.608202 0.001399076
9.35225 686.67896 650.383533 617.858154 0.001456285
9.36105 668.59399 645.010279 618.109971 0.001495676
9.36986 656.64215 641.220035 618.363637 0.001522899
9.37866 647.98511 638.416137 618.619132 0.001543245
9.38746 642.87793 636.289374 618.876515 0.001555505
9.39626 638.63916 634.648807 619.135765 0.001565829
9.40507 635.93896 633.367736 619.396888 0.001572478
9.41387 633.58728 632.358885 619.659862 0.001578315
9.42267 632.49231 631.560381 619.924744 0.001581047
9.43147 630.92871 630.92745 620.191512 0.001584965
9.44027 630.74872 630.427392 620.460142 0.001585417
9.44908 630.08154 630.0347 620.730691 0.001587096
9.45788 629.55103 629.730609 621.003134 0.001588434
9.46668 628.90369 629.496638 621.277444 0.001590069
9.47548 629.40576 629.328629 621.55368 0.0015888
9.48428 629.45142 629.213615 621.831812 0.001588685
9.49309 629.06329 629.144119 622.111814 0.001589665
9.50189 628.57135 629.114118 622.393742 0.001590909
9.51069 628.98254 629.118675 622.677565 0.001589869
9.51949 628.86523 629.153731 622.963284 0.001590166
9.52829 628.38666 629.215857 623.250867 0.001591377
9.53710 628.67963 629.302286 623.540369 0.001590635
9.54590 629.26202 629.410657 623.831759 0.001589163
9.55470 629.52417 629.538966 624.125003 0.001588501
9.56350 629.53259 629.685649 624.420158 0.00158848
9.57231 629.3905 629.849222 624.717189 0.001588839
9.58111 629.81873 630.028575 625.016057 0.001587758
9.58991 630.36517 630.222819 625.316827 0.001586382
9.59871 630.28534 630.431199 625.619454 0.001586583
9.60751 630.61743 630.653967 625.9239 0.001585747
9.61632 630.54944 630.889134 626.230227 0.001585918
9.62512 630.15503 631.137302 626.538397 0.001586911
9.63392 630.2005 631.398445 626.848395 0.001586797
9.64272 630.84546 631.672718 627.160181 0.001585174
9.65152 630.89319 631.960598 627.473817 0.001585054
9.66033 631.966 632.262758 627.789261 0.001582364
9.66913 632.57489 632.580193 628.106462 0.00158084
9.67793 632.89038 632.914455 628.425484 0.001580052
9.68673 633.40155 633.267564 628.746282 0.001578777
9.69553 634.33167 633.64518 629.06881 0.001576462
9.70434 635.08075 634.04555 629.393124 0.001574603
9.71314 634.90753 634.476898 629.71918 0.001575033
9.72194 635.27936 634.946784 630.04693 0.001574111
9.73074 636.07294 635.466135 630.376429 0.001572147
9.73955 637.08832 636.050812 630.707632 0.001569641
9.74835 638.84198 636.724733 631.040523 0.001565332
9.75715 640.77252 637.526295 631.375056 0.001560616
9.76595 643.46106 638.528851 631.711284 0.001554096
9.77475 647.67859 639.910268 632.049158 0.001543976
9.78356 654.08527 642.176436 632.388629 0.001528853
9.79236 661.85962 646.609113 632.729749 0.001510894
9.80116 671.51703 655.59029 633.07247 0.001489166
9.80996 682.61798 671.657483 633.416738 0.001464948
9.81876 696.6723 694.399698 633.762608 0.001435395
9.82757 708.7998 715.718676 634.110028 0.001410836
9.83637 713.95789 719.059776 634.458945 0.001400643
9.84517 706.74481 701.271563 634.809411 0.001414938
9.85397 691.79999 678.49771 635.161375 0.001445505
9.86278 675.17499 661.349409 635.514816 0.001481098
9.87158 663.39844 651.624409 635.86968 0.00150739
9.88038 654.91449 647.133195 636.22602 0.001526917
9.88918 650.48535 645.295359 636.583782 0.001537314
9.89798 647.1073 644.572953 636.942907 0.001545339
9.90679 645.52246 644.325105 637.30345 0.001549133
9.91559 644.55707 644.328722 637.665354 0.001551453
9.92439 644.08838 644.503248 638.028556 0.001552582
9.93319 643.34235 644.815931 638.393123 0.001554382
9.94199 643.34747 645.256501 638.758983 0.00155437
9.95080 644.04456 645.832785 639.126078 0.001552688
9.95960 645.33667 646.576574 639.494469 0.001549579
9.96840 646.71484 647.574356 639.864097 0.001546277
9.97720 649.44141 649.077536 640.234931 0.001539785
9.98600 653.88232 651.784404 640.60691 0.001529327
9.99481 660.91907 657.225539 640.980096 0.001513045
10.00361 672.45056 667.62249 641.354441 0.001487098
10.01241 690.03632 684.206867 641.729828 0.001449199
10.02121 708.9408 703.968824 642.106395 0.001410555
10.03002 718.54834 715.994559 642.483991 0.001391695
10.03882 710.37848 709.10437 642.862591 0.0014077
10.04762 692.28345 690.790454 643.242301 0.001444495
10.05642 675.07251 673.740061 643.622967 0.001481322
10.06522 664.09155 662.644049 644.004607 0.001505816
10.07403 658.12952 657.011704 644.387197 0.001519458
10.08283 655.09058 654.638228 644.770755 0.001526506
10.09163 653.53674 653.757396 645.155171 0.001530136
10.10043 652.23309 653.489318 645.540417 0.001533194
10.10923 651.99664 653.506518 645.9266 0.00153375
10.11804 652.32086 653.677814 646.313564 0.001532988
10.12684 651.92157 653.955298 646.701327 0.001533927
10.13564 651.75867 654.314005 647.089862 0.00153431
10.14444 652.16418 654.737551 647.479189 0.001533356
10.15325 652.6275 655.21557 647.869148 0.001532268
10.16205 652.96844 655.742253 648.259847 0.001531468
10.17085 653.48248 656.31458 648.651259 0.001530263
10.17965 653.82355 656.933568 649.043224 0.001529465
10.18845 654.70673 657.597003 649.435895 0.001527401
10.19726 655.25305 658.309774 649.829112 0.001526128
10.20606 656.44214 659.077347 650.222937 0.001523364
10.21486 657.21918 659.907144 650.617209 0.001521562
10.22366 658.55798 660.810264 651.012037 0.001518469
10.23246 659.50116 661.800425 651.407393 0.001516298
10.24127 661.17609 662.902945 651.803117 0.001512456
10.25007 662.79901 664.141256 652.199361 0.001508753
10.25887 664.49261 665.559825 652.595964 0.001504908
10.26767 667.12476 667.223917 652.992944 0.00149897
10.27647 671.47479 669.25003 653.390274 0.001489259
10.28528 677.2074 671.901937 653.787928 0.001476652
10.29408 684.54724 675.856586 654.185879 0.00146082
10.30288 694.99902 682.692933 654.5841 0.001438851
10.31168 708.4151 695.188865 654.98261 0.001411602
10.32048 725.1582 716.395719 655.381246 0.001379009
10.32929 748.18658 746.908569 655.780163 0.001336565
10.33809 770.97815 780.507796 656.179198 0.001297054
10.34689 788.64551 803.930904 656.578371 0.001267997
10.35569 802.56067 816.831434 656.977654 0.001246012
10.36450 816.59583 830.421998 657.377022 0.001224596
10.37330 826.77295 844.501654 657.776493 0.001209522
10.38210 835.21106 860.720156 658.175904 0.001197302
10.39090 838.74396 874.303254 658.575413 0.001192259
10.39971 828.95746 859.597051 658.974855 0.001206335
10.40851 800.79657 814.441882 659.374205 0.001248757
10.41731 764.14203 766.745298 659.773574 0.001308657
10.42611 734.04114 732.800699 660.1728 0.001362321
10.43491 714.33807 714.277113 660.571902 0.001399897
10.44371 701.63995 706.540974 660.970855 0.001425232
10.45252 695.4585 704.603923 661.369678 0.0014379
10.46132 691.8371 705.532865 661.768257 0.001445427
10.47012 690.9458 708.135828 662.166566 0.001447292
10.47892 691.55139 712.119692 662.564715 0.001446024
10.48773 692.76105 717.524873 662.962545 0.001443499
10.49653 695.7359 724.599404 663.360076 0.001437327
10.50533 698.11188 733.778108 663.757284 0.001432435
10.51413 705.21332 745.752395 664.154144 0.001418011
10.52293 712.28003 761.64473 664.550633 0.001403942
10.53174 727.55054 783.485346 664.946727 0.001374475
10.54054 748.28986 815.961261 665.342446 0.001336381
10.54934 793.74585 871.855671 665.737633 0.001259849
10.55814 885.16882 984.454317 666.132444 0.001129728
10.56695 1084.9028 1221.168546 666.526722 0.000921742
10.57575 1577.3485 1670.624626 666.920489 0.000633975
10.58455 2306.7297 2369.129768 667.313722 0.000433514
10.59335 3472.6741 3169.54408 667.706398 0.000287963
10.60215 3795.4575 3615.443531 668.098541 0.000263473
10.61096 3383.8201 3288.05266 668.489996 0.000295524
10.61976 2418.5803 2511.182668 668.880917 0.000413466
10.62856 1723.6805 1784.429493 669.271151 0.000580154
10.63736 1139.8511 1300.151594 669.660722 0.000877308
10.64616 970.34192 1042.700661 670.049608 0.001030565
10.65497 861.33917 926.321905 670.43779 0.001160983
10.66377 836.69696 879.98543 670.825246 0.001195176
10.67257 834.44067 869.906332 671.211957 0.001198408
10.68137 865.63916 889.941044 671.597947 0.001155216
10.69017 932.36884 949.314628 671.98311 0.001072537
10.69898 1055.8025 1058.957504 672.36747 0.000947147
10.70778 1225.3248 1207.761363 672.751008 0.00081611
10.71658 1359.0657 1338.895127 673.133706 0.0007358
10.72538 1395.7288 1381.631398 673.515546 0.000716472
10.73419 1368.0862 1390.969735 673.89651 0.000730948
10.74299 1449.5887 1492.740748 674.276625 0.000689851
10.75179 1700.3544 1719.90209 674.655743 0.000588113
10.76059 1991.0073 1954.586713 675.03402 0.000502258
10.76939 2042.6473 1958.021449 675.41131 0.000489561
10.77820 1764.4932 1682.698487 675.787598 0.000566735
10.78700 1350.5953 1338.961353 676.162997 0.000740414
10.79580 1050.7264 1073.69152 676.537362 0.000951723
10.80460 892.67328 919.331708 676.910764 0.001120231
10.81340 823.5163 851.048682 677.283061 0.001214305
10.82221 803.73267 831.230406 677.654365 0.001244195
10.83101 797.35577 828.081258 678.024664 0.001254145
10.83981 791.86505 816.546295 678.393816 0.001262841
10.84861 777.11896 790.593699 678.761976 0.001286804
10.85741 757.34619 762.319655 679.129007 0.0013204
10.86622 739.95428 740.265374 679.494937 0.001351435
10.87502 726.66821 725.953683 679.859755 0.001376144
10.88382 716.50909 717.454309 680.223448 0.001395656
10.89262 709.61462 712.289224 680.586005 0.001409216
10.90142 704.54919 708.808883 680.947416 0.001419347
10.91023 700.62531 706.228083 681.307711 0.001427296
10.91903 698.71246 704.186073 681.666798 0.001431204
10.92783 697.10181 702.534743 682.024708 0.001434511
10.93663 695.6416 701.180646 682.381432 0.001437522
10.94544 693.82233 699.986956 682.736961 0.001441291
10.95424 692.74878 699.049558 683.091286 0.001443525
10.96304 691.93262 698.25676 683.4444 0.001445227
10.97184 692.42889 697.582974 683.796334 0.001444192
10.98064 692.64752 696.964207 684.146961 0.001443736
10.98945 691.39368 696.330915 684.496434 0.001446354
10.99825 691.2204 695.52662 684.844628 0.001446717
11.00705 691.61224 694.299945 685.191575 0.001445897
11.01585 691.79553 692.419046 685.53727 0.001445514
11.02465 691.70325 689.956823 685.881709 0.001445707
11.03346 692.94025 687.701361 686.224924 0.001443126
11.04226 693.42548 687.190706 686.566795 0.001442116
11.05106 693.4151 688.892068 686.907474 0.001442138
11.05986 692.21552 691.353072 687.24684 0.001444637
11.06867 691.85101 693.418546 687.584929 0.001445398
11.07747 691.89795 694.779027 687.921738 0.0014453
11.08627 692.64447 695.582226 688.257265 0.001443742
11.09507 693.26617 696.087899 688.591508 0.001442447
11.10387 693.90771 696.486772 688.924466 0.001441114
11.11268 693.70227 696.881855 689.256175 0.001441541
11.12148 693.59686 697.34266 689.586521 0.00144176
11.13028 694.50183 697.973427 689.915618 0.001439881
11.13908 696.25995 698.99673 690.243465 0.001436245
11.14789 699.30963 700.790552 690.569989 0.001429982
11.15669 704.15192 703.744951 690.895226 0.001420148
11.16549 709.75928 707.839981 691.21918 0.001408928
11.17429 714.9859 712.036937 691.541889 0.001398629
11.18309 718.08636 713.982514 691.863244 0.00139259
11.19190 716.08447 712.568701 692.183359 0.001396483
11.20070 712.16888 710.229765 692.502236 0.001404161
11.20950 710.31848 709.57173 692.819771 0.001407819
11.21830 712.68402 711.695849 693.136111 0.001403146
11.22710 717.84015 716.084618 693.451153 0.001393068
11.23591 721.43781 720.350165 693.764938 0.001386121
11.24471 720.20648 720.880028 694.07747 0.001388491
11.25351 714.74078 717.264653 694.388757 0.001399109
11.26231 708.43835 712.700368 694.698837 0.001411555
11.27111 704.37421 709.375458 695.007614 0.0014197
11.27992 703.54236 707.817145 695.315233 0.001421379
11.28872 704.61896 707.728537 695.621596 0.001419207
11.29752 706.57208 708.706226 695.926748 0.001415284
11.30632 709.6109 710.716636 696.230694 0.001409223
11.31513 717.27991 714.487866 696.533444 0.001394156
11.32393 731.07635 722.105574 696.835007 0.001367846
11.33273 751.30316 737.411447 697.135392 0.001331021
11.34153 794.04962 764.736437 697.434641 0.001259367
11.35033 828.28754 804.650185 697.732664 0.00120731
11.35914 863.54291 847.623221 698.029606 0.00115802
11.36794 880.11505 869.051301 698.325376 0.001136215
11.37674 843.1048 850.019354 698.620019 0.001186092
11.38554 812.5271 808.50255 698.913547 0.001230728
11.39434 770.49078 769.526018 699.20597 0.001297874
11.40315 745.89777 743.161464 699.497335 0.001340666
11.41195 734.6217 729.146411 699.787555 0.001361245
11.42075 727.84222 723.373926 700.076774 0.001373924
11.42955 726.91437 722.432584 700.364907 0.001375678
11.43835 730.88318 725.407921 700.651967 0.001368208
11.44716 739.5647 734.125521 700.938067 0.001352147
11.45596 755.79437 752.371479 701.223122 0.001323111
11.46476 780.65295 783.2245 701.507181 0.001280979
11.47356 814.20282 823.904308 701.790257 0.001228195
11.48237 842.88409 859.443252 702.072398 0.001186403
11.49117 848.20691 864.007808 702.353523 0.001178958
11.49997 829.91669 833.277017 702.633744 0.00120494
11.50877 801.89172 791.893408 702.913078 0.001247051
11.51757 775.65363 758.186412 703.191476 0.001289235
11.52638 755.36273 737.010375 703.468988 0.001323867
11.53518 739.5332 725.976583 703.745631 0.001352204
11.54398 728.29614 720.832746 704.021452 0.001373068
11.55278 721.91046 718.453592 704.296377 0.001385213
11.56158 718.50287 717.272484 704.570516 0.001391783
11.57039 716.40918 716.669164 704.843888 0.00139585
11.57919 715.47467 716.414954 705.116417 0.001397674
11.58799 714.81543 716.413432 705.388247 0.001398963
11.59679 714.53479 716.614666 705.659304 0.001399512
11.60559 714.96826 716.986497 705.929638 0.001398663
11.61440 716.19165 717.50671 706.199269 0.001396274
11.62320 716.30969 718.170748 706.468215 0.001396044
11.63200 717.07935 718.998074 706.736528 0.001394546
11.64080 718.03113 720.019323 707.004136 0.001392697
11.64961 719.37817 721.269568 707.271182 0.001390089
11.65841 721.17139 722.794826 707.537594 0.001386633
11.66721 724.75354 724.668177 707.803425 0.001379779
11.67601 728.0108 726.995225 708.068695 0.001373606
11.68481 733.01617 729.939607 708.333426 0.001364226
11.69362 741.10931 733.79003 708.597639 0.001349329
11.70242 753.35956 739.175145 708.861355 0.001327387
11.71122 770.94122 747.681985 709.124627 0.001297116
11.72002 797.63562 763.128081 709.387387 0.001253705
11.72883 838.35144 792.946156 709.649776 0.001192817
11.73763 898.07965 847.192245 709.911728 0.001113487
11.74643 972.96234 932.312133 710.173294 0.001027789
11.75523 1058.7692 1040.380114 710.434498 0.000944493
11.76403 1128.6606 1137.316829 710.695363 0.000886006
11.77284 1171.1244 1177.029241 710.95594 0.00085388
11.78164 1191.475 1175.00274 711.216164 0.000839296
11.79044 1211.8434 1189.050941 711.476177 0.000825189
11.79924 1226.4486 1228.603956 711.735914 0.000815362
11.80804 1215.3057 1237.362094 711.995397 0.000822838
11.81685 1150.4866 1162.492992 712.25474 0.000869197
11.82565 1052.5966 1038.776739 712.513877 0.000950032
11.83445 954.59808 922.955349 712.772862 0.001047561
11.84325 876.73877 840.908258 713.031719 0.001140591
11.85206 824.97778 793.008823 713.2905 0.001212154
11.86086 791.96008 768.513504 713.549171 0.00126269
11.86966 771.06097 756.60232 713.807757 0.001296914
11.87846 757.71387 750.625018 714.066369 0.001319759
11.88726 749.92261 747.548909 714.324944 0.001333471
11.89607 745.2901 746.228678 714.583536 0.001341759
11.90487 742.32965 746.310168 714.842168 0.00134711
11.91367 741.5708 747.813761 715.100894 0.001348489
11.92247 743.48761 751.175863 715.359652 0.001345012
11.93127 749.31335 757.796496 715.618552 0.001334555
11.94008 761.7583 771.381393 715.877621 0.001312752
11.94888 787.75421 799.817964 716.136793 0.001269431
11.95768 841.31213 855.330086 716.396211 0.001188619
11.96648 947.16138 948.82376 716.655811 0.001055786
11.97528 1103.5562 1076.932871 716.915677 0.000906161
11.98409 1245.7322 1204.301916 717.175744 0.000802741
11.99289 1274.8228 1258.475175 717.436125 0.000784423
12.00169 1167.4364 1201.633322 717.696846 0.000856578
12.01049 1019.3972 1081.51805 717.95784 0.000980972
12.01929 902.90149 957.261152 718.219251 0.001107541
12.02810 829.95984 862.878969 718.481014 0.001204878
12.03690 786.78333 804.405676 718.743183 0.001270998
12.04570 763.67523 772.715695 719.005782 0.001309457
12.05450 749.81219 756.52338 719.268835 0.001333667
12.06330 742.43164 747.947782 719.532366 0.001346925
12.07211 737.65979 742.86686 719.796398 0.001355638
12.08091 734.62427 739.474882 720.060986 0.00136124
12.08971 732.89825 737.030487 720.326092 0.001364446
12.09851 731.99225 735.205311 720.591771 0.001366135
12.10732 731.45355 733.821456 720.858046 0.001367141
12.11612 730.74756 732.766354 721.12494 0.001368462
12.12492 730.81122 731.962286 721.392476 0.001368342
12.13372 730.80591 731.354114 721.660677 0.001368352
12.14252 730.11188 730.905943 721.929596 0.001369653
12.15133 729.62451 730.585868 722.199165 0.001370568
12.16013 729.5011 730.378626 722.469528 0.0013708
12.16893 729.50635 730.280646 722.740617 0.00137079
12.17773 729.5824 730.335554 723.012452 0.001370647
12.18653 730.27301 730.56878 723.285148 0.001369351
12.19534 731.52832 731.164008 723.558636 0.001367001
12.20414 733.31635 732.357798 723.832997 0.001363668
12.21294 736.3819 734.33835 724.108161 0.001357991
12.22174 740.18372 736.97644 724.384274 0.001351016
12.23055 742.86926 739.490446 724.661261 0.001346132
12.23935 744.14966 740.391174 724.939146 0.001343816
12.24815 743.61652 738.98301 725.218041 0.001344779
12.25695 741.80078 736.541009 725.497874 0.001348071
12.26575 739.65729 734.357725 725.778695 0.001351977
12.27456 737.44507 732.923462 726.060525 0.001356033
12.28336 736.28394 732.212577 726.343416 0.001358172
12.29216 735.88501 731.989498 726.62729 0.001358908
12.30096 735.29321 732.031908 726.912264 0.001360002
12.30977 734.82062 732.209705 727.198355 0.001360876
12.31857 734.50269 732.469707 727.485519 0.001361465
12.32737 734.8811 732.804266 727.773805 0.001360764
12.33617 735.94434 733.234355 728.063232 0.001358798
12.34497 737.18158 733.801501 728.35385 0.001356518
12.35378 739.17584 734.549254 728.645579 0.001352858
12.36258 740.89081 735.493362 728.938533 0.001349727
12.37138 742.81268 736.598128 729.232731 0.001346234
12.38018 745.13641 737.816188 729.528089 0.001342036
12.38898 747.02893 739.392239 729.824757 0.001338636
12.39779 749.71539 742.104741 730.12265 0.001333839
12.40659 755.83215 746.780607 730.421818 0.001323045
12.41539 763.86017 753.517994 730.722275 0.00130914
12.42419 771.43909 760.886973 731.024037 0.001296279
12.43299 774.52893 765.36523 731.327118 0.001291107
12.44180 772.08905 763.785138 731.631532 0.001295187
12.45060 765.63257 758.061395 731.937329 0.00130611
12.45940 758.64838 752.165764 732.244453 0.001318134
12.46820 754.10352 748.300118 732.55295 0.001326078
12.47701 753.36322 747.223535 732.862835 0.001327381
12.48581 756.8739 749.395062 733.174119 0.001321224
12.49461 764.99512 755.931468 733.486815 0.001307198
12.50341 781.16779 768.631468 733.800934 0.001280135
12.51221 802.00916 788.501126 734.116524 0.001246869
12.52102 823.4718 813.122449 734.433488 0.001214371
12.52982 837.48553 833.756087 734.751981 0.00119405
12.53862 831.23779 836.85295 735.071904 0.001203025
12.54742 813.91797 820.044697 735.393268 0.001228625
12.55622 794.34534 796.002633 735.71619 0.001258898
12.56503 777.42664 775.305762 736.04057 0.001286295
12.57383 769.05322 761.756813 736.366492 0.0013003
12.58263 766.18042 754.98498 736.693851 0.001305176
12.59143 768.59491 753.049207 737.022804 0.001301075
12.60023 772.7984 754.010255 737.353246 0.001293999
12.60904 777.94269 756.178158 737.685185 0.001285442
12.61784 780.08789 757.660157 738.01874 0.001281907
12.62664 778.50684 756.864667 738.353804 0.00128451
12.63544 772.53406 754.293171 738.690421 0.001294441
12.64424 766.27911 751.518915 739.028595 0.001305008
12.65305 760.51495 749.462799 739.36837 0.001314899
12.66185 757.50037 748.314239 739.709636 0.001320131
12.67065 755.18323 747.886493 740.05251 0.001324182
12.67945 754.02429 747.90346 740.396999 0.001326217
12.68826 753.05688 748.159355 740.743027 0.001327921
12.69706 752.26337 748.527948 741.090634 0.001329322
12.70586 752.26105 748.997753 741.439825 0.001329326
12.71466 752.66504 749.534396 741.79064 0.001328612
12.72346 752.89355 750.131876 742.142961 0.001328209
12.73227 752.92834 750.789424 742.496909 0.001328148
12.74107 753.58051 751.51136 742.852484 0.001326998
12.74987 754.41437 752.302488 743.209566 0.001325531
12.75867 755.32202 753.160478 743.568316 0.001323939
12.76747 755.65094 754.104327 743.928612 0.001323362
12.77628 756.88928 755.137169 744.290492 0.001321197
12.78508 757.65619 756.274929 744.653955 0.00131986
12.79388 758.11981 757.53737 745.018999 0.001319053
12.80268 758.20367 758.948548 745.385663 0.001318907
12.81148 758.62225 760.537684 745.753818 0.001318179
12.82029 760.15057 762.344779 746.123629 0.001315529
12.82909 761.83923 764.419538 746.494964 0.001312613
12.83789 763.91772 766.829735 746.867863 0.001309042
12.84669 766.33801 769.656649 747.242319 0.001304907
12.85550 769.13574 773.040225 747.618328 0.001300161
12.86430 772.76019 777.14429 747.995884 0.001294063
12.87310 777.9101 782.216309 748.37498 0.001285496
12.88190 784.38177 788.647223 748.755653 0.001274889
12.89070 794.34186 797.149575 749.137765 0.001258904
12.89951 808.7326 809.345833 749.521484 0.001236503
12.90831 832.54962 829.273855 749.906669 0.00120113
12.91711 872.78674 866.304486 750.293357 0.001145755
12.92591 946.65887 938.247166 750.681538 0.001056347
12.93472 1075.3176 1069.635017 751.071202 0.000929958
12.94352 1306.252 1278.904023 751.462385 0.000765549
12.95232 1618.6288 1553.653644 751.854942 0.000617807
12.96112 1906.6328 1821.722008 752.249041 0.000524485
12.96992 2015.9838 1941.377112 752.644537 0.000496036
12.97873 1849.9419 1823.646866 753.041417 0.000540558
12.98753 1556.1399 1569.487863 753.439806 0.000642616
12.99633 1298.5161 1324.853109 753.839554 0.00077011
13.00513 1160.3191 1164.612658 754.240695 0.000861832
13.01393 1119.5602 1100.792123 754.643215 0.000893208
13.02274 1125.0375 1105.152816 755.047146 0.000888859
13.03154 1131.0408 1126.939345 755.452382 0.000884141
13.04034 1110.2047 1117.730399 755.858907 0.000900735
13.04914 1055.9794 1068.814189 756.266847 0.000946988
13.05795 985.49695 999.472285 756.676045 0.001014716
13.06675 923.23907 931.661198 757.086534 0.001083143
13.07555 880.43237 881.360166 757.498295 0.001135806
13.08435 857.1925 853.211643 757.911361 0.001166599
13.09315 847.45032 844.267013 758.325572 0.00118001
13.10196 847.61774 847.884484 758.741052 0.001179777
13.11076 848.75519 854.897959 759.157783 0.001178196
13.11956 846.96613 854.655029 759.575606 0.001180685
13.12836 839.65747 843.119448 759.994691 0.001190962
13.13716 830.23328 826.867154 760.414876 0.001204481
13.14597 823.42566 813.465721 760.836238 0.001214439
13.15477 823.88892 807.219899 761.258612 0.001213756
13.16357 830.42529 810.01897 761.682123 0.001204202
13.17237 845.45996 821.856408 762.10675 0.001182788
13.18117 862.97998 840.241728 762.532328 0.001158775
13.18998 878.8465 858.665295 762.959028 0.001137855
13.19878 887.14191 866.09743 763.386684 0.001127215
13.20758 879.87097 855.941041 763.815321 0.00113653
13.21638 861.45673 835.366977 764.244918 0.001160824
13.22518 840.99347 814.631809 764.675452 0.00118907
13.23399 821.86707 798.903363 765.1069 0.001216742
13.24279 806.53015 789.045812 765.539239 0.001239879
13.25159 796.74493 783.713379 765.972493 0.001255107
13.26039 789.07367 781.093697 766.406541 0.001267309
13.26920 785.05157 779.865026 766.841408 0.001273802
13.27800 783.33698 779.31156 767.277069 0.00127659
13.28680 781.65649 779.152355 767.713498 0.001279334
13.29560 780.49725 779.306055 768.150671 0.001281234
13.30440 781.25275 779.76295 768.588562 0.001279995
13.31321 782.01459 780.503726 769.027196 0.001278749
13.32201 782.1391 781.434434 769.466396 0.001278545
13.33081 782.30566 782.335206 769.906336 0.001278273
13.33961 782.74774 782.949121 770.346839 0.001277551
13.34841 782.66052 783.310354 770.787878 0.001277693
13.35722 782.13104 783.724906 771.229577 0.001278558
13.36602 781.70367 784.463628 771.671757 0.001279257
13.37482 782.052 785.74178 772.114492 0.001278687
13.38362 784.09167 787.865576 772.557602 0.001275361
13.39243 786.77344 791.455767 773.001262 0.001271014
13.40123 792.05695 797.629003 773.445291 0.001262535
13.41003 798.9267 807.989578 773.88966 0.001251679
13.41883 811.29639 824.24119 774.334494 0.001232595
13.42763 825.48114 847.468958 774.77961 0.001211415
13.43644 841.45959 876.907037 775.225031 0.001188411
13.44524 859.96393 908.959953 775.670726 0.001162839
13.45404 889.40503 940.90497 776.116718 0.001124347
13.46284 917.53027 971.008925 776.562825 0.001089882
13.47164 931.62537 988.00973 777.009168 0.001073393
13.48045 920.41168 975.198425 777.455718 0.00108647
13.48925 888.70215 935.908074 777.902292 0.001125236
13.49805 857.77301 890.21993 778.349063 0.00116581
13.50685 833.69421 852.363439 778.795848 0.001199481
13.51566 817.86603 827.088825 779.242718 0.001222694
13.52446 808.71924 813.50263 779.689491 0.001236523
13.53326 804.15045 808.619145 780.136287 0.001243548
13.54206 802.51404 809.723042 780.583076 0.001246084
13.55086 803.50983 814.786413 781.029674 0.00124454
13.55967 806.03589 821.623336 781.476253 0.00124064
13.56847 807.77655 826.809285 781.922631 0.001237966
13.57727 807.45349 826.484821 782.368825 0.001238461
13.58607 805.25995 820.598096 782.814805 0.001241835
13.59487 802.36139 812.802465 783.26054 0.001246321
13.60368 799.13452 806.028636 783.705997 0.001251354
13.61248 796.58215 801.408447 784.151146 0.001255363
13.62128 794.6676 798.868872 784.596006 0.001258388
13.63008 793.11157 797.814913 785.040443 0.001260857
13.63889 792.34534 797.637746 785.484477 0.001262076
13.64769 792.20593 797.939641 785.928075 0.001262298
13.65649 792.26477 798.524329 786.371208 0.001262204
13.66529 793.34186 799.317528 786.813842 0.001260491
13.67409 794.76233 800.302132 787.255946 0.001258238
13.68290 796.5481 801.4919 787.697539 0.001255417
13.69170 798.79321 802.915915 788.138438 0.001251888
13.70050 801.82312 804.625546 788.578814 0.001247158
13.70930 805.52283 806.703295 789.018483 0.00124143
13.71810 810.62512 809.290348 789.457414 0.001233616
13.72691 817.72351 812.672547 789.895727 0.001222907
13.73571 826.25458 817.452988 790.33324 0.001210281
13.74451 838.27789 824.918264 790.77002 0.001192922
13.75331 854.64105 837.504561 791.205889 0.001170082
13.76211 879.34204 859.260466 791.641014 0.001137214
13.77092 914.45062 895.587549 792.075214 0.001093553
13.77972 964.74261 951.532977 792.50846 0.001036546
13.78852 1028.1611 1028.085994 792.940867 0.00097261
13.79732 1101.6289 1117.762089 793.372259 0.000907747
13.80612 1176.6414 1202.724097 793.802654 0.000849877
13.81493 1227.6926 1257.820159 794.232021 0.000814536
13.82373 1231.8588 1264.892323 794.660378 0.000811781
13.83253 1184.4414 1215.515114 795.087551 0.00084428
13.84133 1102.5637 1124.289209 795.513655 0.000906977
13.85014 1015.334 1026.894437 795.938659 0.000984898
13.85894 951.01935 947.926136 796.362438 0.001051503
13.86774 905.52228 894.294839 796.785011 0.001104335
13.87654 876.3186 862.648442 797.206348 0.001141137
13.88534 856.9082 845.957418 797.626469 0.001166986
13.89415 844.37823 837.800502 798.045201 0.001184303
13.90295 836.01892 834.047902 798.462659 0.001196145
13.91175 832.06744 832.604441 798.878815 0.001201826
13.92055 830.42322 832.60113 799.293499 0.001204205
13.92935 831.18707 833.777487 799.70687 0.001203099
13.93816 833.6344 836.233894 800.118762 0.001199567
13.94696 838.8988 840.530458 800.529193 0.001192039
13.95576 848.31335 848.153734 800.938137 0.00117881
13.96456 865.14941 862.305679 801.345567 0.00115587
13.97337 892.96698 888.502197 801.751502 0.001119862
13.98217 936.36761 933.623111 802.155778 0.001067957
13.99097 996.95386 1002.261493 802.558552 0.001003055
13.99977 1073.3036 1090.577952 802.959663 0.000931703
14.00857 1146.8568 1179.589509 803.35913 0.000871948
14.01738 1186.0874 1232.515531 803.756929 0.000843108
14.02618 1178.7646 1219.927443 804.153034 0.000848346
14.03498 1145.1259 1162.14706 804.547422 0.000873266
14.04378 1114.9674 1107.447586 804.940069 0.000896887
14.05259 1115.8527 1094.185944 805.330995 0.000896176
14.06139 1165.0532 1143.731489 805.720044 0.00085833
14.07019 1269.1637 1258.076934 806.10737 0.00078792
14.07899 1427.012 1413.701669 806.492818 0.000700765
14.08779 1576.2656 1554.38774 806.87641 0.000634411
14.09660 1631.1805 1599.242406 807.258124 0.000613053
14.10540 1545.9226 1515.099072 807.63794 0.000646863
14.11420 1397.6597 1361.633344 808.015878 0.000715482
14.12300 1262.7946 1213.561011 808.39179 0.000791894
14.13180 1171.9868 1111.239907 808.765826 0.000853252
14.14061 1120.4561 1064.783942 809.137838 0.000892494
14.14941 1092.1353 1063.688297 809.507809 0.000915637
14.15821 1080.6405 1083.720962 809.875844 0.000925377
14.16701 1069.5691 1092.41504 810.241799 0.000934956
14.17581 1056.5276 1066.955023 810.605699 0.000946497
14.18462 1030.3499 1015.42029 810.967525 0.000970544
14.19342 998.67883 959.64083 811.327302 0.001001323
14.20222 963.57544 913.638589 811.684929 0.001037801
14.21102 935.86322 881.944545 812.040393 0.001068532
14.21983 912.02838 863.158715 812.393797 0.001096457
14.22863 896.05615 853.651706 812.745006 0.001116001
14.23743 884.23865 850.163088 813.094045 0.001130916
14.24623 878.04236 850.658699 813.440899 0.001138897
14.25503 875.69476 853.878682 813.785555 0.00114195
14.26384 877.08008 858.513338 814.127998 0.001140147
14.27264 881.86725 862.628208 814.468217 0.001133958
14.28144 885.79913 864.449221 814.806236 0.001128924
14.29024 888.13043 865.103756 815.141928 0.001125961
14.29904 890.85687 868.587433 815.475435 0.001122515
14.30785 897.42902 878.520047 815.806632 0.001114294
14.31665 908.86334 896.012718 816.135546 0.001100275
14.32545 922.5434 918.283424 816.462168 0.00108396
14.33425 934.41901 937.438265 816.786486 0.001070184
14.34305 934.68188 942.514535 817.10853 0.001069883
14.35186 926.25189 929.88326 817.428181 0.00107962
14.36066 909.20929 908.392785 817.745576 0.001099857
14.36946 893.15094 888.399453 818.0606 0.001119632
14.37826 881.28253 875.793736 818.373281 0.00113471
14.38706 876.35529 872.703371 818.683614 0.00114109
14.39587 878.29688 878.873215 818.991592 0.001138567
14.40467 886.97168 892.787684 819.297211 0.001127432
14.41347 899.55292 912.198417 819.600465 0.001111663
14.42227 915.71387 932.585979 819.901384 0.001092044
14.43108 924.15515 944.960044 820.199897 0.001082069
14.43988 920.32727 940.380046 820.496034 0.00108657
14.44868 903.51044 920.949485 820.789793 0.001106794
14.45748 883.18091 897.005099 821.081171 0.001132271
14.46628 866.14606 876.58412 821.370168 0.00115454
14.47509 856.13348 863.190048 821.656782 0.001168042
14.48389 851.22711 857.058359 821.941046 0.001174775
14.49269 850.83569 856.478364 822.222862 0.001175315
14.50149 852.32135 858.842018 822.50236 0.001173266
14.51029 854.26648 861.170822 822.779445 0.001170595
14.51910 854.59882 861.140682 823.05412 0.00117014
14.52790 852.56677 859.076509 823.32648 0.001172929
14.53670 850.35638 857.473581 823.596436 0.001175978
14.54550 849.30939 858.836577 823.864021 0.001177427
14.55430 850.96472 865.161039 824.12924 0.001175137
14.56311 857.62128 877.692558 824.392098 0.001166016
14.57191 870.70154 896.406784 824.652629 0.001148499
14.58071 888.76819 919.478517 824.91075 0.001125153
14.58951 904.4444 942.268169 825.166585 0.001105651
14.59832 911.849 957.79791 825.420053 0.001096673
14.60712 908.60535 963.742595 825.671191 0.001100588
14.61592 903.16052 965.308957 825.920007 0.001107223
14.62472 899.54858 966.020281 826.16651 0.001111669
14.63352 899.99335 963.342597 826.410707 0.001111119
14.64233 901.74823 955.534237 826.652609 0.001108957
14.65113 908.55029 948.933736 826.892254 0.001100655
14.65993 919.60175 951.761731 827.12957 0.001087427
14.66873 940.9646 966.635259 827.364676 0.001062739
14.67754 965.05859 988.401897 827.597505 0.001036207
14.68634 980.78485 1003.97256 827.828094 0.001019592
14.69514 972.94678 999.033191 828.056457 0.001027805
14.70394 949.9856 973.716443 828.282607 0.001052648
14.71274 922.93604 941.412526 828.506583 0.001083499
14.72155 904.95502 914.210889 828.728325 0.001105027
14.73035 892.56927 898.426165 828.947946 0.001120361
14.73915 887.22595 895.552862 829.165389 0.001127109
14.74795 886.15436 903.353071 829.380693 0.001128472
14.75675 891.2691 916.64719 829.593876 0.001121996
14.76556 895.76477 927.86047 829.804954 0.001116365
14.77436 898.82025 928.997592 830.013945 0.00111257
14.78316 896.93121 917.651069 830.220867 0.001114913
14.79196 890.30487 899.526989 830.425761 0.001123211
14.80077 880.16278 881.481275 830.6286 0.001136153
14.80957 871.29218 867.247976 830.829404 0.001147721
14.81837 863.93933 857.792202 831.028262 0.001157489
14.82717 858.58618 852.443582 831.225125 0.001164705
14.83597 855.24445 849.961473 831.420037 0.001169256
14.84478 853.95581 849.306252 831.61302 0.001171021
14.85358 854.30096 849.971488 831.804117 0.001170548
14.86238 857.06848 852.090838 831.993285 0.001166768
14.87118 862.08795 856.514958 832.180613 0.001159974
14.87998 870.26312 864.920037 832.366123 0.001149078
14.88879 884.00238 879.601704 832.549775 0.001131219
14.89759 904.20813 902.65407 832.731677 0.00110594
14.90639 932.45367 934.366517 832.911791 0.001072439
14.91519 967.6424 971.169801 833.090184 0.00103344
14.92399 1001.4381 1003.800711 833.26682 0.000998564
14.93280 1019.1226 1020.105962 833.441785 0.000981236
14.94160 1015.065 1013.977381 833.615105 0.000985159
14.95040 990.86371 989.007561 833.786748 0.001009221
14.95920 961.86957 955.866075 833.956819 0.001039642
14.96800 932.64221 925.377701 834.125287 0.001072223
14.97681 911.10168 902.856835 834.2922 0.001097572
14.98561 897.30347 888.636091 834.457584 0.00111445
14.99441 890.05444 880.797708 834.621469 0.001123527
15.00321 885.22815 877.964422 834.783884 0.001129652
15.01201 883.04865 879.707141 834.944858 0.00113244
15.02082 883.18158 885.428826 835.104438 0.00113227
15.02962 886.52502 893.626333 835.262618 0.001128
15.03842 891.42316 901.618642 835.419446 0.001121802
15.04722 898.31848 906.99139 835.574953 0.001113191
15.05603 906.11145 911.278504 835.72917 0.001103617
15.06483 917.93585 919.602475 835.882128 0.001089401
15.07363 935.06769 935.778696 836.033858 0.001069441
15.08243 956.40857 959.378109 836.184409 0.001045578
15.09123 975.51367 984.539444 836.333762 0.001025101
15.10004 986.51538 1000.620598 836.482017 0.001013669
15.10884 981.58112 1000.199756 836.629155 0.001018765
15.11764 969.03363 987.814062 836.775211 0.001031956
15.12644 950.59436 971.99873 836.920265 0.001051973
15.13524 934.72687 955.594579 837.064303 0.001069831
15.14405 917.92212 936.773758 837.20739 0.001089417
15.15285 901.23969 915.712902 837.349511 0.001109583
15.16165 884.00323 895.740567 837.490765 0.001131218
15.17045 871.69629 879.455288 837.631138 0.001147189
15.17925 862.6095 867.660255 837.770663 0.001159273
15.18806 857.40967 859.973388 837.909423 0.001166304
15.19686 853.70502 855.407174 838.047405 0.001171365
15.20566 851.03088 852.875264 838.18466 0.001175045
15.21446 849.10236 851.527561 838.321222 0.001177714
15.22327 848.96295 850.841158 838.457142 0.001177908
15.23207 849.43854 850.549881 838.592408 0.001177248
15.24087 850.38531 850.539404 838.727103 0.001175938
15.24967 852.13123 850.790654 838.861261 0.001173528
15.25848 854.57019 851.351111 838.994888 0.001170179
15.26728 857.24438 852.384052 839.128033 0.001166528
15.27608 860.64935 854.257483 839.260734 0.001161913
15.28488 866.50696 857.654534 839.39304 0.001154059
15.29368 874.30786 863.585829 839.524942 0.001143762
15.30249 884.89032 873.151083 839.656521 0.001130084
15.31129 896.64911 886.953963 839.787813 0.001115263
15.32009 912.43689 904.317664 839.918809 0.001095966
15.32889 929.52997 922.531798 840.049604 0.001075813
15.33769 947.30389 936.525193 840.18019 0.001055627
15.34650 961.7356 941.681696 840.310617 0.001039787
15.35530 970.18085 939.372868 840.440922 0.001030736
15.36410 972.07471 935.083109 840.57114 0.001028728
15.37290 972.52435 931.806426 840.701321 0.001028252
15.38170 965.50952 928.026517 840.831457 0.001035723
15.39051 953.87457 920.228915 840.961643 0.001048356
15.39931 937.64795 908.116082 841.09187 0.001066498
15.40811 921.12109 894.908091 841.222189 0.001085634
15.41691 905.52448 883.502917 841.352634 0.001104332
15.42572 894.57092 875.150532 841.483242 0.001117854
15.43452 885.70544 869.824893 841.614047 0.001129044
15.44332 880.40283 866.878309 841.745085 0.001135844
15.45212 876.75916 865.645998 841.876405 0.001140564
15.46092 876.24518 865.656432 842.007998 0.001141233
15.46973 876.76544 866.651606 842.139958 0.001140556
15.47853 879.14838 868.590788 842.272274 0.001137464
15.48733 883.49414 871.671187 842.404997 0.001131869
15.49613 889.71832 876.425688 842.538159 0.001123951
15.50493 900.32214 883.87926 842.671796 0.001110714
15.51374 913.3241 895.629961 842.805956 0.001094902
15.52254 933.35999 913.695238 842.940627 0.001071398
15.53134 959.65155 940.110043 843.075904 0.001042045
15.54014 994.89294 976.53336 843.211773 0.001005133
15.54894 1038.9836 1024.196446 843.348267 0.000962479
15.55775 1097.4813 1084.219962 843.485466 0.000911177
15.56655 1164.7194 1160.132887 843.623355 0.000858576
15.57535 1260.4806 1261.454671 843.761981 0.000793348
15.58415 1379.5168 1396.098966 843.901377 0.000724891
15.59296 1537.579 1555.656758 844.04159 0.000650373
15.60176 1686.9008 1704.311224 844.182604 0.000592803
15.61056 1765.0177 1779.148402 844.324496 0.000566567
15.61936 1706.4868 1731.419059 844.467298 0.000585999
15.62816 1561.3831 1582.878371 844.611007 0.000640458
15.63697 1380.2275 1397.093683 844.75567 0.000724518
15.64577 1242.4175 1225.00662 844.901317 0.000804882
15.65457 1132.0004 1091.635011 845.047992 0.000883392
15.66337 1058.412 1001.390382 845.195674 0.000944812
15.67217 1005.025 946.414302 845.344443 0.000995
15.68098 966.6123 915.157514 845.494326 0.001034541
15.68978 940.03308 897.652963 845.6453 0.001063792
15.69858 919.35742 887.358639 845.79746 0.001087716
15.70738 906.25409 880.721557 845.950782 0.001103443
15.71618 895.77863 876.028352 846.105309 0.001116347
15.72499 889.14124 872.494283 846.261068 0.001124681
15.73379 882.57642 869.756315 846.418083 0.001133046
15.74259 877.96423 867.6085 846.576397 0.001138999
15.75139 873.78424 865.92867 846.735982 0.001144447
15.76020 871.16443 864.641093 846.896933 0.001147889
15.76900 869.11938 863.707716 847.05922 0.00115059
15.77780 868.32379 863.165218 847.222883 0.001151644
15.78660 867.18146 863.125928 847.387947 0.001153161
15.79540 867.11713 863.853394 847.554432 0.001153247
15.80421 866.87805 865.786762 847.722361 0.001153565
15.81301 867.45862 869.487676 847.891754 0.001152793
15.82181 869.6593 875.428236 848.062651 0.001149876
15.83061 874.34265 883.612193 848.235015 0.001143716
15.83942 880.67023 893.128166 848.408943 0.001135499
15.84822 886.83191 901.811967 848.584395 0.001127609
15.85702 889.64825 906.588996 848.761409 0.00112404
15.86582 887.2641 905.125295 848.940003 0.00112706
15.87462 882.24615 898.140278 849.120195 0.001133471
15.88343 876.56958 888.903997 849.302022 0.001140811
15.89223 871.73224 880.428887 849.485437 0.001147141
15.90103 868.10437 874.29787 849.670541 0.001151935
15.90983 866.56439 870.83077 849.857284 0.001153982
15.91863 865.48358 869.441429 850.045682 0.001155423
15.92744 865.25775 869.023444 850.235812 0.001155725
15.93624 864.32196 868.411494 850.427624 0.001156976
15.94504 863.19598 867.065428 850.62115 0.001158485
15.95384 862.19122 865.268357 850.816405 0.001159836
15.96265 862.81787 863.533362 851.01342 0.001158993
15.97145 862.96576 862.218087 851.212163 0.001158795
15.98025 863.37781 861.505989 851.412644 0.001158241
15.98905 864.27972 861.486784 851.614939 0.001157033
15.99785 865.91974 862.28113 851.81899 0.001154841
16.00665 868.43036 864.061938 852.024828 0.001151503
16.01546 871.44836 867.039059 852.232461 0.001147515
16.02426 874.38354 871.303439 852.441919 0.001143663
16.03306 879.15442 876.588359 852.653161 0.001137457
16.04186 885.73694 882.080575 852.866217 0.001129003
16.05066 891.83984 886.371717 853.081068 0.001121278
16.05947 894.94165 887.970327 853.297767 0.001117391
16.06827 897.29193 886.710385 853.516317 0.001114464
16.07707 897.76764 884.244253 853.736674 0.001113874
16.08588 896.76178 882.486148 853.958889 0.001115123
16.09468 897.38629 882.450168 854.182914 0.001114347
16.10348 899.9408 884.036145 854.408723 0.001111184
16.11228 903.91931 886.090737 854.636446 0.001106293
16.12108 905.88141 886.803697 854.865981 0.001103897
16.12989 903.76093 885.038131 855.097377 0.001106487
16.13869 898.64581 881.40748 855.330582 0.001112785
16.14749 891.9187 877.314536 855.565646 0.001121178
16.15629 885.66217 873.816155 855.802514 0.001129099
16.16509 881.65143 871.424785 856.041153 0.001134235
16.17390 878.21906 870.250329 856.281697 0.001138668
16.18270 875.29138 870.181617 856.52403 0.001142477
16.19150 873.18219 871.040229 856.768205 0.001145236
16.20030 872.41864 872.661058 857.014158 0.001146239
16.20911 872.5752 874.878531 857.261939 0.001146033
16.21790 873.36945 877.467821 857.511427 0.001144991
16.22671 874.09344 880.095824 857.762757 0.001144042
16.23551 875.29486 882.411022 858.015892 0.001142472
16.24431 878.45703 884.452629 858.270765 0.00113836
16.25312 882.3761 886.940281 858.527424 0.001133304
16.26192 887.69073 891.139147 858.7858 0.001126518
16.27072 896.07184 898.898259 859.045942 0.001115982
16.27952 909.37054 912.913556 859.307718 0.001099662
16.28832 929.64886 936.772876 859.571265 0.001075675
16.29713 960.72662 974.314842 859.83654 0.001040879
16.30593 1006.45 1028.183422 860.103469 0.000993591
16.31473 1067.3013 1097.679072 860.3721 0.000936943
16.32353 1135.5038 1176.277106 860.642355 0.000880666
16.33233 1201.9253 1250.275612 860.91422 0.000831998
16.34114 1258.0048 1303.111154 861.18774 0.00079491
16.34994 1299.0981 1325.913173 861.462866 0.000769765
16.35874 1319.6024 1320.931497 861.739615 0.000757804
16.36754 1308.0795 1290.657937 862.017904 0.00076448
16.37635 1255.4474 1235.884481 862.297779 0.000796529
16.38515 1172.9755 1164.6245 862.579157 0.000852533
16.39395 1081.4596 1090.656503 862.862018 0.000924676
16.40275 1011.1277 1025.569079 863.146407 0.000988995
16.41155 963.36163 975.0184 863.43227 0.001038032
16.42036 932.34473 939.5106 863.719619 0.001072565
16.42916 912.55103 916.588423 864.008367 0.001095829
16.43796 900.13721 902.727645 864.298558 0.001110942
16.44676 891.69415 894.650523 864.590035 0.001121461
16.45556 885.82813 889.938756 864.882975 0.001128887
16.46437 883.03656 887.101236 865.177222 0.001132456
16.47317 881.68817 885.334027 865.472783 0.001134188
16.48197 880.64368 884.260234 865.769668 0.001135533
16.49077 879.69202 883.752549 866.067784 0.001136761
16.49958 879.9765 883.864323 866.367174 0.001136394
16.50838 881.06219 884.837388 866.667674 0.001134994
16.51718 883.80621 887.134309 866.969462 0.00113147
16.52598 886.87036 891.406836 867.272376 0.001127561
16.53478 891.67218 898.316269 867.57642 0.001121488
16.54359 897.48816 908.174688 867.881603 0.001114221
16.55239 908.40253 920.47973 868.187825 0.001100834
16.56119 919.07465 933.465866 868.495059 0.001088051
16.56999 929.43433 943.851201 868.803344 0.001075923
16.57879 932.57227 947.778163 869.112652 0.001072303
16.58760 929.55713 944.04656 869.422881 0.001075781
16.59640 921.33844 935.394061 869.734037 0.001085377
16.60520 914.02844 925.41014 870.046125 0.001094058
16.61400 907.73682 916.428225 870.359041 0.001101641
16.62280 904.02124 909.744559 870.672756 0.001106169
16.63161 901.27527 905.904948 870.987307 0.001109539
16.64041 901.10541 904.612837 871.302664 0.001109748
16.64921 900.96356 904.827061 871.618723 0.001109923
16.65801 900.17889 905.085143 871.935485 0.00111089
16.66681 898.97076 904.204755 872.252956 0.001112383
16.67562 897.44745 902.144954 872.570956 0.001114271
16.68442 895.40729 899.737267 872.889669 0.00111681
16.69322 894.64569 897.847519 873.208918 0.001117761
16.70202 894.27222 897.090013 873.52874 0.001118228
16.71082 894.86414 897.894371 873.849029 0.001117488
16.71963 897.49194 900.622674 874.169787 0.001114216
16.72843 902.00336 905.661424 874.491015 0.001108643
16.73723 908.36603 913.441795 874.812533 0.001100878
16.74603 915.70502 924.386362 875.134526 0.001092055
16.75483 926.75446 938.680182 875.456811 0.001079034
16.76364 939.9303 955.951487 875.779427 0.001063909
16.77244 956.72296 975.267352 876.102266 0.001045235
16.78124 974.27142 995.953691 876.425329 0.001026408
16.79004 994.8056 1017.357908 876.748542 0.001005222
16.79885 1015.0449 1037.147386 877.071945 0.000985178
16.80765 1034.4639 1051.816501 877.395502 0.000966684
16.81645 1051.6456 1061.018484 877.719102 0.000950891
16.82525 1066.5581 1068.952554 878.042785 0.000937595
16.83405 1083.8085 1079.763509 878.36644 0.000922672
16.84286 1101.9159 1094.973625 878.690069 0.00090751
16.85166 1124.5018 1116.185978 879.013599 0.000889283
16.86046 1159.1732 1149.461268 879.337067 0.000862684
16.86926 1228.2543 1202.693747 879.660438 0.000814164
16.87806 1325.8325 1277.966343 879.983602 0.000754243
16.88687 1435.3485 1366.390234 880.306598 0.000696695
16.89567 1512.2722 1447.443074 880.629315 0.000661257
16.90447 1544.6934 1495.569193 880.951682 0.000647378
16.91327 1519.452 1490.371154 881.273847 0.000658132
16.92207 1454.1272 1428.290509 881.595627 0.000687698
16.93088 1360.8755 1330.138661 881.91706 0.000734821
16.93968 1268.2002 1225.913971 882.238038 0.000788519
16.94848 1179.936 1137.699149 882.558599 0.000847504
16.95728 1120.865 1077.074924 882.878635 0.000892168
16.96608 1078.0341 1047.892183 883.198076 0.000927614
16.97489 1060.4139 1048.997539 883.517067 0.000943028
16.98369 1067.0024 1075.882686 883.83543 0.000937205
16.99249 1098.8112 1120.918397 884.153202 0.000910074
17.00129 1159.0731 1172.356278 884.470278 0.000862758
17.01010 1222.0536 1213.427042 884.786696 0.000818295
17.01890 1275.0543 1225.826765 885.102278 0.00078428
17.02770 1278.1803 1202.529296 885.417172 0.000782362
17.03650 1227.8867 1154.444093 885.731307 0.000814407
17.04530 1148.7772 1099.104209 886.04458 0.000870491
17.05411 1072.4993 1049.387256 886.35703 0.000932402
17.06291 1016.4877 1011.305113 886.668553 0.00098378
17.07171 981.96362 985.097192 886.979154 0.001018368
17.08051 958.82129 967.439414 887.288765 0.001042947
17.08931 944.62164 954.475585 887.597425 0.001058625
17.09812 934.29498 944.258288 887.905105 0.001070326
17.10692 928.31738 936.643007 888.211703 0.001077218
17.11572 923.68488 932.23166 888.51726 0.00108262
17.12452 922.3952 931.875394 888.821675 0.001084134
17.13333 923.83099 936.343251 889.124921 0.001082449
17.14213 930.19165 945.925269 889.427036 0.001075047
17.15093 941.86005 959.959572 889.727959 0.001061729
17.15973 956.5484 976.396298 890.027696 0.001045425
17.16853 969.2417 991.411243 890.32615 0.001031734
17.17734 973.82336 999.776121 890.623362 0.00102688
17.18614 968.33826 997.709266 890.919238 0.001032697
17.19494 957.92847 986.693969 891.213753 0.001043919
17.20374 946.79163 972.042136 891.506947 0.001056199
17.21254 939.27405 958.86027 891.798762 0.001064652
17.22135 936.83588 950.334704 892.089206 0.001067423
17.23015 939.45697 947.7847 892.378189 0.001064445
17.23895 944.41705 950.824329 892.665752 0.001058854
17.24775 949.00806 957.771205 892.951742 0.001053732
17.25656 953.37823 966.024946 893.236332 0.001048902
17.26536 955.78906 972.090131 893.519369 0.001046256
17.27416 954.90662 972.375857 893.800864 0.001047223
17.28296 951.18646 965.749236 894.080829 0.001051319
17.29177 943.31561 954.579683 894.359177 0.001060091
17.30057 933.75574 942.275311 894.635891 0.001070944
17.30937 924.63647 931.244302 894.911014 0.001081506
17.31817 917.36829 922.655947 895.184526 0.001090075
17.32697 912.03278 916.731203 895.456346 0.001096452
17.33578 908.34784 913.12382 895.726489 0.0011009
17.34458 905.51404 911.317661 895.994966 0.001104345
17.35338 904.35999 910.892958 896.261702 0.001105754
17.36218 904.00098 911.641969 896.52668 0.001106193
17.37098 905.63629 913.536936 896.789946 0.001104196
17.37979 907.52271 916.59327 897.051483 0.001101901
17.38859 910.73242 920.689528 897.311219 0.001098017
17.39739 914.8808 925.396929 897.569169 0.001093039
17.40619 920.44812 929.860513 897.825349 0.001086427
17.41499 924.49231 932.813048 898.079632 0.001081675
17.42380 925.8266 933.178522 898.332179 0.001080116
17.43260 922.9472 931.070493 898.582862 0.001083486
17.44140 918.85535 927.726965 898.83173 0.001088311
17.45020 915.27051 924.495737 899.078714 0.001092573
17.45901 914.48859 922.314698 899.323835 0.001093507
17.46781 915.46533 921.670252 899.56711 0.001092341
17.47661 917.32935 922.65191 899.808423 0.001090121
17.48541 920.29657 925.011166 900.047929 0.001086606
17.49421 924.77399 928.224278 900.285512 0.001081345
17.50302 929.27905 931.571106 900.52122 0.001076103
17.51182 932.75928 934.343082 900.754993 0.001072088
17.52062 935.21875 936.354448 900.986854 0.001069269
17.52942 937.95947 938.294453 901.216771 0.001066144
17.53822 942.6853 941.503614 901.444794 0.001060799
17.54703 949.33765 947.537502 901.670916 0.001053366
17.55583 959.72028 957.929823 901.895085 0.00104197
17.56463 974.30994 974.130892 902.11735 0.001026367
17.57343 996.34344 997.329712 902.337656 0.00100367
17.58224 1027.3811 1028.125174 902.55603 0.000973349
17.59104 1066.897 1066.266937 902.772446 0.000937298
17.59984 1112.2196 1110.780854 902.986952 0.000899103
17.60864 1163.8049 1159.43913 903.199549 0.000859251
17.61744 1216.2151 1207.769146 903.410189 0.000822223
17.62625 1265.9398 1248.665931 903.618899 0.000789927
17.63505 1293.9966 1274.134597 903.825702 0.0007728
17.64385 1302.5995 1282.269432 904.030509 0.000767696
17.65265 1293.4453 1279.009581 904.233462 0.000773129
17.66145 1290.3693 1269.173618 904.434472 0.000774972
17.67026 1275.6475 1250.928528 904.633587 0.000783916
17.67906 1250.9341 1220.623443 904.830768 0.000799403
17.68786 1208.3368 1179.394976 905.026042 0.000827584
17.69666 1158.3329 1132.29207 905.219436 0.00086331
17.70546 1106.8239 1085.244157 905.410869 0.000903486
17.71427 1061.8267 1043.457144 905.600476 0.000941773
17.72307 1024.9904 1010.000889 905.788178 0.000975619
17.73187 998.73126 985.724009 905.974024 0.00100127
17.74067 981.38092 970.329024 906.15798 0.001018972
17.74948 971.07837 963.257156 906.340073 0.001029783
17.75828 967.44623 964.41112 906.520293 0.001033649
17.76708 970.1524 974.478506 906.698687 0.001030766
17.77588 983.09485 994.637687 906.875263 0.001017196
17.78468 1004.9584 1025.603165 907.049991 0.000995066
17.79349 1039.2156 1066.265976 907.22292 0.000962264
17.80229 1084.7968 1112.345516 907.394019 0.000921832
17.81109 1131.7471 1155.320731 907.563318 0.00088359
17.81989 1168.2153 1182.699464 907.730808 0.000856007
17.82869 1178.7159 1183.393503 907.896537 0.000848381
17.83750 1156.121 1157.108033 908.060515 0.000864961
17.84630 1115.2734 1114.433227 908.222715 0.000896641
17.85510 1067.9766 1067.501194 908.383185 0.00093635
17.86390 1025.8876 1024.719756 908.541898 0.000974766
17.87270 991.09192 990.427041 908.698867 0.001008988
17.88151 966.66101 965.625332 908.854138 0.001034489
17.89031 947.16907 949.125313 909.007704 0.001055778
17.89911 934.88684 938.810099 909.159594 0.001069648
17.90791 924.41437 932.58001 909.309784 0.001081766
17.91672 918.47644 928.818675 909.45832 0.00108876
17.92552 915.17194 926.473585 909.605179 0.001092691
17.93432 913.79681 924.937051 909.750373 0.001094335
17.94312 912.55951 923.885239 909.893946 0.001095819
17.95192 911.71637 923.152119 910.035893 0.001096832
17.96073 910.64655 922.652235 910.176241 0.001098121
17.96953 909.66394 922.340283 910.314968 0.001099307
17.97833 909.89417 922.19562 910.452118 0.001099029
17.98713 910.85541 922.214592 910.587639 0.001097869
17.99593 911.65198 922.417231 910.721633 0.00109691
18.00474 913.05194 922.862105 910.854051 0.001095228
18.01354 914.68213 923.674651 910.984917 0.001093276
18.02234 917.72528 925.084917 911.114257 0.001089651
18.03114 921.07013 927.458574 911.242049 0.001085694
18.03995 926.42084 931.291373 911.368333 0.001079423
18.04875 933.3222 937.127887 911.493062 0.001071441
18.05755 943.57428 945.409121 911.616328 0.0010598
18.06635 956.83411 956.246402 911.738084 0.001045113
18.07515 976.07617 969.229019 911.858352 0.00102451
18.08396 997.90527 983.227533 911.977153 0.001002099
18.09276 1019.2207 996.386368 912.094467 0.000981142
18.10156 1033.9951 1006.98957 912.210303 0.000967123
18.11036 1043.8894 1015.052868 912.324692 0.000957956
18.11916 1050.1847 1022.081045 912.43764 0.000952213
18.12797 1057.6437 1028.850324 912.549127 0.000945498
18.13677 1064.7142 1033.980342 912.659171 0.000939219
18.14557 1065.9382 1034.592859 912.767789 0.000938141
18.15437 1058.8817 1028.884771 912.874959 0.000944393
18.16317 1045.8519 1017.681686 912.980686 0.000956158
18.17198 1028.5087 1002.924609 913.084997 0.000972282
18.18078 1005.1303 986.601681 913.187893 0.000994896
18.18958 983.24609 970.828117 913.289352 0.001017039
18.19838 966.32141 957.316606 913.389387 0.001034852
18.20719 952.95856 946.866218 913.48801 0.001049364
18.21599 942.73584 939.504857 913.585174 0.001060743
18.22479 935.80066 934.808609 913.680947 0.001068604
18.23359 932.30359 932.203466 913.775281 0.001072612
18.24239 930.50751 931.13401 913.868184 0.001074682
18.25120 929.99408 931.158069 913.959665 0.001075276
18.26000 929.85431 931.982027 914.049698 0.001075437
18.26880 930.64581 933.460019 914.138298 0.001074523
18.27760 933.30237 935.621269 914.225419 0.001071464
18.28640 937.98383 938.740458 914.311116 0.001066116
18.29521 944.07135 943.240194 914.39534 0.001059242
18.30401 953.37292 949.447189 914.478094 0.001048907
18.31281 964.81934 957.275913 914.559378 0.001036463
18.32161 978.56543 966.065459 914.639163 0.001021904
18.33041 993.24921 974.553416 914.717438 0.001006797
18.33922 1005.8095 980.962054 914.794211 0.000994224
18.34802 1009.8465 983.464867 914.869467 0.00099025
18.35682 1006.6928 981.369064 914.943177 0.000993352
18.36562 999.19824 975.671115 915.015334 0.001000802
18.37443 988.86633 968.308355 915.08593 0.001011259
18.38323 978.58746 961.222757 915.154935 0.001021881
18.39203 969.86584 955.859333 915.222331 0.00103107
18.40083 963.88458 953.16969 915.288115 0.001037469
18.40963 962.10034 953.930221 915.352268 0.001039393
18.41844 964.79102 959.153599 915.414755 0.001036494
18.42724 972.1828 970.498969 915.475563 0.001028613
18.43604 986.84436 990.467368 915.534676 0.001013331
18.44484 1011.7626 1022.141294 915.592046 0.000988374
18.45364 1049.6298 1068.370145 915.647687 0.000952717
18.46245 1103.0294 1130.194119 915.701549 0.000906594
18.47125 1167.0885 1205.053811 915.75362 0.000856833
18.48005 1236.0948 1285.067541 915.80386 0.000808999
18.48885 1294.6829 1356.739297 915.852248 0.00077239
18.49766 1332.989 1402.94947 915.898762 0.000750194
18.50646 1338.2118 1408.682709 915.943351 0.000747266
18.51526 1306.0784 1370.793457 915.986015 0.000765651
18.52406 1248.0292 1301.881723 916.026705 0.000801263
18.53286 1181.9299 1221.06011 916.065397 0.000846074
18.54167 1121.49 1143.912778 916.10205 0.000891671
18.55047 1069.7222 1079.472647 916.136634 0.000934822
18.55927 1032.9205 1031.077499 916.169114 0.000968129
18.56807 1006.049 998.048588 916.199459 0.000993987
18.57687 987.79474 977.547398 916.227635 0.001012356
18.58568 976.51331 966.173117 916.253598 0.001024052
18.59448 970.48419 960.973275 916.277317 0.001030413
18.60328 968.22064 959.860346 916.298749 0.001032822
18.61208 969.6496 961.603239 916.317858 0.0010313
18.62088 974.27173 965.700174 916.334603 0.001026408
18.62969 982.62549 972.31769 916.348948 0.001017682
18.63849 993.49329 982.421982 916.360852 0.001006549
18.64729 1009.4469 998.089125 916.370272 0.000990642
18.65609 1031.8829 1022.18047 916.377168 0.000969102
18.66490 1065.2556 1057.200483 916.381498 0.000938742
18.67370 1114.6875 1103.76005 916.383219 0.000897112
18.68250 1184.8502 1159.284248 916.38229 0.000843989
18.69130 1261.7546 1216.963595 916.378667 0.000792547
18.70010 1322.5361 1265.315146 916.372308 0.000756123
18.70891 1338.9537 1290.668394 916.363169 0.000746852
18.71771 1306.4774 1285.302045 916.351205 0.000765417
18.72651 1251.939 1253.988123 916.336376 0.000798761
18.73531 1194.239 1208.765863 916.318639 0.000837353
18.74411 1144.3799 1160.145214 916.297946 0.000873836
18.75292 1104.1636 1114.483484 916.274255 0.000905663
18.76172 1069.8702 1075.242215 916.24752 0.000934693
18.77052 1042.1631 1043.60856 916.217703 0.000959543
18.77932 1018.6378 1018.617113 916.184755 0.000981703
18.78812 999.72809 998.389636 916.148648 0.001000272
18.79693 984.01013 981.643453 916.109321 0.00101625
18.80573 971.97943 967.92542 916.066735 0.001028828
18.81453 962.53711 957.026927 916.020857 0.001038921
18.82333 955.73871 948.691561 915.971636 0.001046311
18.83214 949.76483 942.595477 915.919044 0.001052892
18.84094 945.09161 938.369686 915.863029 0.001058098
18.84974 941.01648 935.66086 915.803579 0.001062681
18.85854 938.44464 934.19654 915.740623 0.001065593
18.86734 936.71698 933.8493 915.67413 0.001067558
18.87615 935.03076 934.6483 915.604079 0.001069484
18.88495 934.86243 936.741036 915.53042 0.001069676
18.89375 936.79022 940.286082 915.453136 0.001067475
18.90255 939.87054 945.31536 915.372198 0.001063976
18.91135 944.25244 951.583062 915.287555 0.001059039
18.92016 949.95386 958.438961 915.199189 0.001052683
18.92896 956.14001 964.75713 915.107062 0.001045872
18.93776 960.45685 969.057668 915.011168 0.001041171
18.94656 961.45337 970.237243 914.911463 0.001040092
18.95537 959.46112 968.499227 914.807947 0.001042252
18.96417 957.03662 965.137686 914.700602 0.001044892
18.97297 953.54193 961.451106 914.589387 0.001048722
18.98177 951.30652 958.11625 914.474298 0.001051186
18.99057 949.2226 955.188871 914.355309 0.001053494
18.99938 949.14911 952.521098 914.232436 0.001053575
19.00818 948.78741 950.318949 914.105644 0.001053977
19.01698 950.2063 949.309608 913.974986 0.001052403
19.02578 952.83759 950.506128 913.840373 0.001049497
19.03458 958.15784 955.069535 913.701863 0.001043669
19.04339 966.88898 964.25476 913.559447 0.001034245
19.05219 979.5979 979.232235 913.413114 0.001020827
19.06099 997.6994 1000.715475 913.262908 0.001002306
19.06979 1023.9044 1028.462146 913.108808 0.000976654
19.07859 1055.9871 1060.876985 912.950905 0.000946981
19.08740 1090.3683 1094.854559 912.78911 0.000917121
19.09620 1123.8767 1125.337669 912.623522 0.000889777
19.10500 1147.8788 1145.671057 912.454151 0.000871172
19.11380 1147.0356 1150.557351 912.28101 0.000871813
19.12261 1135.4725 1139.997484 912.104175 0.000880691
19.13141 1113.3138 1118.326721 911.92369 0.000898219
19.14021 1083.6614 1090.143304 911.739559 0.000922797
19.14901 1052.8186 1058.944594 911.551832 0.000949831
19.15781 1023.4558 1028.028825 911.360606 0.000977082
19.16662 996.03137 1000.340232 911.165921 0.001003984
19.17542 975.35803 977.616673 910.967819 0.001025265
19.18422 961.01593 960.247871 910.766415 0.001040565
19.19302 949.92352 947.758612 910.561785 0.001052716
19.20182 942.03131 939.269459 910.353965 0.001061536
19.21063 937.72278 933.810664 910.143038 0.001066413
19.21943 935.0827 930.506868 909.929145 0.001069424
19.22823 933.08569 928.665025 909.71236 0.001071713
19.23703 932.0304 927.822314 909.49276 0.001072926
19.24583 930.82166 927.768236 909.270556 0.00107432
19.25464 930.26654 928.583987 909.045712 0.001074961
19.26344 931.0976 930.663702 908.818451 0.001074001
19.27224 933.04053 934.678092 908.588848 0.001071765
19.28104 936.26563 941.469197 908.357092 0.001068073
19.28985 940.90405 951.867699 908.123296 0.001062808
19.29865 948.3067 966.391128 907.887582 0.001054511
19.30745 959.74847 984.868477 907.650211 0.00104194
19.31625 975.19879 1006.123275 907.411183 0.001025432
19.32505 993.16949 1027.651727 907.170774 0.001006877
19.33386 1012.2274 1045.642944 906.929104 0.00098792
19.34266 1028.8147 1055.97395 906.686412 0.000971992
19.35146 1038.9677 1056.748969 906.442859 0.000962494
19.36026 1039.2799 1049.711739 906.198669 0.000962205
19.36906 1031.574 1038.414657 905.953991 0.000969392
19.37787 1022.9253 1025.639319 905.709038 0.000977588
19.38667 1015.4783 1012.492732 905.464083 0.000984758
19.39547 1008.4175 999.092431 905.219298 0.000991653
19.40427 999.24304 985.941477 904.974972 0.001000758
19.41307 989.61804 974.205525 904.731376 0.001010491
19.42188 981.1026 964.952893 904.48862 0.001019261
19.43068 974.58307 958.669328 904.247073 0.00102608
19.43948 970.29169 955.254307 904.006944 0.001030618
19.44828 968.1908 954.16184 903.768562 0.001032854
19.45709 966.59027 954.684243 903.532153 0.001034565
19.46589 965.96594 956.326076 903.298059 0.001035233
19.47469 966.25525 958.818643 903.066601 0.001034923
19.48349 967.69775 961.720725 902.837952 0.001033381
19.49229 969.13934 964.118054 902.612529 0.001031843
19.50110 969.65057 964.734127 902.3906 0.001031299
19.50990 967.31262 962.644573 902.172541 0.001033792
19.51870 963.40045 958.131716 901.958639 0.00103799
19.52750 958.73364 952.479173 901.74933 0.001043043
19.53630 953.94897 946.98266 901.544843 0.001048274
19.54511 950.21088 942.380614 901.345561 0.001052398
19.55391 947.87219 938.764715 901.151892 0.001054995
19.56271 945.57709 935.69982 900.964162 0.001057555
19.57151 942.45679 932.612373 900.782793 0.001061057
19.58032 939.56305 929.289093 900.608126 0.001064325
19.58912 936.64026 926.023259 900.440628 0.001067646
19.59792 934.14929 923.337514 900.2806 0.001070493
19.60672 932.29926 921.779424 900.128467 0.001072617
19.61552 930.9718 921.864135 899.984671 0.001074146
19.62433 930.99084 924.039155 899.849593 0.001074124
19.63313 932.84955 928.608929 899.723685 0.001071984
19.64193 936.599 935.621271 899.607367 0.001067693
19.65073 942.77997 944.752549 899.50104 0.001060693
19.65953 950.8009 955.21246 899.405153 0.001051745
19.66834 960.77582 965.686263 899.320133 0.001040826
19.67714 970.77954 974.442835 899.246441 0.0010301
19.68594 975.79938 979.999207 899.184502 0.001024801
19.69474 974.60364 982.361883 899.134779 0.001026058
19.70354 972.03033 983.363961 899.097715 0.001028774
19.71235 972.7915 985.352751 899.073753 0.00102797
19.72115 979.19208 989.784521 899.063348 0.00102125
19.72995 993.5531 996.634972 899.066955 0.001006489
19.73875 1009.0409 1004.263576 899.085026 0.00099104
19.74756 1015.4554 1009.624876 899.118015 0.00098478
19.75636 1015.1107 1009.374176 899.166354 0.000985114
19.76516 1002.6091 1002.016054 899.230525 0.000997398
19.77396 982.59619 989.026737 899.310949 0.001017712
19.78276 964.86517 973.436371 899.408077 0.001036414
19.79157 951.19287 958.055893 899.522361 0.001051311
19.80037 939.98041 944.825504 899.654209 0.001063852
19.80917 933.33374 934.819288 899.804079 0.001071428
19.81797 929.52167 928.394651 899.972318 0.001075822
19.82678 926.58875 925.378649 900.159455 0.001079227
19.83558 925.8479 925.273889 900.365816 0.001080091
19.84438 927.10645 927.391429 900.591817 0.001078625
19.85318 929.23303 930.920258 900.837872 0.001076156
19.86198 933.21997 934.92201 901.104298 0.001071559
19.87079 936.81055 938.338963 901.391448 0.001067452
19.87959 938.26434 940.221708 901.699732 0.001065798
19.88839 937.6261 940.230097 902.029488 0.001066523
19.89719 935.54132 938.842523 902.380955 0.0010689
19.90599 932.98175 936.910575 902.754464 0.001071832
19.91480 931.87537 935.185696 903.150336 0.001073105
19.92360 932.29755 934.194335 903.568737 0.001072619
19.93240 933.62451 934.226172 904.009889 0.001071094
19.94120 935.80676 935.235571 904.474102 0.001068597
19.95001 938.20319 936.777692 904.961564 0.001065867
19.95881 940.2533 938.085183 905.472319 0.001063543
19.96761 941.48334 938.345358 906.006544 0.001062154
19.97641 941.18695 937.23092 906.564399 0.001062488
19.98521 939.41711 935.165458 907.145681 0.00106449
19.99402 937.53613 933.000535 907.750811 0.001066626
20.00282 935.70557 931.582879 908.37951 0.001068712
20.01162 934.52515 931.560616 909.031868 0.001070062
20.02042 934.67108 933.313263 909.707644 0.001069895
20.02922 937.25867 936.913619 910.406772 0.001066941
20.03803 942.02466 942.094989 911.129151 0.001061543
20.04683 947.47803 948.229044 911.874213 0.001055433
20.05563 954.15094 954.354923 912.642181 0.001048052
20.06443 960.37543 959.340828 913.432376 0.001041259
20.07324 962.91266 962.328804 914.244581 0.001038516
20.08204 962.6543 963.098876 915.078158 0.001038795
20.09084 961.84589 962.025549 915.932681 0.001039668
20.09964 959.94934 959.745646 916.807465 0.001041722
20.10844 957.28339 956.800187 917.702059 0.001044623
20.11725 954.66998 953.498994 918.615747 0.001047482
20.12605 951.06744 950.05612 919.547523 0.00105145
20.13485 946.47491 946.655266 920.496721 0.001056552
20.14365 942.23083 943.410935 921.462168 0.001061311
20.15245 938.40723 940.420012 922.442925 0.001065635
20.16126 935.15906 937.826689 923.437747 0.001069337
20.17006 932.97253 935.76191 924.445631 0.001071843
20.17886 932.59808 934.283236 925.465258 0
20.18766 933.08722 0 0 0
20.19646 934.45581 0 0 0
20.20527 936.4176 0 0 0
20.21407 938.62805 0 0 0
20.22287 940.61664 0 0 0
20.23167 942.27271 0 0 0
20.24047 943.27521 0 0 0
20.24928 943.71185 0 0 0
20.25808 944.41125 0 0 0
20.26688 945.3941 0 0 0
20.27568 944.87128 0 0 0
20.28449 943.30652 0 0 0
20.29329 941.83923 0 0 0
20.30209 938.76849 0 0 0
20.31089 934.31555 0 0 0
20.31969 930.67816 0 0 0
20.32850 928.00726 0 0 0
20.33730 926.0932 0 0 0
20.34610 925.7467 0 0 0
20.35490 927.01709 0 0 0
20.36370 929.25165 0 0 0
20.37251 933.57916 0 0 0
20.38131 938.74457 0 0 0
20.39011 945.86823 0 0 0
20.39891 952.47992 0 0 0
20.40771 958.35309 0 0 0
20.41652 961.7074 0 0 0
20.42532 961.97388 0 0 0
20.43412 958.98126 0 0 0
20.44292 952.86554 0 0 0
20.45172 945.38312 0 0 0
20.46053 939.00006 0 0 0
20.46933 934.08099 0 0 0
20.47813 930.85095 0 0 0
20.48693 928.77966 0 0 0
20.49574 928.31396 0 0 0
20.50454 928.34454 0 0 0
20.51334 929.95679 0 0 0
20.52214 932.92847 0 0 0
20.53094 936.54816 0 0 0
20.53975 939.52521 0 0 0
20.54855 943.75208 0 0 0
20.55735 947.9447 0 0 0
20.56615 954.65082 0 0 0
20.57495 964.05859 0 0 0
20.58376 977.82422 0 0 0
20.59256 996.09943 0 0 0
20.60136 1019.7189 0 0 0
20.61016 1047.8485 0 0 0
20.61896 1079.8571 0 0 0
20.62777 1111.2338 0 0 0
20.63657 1136.6504 0 0 0
20.64537 1143.0331 0 0 0
20.65417 1126.5543 0 0 0
20.66298 1094.4666 0 0 0
20.67178 1058.5347 0 0 0
20.68058 1024.3656 0 0 0
20.68938 999.37323 0 0 0
20.69818 981.02917 0 0 0
20.70699 968.73755 0 0 0
20.71579 959.86676 0 0 0
20.72459 953.03461 0 0 0
20.73339 948.25934 0 0 0
20.74219 945.60095 0 0 0
20.75100 944.44318 0 0 0
20.75980 944.6756 0 0 0
20.76860 945.966 0 0 0
20.77741 948.26056 0 0 0
20.78620 951.8573 0 0 0
20.79501 957.18701 0 0 0
20.80381 963.80139 0 0 0
20.81261 969.96631 0 0 0
20.82141 975.43872 0 0 0
20.83022 979.28009 0 0 0
20.83902 980.32642 0 0 0
20.84782 980.82959 0 0 0
20.85662 982.89728 0 0 0
20.86542 985.82123 0 0 0
20.87423 987.00958 0 0 0
20.88303 983.11401 0 0 0
20.89183 974.32111 0 0 0
20.90063 963.15283 0 0 0
20.90943 952.11127 0 0 0
20.91824 942.63629 0 0 0
20.92704 936.52655 0 0 0
20.93584 932.74689 0 0 0
20.94465 930.51477 0 0 0
20.95345 929.37408 0 0 0
20.96225 928.85925 0 0 0
20.97105 929.67236 0 0 0
20.97985 931.51697 0 0 0
20.98866 933.81329 0 0 0
20.99746 937.58295 0 0 0
21.00626 941.75488 0 0 0
21.01506 944.74011 0 0 0
21.02386 945.87811 0 0 0
21.03267 946.43445 0 0 0
21.04147 944.74573 0 0 0
21.05027 941.6994 0 0 0
21.05907 938.52112 0 0 0
21.06788 936.09265 0 0 0
21.07668 934.87805 0 0 0
21.08548 934.0437 0 0 0
21.09428 933.18024 0 0 0
21.10308 931.80682 0 0 0
21.11189 931.20825 0 0 0
21.12069 931.94055 0 0 0
21.12949 934.3111 0 0 0
21.13829 939.30676 0 0 0
21.14709 944.83508 0 0 0
21.15590 951.70514 0 0 0
21.16470 958.98041 0 0 0
21.17350 968.62231 0 0 0
21.18230 978.09937 0 0 0
21.19110 987.46063 0 0 0
21.19991 995.53546 0 0 0
21.20871 1003.1705 0 0 0
21.21751 1010.7728 0 0 0
21.22631 1019.5291 0 0 0
21.23512 1028.2902 0 0 0
21.24392 1040.4653 0 0 0
21.25272 1052.8564 0 0 0
21.26152 1064.0305 0 0 0
21.27032 1067.2758 0 0 0
21.27913 1063.7471 0 0 0
21.28793 1054.4008 0 0 0
21.29673 1039.4148 0 0 0
21.30553 1019.5845 0 0 0
21.31433 1000.1241 0 0 0
21.32314 984.57739 0 0 0
21.33194 973.7265 0 0 0
21.34074 970.72546 0 0 0
21.34954 976.99469 0 0 0
21.35834 991.08954 0 0 0
21.36715 1006.8636 0 0 0
21.37595 1011.2883 0 0 0
21.38475 1002.8171 0 0 0
21.39355 991.53802 0 0 0
21.40236 981.58557 0 0 0
21.41116 976.27942 0 0 0
21.41996 974.54156 0 0 0
21.42876 975.11639 0 0 0
21.43756 975.81396 0 0 0
21.44637 977.23541 0 0 0
21.45517 978.60992 0 0 0
21.46397 978.65875 0 0 0
21.47277 978.20941 0 0 0
21.48157 977.91156 0 0 0
21.49038 976.50873 0 0 0
21.49918 976.55823 0 0 0
21.50798 976.96942 0 0 0
21.51678 976.85175 0 0 0
21.52558 975.41376 0 0 0
21.53439 973.18805 0 0 0
21.54319 971.32306 0 0 0
21.55199 971.40375 0 0 0
21.56079 972.59467 0 0 0
21.56959 975.48651 0 0 0
21.57840 975.63232 0 0 0
21.58720 971.0144 0 0 0
21.59600 962.69232 0 0 0
21.60480 952.26593 0 0 0
21.61360 943.07385 0 0 0
21.62241 935.68213 0 0 0
21.63121 929.8136 0 0 0
21.64001 925.60675 0 0 0
21.64881 921.74908 0 0 0
21.65762 918.96246 0 0 0
21.66642 917.29681 0 0 0
21.67522 916.63348 0 0 0
21.68402 916.29828 0 0 0
21.69282 916.73828 0 0 0
21.70163 917.30292 0 0 0
21.71043 917.78845 0 0 0
21.71923 919.04077 0 0 0
21.72803 920.30188 0 0 0
21.73683 920.9892 0 0 0
21.74564 921.15784 0 0 0
21.75444 920.97949 0 0 0
21.76324 921.383 0 0 0
21.77204 921.45148 0 0 0
21.78085 920.37311 0 0 0
21.78965 920.34644 0 0 0
21.79845 921.88812 0 0 0
21.80725 923.7356 0 0 0
21.81605 926.16022 0 0 0
21.82486 929.39301 0 0 0
21.83366 933.33087 0 0 0
21.84246 938.10315 0 0 0
21.85126 942.30933 0 0 0
21.86006 947.48669 0 0 0
21.86887 954.42725 0 0 0
21.87767 962.71069 0 0 0
21.88647 969.17676 0 0 0
21.89527 970.90057 0 0 0
21.90408 967.13367 0 0 0
21.91288 958.29419 0 0 0
21.92168 948.21185 0 0 0
21.93048 940.32037 0 0 0
21.93928 934.52539 0 0 0
21.94809 928.99786 0 0 0
21.95689 925.3396 0 0 0
21.96569 923.74097 0 0 0
21.97449 923.80457 0 0 0
21.98329 925.25232 0 0 0
21.99210 928.27258 0 0 0
22.00090 935.06219 0 0 0
22.00970 943.77313 0 0 0
22.01850 952.14124 0 0 0
22.02731 957.90698 0 0 0
22.03611 956.87769 0 0 0
22.04491 951.93927 0 0 0
22.05371 944.59363 0 0 0
22.06251 939.90869 0 0 0
22.07132 936.27893 0 0 0
22.08012 934.91687 0 0 0
22.08892 934.84009 0 0 0
22.09772 936.09283 0 0 0
22.10652 937.28503 0 0 0
22.11533 938.40906 0 0 0
22.12413 939.89404 0 0 0
22.13293 941.36389 0 0 0
22.14173 942.64191 0 0 0
22.15054 944.03253 0 0 0
22.15934 944.9801 0 0 0
22.16814 945.20966 0 0 0
22.17694 943.78558 0 0 0
22.18574 941.45593 0 0 0
22.19455 938.71857 0 0 0
22.20335 936.98877 0 0 0
22.21215 936.4801 0 0 0
22.22095 935.67871 0 0 0
22.22975 935.43304 0 0 0
22.23856 935.54529 0 0 0
22.24736 935.73535 0 0 0
22.25616 936.67145 0 0 0
22.26496 936.93414 0 0 0
22.27376 936.23676 0 0 0
22.28257 934.97559 0 0 0
22.29137 932.47693 0 0 0
22.30017 929.20642 0 0 0
22.30897 925.487 0 0 0
22.31778 922.68048 0 0 0
22.32658 920.24896 0 0 0
22.33538 917.60651 0 0 0
22.34418 914.89752 0 0 0
22.35298 912.72687 0 0 0
22.36179 911.78821 0 0 0
22.37059 911.77478 0 0 0
22.37939 912.04089 0 0 0
22.38819 912.63306 0 0 0
22.39699 913.5285 0 0 0
22.40580 915.64978 0 0 0
22.41460 918.98126 0 0 0
22.42340 923.66193 0 0 0
22.43220 928.78613 0 0 0
22.44100 933.17279 0 0 0
22.44981 937.33887 0 0 0
22.45861 941.05365 0 0 0
22.46741 944.29504 0 0 0
22.47621 946.23431 0 0 0
22.48502 947.22638 0 0 0
22.49382 948.21582 0 0 0
22.50262 949.76624 0 0 0
22.51142 953.90131 0 0 0
22.52022 958.03156 0 0 0
22.52903 964.54791 0 0 0
22.53783 972.79486 0 0 0
22.54663 983.69025 0 0 0
22.55543 996.68121 0 0 0
22.56423 1012.4305 0 0 0
22.57304 1027.6328 0 0 0
22.58184 1038.0101 0 0 0
22.59064 1039.7186 0 0 0
22.59944 1031.8518 0 0 0
22.60825 1019.9972 0 0 0
22.61705 1006.0582 0 0 0
22.62585 993.21588 0 0 0
22.63465 980.65442 0 0 0
22.64345 969.70892 0 0 0
22.65226 960.10345 0 0 0
22.66106 952.39099 0 0 0
22.66986 946.75757 0 0 0
22.67866 944.67041 0 0 0
22.68746 946.04144 0 0 0
22.69627 950.12604 0 0 0
22.70507 955.2326 0 0 0
22.71387 957.8512 0 0 0
22.72267 956.11987 0 0 0
22.73147 951.25671 0 0 0
22.74028 944.14551 0 0 0
22.74908 935.70349 0 0 0
22.75788 928.2522 0 0 0
22.76668 923.1684 0 0 0
22.77549 919.87964 0 0 0
22.78429 917.67822 0 0 0
22.79309 917.31189 0 0 0
22.80189 917.74487 0 0 0
22.81069 917.77277 0 0 0
22.81950 917.71338 0 0 0
22.82830 919.2406 0 0 0
22.83710 920.22766 0 0 0
22.84590 920.49622 0 0 0
22.85470 921.5755 0 0 0
22.86351 922.48584 0 0 0
22.87231 924.24677 0 0 0
22.88111 926.07483 0 0 0
22.88991 927.5766 0 0 0
22.89871 929.26685 0 0 0
22.90752 932.10724 0 0 0
22.91632 935.57568 0 0 0
22.92512 938.55322 0 0 0
22.93392 941.83838 0 0 0
22.94273 943.94025 0 0 0
22.95153 943.74286 0 0 0
22.96033 942.53003 0 0 0
22.96913 941.00928 0 0 0
22.97793 940.81091 0 0 0
22.98674 942.73016 0 0 0
22.99554 944.88446 0 0 0
23.00434 945.74457 0 0 0
23.01314 944.74231 0 0 0
23.02194 940.80164 0 0 0
23.03075 936.87756 0 0 0
23.03955 934.94208 0 0 0
23.04835 935.50952 0 0 0
23.05715 937.65778 0 0 0
23.06596 941.38885 0 0 0
23.07476 947.51202 0 0 0
23.08356 954.84283 0 0 0
23.09236 961.29382 0 0 0
23.10116 967.13837 0 0 0
23.10997 973.30365 0 0 0
23.11877 976.93134 0 0 0
23.12757 979.05188 0 0 0
23.13637 979.88452 0 0 0
23.14517 981.34491 0 0 0
23.15398 983.185 0 0 0
23.16278 983.97974 0 0 0
23.17158 984.63068 0 0 0
23.18038 987.56702 0 0 0
23.18918 991.87598 0 0 0
23.19799 998.15656 0 0 0
23.20679 1004.9232 0 0 0
23.21559 1011.2576 0 0 0
23.22439 1014.1634 0 0 0
23.23320 1011.891 0 0 0
23.24200 1005.0858 0 0 0
23.25080 994.59125 0 0 0
23.25960 982.79413 0 0 0
23.26840 971.80249 0 0 0
23.27721 963.29425 0 0 0
23.28601 957.50287 0 0 0
23.29481 954.11792 0 0 0
23.30361 952.01202 0 0 0
23.31241 952.63843 0 0 0
23.32122 953.31323 0 0 0
23.33002 955.20374 0 0 0
23.33882 959.05267 0 0 0
23.34762 962.82941 0 0 0
23.35642 963.88751 0 0 0
23.36523 965.49774 0 0 0
23.37403 968.20862 0 0 0
23.38283 971.2251 0 0 0
23.39163 973.94171 0 0 0
23.40044 974.27087 0 0 0
23.40924 971.60254 0 0 0
23.41804 965.78107 0 0 0
23.42684 957.82135 0 0 0
23.43564 950.04584 0 0 0
23.44445 942.70135 0 0 0
23.45325 936.4809 0 0 0
23.46205 931.37897 0 0 0
23.47085 927.51727 0 0 0
23.47965 924.81067 0 0 0
23.48846 921.21875 0 0 0
23.49726 917.72406 0 0 0
23.50606 915.13043 0 0 0
23.51486 913.56909 0 0 0
23.52367 911.7597 0 0 0
23.53247 909.62775 0 0 0
23.54127 908.33588 0 0 0
23.55007 908.52942 0 0 0
23.55887 909.10907 0 0 0
23.56768 909.54584 0 0 0
23.57648 910.39471 0 0 0
23.58528 912.33075 0 0 0
23.59408 913.88971 0 0 0
23.60288 913.52197 0 0 0
23.61169 912.44281 0 0 0
23.62049 911.69855 0 0 0
23.62929 911.57245 0 0 0
23.63809 912.30139 0 0 0
23.64689 912.36841 0 0 0
23.65570 911.80023 0 0 0
23.66450 912.12701 0 0 0
23.67330 913.19873 0 0 0
23.68210 914.38989 0 0 0
23.69091 915.50769 0 0 0
23.69971 918.32037 0 0 0
23.70851 922.10522 0 0 0
23.71731 925.63361 0 0 0
23.72611 929.5213 0 0 0
23.73492 933.90771 0 0 0
23.74372 938.50104 0 0 0
23.75252 941.98071 0 0 0
23.76132 944.42676 0 0 0
23.77012 946.11169 0 0 0
23.77893 947.03015 0 0 0
23.78773 947.88007 0 0 0
23.79653 949.55414 0 0 0
23.80533 951.76215 0 0 0
23.81414 953.10742 0 0 0
23.82294 952.71326 0 0 0
23.83174 950.88586 0 0 0
23.84054 947.83362 0 0 0
23.84934 944.79456 0 0 0
23.85815 941.80347 0 0 0
23.86695 940.31091 0 0 0
23.87575 941.70679 0 0 0
23.88455 945.57532 0 0 0
23.89335 951.86407 0 0 0
23.90216 959.75903 0 0 0
23.91096 967.45233 0 0 0
23.91976 974.26508 0 0 0
23.92856 979.19745 0 0 0
23.93736 981.04889 0 0 0
23.94617 978.55206 0 0 0
23.95497 974.79755 0 0 0
23.96377 968.08215 0 0 0
23.97257 960.21393 0 0 0
23.98137 951.94641 0 0 0
23.99018 944.28192 0 0 0
23.99898 938.60083 0 0 0
24.00778 935.43402 0 0 0
24.01658 935.51886 0 0 0
24.02539 939.29413 0 0 0
24.03419 943.67242 0 0 0
24.04299 949.02637 0 0 0
24.05179 954.7019 0 0 0
24.06059 957.69012 0 0 0
24.06940 958.22803 0 0 0
24.07820 956.36444 0 0 0
24.08700 953.29633 0 0 0
24.09580 949.34247 0 0 0
24.10460 944.57074 0 0 0
24.11341 941.32379 0 0 0
24.12221 938.62762 0 0 0
24.13101 936.08484 0 0 0
24.13981 934.76715 0 0 0
24.14862 935.56 0 0 0
24.15742 937.4538 0 0 0
24.16622 942.18481 0 0 0
24.17502 949.08582 0 0 0
24.18382 958.07605 0 0 0
24.19263 971.02704 0 0 0
24.20143 987.38617 0 0 0
24.21023 1006.3662 0 0 0
24.21903 1024.985 0 0 0
24.22783 1039.6067 0 0 0
24.23664 1046.9259 0 0 0
24.24544 1046.382 0 0 0
24.25424 1036.1475 0 0 0
24.26304 1018.793 0 0 0
24.27184 997.26154 0 0 0
24.28065 977.82404 0 0 0
24.28945 961.44537 0 0 0
24.29825 948.14063 0 0 0
24.30705 938.17603 0 0 0
24.31586 930.46674 0 0 0
24.32466 923.53003 0 0 0
24.33346 918.90729 0 0 0
24.34226 915.99585 0 0 0
24.35106 912.61023 0 0 0
24.35987 910.4552 0 0 0
24.36867 910.1347 0 0 0
24.37747 910.52301 0 0 0
24.38627 911.29523 0 0 0
24.39507 912.64435 0 0 0
24.40388 915.31073 0 0 0
24.41268 918.4209 0 0 0
24.42148 921.14771 0 0 0
24.43029 924.75732 0 0 0
24.43908 930.11377 0 0 0
24.44789 937.13611 0 0 0
24.45669 946.20636 0 0 0
24.46549 957.54523 0 0 0
24.47430 972.24066 0 0 0
24.48310 990.33191 0 0 0
24.49190 1009.0025 0 0 0
24.50070 1027.8312 0 0 0
24.50950 1044.7001 0 0 0
24.51831 1060.8687 0 0 0
24.52711 1070.5001 0 0 0
24.53591 1072.0775 0 0 0
24.54471 1063.4039 0 0 0
24.55351 1046.829 0 0 0
24.56232 1027.3333 0 0 0
24.57112 1008.9078 0 0 0
24.57992 994.3924 0 0 0
24.58872 982.79034 0 0 0
24.59753 974.34204 0 0 0
24.60633 966.18665 0 0 0
24.61513 960.50818 0 0 0
24.62393 956.00403 0 0 0
24.63273 951.86481 0 0 0
24.64154 948.30334 0 0 0
24.65034 945.28259 0 0 0
24.65914 942.81543 0 0 0
24.66794 940.42542 0 0 0
24.67674 937.66193 0 0 0
24.68555 934.10687 0 0 0
24.69435 932.2829 0 0 0
24.70315 931.26215 0 0 0
24.71195 929.90454 0 0 0
24.72076 928.89551 0 0 0
24.72956 928.12646 0 0 0
24.73836 927.27502 0 0 0
24.74716 925.96002 0 0 0
24.75596 925.22095 0 0 0
24.76477 924.90979 0 0 0
24.77357 924.77545 0 0 0
24.78237 924.91418 0 0 0
24.79117 926.3396 0 0 0
24.79997 928.51117 0 0 0
24.80878 931.81049 0 0 0
24.81758 936.07288 0 0 0
24.82638 941.94 0 0 0
24.83518 948.75818 0 0 0
24.84398 954.09821 0 0 0
24.85279 954.8974 0 0 0
24.86159 950.15485 0 0 0
24.87039 942.35577 0 0 0
24.87919 934.30359 0 0 0
24.88800 927.93842 0 0 0
24.89680 923.375 0 0 0
24.90560 920.24493 0 0 0
24.91440 918.50232 0 0 0
24.92320 917.80804 0 0 0
24.93201 917.79437 0 0 0
24.94081 916.75189 0 0 0
24.94961 915.83472 0 0 0
24.95841 917.00977 0 0 0
24.96721 918.69324 0 0 0
24.97602 920.48914 0 0 0
24.98482 922.76025 0 0 0
24.99362 925.95428 0 0 0
25.00242 930.80444 0 0 0
25.01122 935.01465 0 0 0
25.02003 938.81165 0 0 0
25.02883 944.07886 0 0 0
25.03763 950.26447 0 0 0
25.04643 953.57227 0 0 0
25.05523 951.32391 0 0 0
25.06404 947.13837 0 0 0
25.07284 942.66071 0 0 0
25.08164 937.94855 0 0 0
25.09044 933.48395 0 0 0
25.09924 931.5575 0 0 0
25.10805 930.03931 0 0 0
25.11685 928.39545 0 0 0
25.12565 928.2428 0 0 0
25.13445 929.65796 0 0 0
25.14325 930.43427 0 0 0
25.15206 930.28833 0 0 0
25.16086 930.60883 0 0 0
25.16966 931.29651 0 0 0
25.17846 931.63519 0 0 0
25.18727 930.80151 0 0 0
25.19607 927.62122 0 0 0
25.20487 922.61401 0 0 0
25.21367 917.57507 0 0 0
25.22247 912.82507 0 0 0
25.23128 908.20795 0 0 0
25.24008 904.53058 0 0 0
25.24888 902.91101 0 0 0
25.25768 901.36389 0 0 0
25.26648 899.42346 0 0 0
25.27529 898.55243 0 0 0
25.28409 898.29498 0 0 0
25.29289 898.53748 0 0 0
25.30169 897.38031 0 0 0
25.31049 897.54016 0 0 0
25.31930 897.76477 0 0 0
25.32810 896.29834 0 0 0
25.33690 895.14514 0 0 0
25.34570 895.14331 0 0 0
25.35451 895.38556 0 0 0
25.36331 894.16821 0 0 0
25.37211 893.99475 0 0 0
25.38091 895.09155 0 0 0
25.38971 895.95764 0 0 0
25.39852 896.2002 0 0 0
25.40732 897.69415 0 0 0
25.41612 899.67621 0 0 0
25.42492 901.92596 0 0 0
25.43372 905.79828 0 0 0
25.44253 910.237 0 0 0
25.45133 915.14459 0 0 0
25.46013 920.3949 0 0 0
25.46893 925.15619 0 0 0
25.47774 929.06482 0 0 0
25.48654 931.63269 0 0 0
25.49534 930.43616 0 0 0
25.50414 927.82648 0 0 0
25.51294 924.50775 0 0 0
25.52175 921.34027 0 0 0
25.53055 918.72058 0 0 0
25.53935 916.63019 0 0 0
25.54815 915.56342 0 0 0
25.55695 915.0849 0 0 0
25.56576 915.22443 0 0 0
25.57456 915.86938 0 0 0
25.58336 918.13739 0 0 0
25.59216 920.72424 0 0 0
25.60096 924.05084 0 0 0
25.60977 927.4809 0 0 0
25.61857 931.73022 0 0 0
25.62737 937.64105 0 0 0
25.63618 942.76111 0 0 0
25.64498 948.35394 0 0 0
25.65378 952.60486 0 0 0
25.66258 954.60822 0 0 0
25.67138 953.97559 0 0 0
25.68019 950.72925 0 0 0
25.68899 944.28442 0 0 0
25.69779 937.01544 0 0 0
25.70659 928.59601 0 0 0
25.71539 921.4823 0 0 0
25.72420 916.21527 0 0 0
25.73300 912.69159 0 0 0
25.74180 911.10938 0 0 0
25.75060 910.5047 0 0 0
25.75940 912.13025 0 0 0
25.76821 913.08167 0 0 0
25.77701 913.15045 0 0 0
25.78581 912.50903 0 0 0
25.79461 910.3277 0 0 0
25.80342 907.28912 0 0 0
25.81222 903.45526 0 0 0
25.82102 899.77325 0 0 0
25.82982 897.21576 0 0 0
25.83862 894.44067 0 0 0
25.84743 891.40851 0 0 0
25.85623 889.59711 0 0 0
25.86503 888.60236 0 0 0
25.87383 887.94171 0 0 0
25.88263 886.98535 0 0 0
25.89144 886.47668 0 0 0
25.90024 885.91144 0 0 0
25.90904 885.55341 0 0 0
25.91784 884.34088 0 0 0
25.92664 882.77289 0 0 0
25.93545 881.76483 0 0 0
25.94425 881.51532 0 0 0
25.95305 882.20038 0 0 0
25.96185 882.57648 0 0 0
25.97066 882.49097 0 0 0
25.97946 882.22516 0 0 0
25.98826 882.43311 0 0 0
25.99706 882.53052 0 0 0
26.00586 882.64941 0 0 0
26.01467 883.013 0 0 0
26.02347 884.45795 0 0 0
26.03227 886.67169 0 0 0
26.04107 888.96759 0 0 0
26.04987 891.44873 0 0 0
26.05868 894.06885 0 0 0
26.06748 897.99786 0 0 0
26.07628 903.29108 0 0 0
26.08508 909.43011 0 0 0
26.09388 916.32098 0 0 0
26.10269 923.05872 0 0 0
26.11149 929.58679 0 0 0
26.12029 934.2478 0 0 0
26.12909 936.50482 0 0 0
26.13790 936.89771 0 0 0
26.14670 935.43365 0 0 0
26.15550 933.89691 0 0 0
26.16430 933.2392 0 0 0
26.17310 934.82043 0 0 0
26.18191 940.36792 0 0 0
26.19071 950.69116 0 0 0
26.19951 965.13867 0 0 0
26.20831 980.50494 0 0 0
26.21711 990.31134 0 0 0
26.22592 990.10101 0 0 0
26.23472 980.34161 0 0 0
26.24352 967.12543 0 0 0
26.25232 955.13708 0 0 0
26.26113 943.89374 0 0 0
26.26993 934.4903 0 0 0
26.27873 928.79462 0 0 0
26.28753 923.39539 0 0 0
26.29633 917.00867 0 0 0
26.30514 911.9613 0 0 0
26.31394 909.02008 0 0 0
26.32274 906.84045 0 0 0
26.33154 903.70978 0 0 0
26.34034 900.7887 0 0 0
26.34915 899.88489 0 0 0
26.35795 898.53418 0 0 0
26.36675 896.32806 0 0 0
26.37555 894.68115 0 0 0
26.38435 893.69696 0 0 0
26.39316 893.60254 0 0 0
26.40196 892.81049 0 0 0
26.41076 891.61127 0 0 0
26.41956 889.62085 0 0 0
26.42837 887.10406 0 0 0
26.43717 886.09015 0 0 0
26.44597 885.94708 0 0 0
26.45477 885.62396 0 0 0
26.46357 884.52972 0 0 0
26.47238 884.10577 0 0 0
26.48118 884.83215 0 0 0
26.48998 884.69647 0 0 0
26.49878 883.81616 0 0 0
26.50758 883.81995 0 0 0
26.51639 885.67358 0 0 0
26.52519 888.1684 0 0 0
26.53399 890.40924 0 0 0
26.54279 891.79022 0 0 0
26.55159 892.63727 0 0 0
26.56040 893.95374 0 0 0
26.56920 894.1828 0 0 0
26.57800 893.51453 0 0 0
26.58680 893.51556 0 0 0
26.59561 892.07404 0 0 0
26.60441 889.96704 0 0 0
26.61321 889.021 0 0 0
26.62201 887.27258 0 0 0
26.63081 885.47296 0 0 0
26.63962 884.99988 0 0 0
26.64842 885.00415 0 0 0
26.65722 884.82538 0 0 0
26.66602 884.46759 0 0 0
26.67482 885.15717 0 0 0
26.68363 886.16217 0 0 0
26.69243 888.15204 0 0 0
26.70123 892.02502 0 0 0
26.71003 897.0968 0 0 0
26.71884 903.74548 0 0 0
26.72764 911.82007 0 0 0
26.73644 919.46515 0 0 0
26.74524 928.16064 0 0 0
26.75404 938.65027 0 0 0
26.76285 949.97473 0 0 0
26.77165 962.60394 0 0 0
26.78045 978.04297 0 0 0
26.78925 995.60999 0 0 0
26.79805 1011.3929 0 0 0
26.80686 1020.501 0 0 0
26.81566 1020.4699 0 0 0
26.82446 1009.6681 0 0 0
26.83326 989.67932 0 0 0
26.84206 966.41162 0 0 0
26.85087 944.86432 0 0 0
26.85967 927.86346 0 0 0
26.86847 916.29871 0 0 0
26.87727 909.17084 0 0 0
26.88608 905.01556 0 0 0
26.89488 902.70215 0 0 0
26.90368 900.85242 0 0 0
26.91248 900.07996 0 0 0
26.92128 899.62903 0 0 0
26.93009 898.90009 0 0 0
26.93889 899.53467 0 0 0
26.94769 902.88843 0 0 0
26.95649 907.74579 0 0 0
26.96529 911.30804 0 0 0
26.97410 914.07458 0 0 0
26.98290 914.2771 0 0 0
26.99170 911.11554 0 0 0
27.00050 907.20776 0 0 0
27.00930 902.25311 0 0 0
27.01811 897.75916 0 0 0
27.02691 893.60059 0 0 0
27.03571 889.30353 0 0 0
27.04451 885.69318 0 0 0
27.05332 884.20868 0 0 0
27.06212 882.97632 0 0 0
27.07092 881.15308 0 0 0
27.07972 879.69928 0 0 0
27.08852 878.37946 0 0 0
27.09733 878.57672 0 0 0
27.10613 879.54553 0 0 0
27.11493 880.2774 0 0 0
27.12373 880.95465 0 0 0
27.13253 880.77417 0 0 0
27.14134 881.35718 0 0 0
27.15014 883.15106 0 0 0
27.15894 884.22443 0 0 0
27.16774 885.16168 0 0 0
27.17655 885.06879 0 0 0
27.18535 884.7597 0 0 0
27.19415 884.45868 0 0 0
27.20295 885.16589 0 0 0
27.21175 887.3786 0 0 0
27.22056 889.16333 0 0 0
27.22936 892.04144 0 0 0
27.23816 896.07513 0 0 0
27.24696 899.79761 0 0 0
27.25576 905.38599 0 0 0
27.26457 912.58411 0 0 0
27.27337 920.96143 0 0 0
27.28217 932.68781 0 0 0
27.29097 944.32916 0 0 0
27.29977 951.87256 0 0 0
27.30858 953.04443 0 0 0
27.31738 948.11127 0 0 0
27.32618 940.51141 0 0 0
27.33498 932.01526 0 0 0
27.34379 925.75977 0 0 0
27.35259 921.26605 0 0 0
27.36139 916.18567 0 0 0
27.37019 911.99249 0 0 0
27.37899 907.60724 0 0 0
27.38780 903.35614 0 0 0
27.39660 900.95282 0 0 0
27.40540 900.9519 0 0 0
27.41420 902.35309 0 0 0
27.42300 904.75488 0 0 0
27.43181 908.69781 0 0 0
27.44061 912.57831 0 0 0
27.44941 915.94403 0 0 0
27.45821 917.42017 0 0 0
27.46701 916.4422 0 0 0
27.47582 913.07916 0 0 0
27.48462 908.91638 0 0 0
27.49342 903.82922 0 0 0
27.50222 899.28113 0 0 0
27.51103 896.09705 0 0 0
27.51983 892.23456 0 0 0
27.52863 890.28918 0 0 0
27.53743 887.73285 0 0 0
27.54623 885.10455 0 0 0
27.55504 885.18378 0 0 0
27.56384 884.49066 0 0 0
27.57264 883.77393 0 0 0
27.58144 884.34137 0 0 0
27.59024 885.1402 0 0 0
27.59905 886.40479 0 0 0
27.60785 888.1189 0 0 0
27.61665 890.75897 0 0 0
27.62545 892.80676 0 0 0
27.63426 895.95172 0 0 0
27.64306 900.64526 0 0 0
27.65186 904.03131 0 0 0
27.66066 906.45892 0 0 0
27.66946 908.12585 0 0 0
27.67827 909.88751 0 0 0
27.68707 912.71075 0 0 0
27.69587 913.97491 0 0 0
27.70467 914.20349 0 0 0
27.71347 915.87592 0 0 0
27.72228 918.3725 0 0 0
27.73108 921.68469 0 0 0
27.73988 928.21228 0 0 0
27.74868 936.12128 0 0 0
27.75748 943.12299 0 0 0
27.76629 948.65009 0 0 0
27.77509 954.40424 0 0 0
27.78389 964.05798 0 0 0
27.79269 976.11078 0 0 0
27.80150 987.97369 0 0 0
27.81030 999.74603 0 0 0
27.81910 1010.4966 0 0 0
27.82790 1018.2937 0 0 0
27.83670 1021.523 0 0 0
27.84551 1018.4159 0 0 0
27.85431 1009.1473 0 0 0
27.86311 998.23767 0 0 0
27.87191 988.66248 0 0 0
27.88071 980.57678 0 0 0
27.88952 974.11877 0 0 0
27.89832 968.81116 0 0 0
27.90712 964.28558 0 0 0
27.91592 961.14362 0 0 0
27.92472 958.6181 0 0 0
27.93353 954.61102 0 0 0
27.94233 949.46991 0 0 0
27.95113 943.37482 0 0 0
27.95993 937.53235 0 0 0
27.96874 930.52716 0 0 0
27.97754 922.63934 0 0 0
27.98634 916.23035 0 0 0
27.99514 910.13232 0 0 0
28.00394 905.84778 0 0 0
28.01275 903.05499 0 0 0
28.02155 900.10687 0 0 0
28.03035 897.76514 0 0 0
28.03915 895.42609 0 0 0
28.04796 893.04114 0 0 0
28.05676 892.07593 0 0 0
28.06556 892.09265 0 0 0
28.07436 891.39032 0 0 0
28.08316 890.17786 0 0 0
28.09196 889.26501 0 0 0
28.10077 889.67987 0 0 0
28.10957 891.08936 0 0 0
28.11837 892.58197 0 0 0
28.12717 894.11792 0 0 0
28.13598 895.62628 0 0 0
28.14478 895.90137 0 0 0
28.15358 895.79639 0 0 0
28.16238 896.34204 0 0 0
28.17119 895.69647 0 0 0
28.17999 895.74811 0 0 0
28.18879 896.75629 0 0 0
28.19759 897.94983 0 0 0
28.20639 899.96326 0 0 0
28.21520 901.29462 0 0 0
28.22400 903.58099 0 0 0
28.23280 905.05743 0 0 0
28.24160 905.61591 0 0 0
28.25040 907.34552 0 0 0
28.25921 906.38086 0 0 0
28.26801 903.17896 0 0 0
28.27681 900.15009 0 0 0
28.28561 897.24304 0 0 0
28.29442 895.17053 0 0 0
28.30322 893.3844 0 0 0
28.31202 892.31238 0 0 0
28.32082 894.21362 0 0 0
28.32962 890.99768 0 0 0
28.33843 874.70691 0 0 0
28.34723 872.80237 0 0 0
28.35603 885.37366 0 0 0
28.36483 891.70093 0 0 0
28.37363 894.854 0 0 0
28.38244 896.94482 0 0 0
28.39124 896.67828 0 0 0
28.40004 894.96326 0 0 0
28.40884 893.73889 0 0 0
28.41765 893.25562 0 0 0
28.42645 894.44458 0 0 0
28.43525 896.13037 0 0 0
28.44405 899.60205 0 0 0
28.45285 904.56873 0 0 0
28.46166 909.54742 0 0 0
28.47046 912.78094 0 0 0
28.47926 915.57898 0 0 0
28.48806 917.21381 0 0 0
28.49686 915.94324 0 0 0
28.50567 911.81195 0 0 0
28.51447 906.14783 0 0 0
28.52327 902.37866 0 0 0
28.53207 898.48285 0 0 0
28.54087 893.23352 0 0 0
28.54968 890.31152 0 0 0
28.55848 889.54126 0 0 0
28.56728 888.63715 0 0 0
28.57608 887.396 0 0 0
28.58488 885.81964 0 0 0
28.59369 884.79877 0 0 0
28.60249 884.1922 0 0 0
28.61129 884.10211 0 0 0
28.62009 885.43939 0 0 0
28.62889 885.7851 0 0 0
28.63770 885.00684 0 0 0
28.64650 885.51984 0 0 0
28.65530 885.90033 0 0 0
28.66410 885.44055 0 0 0
28.67291 885.12427 0 0 0
28.68171 886.16986 0 0 0
28.69051 886.47705 0 0 0
28.69931 885.22198 0 0 0
28.70811 885.00653 0 0 0
28.71692 884.60339 0 0 0
28.72572 884.69592 0 0 0
28.73452 884.84534 0 0 0
28.74332 883.1026 0 0 0
28.75212 882.28387 0 0 0
28.76093 882.78253 0 0 0
28.76973 882.84045 0 0 0
28.77853 882.75488 0 0 0
28.78733 882.69012 0 0 0
28.79613 881.06696 0 0 0
28.80494 881.55988 0 0 0
28.81374 881.33411 0 0 0
28.82254 878.66858 0 0 0
28.83134 878.06464 0 0 0
28.84014 879.54181 0 0 0
28.84895 881.37189 0 0 0
28.85775 882.03638 0 0 0
28.86655 882.44208 0 0 0
28.87535 883.64661 0 0 0
28.88416 885.3623 0 0 0
28.89296 885.62946 0 0 0
28.90176 886.96887 0 0 0
28.91056 888.0979 0 0 0
28.91936 888.48267 0 0 0
28.92817 888.59216 0 0 0
28.93697 888.54034 0 0 0
28.94577 889.15149 0 0 0
28.95457 887.33203 0 0 0
28.96337 884.79663 0 0 0
28.97218 884.96704 0 0 0
28.98098 885.89679 0 0 0
28.98978 885.4632 0 0 0
28.99858 885.71112 0 0 0
29.00738 887.4884 0 0 0
29.01619 889.44495 0 0 0
29.02499 891.62274 0 0 0
29.03379 893.44666 0 0 0
29.04259 895.04504 0 0 0
29.05140 897.11774 0 0 0
29.06020 898.96832 0 0 0
29.06900 899.43201 0 0 0
29.07780 900.05109 0 0 0
29.08660 898.4184 0 0 0
29.09541 896.16223 0 0 0
29.10421 894.40558 0 0 0
29.11301 890.50934 0 0 0
29.12181 886.82379 0 0 0
29.13061 884.84338 0 0 0
29.13942 883.35675 0 0 0
29.14822 881.09149 0 0 0
29.15702 880.68512 0 0 0
29.16583 882.08704 0 0 0
29.17463 881.98511 0 0 0
29.18343 880.83002 0 0 0
29.19223 880.21979 0 0 0
29.20103 881.36597 0 0 0
29.20984 883.29474 0 0 0
29.21864 884.12445 0 0 0
29.22744 884.39746 0 0 0
29.23624 885.4505 0 0 0
29.24504 886.16357 0 0 0
29.25384 886.43848 0 0 0
29.26265 887.31433 0 0 0
29.27145 887.47284 0 0 0
29.28025 886.35583 0 0 0
29.28906 887.26447 0 0 0
29.29785 889.23535 0 0 0
29.30666 890.35046 0 0 0
29.31546 892.52893 0 0 0
29.32426 893.48975 0 0 0
29.33307 894.64227 0 0 0
29.34187 897.10193 0 0 0
29.35067 897.50964 0 0 0
29.35947 897.29352 0 0 0
29.36827 899.68884 0 0 0
29.37708 902.56616 0 0 0
29.38588 903.82928 0 0 0
29.39468 904.63013 0 0 0
29.40348 908.32849 0 0 0
29.41228 914.16998 0 0 0
29.42109 918.94489 0 0 0
29.42989 925.85199 0 0 0
29.43869 931.19275 0 0 0
29.44749 934.00555 0 0 0
29.45630 936.15515 0 0 0
29.46510 936.56409 0 0 0
29.47390 933.7254 0 0 0
29.48270 929.85199 0 0 0
29.49150 926.8949 0 0 0
29.50031 922.61658 0 0 0
29.50911 917.18506 0 0 0
29.51791 913.65802 0 0 0
29.52671 910.83667 0 0 0
29.53551 908.34918 0 0 0
29.54432 905.57251 0 0 0
29.55312 904.28223 0 0 0
29.56192 903.64337 0 0 0
29.57072 902.51892 0 0 0
29.57952 902.5918 0 0 0
29.58833 902.45294 0 0 0
29.59713 901.91742 0 0 0
29.60593 901.5437 0 0 0
29.61473 899.11749 0 0 0
29.62354 896.98236 0 0 0
29.63234 895.53754 0 0 0
29.64114 891.0838 0 0 0
29.64994 887.86932 0 0 0
29.65874 887.10602 0 0 0
29.66755 886.62573 0 0 0
29.67635 885.71478 0 0 0
29.68515 884.93719 0 0 0
29.69395 885.11432 0 0 0
29.70275 884.9353 0 0 0
29.71156 885.15356 0 0 0
29.72036 886.57867 0 0 0
29.72916 887.76843 0 0 0
29.73796 888.13745 0 0 0
29.74676 887.86047 0 0 0
29.75557 888.72028 0 0 0
29.76437 891.57422 0 0 0
29.77317 896.28918 0 0 0
29.78197 902.54492 0 0 0
29.79078 909.63477 0 0 0
29.79958 918.68866 0 0 0
29.80838 929.80072 0 0 0
29.81718 939.63556 0 0 0
29.82598 945.31812 0 0 0
29.83479 945.17889 0 0 0
29.84359 942.28278 0 0 0
29.85239 937.36743 0 0 0
29.86119 934.16138 0 0 0
29.86999 930.5144 0 0 0
29.87880 923.99963 0 0 0
29.88760 918.12122 0 0 0
29.89640 914.00287 0 0 0
29.90520 908.66162 0 0 0
29.91400 904.36829 0 0 0
29.92281 901.80536 0 0 0
29.93161 896.2951 0 0 0
29.94041 891.77686 0 0 0
29.94921 889.99213 0 0 0
29.95801 888.56793 0 0 0
29.96682 887.75806 0 0 0
29.97562 885.58313 0 0 0
29.98442 883.96289 0 0 0
29.99322 882.07861 0 0 0
30.00203 880.5271 0 0 0
30.01083 880.14667 0 0 0
30.01963 880.03113 0 0 0
30.02843 880.23938 0 0 0
30.03723 881.43561 0 0 0
30.04604 881.92676 0 0 0
30.05484 879.58881 0 0 0
30.06364 877.50244 0 0 0
30.07244 875.90002 0 0 0
30.08124 876.12787 0 0 0
30.09005 879.82159 0 0 0
30.09885 881.75586 0 0 0
30.10765 879.41919 0 0 0
30.11645 879.2309 0 0 0
30.12526 879.31622 0 0 0
30.13406 878.50439 0 0 0
30.14286 879.40814 0 0 0
30.15166 878.52435 0 0 0
30.16046 879.47363 0 0 0
30.16927 881.36615 0 0 0
30.17807 881.763 0 0 0
30.18687 881.87085 0 0 0
30.19567 881.74469 0 0 0
30.20447 881.26563 0 0 0
30.21328 881.07666 0 0 0
30.22208 881.21552 0 0 0
30.23088 880.41217 0 0 0
30.23968 879.17847 0 0 0
30.24849 879.88928 0 0 0
30.25729 881.26324 0 0 0
30.26609 880.29712 0 0 0
30.27489 880.27368 0 0 0
30.28369 880.74695 0 0 0
30.29250 883.26892 0 0 0
30.30130 885.51563 0 0 0
30.31010 884.55023 0 0 0
30.31890 882.62054 0 0 0
30.32770 882.18463 0 0 0
30.33651 885.1626 0 0 0
30.34531 887.55701 0 0 0
30.35411 889.83362 0 0 0
30.36291 891.74194 0 0 0
30.37172 891.04102 0 0 0
30.38052 893.48572 0 0 0
30.38932 896.79169 0 0 0
30.39812 896.22534 0 0 0
30.40692 897.27924 0 0 0
30.41573 899.10754 0 0 0
30.42453 899.45679 0 0 0
30.43333 897.79663 0 0 0
30.44213 895.99213 0 0 0
30.45093 894.16858 0 0 0
30.45974 893.16602 0 0 0
30.46854 890.89691 0 0 0
30.47734 889.6828 0 0 0
30.48614 890.39783 0 0 0
30.49494 889.31299 0 0 0
30.50375 887.4093 0 0 0
30.51255 887.35736 0 0 0
30.52135 886.43927 0 0 0
30.53015 886.55499 0 0 0
30.53896 886.61859 0 0 0
30.54776 887.15894 0 0 0
30.55656 888.28839 0 0 0
30.56536 889.70728 0 0 0
30.57416 892.39636 0 0 0
30.58297 894.25092 0 0 0
30.59177 894.53632 0 0 0
30.60057 894.24945 0 0 0
30.60937 897.51843 0 0 0
30.61817 900.15948 0 0 0
30.62698 900.76575 0 0 0
30.63578 899.86688 0 0 0
30.64458 897.84375 0 0 0
30.65338 898.60248 0 0 0
30.66218 900.13269 0 0 0
30.67099 901.88123 0 0 0
30.67979 904.69714 0 0 0
30.68859 910.24274 0 0 0
30.69739 917.88538 0 0 0
30.70620 922.93475 0 0 0
30.71500 922.76367 0 0 0
30.72380 919.60339 0 0 0
30.73260 913.99561 0 0 0
30.74140 907.0636 0 0 0
30.75021 901.19592 0 0 0
30.75901 893.94745 0 0 0
30.76781 889.28326 0 0 0
30.77661 885.83167 0 0 0
30.78541 882.20898 0 0 0
30.79422 881.2464 0 0 0
30.80302 878.98187 0 0 0
30.81182 874.97833 0 0 0
30.82062 874.06195 0 0 0
30.82943 874.71716 0 0 0
30.83823 872.74573 0 0 0
30.84703 873.41846 0 0 0
30.85583 875.10553 0 0 0
30.86463 872.68103 0 0 0
30.87344 870.74152 0 0 0
30.88224 870.85699 0 0 0
30.89104 870.38239 0 0 0
30.89984 870.44812 0 0 0
30.90864 868.98407 0 0 0
30.91745 867.3916 0 0 0
30.92625 867.26379 0 0 0
30.93505 867.48932 0 0 0
30.94385 868.23346 0 0 0
30.95265 868.32513 0 0 0
30.96146 868.51593 0 0 0
30.97026 869.49768 0 0 0
30.97906 869.07581 0 0 0
30.98786 870.40546 0 0 0
30.99667 872.01312 0 0 0
31.00547 870.54327 0 0 0
31.01427 869.18115 0 0 0
31.02307 871.72943 0 0 0
31.03187 871.4353 0 0 0
31.04068 870.505 0 0 0
31.04948 872.36633 0 0 0
31.05828 874.5177 0 0 0
31.06708 873.52148 0 0 0
31.07588 872.05481 0 0 0
31.08469 871.59259 0 0 0
31.09349 874.19952 0 0 0
31.10229 875.83173 0 0 0
31.11109 874.74695 0 0 0
31.11989 874.42865 0 0 0
31.12870 874.07074 0 0 0
31.13750 874.16406 0 0 0
31.14630 877.4516 0 0 0
31.15510 880.03973 0 0 0
31.16391 879.54712 0 0 0
31.17271 881.0965 0 0 0
31.18151 881.62738 0 0 0
31.19031 886.80402 0 0 0
31.19911 893.09253 0 0 0
31.20792 895.26135 0 0 0
31.21672 898.67236 0 0 0
31.22552 906.401 0 0 0
31.23432 914.76031 0 0 0
31.24312 922.44299 0 0 0
31.25193 928.18658 0 0 0
31.26073 931.89246 0 0 0
31.26953 930.00824 0 0 0
31.27833 924.35779 0 0 0
31.28714 920.18585 0 0 0
31.29594 914.49158 0 0 0
31.30474 905.32617 0 0 0
31.31354 900.23096 0 0 0
31.32234 897.54578 0 0 0
31.33115 893.67633 0 0 0
31.33995 893.7511 0 0 0
31.34875 895.15259 0 0 0
31.35755 894.0094 0 0 0
31.36635 891.83234 0 0 0
31.37516 891.84222 0 0 0
31.38396 891.35345 0 0 0
31.39276 890.11774 0 0 0
31.40156 887.35309 0 0 0
31.41036 879.70862 0 0 0
31.41917 874.89264 0 0 0
31.42797 874.46674 0 0 0
31.43677 872.12292 0 0 0
31.44557 871.68243 0 0 0
31.45438 870.78467 0 0 0
31.46318 866.70502 0 0 0
31.47198 865.38068 0 0 0
31.48078 864.09222 0 0 0
31.48958 863.02386 0 0 0
31.49839 860.89844 0 0 0
31.50719 862.60236 0 0 0
31.51599 862.33667 0 0 0
31.52479 859.77692 0 0 0
31.53359 857.49231 0 0 0
31.54240 852.35138 0 0 0
31.55120 854.45862 0 0 0
31.56000 859.03503 0 0 0
31.56880 856.11078 0 0 0
31.57760 854.25378 0 0 0
31.58641 857.01715 0 0 0
31.59521 855.83789 0 0 0
31.60401 852.29865 0 0 0
31.61281 850.15234 0 0 0
31.62162 852.37372 0 0 0
31.63042 853.76697 0 0 0
31.63922 853.71674 0 0 0
31.64802 855.16302 0 0 0
31.65682 854.39001 0 0 0
31.66563 853.93799 0 0 0
31.67443 855.71405 0 0 0
31.68323 853.43799 0 0 0
31.69203 853.52496 0 0 0
31.70083 854.30487 0 0 0
31.70964 853.48346 0 0 0
31.71844 855.15662 0 0 0
31.72724 863.39264 0 0 0
31.73604 868.94666 0 0 0
31.74485 866.17999 0 0 0
31.75365 865.88568 0 0 0
31.76245 869.97681 0 0 0
31.77125 869.86029 0 0 0
31.78005 862.01721 0 0 0
31.78886 858.90417 0 0 0
31.79766 857.46021 0 0 0
31.80646 853.64655 0 0 0
31.81526 852.67212 0 0 0
31.82406 848.29468 0 0 0
31.83287 848.35889 0 0 0
31.84167 848.52063 0 0 0
31.85047 846.77063 0 0 0
31.85927 847.55096 0 0 0
31.86807 851.05829 0 0 0
31.87688 852.02087 0 0 0
31.88568 846.56903 0 0 0
31.89448 845.3327 0 0 0
31.90328 847.7265 0 0 0
31.91209 845.3985 0 0 0
31.92089 845.28809 0 0 0
31.92969 845.6637 0 0 0
31.93849 847.55573 0 0 0
31.94729 845.51904 0 0 0
31.95610 844.09698 0 0 0
31.96490 843.03802 0 0 0
31.97370 839.44031 0 0 0
31.98250 840.57513 0 0 0
31.99130 838.73505 0 0 0
32.00011 835.56433 0 0 0
32.00891 843.58282 0 0 0
32.01771 853.60754 0 0 0
32.02651 851.50787 0 0 0
32.03532 843.69128 0 0 0
32.04412 840.78192 0 0 0
32.05292 841.85986 0 0 0
32.06172 839.78973 0 0 0
32.07052 838.8075 0 0 0
32.07933 837.94183 0 0 0
32.08813 834.48248 0 0 0
32.09693 833.03735 0 0 0
32.10573 839.05377 0 0 0
32.11454 843.32843 0 0 0
32.12334 841.11261 0 0 0
32.13214 841.48187 0 0 0
32.14094 838.45978 0 0 0
32.14974 840.97772 0 0 0
32.15855 842.18298 0 0 0
32.16735 844.38434 0 0 0
32.17615 847.59436 0 0 0
32.18495 847.35297 0 0 0
32.19375 851.099 0 0 0
32.20256 851.42517 0 0 0
32.21136 846.45319 0 0 0
32.22016 841.77887 0 0 0
32.22896 839.64221 0 0 0
32.23776 839.06299 0 0 0
32.24657 834.50043 0 0 0
32.25537 826.24695 0 0 0
32.26417 828.90918 0 0 0
32.27297 836.51324 0 0 0
32.28178 834.53864 0 0 0
32.29058 830.89258 0 0 0
32.29938 824.68726 0 0 0
32.30818 828.93207 0 0 0
32.31698 829.36859 0 0 0
32.32579 823.45404 0 0 0
32.33459 822.8446 0 0 0
32.34339 820.99976 0 0 0
32.35219 818.6131 0 0 0
32.36099 817.75604 0 0 0
32.36980 817.28595 0 0 0
32.37860 816.99841 0 0 0
32.38740 822.90753 0 0 0
32.39620 816.93036 0 0 0
32.40500 814.80859 0 0 0
32.41381 818.04144 0 0 0
32.42261 819.34814 0 0 0
32.43141 815.71332 0 0 0
32.44021 809.61115 0 0 0
32.44902 814.39069 0 0 0
32.45782 828.27899 0 0 0
32.46662 831.67792 0 0 0
32.47542 822.55853 0 0 0
32.48422 823.53156 0 0 0
32.49303 824.03912 0 0 0
32.50183 824.3598 0 0 0
32.51063 810.55914 0 0 0
32.51943 796.14557 0 0 0
32.52823 800.87463 0 0 0
32.53704 812.77185 0 0 0
32.54584 806.93268 0 0 0
32.55464 799.32605 0 0 0
32.56344 803.47266 0 0 0
32.57225 806.11871 0 0 0
32.58105 801.61694 0 0 0
32.58985 791.19769 0 0 0
32.59865 786.0672 0 0 0
32.60745 785.75214 0 0 0
32.61626 791.19495 0 0 0
32.62506 781.89862 0 0 0
32.63386 775.2373 0 0 0
32.64266 779.25024 0 0 0
32.65146 775.53015 0 0 0
32.66027 774.13123 0 0 0
32.66907 761.72559 0 0 0
32.67787 754.55188 0 0 0
32.68667 754.43744 0 0 0
32.69547 756.17609 0 0 0
32.70428 757.06366 0 0 0
32.71308 748.0271 0 0 0
32.72188 737.67749 0 0 0
32.73068 743.13123 0 0 0
32.73949 723.88873 0 0 0
32.74829 713.70099 0 0 0
32.75709 702.3175 0 0 0
32.76589 679.68854 0 0 0
32.77469 656.93427 0 0 0
32.78350 643.90271 0 0 0
32.79230 620.76404 0 0 0
32.80110 574.66278 0 0 0
32.80990 544.01953 0 0 0
32.81870 495.47906 0 0 0
32.82751 415.29691 0 0 0
32.83631 268.61047 0 0 0
32.84511 172.26331 0 0 0
32.85391 179.66353 0 0 0
32.86271 183.38757 0 0 0
32.87152 182.96011 0 0 0
32.88032 172.1295 0 0 0
32.88912 165.58643 0 0 0
32.89792 172.33311 0 0 0
32.90673 183.29193 0 0 0
32.91553 187.01387 0 0 0
32.92433 190.12999 0 0 0
32.93313 188.0289 0 0 0
32.94193 188.02713 0 0 0
32.95074 180.4814 0 0 0
32.95954 169.38515 0 0 0
32.96834 168.31419 0 0 0
32.97714 177.19963 0 0 0
32.98594 183.79573 0 0 0
32.99475 185.02797 0 0 0
33.00355 186.16734 0 0 0
33.01235 191.94836 0 0 0
33.02115 185.62331 0 0 0
33.02996 164.78963 0 0 0
33.03876 152.15382 0 0 0
33.04756 160.23279 0 0 0
33.05636 166.26772 0 0 0
33.06516 170.93947 0 0 0
33.07397 172.55116 0 0 0
33.08277 169.19226 0 0 0
33.09157 175.52161 0 0 0
33.10037 181.65572 0 0 0
33.10917 187.66434 0 0 0
33.11798 193.07259 0 0 0
33.12678 195.77232 0 0 0
33.13558 195.41443 0 0 0
33.14438 193.12251 0 0 0
33.15318 189.98947 0 0 0
33.16199 190.192 0 0 0
33.17079 185.62331 0 0 0
33.17959 187.64421 0 0 0
33.18839 195.80898 0 0 0
33.19720 196.5296 0 0 0
33.20600 188.92361 0 0 0
33.21480 189.85091 0 0 0
33.22360 195.81726 0 0 0
33.23240 199.64662 0 0 0
33.24121 197.68243 0 0 0
33.25001 189.07986 0 0 0
33.25881 188.77533 0 0 0
33.26761 182.76497 0 0 0
33.27641 164.98878 0 0 0
33.28522 163.67134 0 0 0
33.29402 183.93358 0 0 0
33.30282 187.17955 0 0 0
33.31162 178.79526 0 0 0
33.32042 176.66121 0 0 0
33.32923 186.68317 0 0 0
33.33803 201.65508 0 0 0
33.34683 206.58617 0 0 0
33.35563 200.37634 0 0 0
33.36444 193.17365 0 0 0
33.37324 194.58929 0 0 0
33.38204 197.17531 0 0 0
33.39084 194.44463 0 0 0
33.39964 195.61174 0 0 0
33.40845 196.99063 0 0 0
33.41725 192.02464 0 0 0
33.42605 189.72711 0 0 0
33.43485 196.02495 0 0 0
33.44365 200.64787 0 0 0
33.45246 196.55913 0 0 0
33.46126 188.23361 0 0 0
33.47006 200.56104 0 0 0
33.47886 208.83961 0 0 0
33.48766 199.77585 0 0 0
33.49647 193.67221 0 0 0
33.50527 197.6263 0 0 0
33.51407 208.98566 0 0 0
33.52287 212.64003 0 0 0
33.53168 207.53139 0 0 0
33.54048 192.78453 0 0 0
33.54928 184.54929 0 0 0
33.55808 186.51515 0 0 0
33.56688 188.78465 0 0 0
33.57569 194.94441 0 0 0
33.58449 199.3405 0 0 0
33.59329 199.97119 0 0 0
33.60209 198.17424 0 0 0
33.61089 195.99609 0 0 0
33.61970 191.07114 0 0 0
33.62850 186.58705 0 0 0
33.63730 192.47984 0 0 0
33.64610 193.19341 0 0 0
33.65491 195.06645 0 0 0
33.66371 200.65248 0 0 0
33.67251 200.88884 0 0 0
33.68131 197.9187 0 0 0
33.69011 207.44017 0 0 0
33.69892 225.18167 0 0 0
33.70772 226.60573 0 0 0
33.71652 218.98282 0 0 0
33.72532 218.72559 0 0 0
33.73412 210.2731 0 0 0
33.74293 192.12291 0 0 0
33.75173 181.9725 0 0 0
33.76053 181.67038 0 0 0
33.76933 192.0096 0 0 0
33.77813 205.55421 0 0 0
33.78694 204.0665 0 0 0
33.79574 203.86334 0 0 0
33.80454 207.86203 0 0 0
33.81334 215.31734 0 0 0
33.82215 211.73787 0 0 0
33.83095 206.71045 0 0 0
33.83975 208.87387 0 0 0
33.84855 209.43631 0 0 0
33.85735 214.97198 0 0 0
33.86616 222.3414 0 0 0
33.87496 214.0573 0 0 0
33.88376 204.32425 0 0 0
33.89256 200.01416 0 0 0
33.90136 190.26575 0 0 0
33.91017 192.76935 0 0 0
33.91897 194.73466 0 0 0
33.92777 191.36923 0 0 0
33.93657 189.96579 0 0 0
33.94537 196.09471 0 0 0
33.95418 203.00696 0 0 0
33.96298 200.48668 0 0 0
33.97178 203.94557 0 0 0
33.98058 202.19611 0 0 0
33.98939 197.2608 0 0 0
33.99819 202.43224 0 0 0
34.00699 208.18634 0 0 0
34.01579 207.20139 0 0 0
34.02459 196.8613 0 0 0
34.03340 195.31491 0 0 0
34.04220 198.916 0 0 0
34.05100 196.40265 0 0 0
34.05980 197.65326 0 0 0
34.06860 205.02437 0 0 0
34.07741 209.02138 0 0 0
34.08621 207.38556 0 0 0
34.09501 194.89633 0 0 0
34.10381 191.22917 0 0 0
34.11262 202.96477 0 0 0
34.12142 200.54225 0 0 0
34.13022 195.21793 0 0 0
34.13902 200.95744 0 0 0
34.14782 196.75546 0 0 0
34.15663 195.2103 0 0 0
34.16543 189.53949 0 0 0
34.17423 186.59766 0 0 0
34.18303 196.83649 0 0 0
34.19183 195.86131 0 0 0
34.20064 198.29071 0 0 0
34.20944 203.49039 0 0 0
34.21824 201.54187 0 0 0
34.22704 203.18098 0 0 0
34.23584 203.06766 0 0 0
34.24465 198.9996 0 0 0
34.25345 195.631 0 0 0
34.26225 198.44389 0 0 0
34.27105 193.37085 0 0 0
34.27986 196.0936 0 0 0
34.28866 210.56581 0 0 0
34.29746 219.65022 0 0 0
34.30626 203.94698 0 0 0
34.31506 189.03632 0 0 0
34.32387 188.51947 0 0 0
34.33267 197.76169 0 0 0
34.34147 205.38332 0 0 0
34.35027 211.63751 0 0 0
34.35907 212.74092 0 0 0
34.36788 214.01923 0 0 0
34.37668 215.85265 0 0 0
34.38548 208.26857 0 0 0
34.39428 205.62054 0 0 0
34.40308 210.04378 0 0 0
34.41189 203.58319 0 0 0
34.42069 200.6058 0 0 0
34.42949 208.55421 0 0 0
34.43829 213.36255 0 0 0
34.44710 208.34024 0 0 0
34.45590 196.02068 0 0 0
34.46470 198.89864 0 0 0
34.47350 207.09193 0 0 0
34.48230 208.35519 0 0 0
34.49111 216.94832 0 0 0
34.49991 218.88748 0 0 0
34.50871 209.44148 0 0 0
34.51751 197.95052 0 0 0
34.52631 192.44438 0 0 0
34.53512 201.38951 0 0 0
34.54392 205.60326 0 0 0
34.55272 200.32333 0 0 0
34.56152 201.62508 0 0 0
34.57033 206.11165 0 0 0
34.57913 209.58112 0 0 0
34.58793 209.48587 0 0 0
34.59673 207.46852 0 0 0
34.60553 203.58464 0 0 0
34.61434 197.16042 0 0 0
34.62314 196.99719 0 0 0
34.63194 204.37343 0 0 0
34.64074 204.22801 0 0 0
34.64954 193.17603 0 0 0
34.65835 190.15326 0 0 0
34.66715 196.2373 0 0 0
34.67595 200.73883 0 0 0
34.68475 194.5276 0 0 0
34.69355 211.06906 0 0 0
34.70236 219.79601 0 0 0
34.71116 216.6275 0 0 0
34.71996 212.14752 0 0 0
34.72876 207.27457 0 0 0
34.73757 216.73599 0 0 0
34.74637 232.41957 0 0 0
34.75517 231.1066 0 0 0
34.76397 229.21895 0 0 0
34.77277 213.4348 0 0 0
34.78158 200.50818 0 0 0
34.79038 208.94098 0 0 0
34.79918 215.61179 0 0 0
34.80798 213.98082 0 0 0
34.81678 210.98059 0 0 0
34.82559 207.73428 0 0 0
34.83439 207.42676 0 0 0
34.84319 213.98381 0 0 0
34.85199 215.70685 0 0 0
34.86079 203.99269 0 0 0
34.86960 203.26775 0 0 0
34.87840 200.71654 0 0 0
34.88720 197.02209 0 0 0
34.89600 201.9536 0 0 0
34.90481 195.19084 0 0 0
34.91361 196.38176 0 0 0
34.92241 207.26506 0 0 0
34.93121 213.04192 0 0 0
34.94001 205.79091 0 0 0
34.94882 203.23972 0 0 0
34.95762 210.70314 0 0 0
34.96642 216.96066 0 0 0
34.97522 215.32896 0 0 0
34.98402 213.15501 0 0 0
34.99283 216.379 0 0 0
35.00163 219.39223 0 0 0
35.01043 216.67738 0 0 0
35.01923 210.00934 0 0 0
35.02804 206.894 0 0 0
35.03684 213.43796 0 0 0
35.04564 219.98552 0 0 0
35.05444 215.88069 0 0 0
35.06324 204.8644 0 0 0
35.07205 199.62828 0 0 0
35.08085 206.79128 0 0 0
35.08965 212.50249 0 0 0
35.09845 217.84738 0 0 0
35.10725 223.26309 0 0 0
35.11606 223.07292 0 0 0
35.12486 215.32768 0 0 0
35.13366 210.27373 0 0 0
35.14246 203.46011 0 0 0
35.15126 199.95093 0 0 0
35.16007 199.86998 0 0 0
35.16887 204.32138 0 0 0
35.17767 206.76428 0 0 0
35.18647 208.16251 0 0 0
35.19528 218.60655 0 0 0
35.20408 231.7739 0 0 0
loop_
_gsas_i100_meas
4.71
15.79
8.11
6.58
8.69
1.67
17.68
17.69
2.69
100.00
15.73
0.88
14.16
0.96
33.77
15.76
9.24
0.04
25.59
14.13
2.02
1.52
1.76
1.52
3.09
60.05
0.21
11.05
26.73
1.49
-0.66
0.35
0.42
3.99
3.60
-0.00
0.00
9.10
10.42
0.54
10.36
1.77
0.00
0.31
0.07
0.91
2.68
0.56
29.26
6.12
1.90
1.66
2.83
0.06
1.04
3.36
0.56
1.09
4.94
7.37
0.00
9.67
20.71
0.34
6.79
0.91
3.07
0.27
2.52
0.46
0.06
1.61
1.54
3.48
0.18
1.78
2.88
2.39
0.38
1.14
3.42
1.53
0.00
2.73
2.23
0.10
0.00
3.23
0.70
25.99
1.14
0.24
0.92
0.22
0.07
0.92
0.99
0.18
0.16
2.26
6.03
5.59
2.03
0.21
0.00
1.57
0.22
0.44
0.73
2.80
3.16
6.18
14.40
9.16
1.32
0.01
0.84
2.26
0.15
1.64
0.01
0.56
0.28
0.17
0.97
1.21
8.00
6.29
2.24
0.20
8.00
0.19
0.01
-0.01
2.17
0.03
3.21
1.15
0.00
0.12
0.20
1.74
0.13
-0.58
0.97
2.11
8.21
5.22
0.00
0.55
0.01
10.97
1.43
1.66
0.86
0.24
-0.00
1.23
0.53
0.51
0.14
6.22
0.29
2.07
0.06
0.01
3.40
0.59
1.90
0.02
0.78
0.06
1.49
0.33
0.80
2.22
0.01
3.48
0.00
0.00
0.97
0.20
0.93
0.81
0.08
0.09
0.44
0.41
0.22
