#------------------------------------------------------------------------------
#$Date: 2021-02-05 01:04:31 +0200 (Fri, 05 Feb 2021) $
#$Revision: 261628 $
#$URL: file:///home/coder/svn-repositories/cod/cif/7/24/18/7241845.cif $
#------------------------------------------------------------------------------
#
# This file is available in the Crystallography Open Database (COD),
# http://www.crystallography.net/
#
# All data on this site have been placed in the public domain by the
# contributors.
#
data_7241845
loop_
_publ_author_name
'Gu\'nka, Piotr A.'
'Hanfland, Michael'
'Chen, Yu-Sheng'
'Zachara, Janusz'
_publ_section_title
;
 High-pressure and low-temperature structural study of claudetite I, a
 monoclinic layered As2O3 polymorph
;
_journal_issue                   3
_journal_name_full               CrystEngComm
_journal_page_first              638
_journal_page_last               644
_journal_paper_doi               10.1039/D0CE01401J
_journal_volume                  23
_journal_year                    2021
_chemical_formula_moiety         'As2 O3'
_chemical_formula_sum            'As2 O3'
_chemical_formula_weight         197.84
_chemical_name_common            'claudetite I'
_chemical_name_systematic
;
arsenic(III) oxide
;
_space_group_IT_number           14
_space_group_name_Hall           '-P 2yn'
_space_group_name_H-M_alt        'P 1 21/n 1'
_symmetry_cell_setting           monoclinic
_symmetry_space_group_name_H-M   'P 1 21/n 1'
_audit_creation_date             2020-10-21T10:59
_audit_creation_method           'created in GSAS-II'
_audit_update_record
;
2020-10-22 deposited with the CCDC.	2020-12-10 downloaded from the CCDC.
;
_cell_angle_alpha                90
_cell_angle_beta                 94.364(4)
_cell_angle_gamma                90
_cell_formula_units_Z            4
_cell_length_a                   5.2690(4)
_cell_length_b                   12.82716(16)
_cell_length_c                   4.51254(30)
_cell_measurement_pressure       5.4e5(5)
_cell_measurement_temperature    293
_cell_volume                     304.10(3)
_computing_data_reduction        Fit2D
_computing_structure_refinement
'GSAS-II (Toby & Von Dreele, J. Appl. Cryst. 46, 544-549, 2013)'
_diffrn_ambient_pressure         5.4e5(5)
_diffrn_ambient_temperature      293
_diffrn_detector                 'Mar555 flat panel'
_diffrn_detector_type            'Mar555 flat panel'
_diffrn_measurement_device_type  'ESRF ID09A beamline'
_diffrn_radiation_monochromator  Si
_diffrn_radiation_polarisn_ratio 0.9900
_diffrn_radiation_probe          x-ray
_diffrn_radiation_wavelength     0.41421
_diffrn_source                   'ESRF ID09A'
_diffrn_source_type              synchrotron
_exptl_crystal_colour            colourless
_exptl_crystal_density_diffrn    4.3212
_exptl_crystal_description       'white powder'
_pd_block_id                     2020-10-21T10:59|clau1_003rietveld||id09b
_pd_meas_number_of_points        4000
_pd_phase_name                   claudetiteI
_pd_prep_pressure                100.0(1)
_pd_prep_temperature             293
_pd_proc_ls_background_function
;
Background function: "chebyschev" function with 30 terms:
    782.8(6), 239.2(26), -1114(12), 5648(19), 6.191(5)e4, -278335(30), 
    -1.28727(5)e6, 6.063937(16)e6, 1.483102(5)e7, -7.2912329(16)e7, 
    -1.01039853(18)e8, 5.30395748(26)e8, 4.3281636(5)e8, -2.500318791(24)e9, 
    -1.22014767(6)e9, 8.006860697(13)e9, 2.319376186(30)e9, -1.7915873546(12)e10, 
    -2.980478975(19)e9, 2.8351649121(23)e10, 2.52825269(5)e9, 
    -3.1628384839(30)e10, -1.32117156(7)e9, 2.4348018031(29)e10, 
    3.4919292(5)e8, -1.2316078086(16)e10, -8.761903(9)e6, 3.685288436(12)e9, 
    -1.164285(10)e7, -4.9443567(5)e8, 
;
_pd_proc_ls_pref_orient_corr
;
Simple spherical harmonic correction Order = 6
    Coefficients:  0:0:C(4,4) = 0.528(18); 0:0:C(6,6) = 0.089(17); 
    0:0:C(6,-2) = -0.156(21); 0:0:C(2,-2) = -0.074(11); 0:0:C(4,-4) = -0.134(16); 
    0:0:C(2,2) = -0.263(11); 0:0:C(4,0) = 0.293(14); 0:0:C(6,-6) = 0.471(21); 
    0:0:C(6,4) = 0.323(23); 0:0:C(4,2) = -0.388(18); 0:0:C(6,2) = -0.241(20); 
    0:0:C(6,-4) = -0.055(20); 0:0:C(6,0) = -0.028(20); 0:0:C(2,0) = 0.816(13); 
    0:0:C(4,-2) = -0.402(16); 
;
_pd_proc_ls_profile_function
;
Finger-Cox-Jephcoat function parameters U, V, W, X, Y, SH/L:
  peak variance(Gauss) = Utan(Th)^2^+Vtan(Th)+W:
  peak HW(Lorentz) = X/cos(Th)+Ytan(Th); SH/L = S/L+H/L
  U, V, W in (centideg)^2^, X & Y in centideg
    53(30), -14(6), 1.95(28), 0.23(9), 21.3(26), 0.002, 
  Crystallite size in microns with "isotropic" model:
  parameters: Size, G/L mix
    1.000, 1.000, 
  Microstrain, "isotropic" model (10^6^ * delta Q/Q)
    parameters: Mustrain, G/L mix
    1000.000, 1.000, 

;
_pd_proc_ls_prof_R_factor        0.00660
_pd_proc_ls_prof_wR_expected     0.03477
_pd_proc_ls_prof_wR_factor       0.01017
_refine_ls_goodness_of_fit_all   0.299
_refine_ls_matrix_type           full
_refine_ls_number_parameters     72
_refine_ls_R_Fsqd_factor         0.09325
_refine_ls_shift/su_max          0.0004
_refine_ls_wR_factor_obs         0.01020
_reflns_d_resolution_high        1.202
_reflns_d_resolution_low         6.414
_reflns_limit_h_max              4
_reflns_limit_h_min              0
_reflns_limit_k_max              10
_reflns_limit_k_min              0
_reflns_limit_l_max              3
_reflns_limit_l_min              -3
_reflns_number_total             183
_cod_data_source_file            d0ce01401j3.cif
_cod_data_source_block           clau1_003rietveld
_cod_depositor_comments
'Adding full bibliography for 7241824--7241862.cif.'
_cod_original_cell_volume        304.104(11)
_cod_database_code               7241845
_refine_ls_r_f_factor            0.04845
_gsas_proc_ls_prof_r_b_factor    0.01330
_gsas_proc_ls_prof_wr_b_factor   0.02634
loop_
_space_group_symop_id
_space_group_symop_operation_xyz
1 x,y,z
2 1/2-x,1/2+y,1/2-z
3 -x,-y,-z
4 1/2+x,1/2-y,1/2+z
loop_
_atom_site_label
_atom_site_type_symbol
_atom_site_fract_x
_atom_site_fract_y
_atom_site_fract_z
_atom_site_occupancy
_atom_site_adp_type
_atom_site_U_iso_or_equiv
_atom_site_symmetry_multiplicity
As1 As 0.2560(7) 0.09887(18) 0.0386(9) 1.000 Uiso 0.0011(12) 4
As2 As 0.3512(5) 0.35064(19) 0.0037(9) 1.000 Uiso 0.0011 4
O3 O 0.4211(18) 0.21889(31) 0.086(5) 1.000 Uiso 0.0011 4
O4 O 0.6565(11) 0.3876(10) 0.1564(13) 1.000 Uiso 0.0011 4
O5 O -0.0425(14) 0.1451(11) 0.1409(14) 1.000 Uiso 0.0011 4
loop_
_atom_type_symbol
_atom_type_number_in_cell
_atom_type_scat_Cromer_Mann_a1
_atom_type_scat_Cromer_Mann_a2
_atom_type_scat_Cromer_Mann_a3
_atom_type_scat_Cromer_Mann_a4
_atom_type_scat_Cromer_Mann_b1
_atom_type_scat_Cromer_Mann_b2
_atom_type_scat_Cromer_Mann_b3
_atom_type_scat_Cromer_Mann_b4
_atom_type_scat_Cromer_Mann_c
_atom_type_scat_length_neutron
_atom_type_scat_source
_atom_type_scat_dispersion_real
_atom_type_scat_dispersion_imag
_atom_type_scat_dispersion_source
As 8 16.6723 6.0701 3.4313 4.2779 2.6345 0.2647 12.9479 47.7972 2.531 0.658
https://subversion.xray.aps.anl.gov/pyGSAS/trunk/atmdata.py 0.283 0.775
https://subversion.xray.aps.anl.gov/pyGSAS/trunk/atmdata.py
O 12 3.0485 2.2868 1.5463 0.867 13.2771 5.7011 0.3239 32.9089 0.2508 0.5805
https://subversion.xray.aps.anl.gov/pyGSAS/trunk/atmdata.py 0.002 0.002
https://subversion.xray.aps.anl.gov/pyGSAS/trunk/atmdata.py
loop_
_geom_angle_atom_site_label_1
_geom_angle_atom_site_label_2
_geom_angle_atom_site_label_3
_geom_angle
_geom_angle_site_symmetry_1
_geom_angle_site_symmetry_2
_geom_angle_site_symmetry_3
_geom_angle_publ_flag
O3 As1 O4 98.0(8) 1_555 1_555 4_454 yes
O3 As1 O5 96.6(7) 1_555 1_555 1_555 yes
O4 As1 O5 91.0(4) 4_454 1_555 1_555 yes
O3 As2 O4 90.3(4) 1_555 1_555 1_555 yes
O3 As2 O5 98.6(10) 1_555 1_555 4_554 yes
O4 As2 O5 90.6(4) 1_555 1_555 4_554 yes
As1 O3 As2 135.5(4) 1_555 1_555 1_555 yes
As1 O4 As2 126.8(5) 4_555 1_555 1_555 yes
As1 O5 As2 126.8(4) 1_555 1_555 4_455 yes
loop_
_geom_bond_atom_site_label_1
_geom_bond_atom_site_label_2
_geom_bond_distance
_geom_bond_site_symmetry_1
_geom_bond_site_symmetry_2
_geom_bond_publ_flag
As1 O3 1.7733(29) 1_555 1_555 yes
As1 O4 1.7725(29) 1_555 4_454 yes
As1 O5 1.7749(29) 1_555 1_555 yes
As2 O3 1.7634(29) 1_555 1_555 yes
As2 O4 1.7660(29) 1_555 1_555 yes
As2 O5 1.7706(29) 1_555 4_554 yes
loop_
_pd_meas_2theta_scan
_pd_meas_intensity_total
_pd_calc_intensity_total
_pd_proc_intensity_bkg_calc
_pd_proc_ls_weight
0.00440 110.88128 0 0 0
0.01321 112.02883 0 0 0
0.02202 113.08712 0 0 0
0.03083 109.97532 0 0 0
0.03963 107.50637 0 0 0
0.04844 105.31312 0 0 0
0.05725 105.37281 0 0 0
0.06605 104.3267 0 0 0
0.07486 104.59062 0 0 0
0.08367 104.16719 0 0 0
0.09248 104.85167 0 0 0
0.10128 104.63193 0 0 0
0.11009 104.52472 0 0 0
0.11890 104.90537 0 0 0
0.12770 105.54061 0 0 0
0.13651 105.61244 0 0 0
0.14532 104.21741 0 0 0
0.15413 105.15057 0 0 0
0.16293 105.43537 0 0 0
0.17174 106.50997 0 0 0
0.18055 106.20427 0 0 0
0.18935 106.298 0 0 0
0.19816 106.12174 0 0 0
0.20697 106.12741 0 0 0
0.21578 105.31084 0 0 0
0.22458 105.50249 0 0 0
0.23339 105.95099 0 0 0
0.24220 107.08839 0 0 0
0.25100 108.15091 0 0 0
0.25981 108.89423 0 0 0
0.26862 111.15749 0 0 0
0.27743 115.63641 0 0 0
0.28623 117.59696 0 0 0
0.29504 116.4302 0 0 0
0.30385 114.6059 0 0 0
0.31265 112.38779 0 0 0
0.32146 111.54327 0 0 0
0.33027 111.78263 0 0 0
0.33908 112.20147 0 0 0
0.34788 112.03135 0 0 0
0.35669 111.54203 0 0 0
0.36550 110.15353 0 0 0
0.37430 110.05855 0 0 0
0.38311 109.86495 0 0 0
0.39192 111.04333 0 0 0
0.40073 111.5141 0 0 0
0.40953 112.9538 0 0 0
0.41834 114.35498 0 0 0
0.42715 114.35748 0 0 0
0.43595 114.10443 0 0 0
0.44476 113.83931 0 0 0
0.45357 114.01981 0 0 0
0.46238 113.85059 0 0 0
0.47118 112.17596 0 0 0
0.47999 110.50166 0 0 0
0.48880 110.48582 0 0 0
0.49760 110.61709 0 0 0
0.50641 111.76645 0 0 0
0.51522 112.70025 0 0 0
0.52403 113.31376 0 0 0
0.53283 112.61272 0 0 0
0.54164 111.75623 0 0 0
0.55045 111.86808 0 0 0
0.55925 112.70805 0 0 0
0.56806 113.25793 0 0 0
0.57687 112.07762 0 0 0
0.58568 111.89946 0 0 0
0.59448 111.69861 0 0 0
0.60329 112.24815 0 0 0
0.61210 112.46396 0 0 0
0.62091 112.63622 0 0 0
0.62971 112.33858 0 0 0
0.63852 112.02351 0 0 0
0.64733 110.99883 0 0 0
0.65613 110.32499 0 0 0
0.66494 110.73078 0 0 0
0.67375 112.08038 0 0 0
0.68256 112.65051 0 0 0
0.69136 112.82188 0 0 0
0.70017 112.87254 0 0 0
0.70898 113.53629 0 0 0
0.71778 114.0345 0 0 0
0.72659 114.43555 0 0 0
0.73540 114.0812 0 0 0
0.74421 113.27271 0 0 0
0.75301 113.36128 0 0 0
0.76182 113.31378 0 0 0
0.77063 113.30617 0 0 0
0.77943 113.00538 0 0 0
0.78824 114.07462 0 0 0
0.79705 113.52671 0 0 0
0.80586 113.56056 0 0 0
0.81466 113.86357 0 0 0
0.82347 114.41327 0 0 0
0.83228 113.62103 0 0 0
0.84108 113.89872 0 0 0
0.84989 114.02803 0 0 0
0.85870 115.28915 0 0 0
0.86751 115.67013 0 0 0
0.87631 116.55635 0 0 0
0.88512 117.19505 0 0 0
0.89393 119.01133 0 0 0
0.90273 120.02425 0 0 0
0.91154 121.30619 0 0 0
0.92035 121.94592 0 0 0
0.92916 122.73228 0 0 0
0.93796 124.86527 0 0 0
0.94677 126.9808 0 0 0
0.95558 129.5453 0 0 0
0.96438 129.61469 0 0 0
0.97319 130.59406 0 0 0
0.98200 131.22807 0 0 0
0.99081 134.42601 0 0 0
0.99961 138.91035 0 0 0
1.00842 142.22159 0 0 0
1.01723 146.34416 0 0 0
1.02603 151.04527 0 0 0
1.03484 160.28993 0 0 0
1.04365 168.4823 0 0 0
1.05246 178.25523 0 0 0
1.06126 184.81668 0 0 0
1.07007 197.17075 0 0 0
1.07888 203.57504 0 0 0
1.08768 209.57251 0 0 0
1.09649 213.88902 0 0 0
1.10530 218.76981 0 0 0
1.11411 225.05948 0 0 0
1.12291 230.94792 0 0 0
1.13172 237.80217 0 0 0
1.14053 243.50113 0 0 0
1.14933 247.26175 0 0 0
1.15814 249.33064 0 0 0
1.16695 250.75069 0 0 0
1.17576 252.82367 0 0 0
1.18456 255.02449 0 0 0
1.19337 257.37665 0 0 0
1.20218 259.07526 0 0 0
1.21099 261.16077 0 0 0
1.21979 263.74875 0 0 0
1.22860 265.8522 0 0 0
1.23741 268.28882 0 0 0
1.24621 270.18137 0 0 0
1.25502 271.62695 0 0 0
1.26383 272.63379 0 0 0
1.27264 274.57861 0 0 0
1.28144 276.88559 0 0 0
1.29025 280.70963 0 0 0
1.29906 283.00305 0 0 0
1.30786 285.11856 0 0 0
1.31667 286.60947 0 0 0
1.32548 288.05167 0 0 0
1.33429 289.45844 0 0 0
1.34309 290.03122 0 0 0
1.35190 291.17981 0 0 0
1.36071 291.93701 0 0 0
1.36951 293.09332 0 0 0
1.37832 294.13049 0 0 0
1.38713 296.27655 0 0 0
1.39594 298.41171 0 0 0
1.40474 299.58063 0 0 0
1.41355 299.73169 0 0 0
1.42236 300.89734 0 0 0
1.43116 302.284 0 0 0
1.43997 305.25125 0 0 0
1.44878 306.93958 0 0 0
1.45759 306.65793 0 0 0
1.46639 306.33548 0 0 0
1.47520 308.35959 0 0 0
1.48401 310.5368 0 0 0
1.49281 312.36249 0 0 0
1.50162 314.05984 0 0 0
1.51043 314.61627 0 0 0
1.51924 315.06305 0 0 0
1.52804 315.74063 0 0 0
1.53685 316.77167 0 0 0
1.54566 318.29202 0 0 0
1.55446 319.18631 0 0 0
1.56327 319.56799 0 0 0
1.57208 318.94604 0 0 0
1.58089 319.15359 0 0 0
1.58969 320.21069 0 0 0
1.59850 322.31592 0 0 0
1.60731 323.15485 0 0 0
1.61611 324.47812 0 0 0
1.62492 325.04819 0 0 0
1.63373 326.28757 0 0 0
1.64254 328.09564 0 0 0
1.65134 328.29193 0 0 0
1.66015 329.31677 0 0 0
1.66896 329.70172 0 0 0
1.67776 330.55115 0 0 0
1.68657 330.99637 0 0 0
1.69538 332.91721 0 0 0
1.70419 334.30759 0 0 0
1.71299 334.30527 0 0 0
1.72180 334.51968 0 0 0
1.73061 335.53363 0 0 0
1.73941 336.19257 0 0 0
1.74822 336.72153 0 0 0
1.75703 337.32364 0 0 0
1.76584 338.45547 0 0 0
1.77464 339.21606 0 0 0
1.78345 340.33035 0 0 0
1.79226 341.3172 0 0 0
1.80107 342.65817 0 0 0
1.80987 343.13992 0 0 0
1.81868 343.38074 0 0 0
1.82749 345.3212 0 0 0
1.83629 345.74512 0 0 0
1.84510 346.14026 0 0 0
1.85391 346.37305 0 0 0
1.86272 348.29318 0 0 0
1.87152 349.1572 0 0 0
1.88033 349.40631 0 0 0
1.88914 348.95847 0 0 0
1.89794 349.58771 0 0 0
1.90675 350.39581 0 0 0
1.91556 351.74005 0 0 0
1.92437 352.47546 0 0 0
1.93317 352.9541 0 0 0
1.94198 352.66104 0 0 0
1.95079 353.27289 0 0 0
1.95959 355.2175 0 0 0
1.96840 356.46735 0 0 0
1.97721 356.41141 0 0 0
1.98602 356.49191 0 0 0
1.99482 357.7706 0 0 0
2.00363 359.3584 0 0 0
2.01244 359.70142 0 0 0
2.02124 359.53613 0 0 0
2.03005 359.37241 0 0 0
2.03886 360.02264 0 0 0
2.04767 360.67282 0 0 0
2.05647 361.73648 0 0 0
2.06528 362.13596 0 0 0
2.07409 362.78595 0 0 0
2.08289 363.77603 0 0 0
2.09170 364.45474 0 0 0
2.10051 364.74542 0 0 0
2.10932 366.26508 0 0 0
2.11812 366.00391 0 0 0
2.12693 366.53897 0 0 0
2.13574 367.28528 0 0 0
2.14454 369.52411 0 0 0
2.15335 370.16019 0 0 0
2.16216 370.38956 0 0 0
2.17097 370.42459 0 0 0
2.17977 371.12857 0 0 0
2.18858 371.37561 0 0 0
2.19739 371.70407 0 0 0
2.20619 372.12518 0 0 0
2.21500 372.31592 0 0 0
2.22381 373.46457 0 0 0
2.23262 373.67413 0 0 0
2.24142 373.79495 0 0 0
2.25023 373.85938 0 0 0
2.25904 375.1109 0 0 0
2.26784 376.59897 0 0 0
2.27665 377.48788 0 0 0
2.28546 377.52582 0 0 0
2.29427 377.70941 0 0 0
2.30307 378.52609 0 0 0
2.31188 379.51022 0 0 0
2.32069 380.08948 0 0 0
2.32950 379.29855 0 0 0
2.33830 378.57925 0 0 0
2.34711 379.41354 0 0 0
2.35592 380.46747 0 0 0
2.36472 381.42624 0 0 0
2.37353 382.29211 0 0 0
2.38234 383.17349 0 0 0
2.39115 384.0141 0 0 0
2.39995 384.50104 0 0 0
2.40876 384.78876 0 0 0
2.41757 385.565 0 0 0
2.42637 385.94586 0 0 0
2.43518 386.52118 0 0 0
2.44399 386.64359 0 0 0
2.45280 386.22476 0 0 0
2.46160 386.28857 0 0 0
2.47041 387.81384 0 0 0
2.47922 388.25281 0 0 0
2.48802 388.13519 0 0 0
2.49683 388.36264 0 0 0
2.50564 389.44662 0 0 0
2.51445 390.60849 0 0 0
2.52325 391.29822 0 0 0
2.53206 391.38925 0 0 0
2.54087 391.66281 0 0 0
2.54967 392.01404 0 0 0
2.55848 393.04919 0 0 0
2.56729 394.16702 0 0 0
2.57610 395.35596 0 0 0
2.58490 395.91742 0 0 0
2.59371 396.16653 0 0 0
2.60252 395.76749 0 0 0
2.61132 395.54599 0 0 0
2.62013 395.98434 0 0 0
2.62894 396.64883 0 0 0
2.63775 397.44601 0 0 0
2.64655 398.04062 0 0 0
2.65536 398.21484 0 0 0
2.66417 398.77112 0 0 0
2.67297 398.94467 0 0 0
2.68178 398.79913 0 0 0
2.69059 399.82718 0 0 0
2.69940 400.48788 0 0 0
2.70820 401.3952 0 0 0
2.71701 401.69553 0 0 0
2.72582 401.80228 0 0 0
2.73462 402.12128 0 0 0
2.74343 403.60269 0 0 0
2.75224 404.77658 0 0 0
2.76105 404.56622 0 0 0
2.76985 404.28513 0 0 0
2.77866 404.07458 0 0 0
2.78747 403.79422 0 0 0
2.79627 404.46985 0 0 0
2.80508 405.7822 0 0 0
2.81389 406.71545 0 0 0
2.82270 406.92807 0 0 0
2.83150 407.30313 0 0 0
2.84031 408.72272 0 0 0
2.84912 409.16071 0 0 0
2.85792 408.98846 0 0 0
2.86673 409.20547 0 0 0
2.87554 410.45685 0 0 0
2.88435 411.84583 0 0 0
2.89315 412.34714 0 0 0
2.90196 411.79822 0 0 0
2.91077 411.50671 0 0 0
2.91958 412.25235 413.242127 413.186088 0.002425699
2.92838 412.81885 414.04215 413.985073 0.00242237
2.93719 412.95346 414.768733 414.710585 0.00242158
2.94600 413.95004 415.426202 415.366948 0.00241575
2.95480 415.25439 416.019425 415.959031 0.002408162
2.96361 416.55038 416.553702 416.49213 0.00240067
2.97242 416.91263 417.034596 416.971807 0.002398584
2.98123 417.17743 417.467831 417.403784 0.002397062
2.99003 417.81757 417.859187 417.793839 0.002393389
2.99884 417.81985 418.214428 418.147733 0.002393376
3.00765 417.52905 418.539198 418.471109 0.002395043
3.01645 418.35065 418.839001 418.76947 0.002390339
3.02526 419.15588 419.119126 419.048099 0.002385747
3.03407 419.50525 419.384602 419.312024 0.00238376
3.04288 419.88043 419.640165 419.56598 0.00238163
3.05168 420.31799 419.890258 419.814404 0.002379151
3.06049 420.8584 420.138978 420.061391 0.002376096
3.06930 422.13199 420.390089 420.310702 0.002368927
3.07810 421.97311 420.646973 420.565714 0.002369819
3.08691 421.42804 420.912703 420.829497 0.002372884
3.09572 421.01834 421.189959 421.104728 0.002375193
3.10453 421.84818 421.481108 421.393765 0.002370521
3.11333 422.94879 421.790375 421.698594 0.002364352
3.12214 424.01068 422.114984 422.020893 0.002358431
3.13095 424.69424 422.458511 422.362009 0.002354635
3.13975 424.11072 422.822013 422.722993 0.002357875
3.14856 424.17133 423.20624 423.10459 0.002357538
3.15737 425.70621 423.611699 423.507299 0.002349038
3.16618 427.03195 424.03861 423.931331 0.002341745
3.17498 427.7139 424.486995 424.3767 0.002338011
3.18379 426.8046 424.956625 424.843168 0.002342993
3.19260 426.2937 425.447096 425.330321 0.002345801
3.20140 426.82828 425.957819 425.837559 0.002342863
3.21021 428.5372 426.488033 426.364109 0.00233352
3.21902 428.87912 427.036837 426.909059 0.002331659
3.22783 429.00812 427.603251 427.471411 0.002330958
3.23663 429.06412 428.186137 428.050015 0.002330654
3.24544 429.67673 428.784288 428.643646 0.002327331
3.25425 430.50656 429.396432 429.251011 0.002322845
3.26305 431.19635 430.021227 429.870752 0.002319129
3.27186 431.21188 430.657302 430.501471 0.002319046
3.28067 431.55341 431.303262 431.14175 0.00231721
3.28948 432.25937 431.957691 431.790144 0.002313426
3.29828 432.42682 432.619171 432.445206 0.00231253
3.30709 433.64926 433.286316 433.105515 0.002306011
3.31590 434.767 433.957751 433.769656 0.002300083
3.32470 434.67697 434.632123 434.436235 0.002300559
3.33351 434.33731 435.308146 435.103919 0.002302358
3.34232 434.58557 435.991579 435.771376 0.002301043
3.35113 436.10486 436.667269 436.437413 0.002293026
3.35993 436.41852 437.341055 437.100816 0.002291378
3.36874 436.42795 438.011903 437.760472 0.002291329
3.37755 437.33939 438.678839 438.415319 0.002286554
3.38635 437.93979 439.341003 439.064396 0.002283419
3.39516 437.76981 439.997605 439.706799 0.002284306
3.40397 438.21567 440.647963 440.341711 0.002281981
3.41278 438.77237 441.291496 440.968401 0.002279086
3.42158 439.2569 441.927725 441.586208 0.002276572
3.43039 439.43347 442.556286 442.194565 0.002275657
3.43920 440.39682 443.176953 442.793004 0.002270679
3.44801 441.83597 443.789599 443.381112 0.002263283
3.45681 442.50662 444.394253 443.958584 0.002259853
3.46562 442.99442 444.991054 444.52516 0.002257365
3.47443 442.62457 445.580371 445.08073 0.002259251
3.48323 442.88593 446.162681 445.625199 0.002257918
3.49204 444.12411 446.738685 446.158569 0.002251623
3.50085 444.39737 447.309309 446.680916 0.002250238
3.50966 445.30994 447.87574 447.19238 0.002245627
3.51846 445.88559 448.439508 447.693187 0.002242728
3.52727 446.62076 449.002521 448.183608 0.002239036
3.53608 446.11389 449.567183 448.663978 0.00224158
3.54488 446.20316 450.136556 449.134693 0.002241132
3.55369 446.57489 450.714533 449.596194 0.002239266
3.56250 447.77127 451.306177 450.048984 0.002233283
3.57131 449.4924 451.918135 450.493602 0.002224732
3.58011 450.41312 452.559266 450.930613 0.002220184
3.58892 451.57706 453.241786 451.360656 0.002214461
3.59773 452.23755 453.98271 451.784371 0.002211227
3.60653 453.06131 454.806602 452.202436 0.002207207
3.61534 453.96454 455.750036 452.615551 0.002202815
3.62415 456.10449 456.8704 453.024432 0.00219248
3.63296 457.80914 458.271455 453.429826 0.002184316
3.64176 459.19666 460.205829 453.832469 0.002177716
3.65057 462.79871 463.467769 454.233131 0.002160767
3.65938 469.69037 470.422602 454.632568 0.002129062
3.66818 480.95261 486.243216 455.031545 0.002079207
3.67699 518.99884 517.462946 455.430821 0.001926787
3.68580 554.42889 564.414307 455.831146 0.001803658
3.69461 625.62921 609.861144 456.233273 0.001598391
3.70341 639.88983 617.654428 456.637928 0.001562769
3.71222 597.22595 579.777536 457.045842 0.001674408
3.72103 515.17407 531.301102 457.457705 0.001941091
3.72983 492.15762 495.969974 457.87421 0.002031869
3.73864 476.26828 477.235006 458.296007 0.002099657
3.74745 471.22122 469.270564 458.723732 0.002122146
3.75626 469.04919 466.15088 459.157992 0.002131973
3.76506 468.1553 464.811066 459.599359 0.002136043
3.77387 467.77161 464.153012 460.048391 0.002137795
3.78268 467.34473 463.834359 460.505603 0.002139748
3.79148 467.02939 463.727757 460.971476 0.002141193
3.80029 466.49554 463.768001 461.446458 0.002143643
3.80910 465.94754 463.914995 461.930963 0.002146164
3.81791 466.00134 464.142438 462.425362 0.002145917
3.82671 466.67197 464.432497 462.929996 0.002142833
3.83552 466.49609 464.772774 463.445184 0.002143641
3.84433 466.54031 465.154433 463.971175 0.002143438
3.85313 467.19128 465.571062 464.508207 0.002140451
3.86194 467.97662 466.017905 465.056462 0.002136859
3.87075 468.95923 466.491387 465.616091 0.002132382
3.87956 470.31311 466.988761 466.187209 0.002126243
3.88836 470.51947 467.507885 466.76989 0.002125311
3.89717 470.09476 468.048297 467.364165 0.002127231
3.90598 469.63638 468.606125 467.970048 0.002129307
3.91478 471.11838 469.181466 468.5875 0.002122609
3.92359 473.09659 469.773348 469.216449 0.002113733
3.93240 474.13605 470.380932 469.856794 0.002109099
3.94121 474.11414 471.003478 470.508395 0.002109197
3.95001 473.92493 471.640293 471.171062 0.002110039
3.95882 473.89432 472.290805 471.84464 0.002110175
3.96763 475.3147 472.954407 472.528874 0.002103869
3.97643 476.59888 473.630539 473.223497 0.0020982
3.98524 477.13675 474.318679 473.928239 0.002095835
3.99405 477.04736 475.018293 474.64278 0.002096228
4.00286 477.15375 475.728876 475.366797 0.002095761
4.01166 477.38821 476.449838 476.099857 0.002094731
4.02047 478.96765 477.180758 476.841675 0.002087824
4.02928 480.35629 477.921076 477.59181 0.002081788
4.03808 481.05017 478.670268 478.349838 0.002078785
4.04689 481.1727 479.427809 479.115324 0.002078256
4.05570 482.31628 480.193157 479.887804 0.002073328
4.06451 483.12927 480.965796 480.666828 0.002069839
4.07331 483.58734 481.745176 481.451908 0.002067879
4.08212 483.70361 482.530755 482.242554 0.002067382
4.09093 484.67737 483.321988 483.038265 0.002063228
4.09974 485.09409 484.118328 483.838536 0.002061456
4.10854 485.32376 484.919215 484.642843 0.00206048
4.11735 485.82013 485.725635 485.450685 0.002058375
4.12616 487.42325 486.53401 486.261535 0.002051605
4.13496 488.37103 487.345299 487.07487 0.002047624
4.14377 489.14758 488.158958 487.890166 0.002044373
4.15258 489.48608 488.974447 488.706903 0.002042959
4.16139 490.13837 489.791224 489.524552 0.00204024
4.17019 490.45035 490.608779 490.342619 0.002038942
4.17900 491.05679 491.426582 491.160584 0.002036424
4.18781 491.91812 492.244121 491.977945 0.002032859
4.19661 492.13629 493.060893 492.794207 0.002031957
4.20542 492.21097 493.876397 493.608874 0.002031649
4.21423 493.29892 494.690172 494.421488 0.002027168
4.22304 494.14001 495.501738 495.231576 0.002023718
4.23184 493.78342 496.310643 496.038684 0.002025179
4.24065 493.8316 497.116446 496.842371 0.002024982
4.24946 494.90244 497.918677 497.642166 0.0020206
4.25826 497.24377 498.717016 498.437748 0.002011086
4.26707 498.70001 499.511019 499.228666 0.002005214
4.27588 499.31165 500.300327 500.014557 0.002002757
4.28469 499.08511 501.084575 500.795049 0.002003666
4.29349 498.89539 501.863426 501.569795 0.002004428
4.30230 499.27188 502.636559 502.338467 0.002002917
4.31111 500.55768 503.403678 503.100755 0.001997772
4.31991 501.9758 504.164494 503.856357 0.001992128
4.32872 503.01807 504.918769 504.605019 0.001988
4.33753 503.57928 505.666255 505.346479 0.001985785
4.34634 503.9292 506.415774 506.080504 0.001984406
4.35514 504.54166 507.149124 506.806879 0.001981997
4.36395 505.3168 507.875109 507.525411 0.001978957
4.37276 505.82022 508.593572 508.235918 0.001976987
4.38156 506.07846 509.304404 508.938261 0.001975978
4.39037 507.39996 510.007495 509.6323 0.001970832
4.39918 509.10416 510.702764 510.317919 0.001964235
4.40799 509.65488 511.390157 510.995025 0.001962112
4.41679 509.20624 512.069632 511.663534 0.001963841
4.42560 509.34372 512.741198 512.323408 0.001963311
4.43441 510.24429 513.404861 512.974602 0.001959846
4.44321 512.00726 514.060661 513.617098 0.001953097
4.45202 512.52057 514.708664 514.250899 0.001951141
4.46083 513.18677 515.348958 514.876022 0.001948608
4.46964 513.6604 515.981651 515.492497 0.001946812
4.47844 514.17944 516.606899 516.100394 0.001944846
4.48725 513.92303 517.224862 516.699775 0.001945817
4.49606 514.36902 517.835701 517.290695 0.00194413
4.50486 514.64325 518.439709 517.873322 0.001943094
4.51367 515.87073 519.037105 518.447741 0.00193847
4.52248 516.70618 519.628174 519.014085 0.001935336
4.53129 517.63263 520.213228 519.572492 0.001931872
4.54009 518.66132 520.792635 520.123136 0.00192804
4.54890 520.21155 521.36678 520.666182 0.001922295
4.55771 521.521 521.959648 521.201814 0.001917468
4.56651 522.62726 522.524783 521.730226 0.00191341
4.57532 522.94983 523.086109 522.251627 0.001912229
4.58413 523.19141 523.644211 522.766223 0.001911346
4.59294 523.2113 524.20347 523.274253 0.001911274
4.60174 523.74957 524.757225 523.775944 0.001909309
4.61055 524.86273 525.309987 524.271536 0.00190526
4.61936 526.70349 525.862684 524.761278 0.001898601
4.62817 527.12469 526.41637 525.245417 0.001897084
4.63697 527.479 526.972265 525.724225 0.00189581
4.64578 527.3089 527.53175 526.19796 0.001896422
4.65459 528.35236 528.096441 526.66689 0.001892676
4.66339 529.87372 528.66822 527.131287 0.001887242
4.67220 530.12592 529.249319 527.591424 0.001886344
4.68101 530.76599 529.842393 528.047573 0.001884069
4.68982 531.70306 530.450668 528.500021 0.001880749
4.69862 532.44794 531.078039 528.94904 0.001878118
4.70743 532.71533 531.729349 529.394909 0.001877175
4.71624 533.72974 532.410615 529.837903 0.001873607
4.72504 536.06073 533.129495 530.278297 0.00186546
4.73385 536.80402 533.895733 530.71634 0.001862877
4.74266 536.81445 534.722241 531.152346 0.001862841
4.75147 536.47125 535.625927 531.586568 0.001864033
4.76027 537.14496 536.629715 532.019263 0.001861695
4.76908 538.3606 537.765201 532.45069 0.001857491
4.77789 540.15106 539.14755 532.881103 0.001851334
4.78669 540.90234 540.699871 533.310744 0.001848763
4.79550 542.9458 542.587919 533.739865 0.001841804
4.80431 545.78992 544.960141 534.168697 0.001832207
4.81312 548.95032 548.088578 534.597469 0.001821658
4.82192 553.12891 552.522317 535.026402 0.001807897
4.83073 561.70636 559.919971 535.45571 0.00178029
4.83954 577.85144 574.976503 535.885593 0.001730549
4.84834 611.41187 608.10734 536.316258 0.001635559
4.85715 676.3587 673.82138 536.74789 0.001478505
4.86596 785.02863 777.521634 537.180666 0.001273839
4.87477 906.47131 891.272722 537.614758 0.001103179
4.88357 941.6015 935.753089 538.050327 0.00106202
4.89238 865.4093 863.941657 538.487517 0.001155523
4.90119 733.1524 748.031743 538.926481 0.001363973
4.90999 640.74927 654.717718 539.367343 0.001560673
4.91880 595.89813 600.069613 539.810226 0.001678139
4.92761 575.29358 574.143977 540.255239 0.001738243
4.93642 565.58929 562.816367 540.702477 0.001768067
4.94522 561.15045 557.397869 541.152041 0.001782053
4.95403 558.31329 554.304545 541.604004 0.001791109
4.96284 556.60956 552.317278 542.058435 0.001796591
4.97164 554.88513 550.987283 542.515393 0.001802175
4.98045 553.43103 550.096586 542.974899 0.00180691
4.98926 552.26843 549.514668 543.437044 0.001810714
4.99807 552.61444 549.157021 543.901824 0.00180958
5.00687 552.63727 548.965138 544.369265 0.001809505
5.01568 552.25806 548.902121 544.839372 0.001810748
5.02449 552.80042 548.933795 545.312141 0.001808971
5.03329 552.93872 549.042112 545.78756 0.001808519
5.04210 552.83386 549.211661 546.265609 0.001808862
5.05091 552.22748 549.430787 546.74625 0.001810848
5.05972 551.73999 549.690584 547.229456 0.001812448
5.06852 551.62921 549.984144 547.715173 0.001812812
5.07733 552.30511 550.306019 548.203344 0.001810593
5.08614 553.56342 550.651872 548.693905 0.001806478
5.09495 554.6651 551.018226 549.186784 0.00180289
5.10375 554.37958 551.402232 549.681894 0.001803818
5.11256 554.09564 551.801566 550.17916 0.001804743
5.12137 553.70233 552.21429 550.678483 0.001806025
5.13017 554.44843 552.638787 551.179763 0.001803594
5.13898 554.64105 553.073673 551.682892 0.001802968
5.14779 555.54358 553.51778 552.187755 0.001800039
5.15660 556.60242 553.970118 552.694244 0.001796615
5.16540 557.92712 554.4298 553.202233 0.001792349
5.17421 558.25867 554.896069 553.711595 0.001791284
5.18302 557.75403 555.368259 554.2222 0.001792905
5.19182 558.21252 555.845772 554.733913 0.001791432
5.20063 558.08344 556.328076 555.246592 0.001791847
5.20944 558.4281 556.814712 555.760109 0.001790741
5.21824 558.40332 557.305218 556.274287 0.00179082
5.22705 559.49622 557.799268 556.78904 0.001787322
5.23586 559.8349 558.296486 557.304195 0.001786241
5.24467 559.97052 558.796558 557.819604 0.001785808
5.25347 561.08142 559.299203 558.335122 0.001782273
5.26228 562.56006 559.804154 558.850596 0.001777588
5.27109 563.18915 560.311195 559.365892 0.001775602
5.27990 562.80719 560.820115 559.880858 0.001776807
5.28870 562.36053 561.330736 560.395351 0.001778219
5.29751 563.14655 561.842904 560.909228 0.001775737
5.30632 563.6051 562.356494 561.42235 0.001774292
5.31512 562.94604 562.8714 561.934574 0.001776369
5.32393 562.64508 563.387566 562.445776 0.001777319
5.33274 564.16425 563.904957 562.955821 0.001772533
5.34155 565.82843 564.423575 563.46458 0.00176732
5.35035 566.87683 564.94347 563.971932 0.001764052
5.35916 566.67346 565.464737 564.477752 0.001764685
5.36797 566.93494 565.987549 564.981939 0.001763871
5.37677 567.31653 566.512135 565.484379 0.001762684
5.38558 567.33954 567.038816 565.984971 0.001762613
5.39439 567.40314 567.568028 566.483618 0.001762415
5.40320 568.03381 568.100338 566.980231 0.001760459
5.41200 568.49664 568.636483 567.474723 0.001759025
5.42081 569.48376 569.178086 567.967028 0.001755976
5.42962 568.74847 569.725123 568.457072 0.001758246
5.43842 567.76184 570.279873 568.944796 0.001761302
5.44723 567.97784 570.844522 569.430146 0.001760632
5.45604 569.26312 571.421961 569.913078 0.001756657
5.46485 570.59436 572.016063 570.393529 0.001752559
5.47365 570.76666 572.63224 570.87152 0.001752029
5.48246 571.48181 573.277966 571.347017 0.001749837
5.49127 572.3924 573.963898 571.820004 0.001747053
5.50007 573.09717 574.705632 572.290482 0.001744905
5.50888 572.70276 575.526878 572.758458 0.001746106
5.51769 573.14417 576.466156 573.223953 0.001744762
5.52650 574.47656 577.59803 573.686988 0.001740715
5.53530 575.69983 579.110274 574.147612 0.001737016
5.54411 576.91583 581.534349 574.605869 0.001733355
5.55292 578.50952 586.177444 575.061816 0.00172858
5.56172 582.22809 595.315779 575.51552 0.00171754
5.57053 593.01227 611.013915 575.967056 0.001686306
5.57934 615.66516 631.888929 576.41652 0.00162426
5.58815 633.60962 648.448981 576.864006 0.001578259
5.59695 631.14502 645.918648 577.309622 0.001584422
5.60576 610.8219 627.623586 577.753486 0.001637138
5.61457 592.66327 608.649599 578.195727 0.001687299
5.62337 584.1402 595.830615 578.636477 0.001711918
5.63218 582.30499 589.184119 579.075896 0.001717313
5.64099 581.48334 586.352536 579.514136 0.00171974
5.64980 580.99872 585.290436 579.951364 0.001721174
5.65860 581.37091 584.95199 580.387758 0.001720072
5.66741 581.92432 584.939442 580.823504 0.001718437
5.67622 582.19128 585.114468 581.258794 0.001717649
5.68503 583.14581 585.421555 581.693843 0.001714837
5.69383 584.43243 585.834032 582.128859 0.001711062
5.70264 584.70996 586.339435 582.564041 0.00171025
5.71145 585.26282 586.935148 582.99967 0.001708634
5.72025 586.27429 587.626753 583.435959 0.001705686
5.72906 587.21478 588.4284 583.873153 0.001702954
5.73787 588.25854 589.364786 584.311517 0.001699933
5.74667 589.39459 590.474956 584.751309 0.001696656
5.75548 590.52917 591.819806 585.192798 0.001693396
5.76429 591.78156 593.497108 585.636264 0.001689813
5.77310 593.83405 595.683513 586.081989 0.001683972
5.78190 597.19818 598.781253 586.53026 0.001674486
5.79071 602.54584 603.900271 586.981382 0.001659625
5.79952 611.34363 613.960972 587.435653 0.001635741
5.80833 627.755 634.834456 587.893381 0.001592978
5.81713 661.72498 673.794886 588.354879 0.001511202
5.82594 716.92029 732.232473 588.820463 0.001394855
5.83475 773.32751 792.664412 589.290451 0.001293113
5.84355 780.52698 810.380435 589.765178 0.001281186
5.85236 731.73254 766.636064 590.244969 0.00136662
5.86117 670.29333 704.080609 590.730156 0.001491884
5.86998 633.19745 655.344574 591.221073 0.001579286
5.87878 616.81348 626.851305 591.718054 0.001621236
5.88759 609.22565 613.060022 592.221448 0.001641428
5.89640 606.08636 606.860456 592.731592 0.00164993
5.90520 603.85626 603.872726 593.248827 0.001656023
5.91401 602.72351 602.227224 593.773496 0.001659136
5.92282 602.745 601.251443 594.305943 0.001659076
5.93163 603.35278 600.68345 594.846504 0.001657405
5.94043 602.87311 600.42967 595.395535 0.001658724
5.94924 602.84375 600.336545 595.953339 0.001658805
5.95805 604.06238 600.396539 596.520319 0.001655458
5.96685 604.96124 600.561068 597.096783 0.001652998
5.97566 604.95093 600.812517 597.683066 0.001653027
5.98447 605.30426 601.133599 598.279503 0.001652062
5.99328 606.4715 601.511777 598.886416 0.001648882
6.00208 607.21942 601.937793 599.504147 0.001646851
6.01089 607.78796 602.404766 600.133011 0.001645311
6.01970 608.36053 602.907497 600.773327 0.001643762
6.02850 608.57782 603.441994 601.425409 0.001643175
6.03731 609.36151 604.005211 602.089566 0.001641062
6.04612 610.70978 604.594785 602.766092 0.001637439
6.05493 611.88171 605.208878 603.4553 0.001634303
6.06373 612.36707 605.846057 604.157474 0.001633007
6.07254 613.56091 606.505205 604.872897 0.00162983
6.08135 614.81421 607.185454 605.601846 0.001626508
6.09015 615.71002 607.886111 606.344581 0.001624141
6.09896 616.37427 608.606677 607.101381 0.001622391
6.10777 616.81946 609.346751 607.872491 0.00162122
6.11658 617.48035 610.106033 608.658155 0.001619485
6.12538 617.99554 610.884313 609.458609 0.001618135
6.13419 619.12946 611.68145 610.274078 0.001615171
6.14300 620.50055 612.497336 611.10477 0.001611602
6.15180 621.15588 613.331953 611.95091 0.001609902
6.16061 622.07916 614.185288 612.812685 0.001607512
6.16942 622.94098 615.057366 613.690281 0.001605289
6.17823 623.44824 615.94825 614.583874 0.001603982
6.18703 623.92596 616.858029 615.493626 0.001602754
6.19584 625.44281 617.786764 616.419638 0.001598867
6.20465 627.20142 618.734688 617.362143 0.001594384
6.21345 628.76221 619.701942 618.321242 0.001590426
6.22226 629.22205 620.688716 619.297039 0.001589264
6.23107 630.22778 621.695247 620.28964 0.001586728
6.23988 631.73578 622.721814 621.299135 0.00158294
6.24868 632.51331 623.768756 622.325605 0.001580994
6.25749 633.12103 624.836466 623.369104 0.001579477
6.26630 633.27606 625.925459 624.429707 0.00157909
6.27510 634.64453 627.040167 625.507445 0.001575685
6.28391 636.81018 628.173726 626.602342 0.001570327
6.29272 638.93512 629.330915 627.714412 0.001565104
6.30153 640.00354 630.512996 628.843641 0.001562491
6.31033 641.38983 631.721666 629.99004 0.001559114
6.31914 642.25421 632.95917 631.153569 0.001557016
6.32795 642.35278 634.237604 632.334185 0.001556777
6.33676 643.02649 635.54317 633.531831 0.001555146
6.34556 644.88489 636.890968 634.746437 0.001550664
6.35437 646.64764 638.289885 635.977905 0.001546437
6.36318 647.98584 639.753493 637.226165 0.001543244
6.37198 649.12054 641.303823 638.491089 0.001540546
6.38079 650.98761 642.983335 639.772551 0.001536128
6.38960 652.79553 644.895671 641.07041 0.001531873
6.39841 653.80768 647.31974 642.384511 0.001529502
6.40721 656.27802 650.910113 643.71467 0.001523744
6.41602 659.88019 656.773958 645.060734 0.001515427
6.42483 667.85156 665.919838 646.422492 0.001497339
6.43363 680.34662 677.760951 647.799653 0.001469839
6.44244 693.00159 687.738741 649.192151 0.001442998
6.45125 694.46118 688.172647 650.599669 0.001439965
6.46006 686.01416 680.183038 652.021956 0.001457696
6.46886 674.63135 671.529302 653.458731 0.001482291
6.47767 670.05951 665.888948 654.909748 0.001492405
6.48648 668.40308 663.412561 656.3747 0.001496103
6.49528 668.05243 662.992063 657.853283 0.001496889
6.50409 669.10675 663.586124 659.34518 0.00149453
6.51290 670.3446 664.622252 660.850045 0.00149177
6.52171 671.65601 665.866547 662.367571 0.001488857
6.53051 672.87054 667.232777 663.897387 0.00148617
6.53932 672.7149 668.685183 665.439129 0.001486514
6.54813 673.46698 670.205636 666.992418 0.001484854
6.55693 675.69904 671.784327 668.556866 0.001479949
6.56574 677.60101 673.416716 670.132057 0.001475795
6.57455 678.76587 675.10258 671.717616 0.001473262
6.58336 679.84314 676.84583 673.313104 0.001470928
6.59216 681.24768 678.655368 674.918089 0.001467895
6.60097 683.09088 680.547336 676.532132 0.001463934
6.60978 685.19275 682.55096 678.154781 0.001459443
6.61858 687.70111 684.728043 679.785557 0.00145412
6.62739 690.12598 687.236915 681.424029 0.001449011
6.63620 693.3999 690.494152 683.0697 0.001442169
6.64501 697.81091 695.404689 684.722085 0.001433053
6.65381 703.89917 703.322178 686.380689 0.001420658
6.66262 714.61761 715.158525 688.044991 0.00139935
6.67143 727.30896 729.390459 689.71452 0.001374932
6.68023 739.7373 739.228768 691.388647 0.001351831
6.68904 739.56091 736.730441 693.067038 0.001352154
6.69785 730.27899 726.495191 694.749069 0.00136934
6.70666 719.13654 717.038616 696.434207 0.001390557
6.71546 713.7146 711.392174 698.121912 0.00140112
6.72427 710.65576 709.195306 699.811618 0.001407151
6.73308 709.24854 709.090662 701.502814 0.001409943
6.74188 708.54083 709.986217 703.194929 0.001411351
6.75069 709.68127 711.324253 704.887402 0.001409083
6.75950 710.28912 712.885111 706.579674 0.001407877
6.76831 711.8103 714.588724 708.27118 0.001404869
6.77711 712.88574 716.402937 709.961334 0.001402749
6.78592 714.77161 718.314354 711.649604 0.001399048
6.79473 716.21802 720.320255 713.335401 0.001396223
6.80354 718.40912 722.426188 715.018153 0.001391965
6.81234 720.82355 724.645942 716.697285 0.001387302
6.82115 722.80145 727.003059 718.372204 0.001383506
6.82996 724.08307 729.533956 720.042375 0.001381057
6.83876 725.95251 732.293515 721.707204 0.001377501
6.84757 728.36017 735.365734 723.366118 0.001372947
6.85638 731.53656 738.884222 725.018544 0.001366986
6.86519 736.53137 743.089458 726.663911 0.001357715
6.87399 741.97125 748.517405 728.301632 0.001347761
6.88280 750.28497 756.564683 729.931178 0.001332827
6.89161 767.17291 770.650919 731.551964 0.001303487
6.90041 798.06274 797.243289 733.163431 0.001253034
6.90922 848.12103 844.050001 734.765019 0.001179077
6.91803 918.77643 912.537945 736.356086 0.001088404
6.92684 980.59003 983.83559 737.936262 0.001019794
6.93564 999.44983 1007.492595 739.504894 0.00100055
6.94445 963.86902 960.074341 741.061477 0.001037485
6.95326 897.51038 889.388279 742.605458 0.001114193
6.96206 840.47186 833.371027 744.136309 0.001189808
6.97087 803.15649 799.929985 745.653506 0.001245087
6.97968 783.56824 783.608676 747.156532 0.001276213
6.98849 772.87866 776.698937 748.644861 0.001293864
6.99729 766.78992 774.08523 750.118024 0.001304138
7.00610 765.05908 773.412459 751.575508 0.001307089
7.01491 764.09216 773.787064 753.016826 0.001308743
7.02371 763.82831 774.872576 754.441499 0.001309195
7.03252 765.2713 776.530441 755.849038 0.001306726
7.04133 767.8045 778.71156 757.239015 0.001302415
7.05014 770.35938 781.427709 758.610959 0.001298095
7.05894 773.78162 784.74859 759.964426 0.001292354
7.06775 777.44281 788.809024 761.298983 0.001286268
7.07656 783.28766 793.84526 762.614204 0.00127667
7.08536 789.93384 800.248261 763.90966 0.001265929
7.09417 799.79382 808.771455 765.184977 0.001250322
7.10298 813.73291 821.176184 766.439746 0.001228904
7.11179 839.20972 842.011173 767.673585 0.001191597
7.12059 878.79974 881.759978 768.886122 0.001137916
7.12940 946.02863 958.361015 770.076998 0.00105705
7.13821 1066.1255 1089.706339 771.24585 0.000937976
7.14701 1213.2072 1271.467323 772.392369 0.000824262
7.15582 1577.8573 1437.601088 773.516216 0.000633771
7.16463 1582.1826 1455.004536 774.617016 0.000632038
7.17344 1358.0781 1315.49266 775.694594 0.000736335
7.18224 1098.2374 1155.715335 776.7486 0.00091055
7.19105 1038.0409 1050.758138 777.778757 0.000963353
7.19986 998.65912 999.646223 778.784791 0.001001343
7.20866 970.47522 964.491941 779.766477 0.001030423
7.21747 917.63928 923.302904 780.723565 0.001089753
7.22628 873.05402 885.704917 781.655833 0.001145404
7.23509 842.92358 859.39352 782.563069 0.001186347
7.24389 827.87958 844.263126 783.445068 0.001207905
7.25270 820.52948 837.035531 784.301665 0.001218725
7.26151 817.25732 834.431651 785.13268 0.001223605
7.27031 816.7597 834.469877 785.937957 0.00122435
7.27912 818.32025 836.298659 786.717353 0.001222015
7.28793 821.97107 839.678516 787.470739 0.001216588
7.29674 827.11609 844.668252 788.19799 0.00120902
7.30554 835.88702 851.531141 788.899022 0.001196334
7.31435 848.32733 860.754061 789.573738 0.00117879
7.32316 865.6593 873.142016 790.222063 0.001155189
7.33197 890.4812 890.071188 790.843936 0.001122988
7.34077 925.67218 914.267305 791.439311 0.001080296
7.34958 983.36639 952.25235 792.008147 0.001016915
7.35839 1069.6392 1020.476202 792.550438 0.000934895
7.36719 1216.0452 1154.523313 793.06617 0.000822338
7.37600 1462.7471 1409.853394 793.555351 0.000683645
7.38481 1856.0637 1832.56261 794.018001 0.000538775
7.39362 2377.2461 2386.71814 794.45415 0.000420655
7.40242 2731.3403 2832.1295 794.863836 0.000366121
7.41123 2745.5776 2796.340658 795.247147 0.000364222
7.42004 2394.0513 2380.691072 795.604148 0.000417702
7.42884 1998.2875 1965.545801 795.934918 0.000500428
7.43765 1675.7473 1670.286313 796.239559 0.000596749
7.44646 1454.3148 1431.812259 796.518181 0.000687609
7.45526 1235.4268 1228.79786 796.770906 0.000809437
7.46407 1075.7084 1081.054639 796.997877 0.00092962
7.47288 977.77759 986.154555 797.199241 0.001022727
7.48169 923.05347 929.975719 797.375157 0.001083361
7.49049 889.59467 897.327775 797.5258 0.001124107
7.49930 866.95544 877.156242 797.651355 0.001153462
7.50811 852.51752 863.423934 797.752016 0.001172996
7.51692 842.74561 853.34456 797.827994 0.001186598
7.52572 836.87476 845.626398 797.879506 0.001194922
7.53453 830.65466 839.575154 797.906783 0.00120387
7.54334 825.51428 834.760015 797.910065 0.001211366
7.55214 821.58887 830.895606 797.889603 0.001217154
7.56095 818.03064 827.790057 797.845659 0.001222448
7.56976 815.81195 825.320447 797.778505 0.001225773
7.57857 813.89911 823.426223 797.688421 0.001228654
7.58737 812.46881 822.126418 797.575699 0.001230816
7.59618 812.71405 821.582788 797.440638 0.001230445
7.60499 814.12714 822.221633 797.283552 0.001228309
7.61379 818.24713 824.894248 797.104753 0.001222125
7.62260 826.40405 830.957987 796.904571 0.001210062
7.63141 840.85626 841.841925 796.68334 0.001189264
7.64022 860.41937 857.439266 796.441404 0.001162224
7.64902 884.67572 875.31068 796.179129 0.001130358
7.65783 903.05652 889.104289 795.896844 0.00110735
7.66664 899.31903 885.562794 795.594932 0.001111952
7.67544 869.80005 864.992339 795.273759 0.00114969
7.68425 838.15247 842.477192 794.933707 0.0011931
7.69306 817.60223 825.850114 794.575162 0.001223089
7.70187 806.99457 815.694159 794.198515 0.001239166
7.71067 801.92163 810.003218 793.804164 0.001247005
7.71948 799.75214 806.689339 793.392516 0.001250387
7.72829 797.28638 804.474331 792.963969 0.001254254
7.73709 795.01678 802.774683 792.518942 0.001257835
7.74590 794.45422 801.358353 792.057851 0.001258726
7.75471 795.02612 800.115071 791.581118 0.00125782
7.76352 794.78937 798.992878 791.089174 0.001258195
7.77232 793.51331 797.957028 790.582438 0.001260218
7.78113 792.11774 796.984277 790.061348 0.001262439
7.78994 790.98523 796.058409 789.526338 0.001264246
7.79874 790.1687 795.173229 788.977849 0.001265553
7.80755 789.24438 794.309489 788.416319 0.001267035
7.81636 788.73749 793.466316 787.842201 0.001267849
7.82517 788.45392 792.63896 787.255924 0.001268305
7.83397 788.09027 791.823825 786.657942 0.00126889
7.84278 787.07629 791.022255 786.048703 0.001270525
7.85159 786.21802 790.22397 785.428656 0.001271912
7.86039 785.49854 789.431388 784.79825 0.001273077
7.86920 785.53644 788.64328 784.157942 0.001273015
7.87801 784.96667 787.858682 783.508168 0.001273939
7.88682 784.25739 787.076951 782.849422 0.001275092
7.89562 783.4646 786.297524 782.182079 0.001276382
7.90443 783.00195 785.520154 781.506623 0.001277136
7.91324 782.73993 784.744711 780.823504 0.001277564
7.92204 783.04572 783.971215 780.133167 0.001277065
7.93085 783.24084 783.199862 779.436064 0.001276746
7.93966 782.57227 782.430976 778.732622 0.001277837
7.94847 781.83478 781.665089 778.023291 0.001279043
7.95727 780.74451 780.902938 777.308508 0.001280829
7.96608 780.40881 780.145532 776.58871 0.00128138
7.97489 780.06714 779.394238 775.864336 0.001281941
7.98369 779.65857 778.650884 775.135801 0.001282613
7.99250 778.50983 777.918009 774.403539 0.001284505
8.00131 777.46667 777.199157 773.667973 0.001286229
8.01012 776.10352 776.499409 772.929522 0.001288488
8.01892 775.66663 775.826752 772.1886 0.001289214
8.02773 776.40247 775.192779 771.445627 0.001287992
8.03654 776.35229 774.621191 770.700992 0.001288075
8.04535 775.65784 774.165724 769.955105 0.001289228
8.05415 775.80511 773.957207 769.208362 0.001288984
8.06296 777.58911 774.27336 768.461155 0.001286026
8.07177 780.00226 775.550062 767.71387 0.001282048
8.08057 783.69757 778.174286 766.966895 0.001276002
8.08938 787.58356 781.940516 766.22059 0.001269707
8.09819 789.8761 785.041836 765.47533 0.001266021
8.10700 787.75745 784.17251 764.73148 0.001269426
8.11580 782.15192 779.461191 763.989395 0.001278524
8.12461 776.96686 774.225697 763.249436 0.001287056
8.13342 773.02588 770.170617 762.511928 0.001293618
8.14222 770.95685 767.454587 761.777218 0.001297089
8.15103 768.97766 765.679613 761.045636 0.001300428
8.15984 767.73181 764.41569 760.317506 0.001302538
8.16865 766.81873 763.394213 759.593144 0.001304089
8.17745 765.73926 762.490363 758.872867 0.001305928
8.18626 765.05914 761.653364 758.156961 0.001307088
8.19507 764.07904 760.861383 757.44573 0.001308765
8.20387 763.43756 760.103128 756.739459 0.001309865
8.21268 762.68774 759.371831 756.038428 0.001311153
8.22149 761.9621 758.663276 755.34291 0.001312401
8.23030 761.21362 757.974501 754.653176 0.001313692
8.23910 761.28003 757.303767 753.969467 0.001313577
8.24791 761.22473 756.649943 753.292038 0.001313673
8.25672 760.29663 756.012424 752.621205 0.001315276
8.26552 758.86993 755.390733 751.957049 0.001317749
8.27433 758.57446 754.784872 751.299871 0.001318262
8.28314 757.67523 754.194961 750.649886 0.001319827
8.29195 757.49414 753.621286 750.007301 0.001320142
8.30075 757.50714 753.064276 749.372325 0.00132012
8.30956 757.60938 752.524488 748.745134 0.001319941
8.31837 756.03131 752.002602 748.125918 0.001322697
8.32717 755.47284 751.499413 747.514852 0.001323674
8.33598 756.28778 751.017085 746.912104 0.001322248
8.34479 756.5166 750.554262 746.317831 0.001321848
8.35360 755.06934 750.113369 745.732191 0.001324382
8.36240 753.55389 749.695813 745.155313 0.001327045
8.37121 752.97705 749.303186 744.587336 0.001328062
8.38002 752.53601 748.9317 744.028387 0.00132884
8.38882 752.49072 748.594704 743.478582 0.00132892
8.39763 752.35846 748.28898 742.938039 0.001329154
8.40644 752.22064 748.017291 742.406845 0.001329397
8.41525 751.77588 747.782914 741.8851 0.001330184
8.42405 751.81079 747.589634 741.37289 0.001330122
8.43286 751.11047 747.443876 740.870292 0.001331362
8.44167 750.64178 747.348069 740.377376 0.001332193
8.45047 750.91187 747.308258 739.89421 0.001331714
8.45928 751.64648 747.333027 739.420836 0.001330413
8.46809 750.37378 747.431388 738.957306 0.001332669
8.47690 749.82233 747.61442 738.50366 0.001333649
8.48570 749.70343 747.895562 738.05993 0.001333861
8.49451 750.71564 748.291419 737.62614 0.001332062
8.50332 752.49823 748.822869 737.202312 0.001328907
8.51212 752.91937 749.516074 736.788446 0.001328163
8.52093 753.08356 750.404342 736.38455 0.001327874
8.52974 753.68591 751.530904 735.99062 0.001326813
8.53855 754.59857 752.952055 735.606646 0.001325208
8.54735 755.42792 754.742392 735.232614 0.001323753
8.55616 756.92932 757.002971 734.868492 0.001321127
8.56497 759.22241 759.872173 734.514253 0.001317137
8.57378 762.85889 763.544029 734.169862 0.001310858
8.58258 767.67389 768.296608 733.835275 0.001302636
8.59139 773.82208 774.543038 733.510444 0.001292287
8.60020 782.35803 782.929955 733.195317 0.001278187
8.60900 795.5387 794.599515 732.889828 0.00125701
8.61781 816.41772 811.964074 732.593912 0.001224863
8.62662 850.33588 840.703188 732.3075 0.001176006
8.63543 903.41028 893.39211 732.030514 0.001106917
8.64423 993.79565 992.337947 731.762875 0.001006243
8.65304 1144.2502 1164.423227 731.504491 0.000873935
8.66185 1385.7418 1419.961905 731.255272 0.000721635
8.67065 1669.8412 1705.972964 731.015123 0.000598859
8.67946 1836.7622 1852.168556 730.783943 0.000544436
8.68827 1746.6921 1735.027682 730.561626 0.000572511
8.69708 1475.4918 1472.813779 730.348066 0.00067774
8.70588 1208.9374 1213.392995 730.143144 0.000827173
8.71469 1021.9504 1025.717479 729.946745 0.000978521
8.72350 914.95959 912.323183 729.758749 0.001092944
8.73230 854.18927 849.858239 729.579031 0.001170701
8.74111 819.61322 815.590318 729.407483 0.001220088
8.74992 797.66614 795.299599 729.243934 0.001253657
8.75873 782.67517 781.966419 729.08827 0.001277669
8.76753 771.55957 772.468526 728.940357 0.001296076
8.77634 763.32214 765.369988 728.800051 0.001310063
8.78515 758.13324 759.909452 728.667213 0.001319029
8.79395 753.77814 755.62211 728.541697 0.00132665
8.80276 750.34845 752.201365 728.423359 0.001332714
8.81157 748.09711 749.43597 728.312048 0.001336725
8.82038 746.65356 747.176735 728.207617 0.001339309
8.82918 744.42334 745.315734 728.109911 0.001343322
8.83799 742.34509 743.77432 728.018777 0.001347082
8.84680 740.97205 742.494153 727.934062 0.001349579
8.85560 740.13489 741.431403 727.85561 0.001351105
8.86441 739.44843 740.553526 727.783262 0.001352359
8.87322 739.13672 739.836319 727.716864 0.00135293
8.88203 738.36145 739.2621 727.656255 0.00135435
8.89083 737.30615 738.82067 727.601276 0.001356289
8.89964 736.44379 738.50159 727.551769 0.001357877
8.90845 736.45764 738.303881 727.507575 0.001357851
8.91725 736.93365 738.230158 727.468534 0.001356974
8.92606 736.53088 738.288446 727.434487 0.001357716
8.93487 736.47675 738.49367 727.405275 0.001357816
8.94368 736.71912 738.870066 727.380739 0.001357369
8.95248 737.51648 739.455211 727.360721 0.001355902
8.96129 738.26257 740.3072 727.345065 0.001354532
8.97010 739.68896 741.522761 727.333613 0.00135192
8.97890 741.95618 743.285562 727.326211 0.001347788
8.98771 744.49445 745.998264 727.322703 0.001343193
8.99652 749.22784 750.558425 727.322937 0.001334707
9.00533 756.25854 758.681318 727.326761 0.001322299
9.01413 767.7251 772.784848 727.334025 0.00130255
9.02294 784.97925 794.730706 727.34458 0.001273919
9.03175 805.6405 822.784315 727.358279 0.001241248
9.04055 823.59229 846.041389 727.374978 0.001214193
9.04936 831.98236 848.563149 727.394534 0.001201949
9.05817 834.9165 837.626956 727.416805 0.001197725
9.06698 846.44775 835.847664 727.441653 0.001181408
9.07578 871.65759 856.47092 727.468941 0.001147239
9.08459 915.78021 900.976507 727.498536 0.001091965
9.09340 956.13721 953.706636 727.530306 0.001045875
9.10221 966.05542 973.385803 727.564122 0.001035137
9.11101 931.75922 935.421377 727.599858 0.001073239
9.11982 875.14575 874.482784 727.63739 0.001142667
9.12863 822.77057 823.24799 727.676599 0.001215406
9.13743 789.17957 789.816238 727.717366 0.001267139
9.14624 770.58691 771.222327 727.759576 0.001297712
9.15505 762.08649 762.006103 727.803119 0.001312187
9.16386 760.44983 758.027842 727.847886 0.001315011
9.17266 763.45288 757.372009 727.893771 0.001309839
9.18147 771.60748 760.072244 727.940673 0.001295996
9.19028 786.81573 767.949731 727.988493 0.001270946
9.19908 806.48596 784.411607 728.037136 0.001239947
9.20789 833.14758 812.95253 728.086511 0.001200268
9.21670 860.92456 853.182905 728.136527 0.001161542
9.22550 883.88 892.476 728.187098 0.001131375
9.23431 888.27081 900.961402 728.23815 0.001125783
9.24312 866.02405 869.034798 728.289602 0.001154702
9.25193 832.1485 825.307841 728.341379 0.001201709
9.26073 799.51923 790.161077 728.393412 0.001250752
9.26954 775.43329 767.50992 728.445633 0.001289602
9.27835 760.83014 754.644994 728.49798 0.001314354
9.28716 750.68579 747.631865 728.550393 0.001332115
9.29596 744.35144 743.592014 728.602816 0.001343451
9.30477 740.19153 740.99862 728.655198 0.001351002
9.31358 737.09973 739.171595 728.707491 0.001356669
9.32238 735.40222 737.811478 728.75965 0.0013598
9.33119 734.30304 736.766553 728.811635 0.001361836
9.34000 733.37689 735.946552 728.863409 0.001363555
9.34881 731.91449 735.292144 728.914938 0.00136628
9.35761 730.27545 734.762678 728.966193 0.001369346
9.36642 729.6665 734.329367 729.017148 0.001370489
9.37523 730.28552 733.971704 729.067781 0.001369327
9.38403 729.91412 733.673497 729.118072 0.001370024
9.39284 729.28113 733.42359 729.168008 0.001371213
9.40165 729.77423 733.213108 729.217576 0.001370287
9.41046 730.74475 733.035216 729.26677 0.001368467
9.41926 731.19067 732.884557 729.315584 0.001367632
9.42807 731.52875 732.756851 729.364017 0.001367
9.43688 731.4173 732.649253 729.412071 0.001367209
9.44568 731.27991 732.557913 729.459753 0.001367465
9.45449 730.64008 732.477764 729.507073 0.001368663
9.46330 729.99866 732.413729 729.554041 0.001369866
9.47211 730.95551 732.360928 729.600674 0.001368072
9.48091 731.87177 732.318129 729.646991 0.00136636
9.48972 732.03436 732.284308 729.693013 0.001366056
9.49853 731.79266 732.25864 729.738766 0.001366507
9.50733 731.7348 732.240458 729.784277 0.001366615
9.51614 732.16431 732.229217 729.829577 0.001365814
9.52495 732.07684 732.224501 729.8747 0.001365977
9.53376 731.52972 732.226012 729.919682 0.001366998
9.54256 731.276 732.23354 729.964562 0.001367473
9.55137 730.80292 732.246988 730.009382 0.001368358
9.56018 730.45123 732.266361 730.054187 0.001369017
9.56898 730.58405 732.291765 730.099022 0.001368768
9.57779 730.82684 732.323432 730.143937 0.001368313
9.58660 730.58905 732.361735 730.188984 0.001368759
9.59541 730.66913 732.407202 730.234216 0.001368609
9.60421 730.99646 732.460564 730.279688 0.001367996
9.61302 731.46918 732.522814 730.32546 0.001367112
9.62183 731.89203 732.595269 730.371589 0.001366322
9.63064 731.49103 732.679677 730.418139 0.001367071
9.63944 731.52673 732.778398 730.465172 0.001367004
9.64825 731.60889 732.894609 730.512754 0.001366851
9.65706 731.90149 733.032664 730.560951 0.001366304
9.66586 732.07495 733.198648 730.609832 0.00136598
9.67467 732.63367 733.401203 730.659465 0.001364939
9.68348 733.58276 733.652971 730.709923 0.001363173
9.69229 734.12335 733.973343 730.761277 0.001362169
9.70109 734.71674 734.395203 730.8136 0.001361069
9.70990 736.05402 734.983257 730.866961 0.001358596
9.71871 737.89258 735.882166 730.921448 0.001355211
9.72751 740.18982 737.407443 730.977129 0.001351005
9.73632 744.18542 740.139375 731.034083 0.001343751
9.74513 749.46716 744.857618 731.092386 0.001334281
9.75393 758.15656 752.104453 731.152117 0.001318989
9.76274 767.50012 761.136055 731.213354 0.001302931
9.77155 774.81549 767.889842 731.276176 0.00129063
9.78036 773.61761 766.442465 731.340662 0.001292628
9.78916 764.76215 758.390018 731.406892 0.001307596
9.79797 754.63953 749.884434 731.474944 0.001325136
9.80678 747.27991 743.64993 731.544899 0.001338187
9.81559 742.98834 739.842799 731.616835 0.001345916
9.82439 740.26807 737.765844 731.690832 0.001350862
9.83320 739.27264 736.678294 731.766969 0.001352681
9.84201 738.2149 736.095546 731.845323 0.001354619
9.85081 737.38495 735.772904 731.925973 0.001356144
9.85962 737.2724 735.603263 732.008995 0.001356351
9.86843 737.41339 735.539935 732.094468 0.001356091
9.87724 737.64063 735.561463 732.182466 0.001355674
9.88604 737.30695 735.659638 732.273066 0.001356287
9.89485 736.98615 735.834988 732.36634 0.001356878
9.90366 737.05176 736.099659 732.462363 0.001356757
9.91246 737.86218 736.484116 732.561205 0.001355267
9.92127 739.21448 737.060817 732.66294 0.001352787
9.93008 740.8371 737.996571 732.767636 0.001349824
9.93889 742.57233 739.62642 732.875363 0.00134667
9.94769 744.82477 742.472366 732.986186 0.001342598
9.95650 749.01929 747.052647 733.100171 0.001335079
9.96531 755.73267 753.358331 733.217383 0.001323219
9.97411 762.6488 759.656997 733.337884 0.00131122
9.98292 763.5271 761.591312 733.461736 0.001309711
9.99173 758.22314 757.325084 733.588998 0.001318873
10.00054 751.27301 750.92398 733.719726 0.001331074
10.00934 746.19055 745.647826 733.853973 0.00134014
10.01815 743.58539 742.221706 733.991797 0.001344835
10.02696 742.90808 740.311806 734.133263 0.001346062
10.03576 742.19458 739.355093 734.278391 0.001347356
10.04457 741.4472 738.909249 734.427244 0.001348714
10.05338 741.32611 738.724752 734.579866 0.001348934
10.06219 741.22229 738.685411 734.736301 0.001349123
10.07099 740.82172 738.739847 734.896591 0.001349852
10.07980 740.7854 738.863351 735.060793 0.001349919
10.08861 741.53143 739.042699 735.228905 0.001348561
10.09741 742.11835 739.270535 735.400981 0.001347494
10.10622 741.96509 739.543189 735.577052 0.001347772
10.11503 742.57501 739.859794 735.757148 0.001346665
10.12384 743.03473 740.221757 735.941316 0.001345832
10.13264 743.63245 740.631973 736.129539 0.00134475
10.14145 744.25641 741.097596 736.32186 0.001343623
10.15026 745.33569 741.626699 736.518298 0.001341677
10.15907 745.52625 742.231408 736.718869 0.001341334
10.16787 745.73822 742.928665 736.923588 0.001340953
10.17668 746.73389 743.74198 737.132491 0.001339165
10.18549 748.59363 744.70545 737.345538 0.001335838
10.19429 749.88062 745.863812 737.562736 0.001333546
10.20310 751.31104 747.288471 737.784137 0.001331007
10.21191 753.17993 749.090213 738.009717 0.001327704
10.22072 757.25409 751.462972 738.239502 0.001320561
10.22952 762.0921 754.803795 738.473435 0.001312177
10.23833 769.24402 759.974023 738.711536 0.001299978
10.24714 779.2088 768.694943 738.953794 0.001283353
10.25594 795.97815 783.760966 739.200198 0.001256316
10.26475 822.10504 808.369325 739.450733 0.00121639
10.27356 854.8595 843.770143 739.70541 0.001169783
10.28237 888.17981 883.561046 739.964153 0.001125898
10.29117 902.49158 906.802691 740.226967 0.001108044
10.29998 892.24011 897.949857 740.493827 0.001120775
10.30879 868.1015 870.651837 740.764706 0.001151939
10.31759 846.03162 840.686611 741.039604 0.001181989
10.32640 826.96191 817.375075 741.318426 0.001209246
10.33521 813.96417 802.41666 741.601169 0.001228555
10.34402 802.34277 790.779448 741.887794 0.00124635
10.35282 791.15356 779.773725 742.178262 0.001263977
10.36163 780.72571 770.86685 742.47253 0.00128086
10.37044 773.15558 764.740979 742.770586 0.001293401
10.37924 767.48608 760.972662 743.072317 0.001302955
10.38805 764.22559 758.873123 743.377706 0.001308514
10.39686 761.96075 757.838759 743.686702 0.001312404
10.40567 759.44727 757.470427 743.99925 0.001316747
10.41447 758.55194 757.552219 744.31533 0.001318301
10.42328 758.72858 757.987431 744.634813 0.001317994
10.43209 758.75018 758.743193 744.957673 0.001317957
10.44089 759.0517 759.824001 745.283849 0.001317433
10.44970 759.01776 761.264845 745.613276 0.001317492
10.45851 758.86688 763.132642 745.945887 0.001317754
10.46732 758.92493 765.537337 746.281653 0.001317653
10.47612 760.76892 768.650126 746.620428 0.00131446
10.48493 762.62323 772.754482 746.962177 0.001311263
10.49374 764.78339 778.373038 747.306827 0.00130756
10.50254 768.83441 786.572723 747.654304 0.00130067
10.51135 776.38062 799.679285 748.004569 0.001288028
10.52016 791.11145 822.300593 748.357466 0.001264044
10.52897 825.42395 861.727266 748.712955 0.001211499
10.53777 890.34009 925.837771 749.070953 0.001123166
10.54658 1025.0804 1016.513012 749.43138 0.000975533
10.55539 1158.8459 1114.247468 749.79415 0.000862928
10.56419 1221.7574 1159.3111 750.159221 0.000818493
10.57300 1136.6799 1108.625833 750.526424 0.000879755
10.58181 1012.4939 1012.153107 750.895713 0.00098766
10.59062 885.05548 926.515245 751.266999 0.001129873
10.59942 834.52264 868.487785 751.640194 0.00119829
10.60823 812.83148 835.420329 752.01525 0.001230267
10.61704 808.58539 819.654417 752.391992 0.001236728
10.62584 811.49847 814.988235 752.77037 0.001232288
10.63465 821.61877 819.083075 753.150293 0.001217109
10.64346 838.85791 831.476032 753.531667 0.001192097
10.65227 861.12 849.737413 753.914442 0.001161278
10.66107 875.87372 864.564264 754.298439 0.001141717
10.66988 872.67377 863.081515 754.683607 0.001145904
10.67869 855.86566 849.588761 755.069807 0.001168408
10.68749 839.07074 839.656537 755.457033 0.001191795
10.69630 835.77362 842.094307 755.845146 0.001196496
10.70511 851.40472 859.024333 756.234095 0.00117453
10.71392 887.95386 886.190707 756.623697 0.001126185
10.72272 921.35858 907.909333 757.013902 0.001085354
10.73153 919.00378 903.811373 757.404616 0.001088135
10.74034 884.5235 880.636032 757.795743 0.001130552
10.74915 854.95081 860.919821 758.187235 0.001169658
10.75795 846.75684 855.521261 758.578908 0.001180977
10.76676 857.70239 864.024585 758.970713 0.001165906
10.77557 865.66888 875.933659 759.362559 0.001155176
10.78437 857.08636 872.762152 759.754351 0.001166744
10.79318 833.01489 851.001919 760.146 0.001200459
10.80199 810.89636 825.432445 760.537458 0.001233203
10.81080 795.62164 805.299738 760.928546 0.001256879
10.81960 786.48755 792.012912 761.319219 0.001271476
10.82841 780.65338 784.066521 761.709389 0.001280978
10.83722 776.93848 779.47543 762.098968 0.001287103
10.84602 774.03143 776.736831 762.487914 0.001291937
10.85483 772.10474 774.990334 762.876053 0.001295161
10.86364 770.86511 773.814137 763.263344 0.001297244
10.87245 770.13336 773.00586 763.649705 0.001298476
10.88125 769.89294 772.458801 764.035054 0.001298882
10.89006 769.58185 772.110347 764.419309 0.001299407
10.89887 769.26776 771.925031 764.802436 0.001299937
10.90767 769.2627 771.879164 765.18427 0.001299946
10.91648 769.26477 771.979375 765.564777 0.001299943
10.92529 769.95801 772.265727 765.943883 0.001298772
10.93409 770.81409 772.821069 766.321515 0.00129733
10.94290 771.94318 773.815584 766.697643 0.001295432
10.95171 772.94312 775.385135 767.072113 0.001293756
10.96052 773.53363 777.510079 767.444898 0.001292769
10.96932 774.10187 779.654615 767.815933 0.00129182
10.97813 774.05768 780.469153 768.185152 0.001291893
10.98694 773.62708 779.333621 768.552494 0.001292612
10.99575 773.3479 777.464985 768.917937 0.001293079
11.00455 773.6308 775.918147 769.281341 0.001292606
11.01336 772.88684 774.95235 769.642689 0.00129385
11.02217 772.40076 774.479276 770.001927 0.001294665
11.03097 772.2243 774.332977 770.359002 0.001294961
11.03978 771.47992 774.377076 770.713902 0.00129621
11.04859 771.71722 774.520046 771.066498 0.001295811
11.05740 772.55603 774.724868 771.416784 0.001294404
11.06620 772.95123 774.976496 771.764715 0.001293743
11.07501 772.97394 775.274651 772.110249 0.001293705
11.08382 774.29871 775.628626 772.453345 0.001291491
11.09262 775.96906 776.050457 772.794003 0.001288711
11.10143 777.79681 776.540266 773.13211 0.001285683
11.11024 780.29468 777.053354 773.467672 0.001281567
11.11905 781.77228 777.465447 773.800657 0.001279145
11.12785 781.20563 777.695934 774.131035 0.001280073
11.13666 779.33374 777.858045 774.458816 0.001283147
11.14547 778.05914 778.078483 774.783903 0.001285249
11.15428 777.05554 778.414507 775.106308 0.001286909
11.16308 776.70013 778.896586 775.425978 0.001287498
11.17189 777.41473 779.544841 775.742965 0.001286315
11.18070 778.56317 780.346286 776.057254 0.001284417
11.18950 780.03052 781.176228 776.36876 0.001282001
11.19831 780.86505 781.728581 776.677509 0.001280631
11.20712 780.86951 781.814802 776.98349 0.001280624
11.21592 780.00769 781.78091 777.286699 0.001282039
11.22473 779.23273 781.84758 777.587131 0.001283314
11.23354 778.57709 782.093196 777.884818 0.001284394
11.24235 778.37317 782.512066 778.179692 0.001284731
11.25115 779.10187 783.109485 778.47179 0.001283529
11.25996 780.01862 783.904186 778.761118 0.001282021
11.26877 780.78998 784.997772 779.047682 0.001280754
11.27758 782.72412 786.613939 779.331524 0.001277589
11.28638 786.59253 789.157614 779.612591 0.001271306
11.29519 793.72125 793.156026 779.890928 0.001259888
11.30400 803.02155 798.995698 780.166552 0.001245297
11.31280 814.52197 806.25749 780.43948 0.001227714
11.32161 823.36047 812.314831 780.709733 0.001214535
11.33042 821.16461 812.768084 780.977362 0.001217783
11.33923 813.67261 807.86281 781.24233 0.001228996
11.34803 805.5191 802.104467 781.504695 0.001241435
11.35684 799.72571 798.026765 781.764484 0.001250429
11.36565 796.92145 796.122128 782.021727 0.001254829
11.37445 796.72363 796.296853 782.276485 0.00125514
11.38326 799.40198 798.635915 782.528733 0.001250935
11.39207 804.94843 803.745455 782.778535 0.001242316
11.40087 815.20331 812.639599 783.02593 0.001226688
11.40968 830.85864 826.00357 783.270955 0.001203574
11.41849 849.64368 842.360673 783.513652 0.001176964
11.42730 860.28223 854.994106 783.75409 0.001162409
11.43610 853.3927 854.887901 783.992258 0.001171793
11.44491 836.33087 842.556095 784.228229 0.001195699
11.45372 820.49237 826.742931 784.46205 0.00121878
11.46252 808.55975 813.78398 784.69377 0.001236767
11.47133 800.93091 805.124861 784.923463 0.001248547
11.48014 795.60046 799.992276 785.15113 0.001256912
11.48895 793.36407 797.163278 785.376849 0.001260455
11.49775 792.06689 795.65211 785.600674 0.00126252
11.50656 791.37866 794.866641 785.82266 0.001263618
11.51537 790.96149 794.502026 786.042863 0.001264284
11.52418 790.34943 794.415249 786.261365 0.001265263
11.53298 790.3241 794.538468 786.478176 0.001265304
11.54179 790.87726 794.837072 786.693378 0.001264419
11.55060 791.87695 795.294606 786.907034 0.001262822
11.55940 792.21594 795.908038 787.119203 0.001262282
11.56821 792.11334 796.692862 787.329973 0.001262446
11.57702 792.90942 797.675166 787.539358 0.001261178
11.58583 793.78534 798.898047 787.747446 0.001259786
11.59463 794.78467 800.423144 787.954302 0.001258202
11.60344 795.99988 802.341512 788.15999 0.001256282
11.61225 798.30035 804.792258 788.364576 0.001252661
11.62106 802.12714 808.004642 788.56815 0.001246685
11.62986 806.7511 812.396504 788.770732 0.00123954
11.63867 813.82428 818.811748 788.972411 0.001228766
11.64748 824.14783 828.96126 789.173233 0.001213375
11.65628 839.27271 845.917599 789.373312 0.001191508
11.66509 864.96887 874.0653 789.572714 0.001156111
11.67390 905.53418 917.642813 789.771463 0.001104321
11.68270 962.6615 976.639405 789.969649 0.001038787
11.69151 1028.8734 1036.905205 790.167341 0.000971937
11.70032 1073.8079 1062.220446 790.364608 0.000931265
11.70913 1061.3278 1035.273738 790.561539 0.000942216
11.71793 1008.1337 990.50217 790.75816 0.000991932
11.72674 958.39996 958.732752 790.95456 0.001043406
11.73555 932.79248 943.383949 791.150806 0.00107205
11.74435 917.76636 929.385862 791.346968 0.001089602
11.75316 896.66895 904.287978 791.543113 0.001115239
11.76197 871.87421 875.26181 791.739329 0.001146954
11.77078 849.94946 851.33295 791.935639 0.001176541
11.77958 833.19366 834.373869 792.132131 0.001200201
11.78839 822.04944 823.247842 792.328872 0.001216472
11.79720 814.38977 816.242717 792.525926 0.001227913
11.80601 809.37268 811.814862 792.723381 0.001235525
11.81481 806.03375 808.908194 792.921256 0.001240643
11.82362 804.27954 806.92065 793.119636 0.001243349
11.83243 802.97302 805.541013 793.318585 0.001245372
11.84123 802.16113 804.588682 793.518164 0.001246632
11.85004 801.62714 803.978844 793.718433 0.001247463
11.85885 800.80719 803.668707 793.919477 0.00124874
11.86765 800.56818 803.657078 794.121309 0.001249113
11.87646 800.58527 803.999908 794.324009 0.001249086
11.88527 800.97943 804.857228 794.527636 0.001248472
11.89408 802.59302 806.564864 794.732246 0.001245961
11.90288 806.22559 809.691439 794.937917 0.001240348
11.91169 813.06769 814.947456 795.144657 0.00122991
11.92050 824.82635 822.807313 795.352543 0.001212376
11.92930 840.31921 832.538158 795.561626 0.001190024
11.93811 852.48431 840.232317 795.771958 0.001173042
11.94692 852.75299 839.917762 795.983587 0.001172673
11.95573 839.52887 832.138426 796.196587 0.001191144
11.96453 824.0553 822.772931 796.410956 0.001213511
11.97334 813.84558 815.336132 796.626764 0.001228734
11.98215 808.32977 810.541767 796.844057 0.001237119
11.99095 804.90448 807.909824 797.062876 0.001242383
11.99976 803.16888 806.598297 797.283288 0.001245068
12.00857 801.95685 805.716503 797.505285 0.00124695
12.01738 801.64618 804.776157 797.728931 0.001247433
12.02618 801.33356 803.887244 797.954261 0.00124792
12.03499 800.78979 803.219262 798.181314 0.001248767
12.04380 800.68304 802.789195 798.410124 0.001248934
12.05261 801.61346 802.555242 798.640749 0.001247484
12.06141 802.66498 802.463312 798.87317 0.00124585
12.07022 803.09332 802.492102 799.107443 0.001245185
12.07903 802.91754 802.571388 799.343597 0.001245458
12.08783 802.75824 802.709512 799.581659 0.001245705
12.09664 803.21417 802.907016 799.821682 0.001244998
12.10545 803.81653 803.177633 800.063636 0.001244065
12.11426 803.58862 803.557808 800.30757 0.001244418
12.12306 803.98114 804.118531 800.553507 0.00124381
12.13187 804.65125 804.967243 800.801437 0.001242774
12.14068 805.27081 806.218036 801.051434 0.001241818
12.14948 805.77655 807.901536 801.303518 0.001241039
12.15829 807.35126 809.736291 801.557644 0.001238618
12.16710 808.93378 810.820751 801.813855 0.001236195
12.17591 809.37061 810.359906 802.072164 0.001235528
12.18471 809.09875 808.989893 802.332581 0.001235943
12.19352 808.2514 807.683296 802.595145 0.001237239
12.20233 808.01508 806.792746 802.859804 0.001237601
12.21113 807.64581 806.311672 803.126593 0.001238167
12.21994 807.30524 806.128659 803.395519 0.001238689
12.22875 807.30231 806.130104 803.666584 0.001238693
12.23756 807.91113 806.23682 803.93982 0.00123776
12.24636 808.43085 806.404485 804.215167 0.001236964
12.25517 808.80511 806.611338 804.492654 0.001236392
12.26398 808.42438 806.847187 804.772279 0.001236974
12.27278 809.05328 807.107321 805.054039 0.001236013
12.28159 810.28021 807.390082 805.337928 0.001234141
12.29040 811.46576 807.695858 805.623972 0.001232338
12.29921 812.05072 808.02774 805.9121 0.00123145
12.30801 812.6756 808.392193 806.202334 0.001230503
12.31682 813.18298 808.804151 806.494664 0.001229736
12.32563 813.34955 809.295673 806.78908 0.001229484
12.33443 814.2345 809.925402 807.085603 0.001228147
12.34324 816.13977 810.776793 807.384151 0.00122528
12.35205 817.91089 811.933546 807.684743 0.001222627
12.36086 819.43549 813.405414 807.987363 0.001220352
12.36966 819.39526 814.951626 808.291995 0.001220412
12.37847 819.2085 815.875437 808.598621 0.00122069
12.38728 819.29883 815.668344 808.907256 0.001220556
12.39608 818.836 814.878388 809.217812 0.001221246
12.40489 817.85797 814.199328 809.5303 0.001222706
12.41370 816.64392 813.87427 809.844701 0.001224524
12.42251 817.08563 813.917271 810.160992 0.001223862
12.43131 818.43341 814.301499 810.479184 0.001221847
12.44012 819.70544 815.044093 810.799182 0.00121995
12.44893 821.40375 816.230365 811.120997 0.001217428
12.45773 825.05493 817.973142 811.444603 0.001212041
12.46654 830.46857 820.283537 811.769973 0.001204139
12.47535 835.46857 822.770788 812.097081 0.001196933
12.48416 838.02069 824.283532 812.425936 0.001193288
12.49296 835.40533 823.95636 812.756435 0.001197024
12.50177 832.34595 822.747583 813.088588 0.001201424
12.51058 830.88654 821.976684 813.422363 0.001203534
12.51938 831.98199 822.245805 813.757733 0.001201949
12.52819 836.21155 823.7109 814.094704 0.00119587
12.53700 842.56 826.210327 814.433171 0.001186859
12.54581 848.76208 828.92464 814.77314 0.001178186
12.55461 848.90601 830.059851 815.11458 0.001177987
12.56342 843.58643 828.657533 815.45746 0.001185415
12.57223 836.56201 826.136747 815.801749 0.001195369
12.58104 831.59601 823.938111 816.147453 0.001202507
12.58984 828.78052 822.480351 816.494462 0.001206592
12.59865 826.79944 821.693014 816.842784 0.001209483
12.60746 824.50208 821.379692 817.192387 0.001212853
12.61626 823.4353 821.357321 817.543238 0.001214424
12.62507 823.35504 821.502014 817.895305 0.001214543
12.63388 824.37225 821.745048 818.248556 0.001213044
12.64269 824.61578 822.051968 818.602959 0.001212686
12.65149 824.72528 822.387752 818.958483 0.001212525
12.66030 825.15881 822.775691 819.315095 0.001211888
12.66911 825.46613 823.199293 819.672765 0.001211437
12.67791 825.5191 823.652637 820.031502 0.001211359
12.68672 825.69067 824.134512 820.391193 0.001211107
12.69553 825.65497 824.645121 820.751848 0.00121116
12.70434 826.00989 825.187367 821.113437 0.001210639
12.71314 826.22119 825.760361 821.47593 0.00121033
12.72195 826.46625 826.369112 821.839339 0.001209971
12.73076 827.19537 827.021076 822.203551 0.001208904
12.73956 828.44702 827.716402 822.568581 0.001207078
12.74837 829.6618 828.467165 822.934399 0.00120531
12.75718 830.35834 829.281884 823.300977 0.001204299
12.76599 830.71704 830.172514 823.668289 0.001203779
12.77479 831.03131 831.157076 824.03635 0.001203324
12.78360 832.5589 832.257636 824.40505 0.001201116
12.79241 833.68616 833.503657 824.774406 0.001199492
12.80121 834.18011 834.935229 825.144392 0.001198782
12.81002 835.25378 836.607568 825.514986 0.001197241
12.81883 836.87488 838.599195 825.886206 0.001194922
12.82764 838.87653 841.02716 826.257944 0.001192071
12.83644 841.38123 844.081427 826.630222 0.001188522
12.84525 844.62213 848.102588 827.003018 0.001183961
12.85406 849.47534 853.743828 827.376312 0.001177197
12.86286 856.29089 862.216347 827.750084 0.001167827
12.87167 867.90436 875.496836 828.124358 0.001152201
12.88048 887.63361 896.180355 828.499031 0.001126591
12.88929 920.37256 926.574701 828.874129 0.001086517
12.89809 967.33344 966.21851 829.249636 0.00103377
12.90690 1013.506 1005.94168 829.625535 0.000986674
12.91571 1036.4454 1025.739599 830.001856 0.000964836
12.92451 1027.168 1020.807657 830.378499 0.000973551
12.93332 1009.3685 1013.449181 830.755495 0.000990718
12.94213 1007.8477 1019.921624 831.132831 0.000992213
12.95094 1021.9445 1035.47932 831.510497 0.000978527
12.95974 1027.1555 1037.549354 831.888482 0.000973562
12.96855 1007.8145 1013.522998 832.266821 0.000992246
12.97736 970.39014 978.125361 832.64542 0.001030513
12.98616 932.67133 943.830374 833.024313 0.001072189
12.99497 905.36438 914.325803 833.403496 0.001104528
13.00378 886.23657 892.145913 833.782962 0.001128367
13.01259 874.3385 877.375033 834.16275 0.001143722
13.02139 866.75153 868.316961 834.542771 0.001153733
13.03020 862.47296 863.201933 834.923064 0.001159457
13.03901 860.48145 860.700461 835.303628 0.00116214
13.04781 860.29199 859.724897 835.684462 0.001162396
13.05662 860.74475 859.077871 836.065609 0.001161785
13.06543 861.1131 858.02156 836.446983 0.001161288
13.07424 861.40424 857.221362 836.82863 0.001160895
13.08304 863.36115 857.772723 837.210552 0.001158264
13.09185 866.32709 860.393153 837.592752 0.001154298
13.10066 872.28851 865.367553 837.975234 0.00114641
13.10947 878.25562 872.089212 838.358004 0.001138621
13.11827 882.297 877.747456 838.741067 0.001133405
13.12708 881.65143 877.740957 839.12443 0.001134235
13.13589 876.87494 871.824946 839.5081 0.001140413
13.14469 869.37006 864.427624 839.892085 0.001150258
13.15350 862.59766 858.391575 840.276438 0.001159289
13.16231 857.60626 854.274754 840.66108 0.001166036
13.17112 854.93951 851.755581 841.046065 0.001169673
13.17992 853.41864 850.328365 841.431405 0.001171758
13.18873 851.55804 849.567381 841.81711 0.001174318
13.19754 850.57709 849.198018 842.203192 0.001175672
13.20634 850.8125 849.073729 842.589708 0.001175347
13.21515 851.07294 849.1303 842.976583 0.001174987
13.22396 850.66425 849.344312 843.363875 0.001175552
13.23277 850.98169 849.711645 843.751597 0.001175113
13.24157 851.84766 850.22802 844.139765 0.001173919
13.25038 852.35217 850.843664 844.528437 0.001173224
13.25919 852.46838 851.402203 844.91754 0.001173064
13.26799 853.44006 851.728063 845.307134 0.001171728
13.27680 854.05878 851.891922 845.697235 0.00117088
13.28561 853.50281 852.102083 846.08786 0.001171642
13.29442 853.29395 852.460639 846.479026 0.001171929
13.30322 853.45636 852.996217 846.870793 0.001171706
13.31203 854.03223 853.730985 847.263089 0.001170916
13.32084 854.67871 854.710382 847.655977 0.00117003
13.32964 855.59546 856.053047 848.049475 0.001168777
13.33845 857.82306 857.988145 848.443598 0.001165742
13.34726 860.4068 860.882249 848.83841 0.001162241
13.35607 862.90112 865.190298 849.233839 0.001158881
13.36487 866.17273 871.272116 849.629948 0.001154504
13.37368 870.67645 878.850303 850.026753 0.001148532
13.38249 875.46002 885.866825 850.424272 0.001142257
13.39129 881.09296 888.848733 850.822524 0.001134954
13.40010 890.22559 887.738349 851.221569 0.001123311
13.40891 900.89148 885.472108 851.621336 0.001110012
13.41772 910.77039 882.454531 852.021885 0.001097972
13.42652 906.77856 877.873403 852.423234 0.001102805
13.43533 893.11548 872.981852 852.825399 0.001119676
13.44414 880.74811 869.245847 853.228442 0.001135398
13.45294 873.66748 867.015808 853.632287 0.0011446
13.46175 869.26526 866.158955 854.036995 0.001150397
13.47056 867.80975 866.528954 854.44258 0.001152326
13.47937 868.27795 868.113454 854.849059 0.001151705
13.48817 869.70288 870.985975 855.256443 0.001149818
13.49698 871.25519 875.078548 855.664794 0.001147769
13.50579 872.86713 879.589959 856.07403 0.00114565
13.51459 873.46594 882.256952 856.484212 0.001144864
13.52340 873.26093 881.110054 856.89535 0.001145133
13.53221 872.75134 877.600025 857.307456 0.001145802
13.54102 872.08252 874.162165 857.720586 0.00114668
13.54982 870.81976 871.77651 858.134657 0.001148343
13.55863 869.74243 870.487757 858.549725 0.001149766
13.56744 868.78546 870.058249 858.965797 0.001151032
13.57625 869.13696 870.225946 859.38288 0.001150567
13.58505 870.05072 870.799851 859.800982 0.001149358
13.59386 871.43115 871.675819 860.220108 0.001147538
13.60267 871.89026 872.8165 860.640262 0.001146933
13.61147 873.15674 874.228134 861.061449 0.00114527
13.62028 874.77148 875.949153 861.483671 0.001143156
13.62909 877.29529 878.049682 861.90693 0.001139867
13.63790 879.86005 880.643301 862.331276 0.001136544
13.64670 883.80713 883.908727 862.756613 0.001131469
13.65551 888.65601 888.14927 863.182986 0.001125295
13.66432 894.88928 893.88239 863.610395 0.001117457
13.67312 902.85303 902.004437 864.038837 0.0011076
13.68193 915.50677 914.028141 864.468355 0.001092291
13.69074 935.02222 932.285162 864.898847 0.001069493
13.69955 963.39496 959.71809 865.330356 0.001037996
13.70835 1009.7922 998.841864 865.762874 0.000990303
13.71716 1072.8296 1050.751094 866.196392 0.000932114
13.72597 1144.2855 1111.954573 866.630901 0.000873908
13.73477 1189.0363 1164.387543 867.066439 0.000841017
13.74358 1173.7849 1181.13372 867.502896 0.000851945
13.75239 1128.1124 1151.938969 867.940308 0.000886436
13.76120 1066.7242 1091.934854 868.378659 0.000937449
13.77000 1010.1632 1029.626962 868.817936 0.000989939
13.77881 967.76971 980.991402 869.258171 0.001033304
13.78762 939.06061 947.905638 869.699246 0.001064894
13.79642 920.48224 926.985397 870.141192 0.001086387
13.80523 908.72589 914.178096 870.583989 0.001100442
13.81404 901.27332 906.298287 871.027615 0.001109541
13.82284 896.44757 901.314878 871.472048 0.001115514
13.83165 892.98621 898.078203 871.917315 0.001119838
13.84046 890.60242 895.996201 872.36329 0.001122835
13.84927 888.96423 894.755465 872.809996 0.001124905
13.85807 888.21948 894.19092 873.257407 0.001125848
13.86688 888.24896 894.229906 873.705494 0.00112581
13.87569 889.56201 894.861397 874.154279 0.001124149
13.88450 891.29053 896.175408 874.603629 0.001121969
13.89330 893.59155 898.396364 875.053563 0.00111908
13.90211 897.3006 901.971407 875.504048 0.001114454
13.91092 902.53021 907.625846 875.955051 0.001107996
13.91972 910.3316 916.264242 876.406535 0.001098501
13.92853 921.54749 928.605685 876.858518 0.001085131
13.93734 935.45654 944.214619 877.310858 0.001068997
13.94615 947.53699 959.298463 877.763568 0.001055368
13.95495 955.66229 966.504917 878.216611 0.001046395
13.96376 958.69971 964.593908 878.669945 0.001043079
13.97257 960.24182 962.383072 879.123581 0.001041404
13.98137 967.83807 968.122008 879.577375 0.001033231
13.99018 986.97211 985.818026 880.031335 0.0010132
13.99899 1019.1027 1016.018687 880.485416 0.000981255
14.00780 1056.7714 1052.949325 880.939576 0.000946278
14.01660 1080.356 1078.282729 881.393768 0.000925621
14.02541 1074.9587 1071.815443 881.847998 0.000930268
14.03422 1047.662 1041.727719 882.302116 0.000954506
14.04303 1021.8877 1011.543933 882.756126 0.000978581
14.05183 1006.812 993.581578 883.209981 0.000993234
14.06064 1004.501 989.904066 883.66363 0.000995519
14.06945 1009.0021 997.001257 884.117077 0.000991078
14.07825 1013.0475 1005.248611 884.570116 0.000987121
14.08706 1010.1993 1001.159375 885.022852 0.000989904
14.09587 992.02863 982.733913 885.475183 0.001008035
14.10467 971.39709 960.747612 885.927056 0.001029445
14.11348 952.98163 942.738049 886.378472 0.001049338
14.12229 938.66492 930.347468 886.829276 0.001065343
14.13110 930.79095 922.869258 887.279465 0.001074355
14.13990 926.78345 919.183283 887.728989 0.001079001
14.14871 926.36621 918.49344 888.177793 0.001079487
14.15752 928.88904 920.576926 888.625825 0.001076555
14.16633 934.62299 925.679374 889.073081 0.00106995
14.17513 943.65924 934.108468 889.519407 0.001059705
14.18394 954.02704 945.340997 889.9648 0.001048188
14.19275 965.0824 956.154145 890.409206 0.001036181
14.20155 968.95386 960.203389 890.852572 0.001032041
14.21036 963.93976 955.664065 891.294895 0.001037409
14.21917 954.65747 948.9194 891.73602 0.001047496
14.22798 948.12018 945.791805 892.175945 0.001054719
14.23678 944.19135 948.171096 892.614617 0.001059107
14.24559 945.03979 955.015646 893.051983 0.001058157
14.25440 944.66479 961.704575 893.487991 0.001058577
14.26320 942.07678 961.50707 893.922637 0.001061485
14.27201 937.89618 954.102735 894.355771 0.001066216
14.28082 934.01532 945.772777 894.787392 0.001070646
14.28962 930.6524 940.999319 895.217449 0.001074515
14.29843 930.64282 941.245321 895.645891 0.001074526
14.30724 933.63629 946.541401 896.072718 0.001071081
14.31605 939.39337 955.615238 896.497782 0.001064517
14.32485 946.97937 966.276092 896.921085 0.001055989
14.33366 955.91187 977.717741 897.342578 0.001046122
14.34247 963.56952 988.097306 897.762214 0.001037808
14.35127 966.61719 989.842352 898.179949 0.001034536
14.36008 958.81738 978.529679 898.595782 0.001042951
14.36889 944.98663 961.324425 899.009575 0.001058216
14.37770 932.54016 946.015473 899.421333 0.00107234
14.38650 923.83978 935.169133 899.831012 0.001082439
14.39531 918.19458 928.669263 900.238572 0.001089094
14.40412 916.61383 925.711862 900.644016 0.001090972
14.41293 916.44843 925.493384 901.047214 0.001091169
14.42173 916.24438 927.262194 901.448174 0.001091412
14.43054 916.41638 929.853115 901.846858 0.001091207
14.43935 916.83014 931.115347 902.243231 0.001090715
14.44815 916.17786 929.47061 902.637257 0.001091491
14.45696 915.53204 926.160178 903.028948 0.001092261
14.46577 915.04089 923.149084 903.418182 0.001092847
14.47458 914.94312 921.265348 903.804973 0.001092964
14.48338 915.54529 920.624524 904.189292 0.001092245
14.49219 918.0033 921.165045 904.571109 0.001089321
14.50100 921.13214 922.83866 904.950442 0.001085621
14.50981 926.59991 925.736547 905.327179 0.001079214
14.51861 934.42725 930.0893 905.701339 0.001070174
14.52742 942.26819 935.95834 906.0729 0.001061269
14.53623 949.61566 943.132738 906.441841 0.001053058
14.54503 953.63995 951.334356 906.808142 0.001048614
14.55384 955.47943 958.788928 907.171828 0.001046595
14.56265 955.5943 961.905395 907.532757 0.001046469
14.57145 955.14526 960.847923 907.89104 0.001046961
14.58026 955.85706 960.488018 908.246621 0.001046182
14.58907 960.55896 964.249832 908.59949 0.001041061
14.59788 969.27673 971.923097 908.949676 0.001031697
14.60668 977.25342 979.001342 909.297092 0.001023276
14.61549 976.58936 978.584518 909.64177 0.001023972
14.62430 967.18359 970.442568 909.983706 0.00103393
14.63310 956.20874 961.256728 910.322898 0.001045797
14.64191 949.86005 955.882805 910.65938 0.001052787
14.65072 949.49133 955.966781 910.993077 0.001053196
14.65953 953.69135 961.535753 911.32403 0.001048557
14.66833 959.44653 971.027208 911.652241 0.001042268
14.67714 962.43652 979.737292 911.977716 0.00103903
14.68595 960.92865 980.486892 912.300461 0.00104066
14.69476 955.2981 971.496007 912.620522 0.001046794
14.70356 947.71466 958.788408 912.937835 0.00105517
14.71237 940.54517 947.631857 913.252449 0.001063213
14.72118 934.88898 939.573856 913.564377 0.001069646
14.72998 929.9129 934.362779 913.873635 0.00107537
14.73879 926.49237 931.278025 914.180272 0.00107934
14.74760 924.93005 929.632613 914.484239 0.001081163
14.75641 924.62274 928.946062 914.78559 0.001081522
14.76521 924.96985 928.958 915.084345 0.001081116
14.77402 926.05847 929.601217 915.380528 0.001079845
14.78283 927.38763 930.992018 915.674164 0.001078298
14.79163 929.8197 933.439949 915.965311 0.001075477
14.80044 932.77679 937.464926 916.253929 0.001072068
14.80925 937.76685 943.781786 916.540082 0.001066363
14.81805 945.9176 953.029397 916.8238 0.001057175
14.82686 956.48547 965.135782 917.105113 0.001045494
14.83567 965.77838 977.725889 917.384086 0.001035434
14.84448 971.74188 985.302746 917.66069 0.00102908
14.85328 972.60083 984.305234 917.934993 0.001028171
14.86209 968.71484 976.653356 918.20703 0.001032296
14.87090 961.90344 966.003071 918.476841 0.001039605
14.87970 954.83325 956.182884 918.744464 0.001047303
14.88851 949.78345 949.326755 919.009969 0.001052872
14.89732 946.90424 945.619712 919.273337 0.001056073
14.90613 944.6889 944.30518 919.534641 0.00105855
14.91493 944.31256 944.406028 919.793924 0.001058971
14.92374 945.77924 945.621283 920.051231 0.001057329
14.93255 947.48169 948.290982 920.306635 0.001055429
14.94136 948.97607 952.102925 920.560125 0.001053767
14.95016 949.44318 955.038003 920.811777 0.001053249
14.95897 949.75671 954.435631 921.061638 0.001052901
14.96778 948.74615 950.729395 921.309756 0.001054023
14.97658 947.51477 946.755083 921.556182 0.001055393
14.98539 946.63464 944.319633 921.800991 0.001056374
14.99420 946.71252 944.010239 922.044179 0.001056287
15.00301 948.16675 945.943361 922.285824 0.001054667
15.01181 951.55548 949.99253 922.525977 0.001050911
15.02062 956.78845 955.441708 922.76469 0.001045163
15.02943 962.71729 960.899329 923.002043 0.001038727
15.03824 970.67407 965.819981 923.238032 0.001030212
15.04704 979.46143 970.338647 923.472711 0.001020969
15.05585 982.12549 972.106512 923.706186 0.0010182
15.06466 975.71118 968.120841 923.938482 0.001024893
15.07346 963.24487 960.23432 924.169654 0.001038158
15.08227 951.97375 952.396122 924.399779 0.001050449
15.09108 945.32593 946.410875 924.628858 0.001057836
15.09988 941.09149 942.419229 924.856969 0.001062596
15.10869 938.55261 940.014217 925.084167 0.00106547
15.11750 937.21423 938.732023 925.310502 0.001066992
15.12631 936.86047 938.195474 925.536052 0.001067395
15.13511 936.59888 938.168177 925.760818 0.001067693
15.14392 937.27472 938.526904 925.984877 0.001066923
15.15273 938.62524 939.229295 926.208279 0.001065388
15.16153 940.43689 940.289517 926.431075 0.001063336
15.17034 943.12604 941.7754 926.653315 0.001060304
15.17915 946.6593 943.831942 926.875073 0.001056346
15.18796 951.1911 946.737788 927.096348 0.001051313
15.19676 957.68274 951.00968 927.317211 0.001044187
15.20557 965.42523 957.52499 927.537711 0.001035813
15.21438 977.58978 967.568685 927.757893 0.001022924
15.22319 994.26581 982.66058 927.977828 0.001005767
15.23199 1017.2725 1003.929429 928.19751 0.000983021
15.24080 1044.1747 1030.387352 928.417008 0.000957694
15.24961 1068.2218 1054.985802 928.636365 0.000936135
15.25841 1077.1035 1063.433899 928.855621 0.000928416
15.26722 1067.48 1049.629778 929.074816 0.000936786
15.27603 1045.5323 1025.650229 929.294016 0.000956451
15.28483 1024.871 1004.092993 929.513208 0.000975733
15.29364 1008.7908 989.306506 929.732453 0.000991286
15.30245 998.99432 980.847386 929.951787 0.001001007
15.31126 992.38403 975.995572 930.171245 0.001007674
15.32006 984.83215 971.413922 930.390883 0.001015401
15.32887 977.89319 966.062488 930.610683 0.001022607
15.33768 971.2887 961.136585 930.830701 0.00102956
15.34648 965.85907 957.503332 931.050964 0.001035348
15.35529 961.79449 955.259528 931.271499 0.001039723
15.36410 959.6839 954.203196 931.492358 0.00104201
15.37291 958.27722 954.101279 931.713513 0.001043539
15.38171 958.88086 954.780866 931.935012 0.001042882
15.39052 961.1499 956.154976 932.156876 0.00104042
15.39933 963.75928 958.214906 932.379124 0.001037603
15.40813 966.80719 961.039203 932.601774 0.001034332
15.41694 971.80615 964.815745 932.824866 0.001029012
15.42575 979.59631 969.915334 933.048364 0.001020829
15.43456 989.52771 976.949095 933.272306 0.001010583
15.44336 1002.2485 986.839462 933.496702 0.000997757
15.45217 1019.1935 1000.943914 933.721562 0.000981168
15.46098 1040.6 1021.166594 933.946919 0.000960984
15.46979 1068.5289 1049.717256 934.172726 0.000935866
15.47859 1104.6686 1088.293422 934.399015 0.000905249
15.48740 1151.1819 1138.509813 934.625785 0.000868672
15.49621 1214.1594 1204.518885 934.853039 0.000823615
15.50501 1296.7611 1288.420256 935.080774 0.000771152
15.51382 1388.7317 1373.45706 935.309014 0.000720081
15.52263 1444.6156 1412.67457 935.537703 0.000692226
15.53144 1415.9202 1371.967997 935.766833 0.000706254
15.54024 1319.278 1281.571784 935.996448 0.00075799
15.54905 1212.0288 1188.690027 936.226513 0.000825063
15.55786 1127.9894 1114.7404 936.457043 0.000886533
15.56666 1073.8339 1062.460969 936.687972 0.000931243
15.57547 1038.271 1027.777321 936.919311 0.00096314
15.58428 1014.5564 1005.357789 937.151045 0.000985652
15.59309 998.22028 990.71095 937.383155 0.001001783
15.60189 987.32733 980.775521 937.615623 0.001012835
15.61070 978.98724 973.706259 937.848453 0.001021464
15.61951 972.38861 968.463471 938.081571 0.001028395
15.62831 967.31903 964.459295 938.314979 0.001033785
15.63712 963.67529 961.341836 938.548651 0.001037694
15.64593 960.30359 958.882875 938.782562 0.001041337
15.65474 957.44513 956.926984 939.01671 0.001044446
15.66354 955.68329 955.365018 939.251013 0.001046372
15.67235 954.10413 954.114415 939.485466 0.001048104
15.68116 953.30347 953.119133 939.720039 0.001048984
15.68996 953.03186 952.337336 939.954697 0.001049283
15.69877 952.77057 951.741368 940.189408 0.001049571
15.70758 951.77332 951.317314 940.424163 0.00105067
15.71639 951.93713 951.065159 940.658872 0.00105049
15.72519 951.5127 950.99838 940.893526 0.001050958
15.73400 951.75702 951.142111 941.128087 0.001050688
15.74281 952.23975 951.521075 941.362515 0.001050156
15.75161 952.5188 952.123311 941.596799 0.001049848
15.76042 952.1275 952.843577 941.830844 0.00105028
15.76923 953.13031 953.54676 942.064637 0.001049174
15.77804 954.28345 954.199355 942.298136 0.001047907
15.78684 955.1806 954.722722 942.531298 0.001046922
15.79565 955.51947 955.079911 942.764083 0.001046551
15.80446 954.64832 955.61843 942.996473 0.001047506
15.81326 954.40033 956.776979 943.228372 0.001047778
15.82207 955.26904 958.683177 943.459763 0.001046826
15.83088 956.04407 960.914189 943.690602 0.001045977
15.83969 955.45093 962.265515 943.920847 0.001046626
15.84849 954.39551 961.607743 944.150478 0.001047784
15.85730 953.52173 959.485495 944.379401 0.001048744
15.86611 952.79443 957.222631 944.607596 0.001049544
15.87491 953.06421 955.49957 944.835021 0.001049247
15.88372 953.20874 954.437502 945.061633 0.001049088
15.89253 953.55554 953.966363 945.287387 0.001048707
15.90134 954.38702 953.997632 945.512267 0.001047793
15.91014 955.77295 954.494912 945.736178 0.001046274
15.91895 957.27393 955.495105 945.959106 0.001044633
15.92776 958.66907 957.092464 946.181008 0.001043113
15.93656 960.44324 959.377334 946.401844 0.001041186
15.94537 962.50751 962.28591 946.621599 0.001038953
15.95418 964.94952 965.264156 946.840182 0.001036324
15.96299 967.33197 967.115996 947.057582 0.001033771
15.97179 969.21191 967.256753 947.27376 0.001031766
15.98060 970.97601 966.845841 947.488679 0.001029892
15.98941 973.77869 967.406316 947.702305 0.001026927
15.99822 976.7063 969.813541 947.914626 0.001023849
16.00702 983.1286 974.388318 948.125562 0.001017161
16.01583 992.05756 980.741222 948.33508 0.001008006
16.02464 999.67297 986.898363 948.543221 0.001000327
16.03344 1001.5258 989.015961 948.74986 0.000998477
16.04225 997.70422 985.209075 948.955087 0.001002301
16.05106 989.57147 978.343983 949.158735 0.001010538
16.05987 981.29468 971.766093 949.360894 0.001019062
16.06867 973.85626 966.754697 949.56145 0.001026846
16.07748 968.6955 963.351192 949.760471 0.001032316
16.08629 964.75226 961.221661 949.957869 0.001036536
16.09510 962.87689 959.98351 950.153669 0.001038554
16.10390 961.21063 959.324362 950.347789 0.001040355
16.11271 959.92902 959.050812 950.540301 0.001041744
16.12151 960.15405 959.041674 950.731104 0.0010415
16.13032 959.97375 959.239207 950.920273 0.001041695
16.13913 959.77094 959.621842 951.107735 0.001041915
16.14794 959.25641 960.190996 951.293522 0.001042474
16.15674 959.29675 960.964472 951.477568 0.00104243
16.16555 959.45807 961.986251 951.65995 0.001042255
16.17436 960.59009 963.3245 951.840585 0.001041027
16.18317 962.4046 965.114812 952.019574 0.001039064
16.19197 964.7063 967.602501 952.196798 0.001036585
16.20078 968.00336 971.16372 952.372362 0.001033054
16.20959 971.68958 976.285322 952.546192 0.001029135
16.21840 976.44037 983.511986 952.718375 0.001024128
16.22720 981.33295 993.203127 952.888843 0.001019022
16.23601 987.56384 1004.847927 953.057706 0.001012593
16.24482 993.55054 1016.29627 953.224861 0.001006491
16.25362 1000.5712 1025.879781 953.39042 0.000999429
16.26243 1010.1005 1035.650441 953.554328 0.00099
16.27124 1021.2793 1047.600715 953.716642 0.000979164
16.28005 1031.2106 1058.357138 953.877438 0.000969734
16.28885 1037.5417 1061.938292 954.036632 0.000963817
16.29766 1037.421 1056.937632 954.194341 0.000963929
16.30646 1028.0172 1044.584568 954.350521 0.000972746
16.31527 1013.1639 1027.253544 954.505274 0.000987007
16.32408 997.89246 1009.828602 954.658579 0.001002112
16.33289 984.30078 995.745274 954.810504 0.00101595
16.34169 974.94446 985.621056 954.961034 0.001025699
16.35050 969.36951 978.766853 955.110275 0.001031598
16.35931 965.90198 974.269676 955.258197 0.001035302
16.36812 964.18127 971.350436 955.404911 0.001037149
16.37692 963.02753 969.459587 955.550407 0.001038392
16.38573 962.08643 968.252045 955.694763 0.001039408
16.39454 961.70166 967.537065 955.837975 0.001039824
16.40335 961.55731 967.223686 955.980157 0.00103998
16.41215 961.49652 967.298592 956.121291 0.001040045
16.42096 962.53894 967.823331 956.261492 0.001038919
16.42977 964.34851 968.948972 956.400763 0.00103697
16.43857 966.59937 970.930523 956.539187 0.001034555
16.44738 969.50665 974.104276 956.676773 0.001031452
16.45619 973.62976 978.80157 956.813635 0.001027084
16.46499 979.80688 985.09138 956.949767 0.001020609
16.47380 988.26379 992.124026 957.085304 0.001011876
16.48261 994.40332 997.153011 957.220209 0.001005628
16.49142 994.53247 996.856413 957.354617 0.001005498
16.50022 988.76685 991.72197 957.488526 0.001011361
16.50903 982.17139 985.231981 957.622055 0.001018152
16.51784 977.02771 979.572896 957.755217 0.001023512
16.52665 973.80865 975.250426 957.888103 0.001026896
16.53545 971.33087 972.231099 958.020727 0.001029515
16.54426 969.80957 970.331862 958.15321 0.00103113
16.55307 969.15735 969.308639 958.285552 0.001031824
16.56187 969.64209 968.950507 958.417871 0.001031308
16.57068 970.52393 969.117363 958.550184 0.001030371
16.57949 971.05884 969.706076 958.68258 0.001029804
16.58829 971.63403 970.560053 958.815072 0.001029194
16.59710 972.84064 971.381026 958.94778 0.001027918
16.60591 973.40167 971.921738 959.080702 0.001027325
16.61472 974.4856 972.373134 959.213954 0.001026182
16.62352 976.24255 973.188515 959.347548 0.001024336
16.63233 978.09406 974.768653 959.481571 0.001022397
16.64114 981.50311 977.502675 959.616031 0.001018845
16.64995 986.61328 981.88301 959.751042 0.001013568
16.65875 993.18152 988.492996 959.886596 0.001006865
16.66756 1001.3525 997.823444 960.022821 0.000998649
16.67637 1011.5712 1009.653939 960.159673 0.000988561
16.68518 1021.6949 1021.91052 960.297277 0.000978766
16.69398 1029.937 1030.478857 960.435619 0.000970933
16.70279 1033.214 1031.941029 960.574804 0.000967854
16.71160 1030.4847 1025.722821 960.714828 0.000970417
16.72040 1023.9147 1015.093066 960.855764 0.000976644
16.72921 1016.3552 1004.846312 960.997602 0.000983908
16.73802 1009.1308 997.502786 961.140443 0.000990952
16.74682 1003.6924 993.343245 961.284256 0.000996321
16.75563 1000.0206 991.479131 961.429107 0.000999979
16.76444 997.5318 990.489317 961.575073 0.001002474
16.77324 994.3927 989.59015 961.722083 0.001005639
16.78205 992.0285 989.424299 961.870245 0.001008036
16.79086 992.19263 991.060137 962.019512 0.001007869
16.79967 995.51324 995.215144 962.169972 0.001004507
16.80847 1002.2479 1002.156129 962.321589 0.000997757
16.81728 1010.9792 1011.248657 962.474412 0.00098914
16.82609 1021.2621 1020.026209 962.628398 0.000979181
16.83490 1027.8842 1024.686626 962.783625 0.000972872
16.84370 1029.0642 1022.977754 962.940027 0.000971757
16.85251 1024.496 1015.900266 963.097674 0.00097609
16.86132 1016.8422 1007.112926 963.256513 0.000983437
16.87013 1005.9729 999.906223 963.416573 0.000994063
16.87893 999.67267 995.631267 963.577792 0.001000327
16.88774 995.18787 994.536444 963.74023 0.001004835
16.89654 993.93726 996.588616 963.903799 0.0010061
16.90535 995.47394 1001.658374 964.068573 0.001004547
16.91416 1000.7944 1009.17363 964.234418 0.000999206
16.92297 1007.1318 1017.430999 964.401402 0.000992919
16.93177 1013.6086 1023.931573 964.569421 0.000986574
16.94058 1019.2881 1027.054427 964.738519 0.000981077
16.94939 1021.9347 1025.9723 964.908603 0.000978536
16.95820 1019.2761 1021.851853 965.079672 0.000981088
16.96700 1017.1281 1018.353821 965.251626 0.00098316
16.97581 1012.4714 1018.13836 965.424497 0.000987682
16.98462 1011.67 1021.177952 965.598157 0.000988465
16.99342 1009.682 1024.508033 965.772632 0.000990411
17.00223 1008.4083 1023.320913 965.947808 0.000991662
17.01104 1002.7408 1016.157925 966.123664 0.000997267
17.01985 996.59155 1006.595586 966.30008 0.00100342
17.02865 990.46631 998.05585 966.477069 0.001009625
17.03746 987.79376 991.716336 966.654483 0.001012357
17.04627 985.92328 987.561082 966.832331 0.001014278
17.05507 985.24994 985.261876 967.010477 0.001014971
17.06388 984.51221 984.518295 967.188885 0.001015731
17.07269 984.72693 985.171057 967.367415 0.00101551
17.08150 986.24249 987.188529 967.546063 0.001013949
17.09030 989.94391 990.531245 967.724664 0.001010158
17.09911 995.22784 994.805097 967.90323 0.001004795
17.10792 999.76868 998.632997 968.081551 0.001000231
17.11673 1001.5154 999.855814 968.259634 0.000998487
17.12553 999.94202 997.993155 968.437305 0.001000058
17.13434 997.08362 995.097408 968.614545 0.001002925
17.14315 995.284 993.122477 968.791198 0.001004738
17.15196 994.66162 992.720455 968.967201 0.001005367
17.16076 994.18237 993.673739 969.142393 0.001005852
17.16957 993.95605 995.256875 969.316751 0.001006081
17.17837 993.91168 996.045597 969.490088 0.001006126
17.18718 992.9433 994.566852 969.662379 0.001007107
17.19599 990.71173 991.19236 969.833457 0.001009375
17.20480 988.13965 987.51921 970.003252 0.001012003
17.21360 985.63873 984.531044 970.171599 0.001014571
17.22241 984.10571 982.442519 970.338464 0.001016151
17.23122 983.08447 981.15693 970.503662 0.001017207
17.24002 982.49011 980.5064 970.667139 0.001017822
17.24883 982.08014 980.344588 970.828786 0.001018247
17.25764 982.17249 980.595251 970.988436 0.001018151
17.26645 982.51117 981.287095 971.146055 0.0010178
17.27525 983.55481 982.533587 971.30146 0.00101672
17.28406 984.70154 984.481056 971.454616 0.001015536
17.29287 986.31396 987.230781 971.605361 0.001013876
17.30168 987.99738 990.656833 971.753625 0.001012148
17.31048 989.71509 993.997204 971.899253 0.001010392
17.31929 991.47632 995.678644 972.042207 0.001008597
17.32810 992.95367 994.717126 972.182322 0.001007096
17.33691 992.01392 992.160602 972.319577 0.00100805
17.34571 989.95563 989.621402 972.453782 0.001010146
17.35452 988.25323 987.903547 972.584917 0.001011886
17.36332 987.64709 987.208928 972.712831 0.001012507
17.37213 987.77216 987.527253 972.837492 0.001012379
17.38094 989.33185 988.789815 972.958758 0.001010783
17.38975 991.77728 990.843539 973.076611 0.001008291
17.39855 994.30804 993.264135 973.190891 0.001005725
17.40736 996.61176 995.244382 973.301588 0.0010034
17.41617 997.45477 996.244469 973.408576 0.001002552
17.42498 997.6308 996.694135 973.511835 0.001002375
17.43378 997.72607 997.240798 973.611264 0.001002279
17.44259 999.48126 998.270109 973.706823 0.001000519
17.45140 1002.3801 1000.335967 973.798423 0.000997626
17.46020 1006.0433 1004.172125 973.886054 0.000993993
17.46901 1011.9865 1010.483821 973.969627 0.000988155
17.47782 1020.1459 1019.909522 974.049137 0.000980252
17.48663 1030.4469 1032.723215 974.124519 0.000970453
17.49543 1043.0022 1047.995721 974.195755 0.000958771
17.50424 1055.2551 1063.321254 974.262794 0.000947638
17.51305 1065.5114 1077.490733 974.325644 0.000938516
17.52185 1074.6436 1091.2643 974.384259 0.000930541
17.53066 1080.8241 1101.779552 974.438659 0.00092522
17.53947 1081.9755 1102.536085 974.488802 0.000924235
17.54828 1080.4836 1094.018144 974.534715 0.000925512
17.55708 1078.8436 1084.697073 974.576383 0.000926918
17.56589 1079.3589 1080.517065 974.613836 0.000926476
17.57470 1081.1847 1080.674263 974.647074 0.000924911
17.58351 1079.8246 1078.906793 974.676138 0.000926076
17.59231 1071.5927 1069.367754 974.701037 0.00093319
17.60112 1057.2327 1053.608355 974.721821 0.000945866
17.60993 1040.2051 1037.26947 974.738521 0.000961349
17.61873 1026.9189 1023.511314 974.751192 0.000973787
17.62754 1016.1359 1012.871536 974.759882 0.00098412
17.63635 1007.2221 1005.080137 974.764651 0.00099283
17.64515 1001.0872 999.649683 974.765564 0.000998914
17.65396 997.40485 996.00963 974.762692 0.001002602
17.66277 994.10931 993.67896 974.756112 0.001005926
17.67158 992.18311 992.343731 974.745904 0.001007878
17.68038 991.08893 991.870706 974.732159 0.001008991
17.68919 991.52521 992.294347 974.714969 0.001008547
17.69800 992.72424 993.797111 974.694438 0.001007329
17.70681 995.33112 996.675084 974.670661 0.001004691
17.71561 999.79089 1001.244858 974.64376 0.001000209
17.72442 1004.9763 1007.618184 974.613841 0.000995048
17.73323 1010.762 1015.105054 974.581023 0.000989353
17.74203 1015.6126 1021.21878 974.545442 0.000984627
17.75084 1018.5788 1022.25089 974.507211 0.00098176
17.75965 1016.7579 1017.44519 974.466481 0.000983518
17.76846 1011.2387 1010.06038 974.423367 0.000988886
17.77726 1003.9716 1003.012736 974.378039 0.000996044
17.78607 998.42004 997.175981 974.330617 0.001001582
17.79488 994.33917 992.564593 974.281273 0.001005693
17.80368 991.56635 989.101801 974.230135 0.001008505
17.81249 989.53168 986.619721 974.177383 0.001010579
17.82130 987.49573 984.873853 974.123142 0.001012663
17.83010 986.54572 983.649638 974.067611 0.001013638
17.83891 985.79932 982.791066 974.01092 0.001014405
17.84772 985.07886 982.194432 973.953258 0.001015147
17.85653 985.19299 981.793391 973.894765 0.00101503
17.86533 985.30426 981.548669 973.835626 0.001014915
17.87414 985.0578 981.439055 973.775995 0.001015169
17.88295 984.99878 981.457311 973.71606 0.00101523
17.89176 985.45325 981.607701 973.655961 0.001014761
17.90056 986.03955 981.906729 973.595891 0.001014158
17.90937 986.60858 982.388101 973.535991 0.001013573
17.91818 987.90491 983.112498 973.476445 0.001012243
17.92698 990.3606 984.185298 973.417403 0.001009733
17.93579 992.05853 985.779815 973.359048 0.001008005
17.94460 993.8609 988.159304 973.301512 0.001006177
17.95341 997.34039 991.672814 973.244978 0.001002667
17.96221 1003.158 996.71212 973.189569 0.000996852
17.97102 1010.7645 1003.555819 973.135471 0.00098935
17.97983 1021.0961 1011.971273 973.082802 0.00097934
17.98863 1033.4777 1020.304764 973.031725 0.000967607
17.99744 1041.6001 1025.054869 972.982357 0.000960061
18.00625 1039.6046 1023.880368 972.934852 0.000961904
18.01506 1030.9298 1019.090593 972.889311 0.000969998
18.02386 1022.7194 1014.748838 972.845884 0.000977785
18.03267 1019.7054 1013.268359 972.804664 0.000980675
18.04148 1021.2948 1015.452997 972.765776 0.000979149
18.05028 1026.6458 1021.017184 972.729304 0.000974046
18.05909 1031.5658 1028.122421 972.695357 0.0009694
18.06790 1035.0603 1032.617587 972.664011 0.000966127
18.07671 1033.9778 1030.32609 972.635356 0.000967139
18.08551 1027.9312 1021.999071 972.60945 0.000972828
18.09432 1019.111 1011.960746 972.586364 0.000981247
18.10313 1011.0308 1003.209697 972.566143 0.00098909
18.11193 1004.4279 996.616596 972.548835 0.000995592
18.12074 999.27203 992.048373 972.534471 0.001000729
18.12955 995.52075 989.101312 972.52308 0.001004499
18.13836 993.56201 987.368124 972.51467 0.00100648
18.14716 992.62982 986.540632 972.509248 0.001007425
18.15597 992.5976 986.421666 972.506806 0.001007458
18.16478 992.79431 986.884349 972.507328 0.001007258
18.17359 993.10986 987.770985 972.510785 0.001006938
18.18239 994.66125 988.794796 972.517137 0.001005367
18.19120 995.94659 989.722146 972.526337 0.00100407
18.20001 997.24164 990.79599 972.538319 0.001002766
18.20881 998.76318 992.611242 972.553016 0.001001238
18.21762 1001.0477 995.647021 972.570344 0.000998953
18.22643 1004.136 1000.115399 972.590202 0.000995881
18.23523 1007.2192 1005.80308 972.612494 0.000992833
18.24404 1009.5951 1011.469827 972.637092 0.000990496
18.25285 1009.7775 1014.544198 972.663883 0.000990317
18.26166 1008.3989 1013.039453 972.692709 0.000991671
18.27046 1006.0615 1008.084298 972.723436 0.000993975
18.27927 1003.0954 1002.402715 972.755891 0.000996914
18.28808 1000.1623 997.722821 972.789917 0.000999838
18.29688 998.00085 994.545806 972.825322 0.001002003
18.30569 997.0899 992.815786 972.861922 0.001002919
18.31450 997.3429 992.348855 972.899505 0.001002664
18.32331 998.17719 993.017854 972.937877 0.001001826
18.33211 998.88098 994.851529 972.976803 0.00100112
18.34092 1001.6815 998.098661 973.016072 0.000998321
18.34973 1005.92 1003.26632 973.055436 0.000994115
18.35854 1011.7628 1011.117187 973.094661 0.000988374
18.36734 1019.3843 1022.563331 973.133483 0.000980984
18.37615 1030.6698 1038.36099 973.171663 0.000970243
18.38496 1045.3225 1058.228133 973.208921 0.000956643
18.39376 1062.3035 1078.962792 973.245006 0.000941351
18.40257 1073.9067 1093.062679 973.279632 0.00093118
18.41138 1075.8501 1093.611807 973.31253 0.000929498
18.42019 1067.4611 1081.564691 973.343408 0.000936802
18.42899 1053.5592 1063.021156 973.371997 0.000949164
18.43780 1037.6565 1043.897296 973.397999 0.00096371
18.44661 1025.5719 1027.845598 973.421141 0.000975066
18.45541 1016.0823 1015.957659 973.441121 0.000984172
18.46422 1008.7961 1007.833852 973.457664 0.000991281
18.47303 1004.0953 1002.679146 973.470476 0.000995921
18.48184 1001.7426 999.733176 973.47928 0.00099826
18.49064 1000.1541 998.451311 973.483793 0.000999846
18.49945 1000.5555 998.458684 973.483738 0.000999445
18.50826 1001.4813 999.451739 973.478844 0.000998521
18.51706 1002.8046 1001.005336 973.468843 0.000997203
18.52587 1004.5283 1002.575962 973.45348 0.000995492
18.53468 1006.812 1004.095962 973.432496 0.000993234
18.54349 1009.5112 1006.36177 973.405653 0.000990578
18.55229 1013.3075 1010.512362 973.372711 0.000986867
18.56110 1019.4394 1017.65748 973.333459 0.000980931
18.56991 1028.6396 1028.911352 973.287665 0.000972158
18.57871 1040.8455 1045.246229 973.23515 0.000960757
18.58752 1056.9694 1066.857529 973.175697 0.000946101
18.59633 1076.4235 1091.366924 973.109173 0.000929002
18.60514 1094.8635 1111.469426 973.035381 0.000913356
18.61394 1103.0558 1117.006613 972.954215 0.000906572
18.62275 1096.7937 1104.944721 972.865512 0.000911748
18.63156 1078.1248 1083.281342 972.769203 0.000927536
18.64037 1058.8866 1061.850129 972.665142 0.000944388
18.64917 1043.5204 1045.497515 972.553331 0.000958295
18.65798 1033.8971 1034.770485 972.433656 0.000967214
18.66679 1026.5095 1028.008093 972.30614 0.000974175
18.67559 1021.28 1022.803796 972.170717 0.000979163
18.68440 1016.0413 1017.631731 972.027444 0.000984212
18.69321 1010.0867 1012.294736 971.876359 0.000990014
18.70201 1003.8773 1007.353549 971.717467 0.000996138
18.71082 999.01617 1003.374038 971.550921 0.001000985
18.71963 996.00366 1000.224902 971.376748 0.001004012
18.72844 993.56 997.303649 971.195137 0.001006482
18.73724 991.08246 994.405729 971.006198 0.001008998
18.74605 989.12177 991.906061 970.810174 0.001010998
18.75486 988.22943 990.166483 970.607177 0.001011911
18.76366 987.82159 989.35033 970.397526 0.001012329
18.77247 987.75195 989.563274 970.181373 0.0010124
18.78128 988.17725 990.959185 969.959067 0.001011964
18.79009 989.625 993.752024 969.730856 0.001010484
18.79889 992.80713 998.142734 969.497138 0.001007245
18.80770 997.35559 1004.119008 969.258153 0.001002651
18.81651 1001.9377 1010.880904 969.014378 0.000998066
18.82531 1005.5117 1016.171986 968.766088 0.000994519
18.83412 1006.5352 1017.283066 968.513779 0.000993507
18.84293 1004.3449 1014.383365 968.257825 0.000995674
18.85174 1001.114 1010.51119 967.998764 0.000998887
18.86054 998.604 1008.144189 967.736945 0.001001398
18.86935 997.38464 1007.88566 967.472972 0.001002622
18.87816 998.0155 1008.631823 967.207198 0.001001988
18.88697 998.09576 1008.042473 966.940319 0.001001908
18.89577 997.01428 1004.599944 966.672712 0.001002995
18.90458 995.55688 999.391701 966.405039 0.001004463
18.91339 993.59625 994.376511 966.137728 0.001006445
18.92219 992.10278 990.608362 965.871429 0.00100796
18.93100 992.60608 988.364662 965.606645 0.001007449
18.93981 993.23224 987.67289 965.344035 0.001006814
18.94862 994.73572 988.578578 965.084049 0.001005292
18.95742 998.53888 991.250145 964.827375 0.001001463
18.96623 1003.7145 995.977844 964.574464 0.000996299
18.97504 1010.2516 1003.04608 964.325966 0.000989852
18.98384 1017.5718 1012.458632 964.082381 0.000982732
18.99265 1025.9701 1023.551648 963.844336 0.000974687
19.00146 1033.2867 1034.414567 963.612258 0.000967786
19.01027 1039.0343 1041.832253 963.386772 0.000962432
19.01907 1042.1444 1043.73415 963.168279 0.00095956
19.02788 1040.7714 1040.163057 962.957337 0.000960826
19.03669 1033.619 1031.377149 962.754358 0.000967474
19.04549 1023.1859 1019.166702 962.559843 0.00097734
19.05430 1011.3674 1006.857058 962.374114 0.00098876
19.06311 1001.037 996.61167 962.197632 0.000998964
19.07192 993.38245 988.889293 962.030641 0.001006662
19.08072 988.42426 983.359373 961.873566 0.001011711
19.08953 985.47571 979.50015 961.726582 0.001014738
19.09834 982.95618 976.834338 961.589989 0.001017339
19.10714 981.20636 974.99366 961.463914 0.001019154
19.11595 980.10913 973.725049 961.348541 0.001020295
19.12476 979.07074 972.864472 961.24394 0.001021377
19.13357 978.57574 972.311602 961.150191 0.001021893
19.14237 978.74078 972.011652 961.06725 0.001021721
19.15118 978.96063 971.946667 960.995092 0.001021492
19.15999 978.91382 972.12605 960.933578 0.00102154
19.16879 978.71466 972.578806 960.882563 0.001021748
19.17760 979.03064 973.361469 960.841823 0.001021418
19.18641 979.84247 974.571221 960.811068 0.001020572
19.19522 981.3623 976.370672 960.789974 0.001018992
19.20402 983.71436 979.001166 960.778143 0.001016555
19.21283 986.91693 982.799613 960.775129 0.001013257
19.22164 991.46729 988.183048 960.780423 0.001008606
19.23044 997.25165 995.541717 960.793467 0.001002756
19.23925 1003.885 1004.941483 960.813652 0.00099613
19.24806 1011.5471 1015.588075 960.840296 0.000988585
19.25687 1020.3988 1025.869148 960.872698 0.000980009
19.26567 1030.824 1034.587079 960.910082 0.000970098
19.27448 1040.0376 1040.726499 960.951647 0.000961504
19.28329 1043.665 1041.715171 960.996529 0.000958162
19.29209 1040.6323 1036.304562 961.04386 0.000960954
19.30090 1031.5677 1027.86768 961.092699 0.000969398
19.30971 1023.1425 1020.890475 961.142122 0.000977381
19.31852 1018.2315 1017.539964 961.191128 0.000982095
19.32732 1017.0344 1017.63717 961.238758 0.000983251
19.33613 1016.7767 1019.046283 961.283994 0.0009835
19.34494 1015.5905 1018.505225 961.325853 0.000984649
19.35374 1012.4973 1014.589791 961.363327 0.000987657
19.36255 1007.8415 1009.000942 961.395438 0.00099222
19.37136 1002.1836 1003.70171 961.421215 0.000997821
19.38017 997.94574 999.061631 961.43973 0.001002058
19.38897 994.67645 994.418079 961.450078 0.001005352
19.39778 990.64728 989.517064 961.451413 0.001009441
19.40659 986.7666 984.951296 961.44294 0.001013411
19.41540 983.71503 981.244473 961.423921 0.001016555
19.42420 981.59723 978.458261 961.393722 0.001018748
19.43301 980.1579 976.453872 961.351748 0.001020244
19.44182 979.05365 975.100845 961.297556 0.001021394
19.45062 978.08405 974.23712 961.23075 0.001022407
19.45943 977.07513 973.625112 961.151104 0.001023463
19.46824 976.33405 973.058076 961.058468 0.00102424
19.47705 975.45428 972.540996 960.952872 0.001025163
19.48585 975.21106 972.235436 960.834418 0.001025419
19.49466 974.87714 972.297056 960.703448 0.00102577
19.50347 974.37689 972.864022 960.560325 0.001026297
19.51227 974.90045 974.105929 960.405743 0.001025746
19.52108 976.21863 976.266053 960.240375 0.001024361
19.52989 977.81012 979.65593 960.065211 0.001022693
19.53870 980.35284 984.606286 959.881249 0.001020041
19.54750 984.78772 991.304536 959.689774 0.001015447
19.55631 990.5379 999.374034 959.492122 0.001009552
19.56512 997.17065 1007.032073 959.289887 0.001002837
19.57392 1002.5248 1010.786006 959.084613 0.000997482
19.58273 1000.9048 1008.138208 958.878136 0.000999096
19.59154 994.07129 1000.821046 958.672209 0.001005964
19.60035 986.15192 992.509903 958.468785 0.001014043
19.60915 980.02625 985.454296 958.269736 0.001020381
19.61796 976.80646 980.309367 958.077035 0.001023744
19.62677 975.07501 977.020146 957.892438 0.001025562
19.63557 974.60632 975.345792 957.717761 0.001026055
19.64438 975.42688 975.00071 957.554466 0.001025192
19.65319 977.11328 975.588074 957.403925 0.001023423
19.66200 978.92572 976.401549 957.267096 0.001021528
19.67080 979.35083 976.422024 957.144486 0.001021085
19.67961 977.18427 975.082705 957.036171 0.001023348
19.68842 974.25659 972.910898 956.94147 0.001026424
19.69722 972.62823 970.800428 956.859013 0.001028142
19.70603 971.5473 969.271588 956.786442 0.001029286
19.71484 970.78137 968.505181 956.720331 0.001030098
19.72365 970.13599 968.548811 956.655956 0.001030783
19.73245 969.87457 969.411843 956.587135 0.001031061
19.74126 970.77594 971.056574 956.505902 0.001030104
19.75007 971.94696 973.276592 956.402463 0.001028863
19.75887 973.25195 975.452927 956.264625 0.001027483
19.76768 973.75928 976.509203 956.077829 0.001026948
19.77649 973.55994 975.797089 955.824472 0.001027158
19.78530 972.88989 973.961847 955.483897 0.001027866
19.79410 972.16846 972.172801 955.031523 0.001028628
19.80291 972.09656 971.166323 954.439213 0.001028704
19.81172 972.63367 971.212547 953.673665 0.001028136
19.82052 973.17688 972.334212 952.697217 0.001027562
19.82933 973.96545 974.284207 951.465738 0.00102673
19.83814 974.71637 976.178794 949.929767 0.001025939
19.84695 974.92291 976.21806 948.032192 0.001025722
19.85575 974.56714 972.756476 945.709388 0.001026097
19.86456 973.8526 966.147841 942.887599 0
19.87337 972.23303 0 0 0
19.88218 971.40448 0 0 0
19.89098 970.76276 0 0 0
19.89979 971.01239 0 0 0
19.90860 971.117 0 0 0
19.91740 972.44086 0 0 0
19.92621 974.80597 0 0 0
19.93502 977.54492 0 0 0
19.94383 979.83258 0 0 0
19.95263 981.68146 0 0 0
19.96144 981.95447 0 0 0
19.97025 982.9895 0 0 0
19.97905 983.88055 0 0 0
19.98786 984.52393 0 0 0
19.99667 986.07928 0 0 0
20.00548 987.68707 0 0 0
20.01428 987.31934 0 0 0
20.02309 985.27808 0 0 0
20.03190 981.39331 0 0 0
20.04070 978.70068 0 0 0
20.04951 975.8858 0 0 0
20.05832 973.8764 0 0 0
20.06713 973.24744 0 0 0
20.07593 973.38434 0 0 0
20.08474 973.82245 0 0 0
20.09355 974.12421 0 0 0
20.10235 974.03241 0 0 0
20.11116 973.12317 0 0 0
20.11997 972.68945 0 0 0
20.12878 971.82111 0 0 0
20.13758 970.54462 0 0 0
20.14639 970.008 0 0 0
20.15520 970.16235 0 0 0
20.16400 970.98407 0 0 0
20.17281 971.35571 0 0 0
20.18162 969.77942 0 0 0
20.19043 967.18964 0 0 0
20.19923 964.76196 0 0 0
20.20804 963.64117 0 0 0
20.21685 962.7644 0 0 0
20.22565 961.9176 0 0 0
20.23446 961.05811 0 0 0
20.24327 960.7066 0 0 0
20.25208 960.8941 0 0 0
20.26088 961.36682 0 0 0
20.26969 962.37231 0 0 0
20.27850 963.1568 0 0 0
20.28730 964.00928 0 0 0
20.29611 965.53571 0 0 0
20.30492 968.13647 0 0 0
20.31373 969.87738 0 0 0
20.32253 969.67572 0 0 0
20.33134 968.47308 0 0 0
20.34015 967.06573 0 0 0
20.34896 965.75439 0 0 0
20.35776 965.46454 0 0 0
20.36657 965.20221 0 0 0
20.37538 965.16034 0 0 0
20.38418 965.44214 0 0 0
20.39299 967.2677 0 0 0
20.40180 968.68317 0 0 0
20.41060 968.47418 0 0 0
20.41941 967.67102 0 0 0
20.42822 967.76477 0 0 0
20.43703 967.47809 0 0 0
20.44583 966.92969 0 0 0
20.45464 966.8678 0 0 0
20.46345 968.28369 0 0 0
20.47226 970.2373 0 0 0
20.48106 972.70215 0 0 0
20.48987 973.9516 0 0 0
20.49868 975.33722 0 0 0
20.50748 977.40924 0 0 0
20.51629 979.27344 0 0 0
20.52510 981.15869 0 0 0
20.53391 983.79413 0 0 0
20.54271 986.9201 0 0 0
20.55152 987.99768 0 0 0
20.56033 987.52734 0 0 0
20.56913 985.28528 0 0 0
20.57794 982.32953 0 0 0
20.58675 980.60962 0 0 0
20.59556 979.71722 0 0 0
20.60436 978.66785 0 0 0
20.61317 977.16864 0 0 0
20.62198 976.61871 0 0 0
20.63078 977.5426 0 0 0
20.63959 980.30518 0 0 0
20.64840 984.67163 0 0 0
20.65721 989.13617 0 0 0
20.66601 992.03723 0 0 0
20.67482 993.95514 0 0 0
20.68363 997.23914 0 0 0
20.69243 1001.8176 0 0 0
20.70124 1005.3224 0 0 0
20.71005 1006.0616 0 0 0
20.71886 1006.5062 0 0 0
20.72766 1006.0829 0 0 0
20.73647 1004.2843 0 0 0
20.74528 1000.4069 0 0 0
20.75408 994.90033 0 0 0
20.76289 988.59863 0 0 0
20.77170 983.12042 0 0 0
20.78051 979.31049 0 0 0
20.78931 975.76587 0 0 0
20.79812 971.71405 0 0 0
20.80693 968.42065 0 0 0
20.81574 966.14862 0 0 0
20.82454 964.55743 0 0 0
20.83335 963.2644 0 0 0
20.84216 962.75934 0 0 0
20.85096 962.84412 0 0 0
20.85977 962.55267 0 0 0
20.86858 961.94629 0 0 0
20.87738 961.93732 0 0 0
20.88619 962.84949 0 0 0
20.89500 964.1701 0 0 0
20.90381 965.2771 0 0 0
20.91261 966.63263 0 0 0
20.92142 967.84863 0 0 0
20.93023 968.63776 0 0 0
20.93904 969.24042 0 0 0
20.94784 968.88904 0 0 0
20.95665 967.73932 0 0 0
20.96546 966.38464 0 0 0
20.97426 965.61884 0 0 0
20.98307 964.29822 0 0 0
20.99188 963.43707 0 0 0
21.00069 963.15833 0 0 0
21.00949 963.09869 0 0 0
21.01830 963.52917 0 0 0
21.02711 964.87756 0 0 0
21.03591 966.45709 0 0 0
21.04472 968.28412 0 0 0
21.05353 970.80438 0 0 0
21.06234 974.04193 0 0 0
21.07114 977.93481 0 0 0
21.07995 982.6463 0 0 0
21.08876 988.6803 0 0 0
21.09756 996.50391 0 0 0
21.10637 1004.6617 0 0 0
21.11518 1009.7202 0 0 0
21.12399 1010.8267 0 0 0
21.13279 1009.0928 0 0 0
21.14160 1005.5692 0 0 0
21.15041 1000.4849 0 0 0
21.15921 993.93793 0 0 0
21.16802 987.06665 0 0 0
21.17683 981.14142 0 0 0
21.18564 977.20709 0 0 0
21.19444 975.00745 0 0 0
21.20325 973.6969 0 0 0
21.21206 972.99921 0 0 0
21.22086 971.70435 0 0 0
21.22967 969.76013 0 0 0
21.23848 968.04388 0 0 0
21.24729 967.40601 0 0 0
21.25609 967.56824 0 0 0
21.26490 968.33948 0 0 0
21.27371 969.94836 0 0 0
21.28252 973.0722 0 0 0
21.29132 977.4458 0 0 0
21.30013 982.20337 0 0 0
21.30894 987.83716 0 0 0
21.31774 992.35986 0 0 0
21.32655 995.6272 0 0 0
21.33536 995.78986 0 0 0
21.34416 991.92944 0 0 0
21.35297 985.28229 0 0 0
21.36178 979.03802 0 0 0
21.37059 974.12823 0 0 0
21.37939 971.02905 0 0 0
21.38820 969.5368 0 0 0
21.39701 969.3645 0 0 0
21.40582 969.38171 0 0 0
21.41462 970.11725 0 0 0
21.42343 972.69202 0 0 0
21.43224 975.92944 0 0 0
21.44104 978.86066 0 0 0
21.44985 981.22968 0 0 0
21.45866 983.07996 0 0 0
21.46746 982.2193 0 0 0
21.47627 978.96625 0 0 0
21.48508 974.43213 0 0 0
21.49389 968.9339 0 0 0
21.50269 964.86499 0 0 0
21.51150 962.39728 0 0 0
21.52031 960.88354 0 0 0
21.52912 959.48224 0 0 0
21.53792 957.99786 0 0 0
21.54673 957.5545 0 0 0
21.55554 958.22198 0 0 0
21.56434 958.16046 0 0 0
21.57315 958.23114 0 0 0
21.58196 959.18158 0 0 0
21.59077 960.14484 0 0 0
21.59957 960.58691 0 0 0
21.60838 959.52515 0 0 0
21.61719 957.98242 0 0 0
21.62599 957.04584 0 0 0
21.63480 956.51068 0 0 0
21.64361 955.98993 0 0 0
21.65241 955.45544 0 0 0
21.66122 955.64087 0 0 0
21.67003 956.28204 0 0 0
21.67884 956.49469 0 0 0
21.68764 956.16315 0 0 0
21.69645 956.04126 0 0 0
21.70526 956.62897 0 0 0
21.71407 956.93433 0 0 0
21.72287 957.44659 0 0 0
21.73168 958.10016 0 0 0
21.74049 958.7226 0 0 0
21.74929 958.77338 0 0 0
21.75810 958.42029 0 0 0
21.76691 958.80688 0 0 0
21.77572 959.42914 0 0 0
21.78452 959.83569 0 0 0
21.79333 960.65533 0 0 0
21.80214 960.28912 0 0 0
21.81094 959.60962 0 0 0
21.81975 958.71588 0 0 0
21.82856 957.66602 0 0 0
21.83737 955.56342 0 0 0
21.84617 953.85016 0 0 0
21.85498 952.8999 0 0 0
21.86379 952.80847 0 0 0
21.87260 952.95532 0 0 0
21.88140 952.54785 0 0 0
21.89021 951.26508 0 0 0
21.89901 951.2486 0 0 0
21.90782 952.24493 0 0 0
21.91663 953.151 0 0 0
21.92544 954.13763 0 0 0
21.93424 955.1734 0 0 0
21.94305 956.63776 0 0 0
21.95186 957.95233 0 0 0
21.96067 958.72272 0 0 0
21.96947 960.64227 0 0 0
21.97828 962.94293 0 0 0
21.98709 964.70764 0 0 0
21.99590 965.63446 0 0 0
22.00470 965.20081 0 0 0
22.01351 963.12848 0 0 0
22.02232 960.10992 0 0 0
22.03112 958.18292 0 0 0
22.03993 957.15845 0 0 0
22.04874 956.13696 0 0 0
22.05755 955.60657 0 0 0
22.06635 956.49719 0 0 0
22.07516 956.95935 0 0 0
22.08396 956.85144 0 0 0
22.09277 957.27991 0 0 0
22.10158 957.59827 0 0 0
22.11039 957.47504 0 0 0
22.11919 957.07123 0 0 0
22.12800 957.84875 0 0 0
22.13681 958.69983 0 0 0
22.14562 958.54974 0 0 0
22.15442 957.78375 0 0 0
22.16323 957.151 0 0 0
22.17204 955.98322 0 0 0
22.18085 954.89661 0 0 0
22.18965 954.48297 0 0 0
22.19846 953.86224 0 0 0
22.20727 952.80981 0 0 0
22.21607 952.10669 0 0 0
22.22488 952.39948 0 0 0
22.23369 952.4433 0 0 0
22.24250 952.75995 0 0 0
22.25130 953.24854 0 0 0
22.26011 953.55554 0 0 0
22.26892 953.16138 0 0 0
22.27772 952.80151 0 0 0
22.28653 952.9837 0 0 0
22.29534 953.81909 0 0 0
22.30415 955.3028 0 0 0
22.31295 956.6524 0 0 0
22.32176 958.008 0 0 0
22.33057 959.19391 0 0 0
22.33938 960.63293 0 0 0
22.34818 962.96881 0 0 0
22.35699 965.46747 0 0 0
22.36579 966.72253 0 0 0
22.37460 967.7254 0 0 0
22.38341 968.96881 0 0 0
22.39222 969.76599 0 0 0
22.40102 970.63678 0 0 0
22.40983 971.34857 0 0 0
22.41864 971.42889 0 0 0
22.42745 970.99042 0 0 0
22.43625 971.1283 0 0 0
22.44506 972.42535 0 0 0
22.45387 973.23993 0 0 0
22.46268 973.26044 0 0 0
22.47148 975.0484 0 0 0
22.48029 977.61121 0 0 0
22.48910 980.15369 0 0 0
22.49790 980.5592 0 0 0
22.50671 978.84692 0 0 0
22.51552 975.43958 0 0 0
22.52432 971.77728 0 0 0
22.53313 968.00336 0 0 0
22.54194 963.87848 0 0 0
22.55075 961.27734 0 0 0
22.55955 959.47388 0 0 0
22.56836 958.53247 0 0 0
22.57717 957.9093 0 0 0
22.58597 957.53271 0 0 0
22.59478 957.36304 0 0 0
22.60359 956.97717 0 0 0
22.61240 957.77948 0 0 0
22.62120 959.06738 0 0 0
22.63001 960.16345 0 0 0
22.63882 961.13647 0 0 0
22.64763 961.24792 0 0 0
22.65643 960.70038 0 0 0
22.66524 959.92126 0 0 0
22.67405 959.9613 0 0 0
22.68285 960.18866 0 0 0
22.69166 960.78088 0 0 0
22.70047 960.93658 0 0 0
22.70927 961.58661 0 0 0
22.71808 962.24658 0 0 0
22.72689 963.59546 0 0 0
22.73570 966.05627 0 0 0
22.74450 967.87921 0 0 0
22.75331 970.82037 0 0 0
22.76212 975.28754 0 0 0
22.77093 979.70697 0 0 0
22.77973 984.82373 0 0 0
22.78854 992.43774 0 0 0
22.79735 999.58447 0 0 0
22.80615 1003.5117 0 0 0
22.81496 1003.1989 0 0 0
22.82377 999.8866 0 0 0
22.83257 994.38171 0 0 0
22.84138 989.40289 0 0 0
22.85019 986.34619 0 0 0
22.85900 985.39636 0 0 0
22.86780 985.96704 0 0 0
22.87661 986.14807 0 0 0
22.88542 984.73279 0 0 0
22.89423 981.38019 0 0 0
22.90303 976.50275 0 0 0
22.91184 971.93427 0 0 0
22.92065 968.97949 0 0 0
22.92946 968.37433 0 0 0
22.93826 969.10712 0 0 0
22.94707 970.95551 0 0 0
22.95587 972.9389 0 0 0
22.96468 975.1969 0 0 0
22.97349 977.90533 0 0 0
22.98230 980.26337 0 0 0
22.99110 982.16467 0 0 0
22.99991 984.82501 0 0 0
23.00872 987.99738 0 0 0
23.01753 991.07965 0 0 0
23.02633 995.57147 0 0 0
23.03514 999.93848 0 0 0
23.04395 1002.2725 0 0 0
23.05275 1001.789 0 0 0
23.06156 999.33148 0 0 0
23.07037 994.74335 0 0 0
23.07918 989.58496 0 0 0
23.08798 984.77661 0 0 0
23.09679 981.92651 0 0 0
23.10560 979.92224 0 0 0
23.11441 978.88245 0 0 0
23.12321 977.77234 0 0 0
23.13202 976.49042 0 0 0
23.14082 975.38666 0 0 0
23.14963 974.20984 0 0 0
23.15844 973.51703 0 0 0
23.16725 974.85223 0 0 0
23.17605 977.29803 0 0 0
23.18486 980.38733 0 0 0
23.19367 984.59656 0 0 0
23.20248 989.99426 0 0 0
23.21128 994.22668 0 0 0
23.22009 993.9881 0 0 0
23.22890 989.09424 0 0 0
23.23770 982.58142 0 0 0
23.24651 976.3064 0 0 0
23.25532 971.01044 0 0 0
23.26413 967.84332 0 0 0
23.27293 965.9043 0 0 0
23.28174 965.20258 0 0 0
23.29055 965.04999 0 0 0
23.29935 964.22162 0 0 0
23.30816 963.41534 0 0 0
23.31697 963.11768 0 0 0
23.32578 962.84918 0 0 0
23.33458 960.83838 0 0 0
23.34339 958.11365 0 0 0
23.35220 956.73291 0 0 0
23.36101 956.2522 0 0 0
23.36981 955.56335 0 0 0
23.37862 953.87061 0 0 0
23.38743 952.61639 0 0 0
23.39624 952.34119 0 0 0
23.40504 953.04572 0 0 0
23.41385 953.67633 0 0 0
23.42265 954.10321 0 0 0
23.43146 954.91034 0 0 0
23.44027 956.86603 0 0 0
23.44908 959.92224 0 0 0
23.45788 962.34656 0 0 0
23.46669 963.30566 0 0 0
23.47550 962.90967 0 0 0
23.48431 961.04309 0 0 0
23.49311 958.39258 0 0 0
23.50192 955.612 0 0 0
23.51073 952.92493 0 0 0
23.51954 951.60486 0 0 0
23.52834 951.60199 0 0 0
23.53715 951.03772 0 0 0
23.54596 951.32739 0 0 0
23.55476 951.24048 0 0 0
23.56357 951.23596 0 0 0
23.57238 951.63373 0 0 0
23.58118 953.04102 0 0 0
23.58999 954.39301 0 0 0
23.59880 955.33112 0 0 0
23.60760 956.19647 0 0 0
23.61641 957.0304 0 0 0
23.62522 957.96063 0 0 0
23.63403 958.39124 0 0 0
23.64283 958.65552 0 0 0
23.65164 958.8819 0 0 0
23.66045 958.39551 0 0 0
23.66926 957.61871 0 0 0
23.67806 957.58051 0 0 0
23.68687 957.44159 0 0 0
23.69568 956.99896 0 0 0
23.70448 955.07025 0 0 0
23.71329 953.23016 0 0 0
23.72210 952.47058 0 0 0
23.73091 951.38263 0 0 0
23.73971 950.89307 0 0 0
23.74852 951.2511 0 0 0
23.75733 950.36469 0 0 0
23.76613 950.34265 0 0 0
23.77494 950.61609 0 0 0
23.78375 951.72803 0 0 0
23.79256 953.53857 0 0 0
23.80136 954.76385 0 0 0
23.81017 956.00745 0 0 0
23.81898 957.31995 0 0 0
23.82778 957.5451 0 0 0
23.83659 956.23682 0 0 0
23.84540 953.7995 0 0 0
23.85421 952.00708 0 0 0
23.86301 950.83887 0 0 0
23.87182 949.56219 0 0 0
23.88063 948.44568 0 0 0
23.88943 947.25555 0 0 0
23.89824 946.8396 0 0 0
23.90705 947.47546 0 0 0
23.91586 948.46741 0 0 0
23.92466 949.41516 0 0 0
23.93347 950.41608 0 0 0
23.94228 951.01801 0 0 0
23.95109 951.29865 0 0 0
23.95989 950.42834 0 0 0
23.96870 949.78064 0 0 0
23.97751 949.28882 0 0 0
23.98632 948.67633 0 0 0
23.99512 948.25562 0 0 0
24.00393 947.87817 0 0 0
24.01273 948.03613 0 0 0
24.02154 948.57349 0 0 0
24.03035 948.84991 0 0 0
24.03916 949.08661 0 0 0
24.04796 949.56921 0 0 0
24.05677 949.72687 0 0 0
24.06558 950.45416 0 0 0
24.07438 951.41669 0 0 0
24.08319 953.40631 0 0 0
24.09200 954.86597 0 0 0
24.10081 955.53137 0 0 0
24.10961 956.00641 0 0 0
24.11842 955.77911 0 0 0
24.12723 955.20514 0 0 0
24.13604 954.7533 0 0 0
24.14484 953.88824 0 0 0
24.15365 951.97101 0 0 0
24.16246 950.33777 0 0 0
24.17126 948.29425 0 0 0
24.18007 946.12384 0 0 0
24.18888 944.94983 0 0 0
24.19768 944.35156 0 0 0
24.20649 943.85529 0 0 0
24.21530 942.88501 0 0 0
24.22411 942.23779 0 0 0
24.23291 942.06946 0 0 0
24.24172 941.93616 0 0 0
24.25053 941.38934 0 0 0
24.25934 941.11859 0 0 0
24.26814 941.01147 0 0 0
24.27695 941.00494 0 0 0
24.28576 941.9054 0 0 0
24.29456 942.51526 0 0 0
24.30337 942.24445 0 0 0
24.31218 942.87488 0 0 0
24.32099 943.81799 0 0 0
24.32979 944.45636 0 0 0
24.33860 945.6189 0 0 0
24.34741 947.45679 0 0 0
24.35621 949.16162 0 0 0
24.36502 950.65399 0 0 0
24.37383 953.33362 0 0 0
24.38264 957.01776 0 0 0
24.39144 960.33392 0 0 0
24.40025 963.66425 0 0 0
24.40906 967.32153 0 0 0
24.41787 970.22552 0 0 0
24.42667 971.74878 0 0 0
24.43548 971.51501 0 0 0
24.44429 970.08447 0 0 0
24.45309 967.67395 0 0 0
24.46190 965.7431 0 0 0
24.47071 964.49561 0 0 0
24.47951 963.06622 0 0 0
24.48832 961.16925 0 0 0
24.49713 959.09753 0 0 0
24.50594 958.3678 0 0 0
24.51474 958.76367 0 0 0
24.52355 958.84973 0 0 0
24.53236 958.85095 0 0 0
24.54116 958.3493 0 0 0
24.54997 957.20093 0 0 0
24.55878 955.81598 0 0 0
24.56759 955.11371 0 0 0
24.57639 955.28699 0 0 0
24.58520 956.37103 0 0 0
24.59401 956.90363 0 0 0
24.60282 955.78363 0 0 0
24.61162 954.72089 0 0 0
24.62043 954.69836 0 0 0
24.62924 955.11285 0 0 0
24.63804 955.8385 0 0 0
24.64685 957.00903 0 0 0
24.65566 957.26752 0 0 0
24.66446 956.4826 0 0 0
24.67327 955.41711 0 0 0
24.68208 954.54211 0 0 0
24.69089 954.11969 0 0 0
24.69969 954.63464 0 0 0
24.70850 955.87994 0 0 0
24.71731 957.90454 0 0 0
24.72612 958.8609 0 0 0
24.73492 958.04926 0 0 0
24.74373 956.29987 0 0 0
24.75254 954.4765 0 0 0
24.76134 952.95416 0 0 0
24.77015 952.62518 0 0 0
24.77896 952.64996 0 0 0
24.78777 952.46173 0 0 0
24.79657 952.20508 0 0 0
24.80538 952.9986 0 0 0
24.81419 952.87073 0 0 0
24.82299 951.84332 0 0 0
24.83180 951.40363 0 0 0
24.84061 950.85498 0 0 0
24.84942 949.57813 0 0 0
24.85822 949.73346 0 0 0
24.86703 950.96356 0 0 0
24.87584 952.05322 0 0 0
24.88464 952.94128 0 0 0
24.89345 952.02002 0 0 0
24.90226 950.86304 0 0 0
24.91107 949.46326 0 0 0
24.91987 947.71735 0 0 0
24.92868 946.21765 0 0 0
24.93749 945.79651 0 0 0
24.94629 944.93842 0 0 0
24.95510 944.51782 0 0 0
24.96391 945.85077 0 0 0
24.97272 947.27338 0 0 0
24.98152 948.12524 0 0 0
24.99033 948.78662 0 0 0
24.99914 949.57214 0 0 0
25.00794 950.66919 0 0 0
25.01675 951.90271 0 0 0
25.02556 952.57507 0 0 0
25.03437 954.37103 0 0 0
25.04317 955.36798 0 0 0
25.05198 954.0047 0 0 0
25.06079 951.2337 0 0 0
25.06959 947.39551 0 0 0
25.07840 943.77777 0 0 0
25.08721 941.33765 0 0 0
25.09602 940.10858 0 0 0
25.10482 939.57465 0 0 0
25.11363 939.04828 0 0 0
25.12244 939.07074 0 0 0
25.13124 938.87109 0 0 0
25.14005 937.4693 0 0 0
25.14886 936.28668 0 0 0
25.15767 936.44336 0 0 0
25.16647 937.03955 0 0 0
25.17528 937.01776 0 0 0
25.18409 935.82306 0 0 0
25.19290 934.89691 0 0 0
25.20170 933.88171 0 0 0
25.21051 932.26074 0 0 0
25.21932 931.48132 0 0 0
25.22812 931.77924 0 0 0
25.23693 931.47632 0 0 0
25.24574 931.23071 0 0 0
25.25455 931.92596 0 0 0
25.26335 932.5448 0 0 0
25.27216 933.28906 0 0 0
25.28097 934.23743 0 0 0
25.28977 935.0932 0 0 0
25.29858 936.31201 0 0 0
25.30739 938.63269 0 0 0
25.31620 940.25702 0 0 0
25.32500 942.07629 0 0 0
25.33381 944.32849 0 0 0
25.34262 946.65204 0 0 0
25.35142 948.66199 0 0 0
25.36023 948.68176 0 0 0
25.36904 946.83698 0 0 0
25.37785 944.46021 0 0 0
25.38665 942.18964 0 0 0
25.39546 940.52643 0 0 0
25.40427 939.20258 0 0 0
25.41307 937.60339 0 0 0
25.42188 936.74146 0 0 0
25.43069 936.36896 0 0 0
25.43950 936.07446 0 0 0
25.44830 934.6759 0 0 0
25.45711 933.33832 0 0 0
25.46592 932.41071 0 0 0
25.47473 931.39728 0 0 0
25.48353 929.90845 0 0 0
25.49234 929.53192 0 0 0
25.50115 929.6568 0 0 0
25.50995 929.52979 0 0 0
25.51876 930.22119 0 0 0
25.52757 930.72388 0 0 0
25.53637 931.35449 0 0 0
25.54518 931.74109 0 0 0
25.55399 930.93475 0 0 0
25.56280 929.25043 0 0 0
25.57160 928.36462 0 0 0
25.58041 927.25293 0 0 0
25.58922 925.89862 0 0 0
25.59802 925.2713 0 0 0
25.60683 924.83521 0 0 0
25.61564 924.12183 0 0 0
25.62445 923.64166 0 0 0
25.63325 923.44067 0 0 0
25.64206 923.49298 0 0 0
25.65087 923.92065 0 0 0
25.65968 923.29633 0 0 0
25.66848 921.99268 0 0 0
25.67729 921.54584 0 0 0
25.68610 921.99017 0 0 0
25.69490 921.58832 0 0 0
25.70371 921.55707 0 0 0
25.71252 921.62537 0 0 0
25.72133 921.53656 0 0 0
25.73013 921.77673 0 0 0
25.73894 921.70184 0 0 0
25.74775 920.88202 0 0 0
25.75655 919.60852 0 0 0
25.76536 919.01947 0 0 0
25.77417 918.95331 0 0 0
25.78298 918.58685 0 0 0
25.79178 918.13208 0 0 0
25.80059 917.91028 0 0 0
25.80940 917.91461 0 0 0
25.81820 917.79883 0 0 0
25.82701 918.01105 0 0 0
25.83582 918.09528 0 0 0
25.84463 917.69434 0 0 0
25.85343 917.67975 0 0 0
25.86224 918.61646 0 0 0
25.87105 918.78088 0 0 0
25.87985 917.94067 0 0 0
25.88866 917.88672 0 0 0
25.89747 918.23615 0 0 0
25.90628 919.03204 0 0 0
25.91508 920.70624 0 0 0
25.92389 921.69751 0 0 0
25.93270 921.60077 0 0 0
25.94150 921.27423 0 0 0
25.95031 921.03558 0 0 0
25.95912 921.75183 0 0 0
25.96793 923.00977 0 0 0
25.97673 925.03986 0 0 0
25.98554 926.23718 0 0 0
25.99435 926.95477 0 0 0
26.00315 928.83087 0 0 0
26.01196 929.98737 0 0 0
26.02077 930.1463 0 0 0
26.02958 930.60901 0 0 0
26.03838 931.45532 0 0 0
26.04719 933.66919 0 0 0
26.05600 937.85284 0 0 0
26.06480 944.42401 0 0 0
26.07361 951.01764 0 0 0
26.08242 955.16888 0 0 0
26.09123 957.13861 0 0 0
26.10003 956.07819 0 0 0
26.10884 951.37158 0 0 0
26.11765 945.85095 0 0 0
26.12645 940.71204 0 0 0
26.13526 936.64874 0 0 0
26.14407 932.89325 0 0 0
26.15288 930.25897 0 0 0
26.16168 927.97772 0 0 0
26.17049 924.77814 0 0 0
26.17930 923.23547 0 0 0
26.18811 922.46136 0 0 0
26.19691 921.51532 0 0 0
26.20572 920.89355 0 0 0
26.21453 919.99695 0 0 0
26.22333 919.68958 0 0 0
26.23214 919.52881 0 0 0
26.24095 919.30176 0 0 0
26.24976 919.41821 0 0 0
26.25856 919.69836 0 0 0
26.26737 919.51569 0 0 0
26.27618 918.47333 0 0 0
26.28498 917.68616 0 0 0
26.29379 917.72504 0 0 0
26.30260 917.83716 0 0 0
26.31141 917.90948 0 0 0
26.32021 917.87067 0 0 0
26.32902 917.34259 0 0 0
26.33783 916.69116 0 0 0
26.34663 916.32715 0 0 0
26.35544 915.55865 0 0 0
26.36425 914.67828 0 0 0
26.37306 914.78845 0 0 0
26.38186 915.93054 0 0 0
26.39067 916.63275 0 0 0
26.39948 916.80603 0 0 0
26.40828 917.75311 0 0 0
26.41709 918.46704 0 0 0
26.42590 918.86792 0 0 0
26.43471 919.31714 0 0 0
26.44351 919.6571 0 0 0
26.45232 919.80762 0 0 0
26.46113 919.23724 0 0 0
26.46993 918.24304 0 0 0
26.47874 916.93134 0 0 0
26.48755 915.15283 0 0 0
26.49636 915.34399 0 0 0
26.50516 915.75159 0 0 0
26.51397 914.0188 0 0 0
26.52278 913.28925 0 0 0
26.53158 913.60693 0 0 0
26.54039 913.32855 0 0 0
26.54920 912.87616 0 0 0
26.55801 912.85388 0 0 0
26.56681 912.63147 0 0 0
26.57562 912.17328 0 0 0
26.58443 912.4967 0 0 0
26.59323 913.09888 0 0 0
26.60204 913.50739 0 0 0
26.61085 913.14978 0 0 0
26.61966 912.59735 0 0 0
26.62846 912.0459 0 0 0
26.63727 911.64105 0 0 0
26.64608 912.10339 0 0 0
26.65488 913.03174 0 0 0
26.66369 913.41833 0 0 0
26.67250 914.39233 0 0 0
26.68131 915.96191 0 0 0
26.69011 916.74921 0 0 0
26.69892 917.31421 0 0 0
26.70773 917.99347 0 0 0
26.71654 917.76257 0 0 0
26.72534 916.33234 0 0 0
26.73415 915.1925 0 0 0
26.74296 913.06854 0 0 0
26.75176 911.04156 0 0 0
26.76057 910.83954 0 0 0
26.76938 910.63373 0 0 0
26.77819 909.62347 0 0 0
26.78699 909.58972 0 0 0
26.79580 909.80273 0 0 0
26.80461 909.40216 0 0 0
26.81341 909.85272 0 0 0
26.82222 911.32355 0 0 0
26.83103 912.75867 0 0 0
26.83984 913.42902 0 0 0
26.84864 914.51898 0 0 0
26.85745 915.65997 0 0 0
26.86626 916.53149 0 0 0
26.87506 916.66919 0 0 0
26.88387 915.31787 0 0 0
26.89268 913.79529 0 0 0
26.90149 912.14398 0 0 0
26.91029 910.92566 0 0 0
26.91910 910.19098 0 0 0
26.92791 909.15271 0 0 0
26.93671 909.00177 0 0 0
26.94552 908.88501 0 0 0
26.95433 908.51904 0 0 0
26.96314 908.12671 0 0 0
26.97194 907.67828 0 0 0
26.98075 908.09076 0 0 0
26.98956 909.85651 0 0 0
26.99836 910.52167 0 0 0
27.00717 910.00946 0 0 0
27.01598 910.48395 0 0 0
27.02479 910.31793 0 0 0
27.03359 910.15094 0 0 0
27.04240 909.93048 0 0 0
27.05121 908.7002 0 0 0
27.06001 908.61011 0 0 0
27.06882 909.45825 0 0 0
27.07763 909.51624 0 0 0
27.08644 909.46741 0 0 0
27.09524 909.90271 0 0 0
27.10405 910.21887 0 0 0
27.11286 911.0058 0 0 0
27.12166 911.82074 0 0 0
27.13047 912.95386 0 0 0
27.13928 914.71063 0 0 0
27.14809 915.80133 0 0 0
27.15689 916.96783 0 0 0
27.16570 918.2962 0 0 0
27.17451 918.46838 0 0 0
27.18332 918.81354 0 0 0
27.19212 918.75433 0 0 0
27.20093 916.88403 0 0 0
27.20974 916.07849 0 0 0
27.21854 915.00439 0 0 0
27.22735 912.96381 0 0 0
27.23616 911.65637 0 0 0
27.24497 911.16858 0 0 0
27.25377 910.83337 0 0 0
27.26258 910.89471 0 0 0
27.27139 910.77289 0 0 0
27.28019 909.72833 0 0 0
27.28900 909.07275 0 0 0
27.29781 908.57831 0 0 0
27.30662 908.91687 0 0 0
27.31542 909.10785 0 0 0
27.32423 908.76257 0 0 0
27.33304 909.37891 0 0 0
27.34184 910.44879 0 0 0
27.35065 910.48431 0 0 0
27.35946 909.3595 0 0 0
27.36827 908.22089 0 0 0
27.37707 907.54352 0 0 0
27.38588 907.38379 0 0 0
27.39469 907.97754 0 0 0
27.40349 907.94489 0 0 0
27.41230 906.98352 0 0 0
27.42111 906.81488 0 0 0
27.42991 907.40698 0 0 0
27.43872 907.15179 0 0 0
27.44753 907.25848 0 0 0
27.45634 908.23315 0 0 0
27.46514 909.75085 0 0 0
27.47395 910.92877 0 0 0
27.48276 910.44672 0 0 0
27.49157 912.07739 0 0 0
27.50037 914.38092 0 0 0
27.50918 915.67041 0 0 0
27.51799 917.81824 0 0 0
27.52679 919.6925 0 0 0
27.53560 921.35669 0 0 0
27.54441 921.45355 0 0 0
27.55322 920.32184 0 0 0
27.56202 919.7865 0 0 0
27.57083 918.97516 0 0 0
27.57964 917.13202 0 0 0
27.58844 914.82605 0 0 0
27.59725 914.49115 0 0 0
27.60606 916.49341 0 0 0
27.61487 918.1178 0 0 0
27.62367 920.07843 0 0 0
27.63248 922.6322 0 0 0
27.64129 924.31384 0 0 0
27.65010 926.93719 0 0 0
27.65890 930.21851 0 0 0
27.66771 932.78314 0 0 0
27.67652 935.03406 0 0 0
27.68532 935.32556 0 0 0
27.69413 935.52399 0 0 0
27.70294 936.73914 0 0 0
27.71174 937.52417 0 0 0
27.72055 937.96484 0 0 0
27.72936 937.6441 0 0 0
27.73817 937.01166 0 0 0
27.74697 936.4552 0 0 0
27.75578 935.07782 0 0 0
27.76459 932.88715 0 0 0
27.77340 931.44568 0 0 0
27.78220 930.31 0 0 0
27.79101 928.21033 0 0 0
27.79982 925.35474 0 0 0
27.80862 922.29871 0 0 0
27.81743 919.81604 0 0 0
27.82624 918.38867 0 0 0
27.83505 917.19727 0 0 0
27.84385 916.70337 0 0 0
27.85266 916.1756 0 0 0
27.86147 914.62305 0 0 0
27.87027 915.03339 0 0 0
27.87908 916.53619 0 0 0
27.88789 916.966 0 0 0
27.89670 915.68542 0 0 0
27.90550 913.51184 0 0 0
27.91431 912.10565 0 0 0
27.92312 910.87372 0 0 0
27.93192 910.10553 0 0 0
27.94073 910.35693 0 0 0
27.94954 910.49908 0 0 0
27.95835 909.24579 0 0 0
27.96715 908.62408 0 0 0
27.97596 909.54169 0 0 0
27.98477 909.15497 0 0 0
27.99357 908.05017 0 0 0
28.00238 908.27216 0 0 0
28.01119 908.6239 0 0 0
28.02000 908.34711 0 0 0
28.02880 908.09155 0 0 0
28.03761 908.35699 0 0 0
28.04642 909.52271 0 0 0
28.05522 910.12024 0 0 0
28.06403 909.84973 0 0 0
28.07284 910.26227 0 0 0
28.08165 911.00183 0 0 0
28.09045 912.11591 0 0 0
28.09926 913.01721 0 0 0
28.10807 913.31415 0 0 0
28.11688 912.78351 0 0 0
28.12568 912.32043 0 0 0
28.13449 912.77252 0 0 0
28.14329 911.65497 0 0 0
28.15210 911.96936 0 0 0
28.16091 912.93365 0 0 0
28.16972 912.54712 0 0 0
28.17852 913.99133 0 0 0
28.18733 915.00043 0 0 0
28.19614 916.86285 0 0 0
28.20495 917.76331 0 0 0
28.21375 916.60742 0 0 0
28.22256 915.59222 0 0 0
28.23137 914.76233 0 0 0
28.24018 914.44196 0 0 0
28.24898 914.31866 0 0 0
28.25779 914.99738 0 0 0
28.26660 915.18079 0 0 0
28.27540 914.25574 0 0 0
28.28421 913.30133 0 0 0
28.29302 912.73053 0 0 0
28.30183 912.70624 0 0 0
28.31063 913.05682 0 0 0
28.31944 914.07526 0 0 0
28.32825 915.30511 0 0 0
28.33705 915.20044 0 0 0
28.34586 912.32703 0 0 0
28.35467 895.38312 0 0 0
28.36348 887.96686 0 0 0
28.37228 897.37109 0 0 0
28.38109 901.37396 0 0 0
28.38990 903.3642 0 0 0
28.39870 903.90173 0 0 0
28.40751 903.80518 0 0 0
28.41632 904.37292 0 0 0
28.42513 905.29163 0 0 0
28.43393 905.62799 0 0 0
28.44274 905.59924 0 0 0
28.45155 905.56226 0 0 0
28.46035 906.11731 0 0 0
28.46916 907.0694 0 0 0
28.47797 907.45593 0 0 0
28.48677 908.66779 0 0 0
28.49558 909.61237 0 0 0
28.50439 911.67334 0 0 0
28.51320 913.84979 0 0 0
28.52200 914.82776 0 0 0
28.53081 916.47778 0 0 0
28.53962 916.91376 0 0 0
28.54843 916.46234 0 0 0
28.55723 915.49829 0 0 0
28.56604 915.16937 0 0 0
28.57485 914.95837 0 0 0
28.58365 913.427 0 0 0
28.59246 911.8396 0 0 0
28.60127 910.87305 0 0 0
28.61007 909.87128 0 0 0
28.61888 909.18188 0 0 0
28.62769 908.32043 0 0 0
28.63650 906.80267 0 0 0
28.64530 906.0694 0 0 0
28.65411 905.78845 0 0 0
28.66292 905.7923 0 0 0
28.67173 906.36658 0 0 0
28.68053 907.21765 0 0 0
28.68934 907.9762 0 0 0
28.69815 907.48907 0 0 0
28.70696 906.48145 0 0 0
28.71576 906.54645 0 0 0
28.72457 907.09198 0 0 0
28.73338 906.79272 0 0 0
28.74218 906.16577 0 0 0
28.75099 905.70038 0 0 0
28.75980 904.89832 0 0 0
28.76860 904.60675 0 0 0
28.77741 904.008 0 0 0
28.78622 904.66431 0 0 0
28.79503 906.24304 0 0 0
28.80383 905.92249 0 0 0
28.81264 905.72382 0 0 0
28.82145 905.33722 0 0 0
28.83026 904.44788 0 0 0
28.83906 905.24323 0 0 0
28.84787 905.90649 0 0 0
28.85668 906.12421 0 0 0
28.86548 906.58978 0 0 0
28.87429 906.42584 0 0 0
28.88310 905.69385 0 0 0
28.89191 904.75183 0 0 0
28.90071 904.34833 0 0 0
28.90952 904.82898 0 0 0
28.91832 906.53851 0 0 0
28.92713 908.01221 0 0 0
28.93594 909.58331 0 0 0
28.94475 909.92682 0 0 0
28.95355 908.52826 0 0 0
28.96236 907.22498 0 0 0
28.97117 906.99738 0 0 0
28.97998 906.72327 0 0 0
28.98878 906.25458 0 0 0
28.99759 905.94238 0 0 0
29.00640 905.52582 0 0 0
29.01521 903.96796 0 0 0
29.02401 902.82928 0 0 0
29.03282 903.38519 0 0 0
29.04163 904.02423 0 0 0
29.05043 903.43005 0 0 0
29.05924 902.52496 0 0 0
29.06805 903.68768 0 0 0
29.07685 903.21002 0 0 0
29.08566 904.24615 0 0 0
29.09447 905.17804 0 0 0
29.10328 905.06 0 0 0
29.11208 906.08173 0 0 0
29.12089 905.20471 0 0 0
29.12970 904.79236 0 0 0
29.13851 906.18176 0 0 0
29.14731 907.3468 0 0 0
29.15612 909.30933 0 0 0
29.16493 912.10626 0 0 0
29.17374 913.04126 0 0 0
29.18254 913.05518 0 0 0
29.19135 911.44263 0 0 0
29.20015 909.3446 0 0 0
29.20896 909.73511 0 0 0
29.21777 909.92468 0 0 0
29.22658 909.14075 0 0 0
29.23538 908.57336 0 0 0
29.24419 908.82721 0 0 0
29.25300 909.0705 0 0 0
29.26181 907.05878 0 0 0
29.27061 907.01038 0 0 0
29.27942 907.99628 0 0 0
29.28823 906.96246 0 0 0
29.29704 906.17285 0 0 0
29.30584 904.75 0 0 0
29.31465 904.87439 0 0 0
29.32346 905.79688 0 0 0
29.33226 905.38019 0 0 0
29.34107 905.68103 0 0 0
29.34988 905.61041 0 0 0
29.35869 905.25024 0 0 0
29.36749 903.40137 0 0 0
29.37630 904.37933 0 0 0
29.38510 905.79248 0 0 0
29.39391 903.54034 0 0 0
29.40272 903.43842 0 0 0
29.41153 903.56842 0 0 0
29.42033 904.89606 0 0 0
29.42914 905.64545 0 0 0
29.43795 905.29358 0 0 0
29.44676 906.03638 0 0 0
29.45556 905.61975 0 0 0
29.46437 904.57385 0 0 0
29.47318 904.09003 0 0 0
29.48199 905.02087 0 0 0
29.49079 905.93384 0 0 0
29.49960 905.82898 0 0 0
29.50841 906.62134 0 0 0
29.51721 908.79895 0 0 0
29.52602 909.81738 0 0 0
29.53483 908.37469 0 0 0
29.54363 907.71411 0 0 0
29.55244 906.94348 0 0 0
29.56125 905.9314 0 0 0
29.57006 907.98352 0 0 0
29.57886 907.70209 0 0 0
29.58767 905.71625 0 0 0
29.59648 905.66779 0 0 0
29.60529 906.08246 0 0 0
29.61409 905.71381 0 0 0
29.62290 905.05231 0 0 0
29.63171 904.94092 0 0 0
29.64051 905.94135 0 0 0
29.64932 907.11182 0 0 0
29.65813 907.26819 0 0 0
29.66693 907.30896 0 0 0
29.67574 908.92993 0 0 0
29.68455 909.97668 0 0 0
29.69336 911.62915 0 0 0
29.70216 911.6662 0 0 0
29.71097 910.81573 0 0 0
29.71978 911.41498 0 0 0
29.72859 910.3136 0 0 0
29.73739 910.11334 0 0 0
29.74620 909.23615 0 0 0
29.75501 908.24725 0 0 0
29.76382 908.22717 0 0 0
29.77262 906.93671 0 0 0
29.78143 906.48987 0 0 0
29.79024 905.85486 0 0 0
29.79904 905.40027 0 0 0
29.80785 905.36725 0 0 0
29.81666 905.17194 0 0 0
29.82546 906.44116 0 0 0
29.83427 907.21381 0 0 0
29.84308 908.39899 0 0 0
29.85188 909.36676 0 0 0
29.86069 908.33746 0 0 0
29.86950 908.0481 0 0 0
29.87831 908.08929 0 0 0
29.88711 907.16473 0 0 0
29.89592 905.94806 0 0 0
29.90473 906.69989 0 0 0
29.91354 907.42773 0 0 0
29.92234 906.53436 0 0 0
29.93115 905.52655 0 0 0
29.93996 905.75781 0 0 0
29.94877 905.14868 0 0 0
29.95757 905.39325 0 0 0
29.96638 905.50665 0 0 0
29.97518 902.63617 0 0 0
29.98399 902.12024 0 0 0
29.99280 903.20013 0 0 0
30.00161 903.4082 0 0 0
30.01041 903.94073 0 0 0
30.01922 903.7951 0 0 0
30.02803 903.72534 0 0 0
30.03684 903.33929 0 0 0
30.04564 903.54407 0 0 0
30.05445 903.25641 0 0 0
30.06326 903.13342 0 0 0
30.07206 905.14764 0 0 0
30.08087 906.09851 0 0 0
30.08968 904.49951 0 0 0
30.09849 902.64862 0 0 0
30.10729 902.40997 0 0 0
30.11610 903.45605 0 0 0
30.12491 906.6059 0 0 0
30.13371 906.33203 0 0 0
30.14252 904.92963 0 0 0
30.15133 905.39795 0 0 0
30.16014 906.23871 0 0 0
30.16894 904.94049 0 0 0
30.17775 905.83765 0 0 0
30.18656 907.11255 0 0 0
30.19537 906.56714 0 0 0
30.20417 907.50458 0 0 0
30.21298 906.13416 0 0 0
30.22179 904.78333 0 0 0
30.23060 907.60181 0 0 0
30.23940 909.7019 0 0 0
30.24821 909.11359 0 0 0
30.25701 909.4646 0 0 0
30.26582 911.45001 0 0 0
30.27463 913.49982 0 0 0
30.28344 914.4834 0 0 0
30.29224 914.16687 0 0 0
30.30105 913.38483 0 0 0
30.30986 912.97363 0 0 0
30.31867 912.33246 0 0 0
30.32747 913.55408 0 0 0
30.33628 914.26453 0 0 0
30.34509 912.42505 0 0 0
30.35389 909.89392 0 0 0
30.36270 908.68658 0 0 0
30.37151 908.2981 0 0 0
30.38032 906.89716 0 0 0
30.38912 905.95123 0 0 0
30.39793 905.26959 0 0 0
30.40674 905.58099 0 0 0
30.41555 907.47437 0 0 0
30.42435 908.14563 0 0 0
30.43316 907.55133 0 0 0
30.44196 907.38 0 0 0
30.45077 906.96155 0 0 0
30.45958 906.33923 0 0 0
30.46839 905.94196 0 0 0
30.47719 907.07135 0 0 0
30.48600 906.99164 0 0 0
30.49481 907.51013 0 0 0
30.50362 908.724 0 0 0
30.51242 909.07111 0 0 0
30.52123 909.80042 0 0 0
30.53004 909.32825 0 0 0
30.53884 906.54596 0 0 0
30.54765 905.31268 0 0 0
30.55646 906.05432 0 0 0
30.56527 906.84546 0 0 0
30.57407 907.10535 0 0 0
30.58288 906.65088 0 0 0
30.59169 908.22174 0 0 0
30.60049 907.44568 0 0 0
30.60930 904.89343 0 0 0
30.61811 902.79565 0 0 0
30.62692 903.00482 0 0 0
30.63572 901.7854 0 0 0
30.64453 900.62042 0 0 0
30.65334 899.9071 0 0 0
30.66215 900.42413 0 0 0
30.67095 901.67688 0 0 0
30.67976 903.41882 0 0 0
30.68857 904.08551 0 0 0
30.69737 900.30829 0 0 0
30.70618 900.81073 0 0 0
30.71499 900.97223 0 0 0
30.72379 897.97168 0 0 0
30.73260 896.60889 0 0 0
30.74141 897.79187 0 0 0
30.75022 899.39783 0 0 0
30.75902 898.67963 0 0 0
30.76783 899.29504 0 0 0
30.77664 901.31116 0 0 0
30.78545 902.97748 0 0 0
30.79425 903.86591 0 0 0
30.80306 900.42371 0 0 0
30.81187 899.59607 0 0 0
30.82067 899.58081 0 0 0
30.82948 899.07617 0 0 0
30.83829 899.15753 0 0 0
30.84709 898.34991 0 0 0
30.85590 898.39935 0 0 0
30.86471 900.72699 0 0 0
30.87352 904.66095 0 0 0
30.88232 904.77637 0 0 0
30.89113 902.21326 0 0 0
30.89994 901.16211 0 0 0
30.90874 901.01813 0 0 0
30.91755 900.42682 0 0 0
30.92636 899.56335 0 0 0
30.93517 899.37775 0 0 0
30.94397 897.26245 0 0 0
30.95278 895.84509 0 0 0
30.96159 896.64478 0 0 0
30.97040 897.02527 0 0 0
30.97920 895.35468 0 0 0
30.98801 894.80328 0 0 0
30.99682 895.55359 0 0 0
31.00562 895.33026 0 0 0
31.01443 894.22412 0 0 0
31.02324 892.35889 0 0 0
31.03205 894.16748 0 0 0
31.04085 893.52966 0 0 0
31.04966 892.38678 0 0 0
31.05847 891.87701 0 0 0
31.06727 892.9585 0 0 0
31.07608 894.78015 0 0 0
31.08489 894.30542 0 0 0
31.09370 896.08368 0 0 0
31.10250 897.00415 0 0 0
31.11131 896.3371 0 0 0
31.12012 897.22296 0 0 0
31.12892 896.08234 0 0 0
31.13773 893.26489 0 0 0
31.14654 893.16785 0 0 0
31.15535 893.97137 0 0 0
31.16415 894.70093 0 0 0
31.17296 893.78009 0 0 0
31.18177 895.77765 0 0 0
31.19057 898.22742 0 0 0
31.19938 898.64349 0 0 0
31.20819 894.28461 0 0 0
31.21700 891.10217 0 0 0
31.22580 891.75116 0 0 0
31.23461 889.25189 0 0 0
31.24342 885.33423 0 0 0
31.25223 887.23364 0 0 0
31.26103 890.08722 0 0 0
31.26984 888.07068 0 0 0
31.27865 887.74969 0 0 0
31.28746 886.06158 0 0 0
31.29626 884.7157 0 0 0
31.30507 885.80487 0 0 0
31.31387 882.47137 0 0 0
31.32268 882.40039 0 0 0
31.33149 884.63611 0 0 0
31.34030 886.40906 0 0 0
31.34910 884.73944 0 0 0
31.35791 884.02856 0 0 0
31.36672 884.47845 0 0 0
31.37552 885.57367 0 0 0
31.38433 885.26001 0 0 0
31.39314 883.63373 0 0 0
31.40195 885.37585 0 0 0
31.41075 883.92206 0 0 0
31.41956 883.30157 0 0 0
31.42837 883.77252 0 0 0
31.43718 882.56079 0 0 0
31.44598 883.04388 0 0 0
31.45479 885.21802 0 0 0
31.46360 886.62537 0 0 0
31.47240 888.04407 0 0 0
31.48121 886.64178 0 0 0
31.49002 882.42584 0 0 0
31.49883 881.8399 0 0 0
31.50763 887.30408 0 0 0
31.51644 890.87067 0 0 0
31.52525 889.0827 0 0 0
31.53405 891.40961 0 0 0
31.54286 893.74963 0 0 0
31.55167 892.95496 0 0 0
31.56048 891.98676 0 0 0
31.56928 891.5697 0 0 0
31.57809 890.10223 0 0 0
31.58690 888.06903 0 0 0
31.59570 886.0528 0 0 0
31.60451 886.02588 0 0 0
31.61332 887.30902 0 0 0
31.62213 886.35431 0 0 0
31.63093 885.27722 0 0 0
31.63974 884.80963 0 0 0
31.64855 880.55969 0 0 0
31.65735 875.92847 0 0 0
31.66616 877.40247 0 0 0
31.67497 880.20691 0 0 0
31.68378 879.61273 0 0 0
31.69258 878.61969 0 0 0
31.70139 879.0946 0 0 0
31.71020 879.95917 0 0 0
31.71901 876.57507 0 0 0
31.72781 877.19702 0 0 0
31.73662 879.51642 0 0 0
31.74543 875.83051 0 0 0
31.75423 872.9491 0 0 0
31.76304 876.25165 0 0 0
31.77185 878.6073 0 0 0
31.78065 879.1814 0 0 0
31.78946 877.26166 0 0 0
31.79827 872.89044 0 0 0
31.80708 872.71747 0 0 0
31.81588 871.74493 0 0 0
31.82469 872.97424 0 0 0
31.83350 875.79883 0 0 0
31.84230 877.30554 0 0 0
31.85111 874.72534 0 0 0
31.85992 874.64771 0 0 0
31.86873 874.49182 0 0 0
31.87753 871.99664 0 0 0
31.88634 875.21265 0 0 0
31.89515 875.81744 0 0 0
31.90395 872.71948 0 0 0
31.91276 872.89063 0 0 0
31.92157 872.99445 0 0 0
31.93038 875.19586 0 0 0
31.93918 878.3244 0 0 0
31.94799 874.82074 0 0 0
31.95680 869.68188 0 0 0
31.96561 870.24072 0 0 0
31.97441 874.1178 0 0 0
31.98322 879.38702 0 0 0
31.99203 880.66278 0 0 0
32.00084 883.59674 0 0 0
32.00964 885.59979 0 0 0
32.01845 885.30072 0 0 0
32.02726 880.26593 0 0 0
32.03606 877.41541 0 0 0
32.04487 880.27637 0 0 0
32.05368 876.75507 0 0 0
32.06249 871.61975 0 0 0
32.07129 867.30231 0 0 0
32.08010 863.74146 0 0 0
32.08890 863.83954 0 0 0
32.09771 861.79285 0 0 0
32.10652 858.39722 0 0 0
32.11533 857.03943 0 0 0
32.12413 858.93738 0 0 0
32.13294 858.66467 0 0 0
32.14175 859.77911 0 0 0
32.15055 861.32288 0 0 0
32.15936 855.9931 0 0 0
32.16817 856.09442 0 0 0
32.17698 856.20441 0 0 0
32.18578 855.73175 0 0 0
32.19459 860.81384 0 0 0
32.20340 859.98962 0 0 0
32.21221 853.28687 0 0 0
32.22101 857.70605 0 0 0
32.22982 865.80896 0 0 0
32.23863 863.36023 0 0 0
32.24744 864.67651 0 0 0
32.25624 862.42462 0 0 0
32.26505 856.77661 0 0 0
32.27386 856.45532 0 0 0
32.28266 852.78522 0 0 0
32.29147 851.34784 0 0 0
32.30028 855.46283 0 0 0
32.30909 851.03925 0 0 0
32.31789 844.01587 0 0 0
32.32670 845.3421 0 0 0
32.33551 850.93073 0 0 0
32.34432 844.07214 0 0 0
32.35312 838.23761 0 0 0
32.36193 844.0105 0 0 0
32.37074 847.26202 0 0 0
32.37954 849.09521 0 0 0
32.38835 845.86041 0 0 0
32.39716 838.54071 0 0 0
32.40596 842.99481 0 0 0
32.41477 839.28931 0 0 0
32.42358 832.43414 0 0 0
32.43238 839.72662 0 0 0
32.44119 839.35822 0 0 0
32.45000 829.88574 0 0 0
32.45880 826.69373 0 0 0
32.46761 827.84528 0 0 0
32.47642 831.25269 0 0 0
32.48523 833.71069 0 0 0
32.49403 825.62799 0 0 0
32.50284 823.81653 0 0 0
32.51165 821.59552 0 0 0
32.52046 817.53467 0 0 0
32.52926 819.617 0 0 0
32.53807 827.1225 0 0 0
32.54688 829.16132 0 0 0
32.55569 820.21277 0 0 0
32.56449 810.164 0 0 0
32.57330 811.61829 0 0 0
32.58211 814.42517 0 0 0
32.59092 819.37146 0 0 0
32.59972 814.16223 0 0 0
32.60853 808.70227 0 0 0
32.61734 820.94092 0 0 0
32.62614 818.48157 0 0 0
32.63495 800.27649 0 0 0
32.64376 801.49268 0 0 0
32.65257 805.22711 0 0 0
32.66137 800.10046 0 0 0
32.67018 803.33301 0 0 0
32.67899 802.8526 0 0 0
32.68779 782.59723 0 0 0
32.69660 776.79688 0 0 0
32.70541 770.87726 0 0 0
32.71421 755.51227 0 0 0
32.72302 762.98047 0 0 0
32.73183 761.72284 0 0 0
32.74063 738.80316 0 0 0
32.74944 724.31079 0 0 0
32.75825 730.2879 0 0 0
32.76706 723.10693 0 0 0
32.77586 705.50836 0 0 0
32.78467 688.48413 0 0 0
32.79348 674.11627 0 0 0
32.80228 663.59192 0 0 0
32.81109 642.34418 0 0 0
32.81990 607.74493 0 0 0
32.82871 545.2785 0 0 0
32.83751 475.06787 0 0 0
32.84632 406.78665 0 0 0
32.85513 275.55096 0 0 0
32.86394 176.47243 0 0 0
32.87274 185.65288 0 0 0
32.88155 186.29137 0 0 0
32.89036 186.0748 0 0 0
32.89917 173.78644 0 0 0
32.90797 166.20622 0 0 0
32.91678 165.30156 0 0 0
32.92559 169.81526 0 0 0
32.93440 176.41136 0 0 0
32.94320 178.15018 0 0 0
32.95201 186.62181 0 0 0
32.96081 192.46579 0 0 0
32.96962 196.47292 0 0 0
32.97843 188.62213 0 0 0
32.98724 177.86005 0 0 0
32.99604 179.46906 0 0 0
33.00485 182.21614 0 0 0
33.01366 183.84656 0 0 0
33.02246 185.0706 0 0 0
33.03127 185.35756 0 0 0
33.04008 184.93404 0 0 0
33.04888 184.35695 0 0 0
33.05769 184.94943 0 0 0
33.06650 188.13962 0 0 0
33.07531 190.18896 0 0 0
33.08411 189.69508 0 0 0
33.09292 188.57359 0 0 0
33.10173 185.12811 0 0 0
33.11054 174.84691 0 0 0
33.11934 174.48289 0 0 0
33.12815 183.40067 0 0 0
33.13696 187.96828 0 0 0
33.14577 194.85327 0 0 0
33.15457 198.60594 0 0 0
33.16338 189.50711 0 0 0
33.17219 184.54848 0 0 0
33.18100 179.34233 0 0 0
33.18980 173.70395 0 0 0
33.19861 179.55003 0 0 0
33.20742 180.76953 0 0 0
33.21623 181.37479 0 0 0
33.22503 186.36827 0 0 0
33.23384 190.09258 0 0 0
33.24265 181.77126 0 0 0
33.25145 176.96339 0 0 0
33.26026 196.71788 0 0 0
33.26907 207.0419 0 0 0
33.27787 202.08359 0 0 0
33.28668 190.04179 0 0 0
33.29549 179.87155 0 0 0
33.30430 177.90884 0 0 0
33.31310 176.89821 0 0 0
33.32191 175.60123 0 0 0
33.33071 165.79851 0 0 0
33.33952 161.57176 0 0 0
33.34833 181.07626 0 0 0
33.35714 186.50629 0 0 0
33.36594 180.01747 0 0 0
33.37475 190.43961 0 0 0
33.38356 198.51276 0 0 0
33.39236 192.98248 0 0 0
33.40117 178.77235 0 0 0
33.40998 175.71867 0 0 0
33.41879 187.7728 0 0 0
33.42759 180.11836 0 0 0
33.43640 169.52782 0 0 0
33.44521 177.46838 0 0 0
33.45402 189.42458 0 0 0
33.46282 189.02118 0 0 0
33.47163 187.1461 0 0 0
33.48044 186.84146 0 0 0
33.48925 190.87874 0 0 0
33.49805 183.48793 0 0 0
33.50686 182.01447 0 0 0
33.51567 191.88181 0 0 0
33.52448 197.50858 0 0 0
33.53328 192.59265 0 0 0
33.54209 181.54955 0 0 0
33.55090 176.84679 0 0 0
33.55970 187.60002 0 0 0
33.56851 201.89891 0 0 0
33.57732 205.88196 0 0 0
33.58612 201.1797 0 0 0
33.59493 191.46094 0 0 0
33.60374 183.40099 0 0 0
33.61254 179.14165 0 0 0
33.62135 182.53976 0 0 0
33.63016 187.58493 0 0 0
33.63897 189.0289 0 0 0
33.64777 192.27278 0 0 0
33.65658 186.94638 0 0 0
33.66539 177.56496 0 0 0
33.67419 175.83987 0 0 0
33.68300 178.82089 0 0 0
33.69181 175.50159 0 0 0
33.70062 171.08871 0 0 0
33.70942 171.97453 0 0 0
33.71823 180.42006 0 0 0
33.72704 179.92059 0 0 0
33.73584 184.09848 0 0 0
33.74465 191.97348 0 0 0
33.75346 199.05966 0 0 0
33.76227 206.50784 0 0 0
33.77107 205.50493 0 0 0
33.77988 208.8506 0 0 0
33.78869 206.77544 0 0 0
33.79750 190.21446 0 0 0
33.80630 172.10823 0 0 0
33.81511 164.58521 0 0 0
33.82392 172.21275 0 0 0
33.83273 181.12939 0 0 0
33.84153 191.10336 0 0 0
33.85034 204.25423 0 0 0
33.85915 215.18214 0 0 0
33.86795 214.90421 0 0 0
33.87676 202.95537 0 0 0
33.88557 197.74074 0 0 0
33.89437 191.0696 0 0 0
33.90318 179.53081 0 0 0
33.91199 175.54201 0 0 0
33.92079 186.23235 0 0 0
33.92960 193.60229 0 0 0
33.93841 189.36931 0 0 0
33.94722 184.22475 0 0 0
33.95602 180.4048 0 0 0
33.96483 184.41798 0 0 0
33.97364 189.63989 0 0 0
33.98244 190.68149 0 0 0
33.99125 189.04648 0 0 0
34.00006 190.54385 0 0 0
34.00887 194.16687 0 0 0
34.01767 195.57263 0 0 0
34.02648 188.93661 0 0 0
34.03529 179.53584 0 0 0
34.04410 171.3089 0 0 0
34.05290 170.92732 0 0 0
34.06171 182.49196 0 0 0
34.07052 196.03622 0 0 0
34.07933 201.21193 0 0 0
34.08813 203.93159 0 0 0
34.09694 205.74567 0 0 0
34.10575 198.4485 0 0 0
34.11456 179.68634 0 0 0
34.12336 176.50502 0 0 0
34.13217 184.77196 0 0 0
34.14098 181.71352 0 0 0
34.14978 179.44931 0 0 0
34.15859 188.74521 0 0 0
34.16740 196.16373 0 0 0
34.17621 188.56618 0 0 0
34.18501 193.14688 0 0 0
34.19382 204.0549 0 0 0
34.20262 206.30202 0 0 0
34.21143 204.07544 0 0 0
34.22024 198.58723 0 0 0
34.22905 189.86238 0 0 0
34.23785 182.28944 0 0 0
34.24666 186.52739 0 0 0
34.25547 197.35588 0 0 0
34.26427 206.00125 0 0 0
34.27308 208.96516 0 0 0
34.28189 200.78459 0 0 0
34.29069 198.94563 0 0 0
34.29950 196.56638 0 0 0
34.30831 197.99016 0 0 0
34.31712 187.01131 0 0 0
34.32592 174.03128 0 0 0
34.33473 181.2458 0 0 0
34.34354 195.26828 0 0 0
34.35235 202.28503 0 0 0
34.36115 201.61159 0 0 0
34.36996 202.88881 0 0 0
34.37877 205.11282 0 0 0
34.38758 202.49503 0 0 0
34.39638 202.15367 0 0 0
34.40519 207.02448 0 0 0
34.41400 206.77911 0 0 0
34.42281 201.37265 0 0 0
34.43161 200.37 0 0 0
34.44042 203.84457 0 0 0
34.44923 198.90614 0 0 0
34.45804 197.63873 0 0 0
34.46684 199.45561 0 0 0
34.47565 193.12267 0 0 0
34.48445 194.39417 0 0 0
34.49326 194.74664 0 0 0
34.50207 192.06732 0 0 0
34.51088 201.84755 0 0 0
34.51968 210.7634 0 0 0
34.52849 216.19273 0 0 0
34.53730 208.34375 0 0 0
34.54610 189.29819 0 0 0
34.55491 185.52542 0 0 0
34.56372 186.05206 0 0 0
34.57252 190.34494 0 0 0
34.58133 199.15727 0 0 0
34.59014 200.35292 0 0 0
34.59895 207.12006 0 0 0
34.60775 212.01988 0 0 0
34.61656 207.59952 0 0 0
34.62537 204.04329 0 0 0
34.63418 204.69685 0 0 0
34.64298 202.15265 0 0 0
34.65179 203.30737 0 0 0
34.66060 206.95755 0 0 0
34.66941 202.20352 0 0 0
34.67821 203.13841 0 0 0
34.68702 197.45775 0 0 0
34.69583 188.50352 0 0 0
34.70463 203.35753 0 0 0
34.71344 209.34818 0 0 0
34.72225 219.92723 0 0 0
34.73106 218.23357 0 0 0
34.73986 209.64491 0 0 0
34.74867 209.51912 0 0 0
34.75748 209.00542 0 0 0
34.76629 225.57745 0 0 0
34.77509 229.01886 0 0 0
34.78390 216.14722 0 0 0
34.79271 221.68576 0 0 0
34.80151 223.24028 0 0 0
34.81032 222.76186 0 0 0
34.81913 225.55931 0 0 0
34.82793 226.61578 0 0 0
34.83674 210.11435 0 0 0
34.84555 201.74106 0 0 0
34.85435 213.24474 0 0 0
34.86316 220.6891 0 0 0
34.87197 225.84755 0 0 0
34.88077 225.77205 0 0 0
34.88958 238.80069 0 0 0
34.89839 242.71103 0 0 0
34.90720 225.25349 0 0 0
34.91600 211.97772 0 0 0
34.92481 206.52516 0 0 0
34.93362 210.21965 0 0 0
34.94243 192.28777 0 0 0
34.95123 177.92548 0 0 0
34.96004 179.15565 0 0 0
34.96885 190.84978 0 0 0
34.97766 206.53033 0 0 0
34.98646 211.71228 0 0 0
34.99527 209.27344 0 0 0
35.00408 207.30823 0 0 0
35.01289 212.39302 0 0 0
35.02169 214.59189 0 0 0
35.03050 217.44821 0 0 0
35.03931 217.11617 0 0 0
35.04812 215.87854 0 0 0
35.05692 209.82948 0 0 0
35.06573 209.28047 0 0 0
35.07453 215.47057 0 0 0
35.08334 209.41518 0 0 0
35.09215 198.18396 0 0 0
35.10096 197.23277 0 0 0
35.10976 215.34409 0 0 0
35.11857 226.14702 0 0 0
35.12738 225.4729 0 0 0
35.13618 218.95601 0 0 0
35.14499 211.80058 0 0 0
35.15380 214.5522 0 0 0
35.16260 219.8237 0 0 0
35.17141 222.95135 0 0 0
35.18022 225.19267 0 0 0
35.18903 222.34897 0 0 0
35.19783 217.62366 0 0 0
35.20664 214.49925 0 0 0
35.21545 216.05882 0 0 0
35.22425 214.9576 0 0 0
loop_
_gsas_i100_meas
7.86
19.05
2.17
9.73
2.75
2.42
12.74
34.00
5.01
100.00
18.66
0.58
3.86
1.20
52.22
9.53
4.86
0.03
12.64
9.51
2.43
1.71
8.67
2.13
1.46
22.23
0.18
4.92
7.38
4.95
0.30
0.07
0.08
1.84
2.64
1.45
0.00
14.68
5.28
0.08
2.54
0.18
0.10
0.44
0.00
0.61
1.15
1.60
10.03
9.97
1.74
0.43
2.46
0.11
1.88
1.40
1.11
0.98
10.46
10.61
0.00
3.71
12.04
0.12
6.71
3.76
2.85
1.01
3.80
0.74
0.03
0.33
2.31
3.43
0.83
2.43
2.65
1.33
0.33
1.56
1.01
2.68
0.00
10.38
1.51
0.00
0.02
1.80
1.11
34.93
1.12
0.11
0.21
0.72
0.97
0.01
3.22
0.01
0.12
1.64
3.32
0.24
1.26
1.30
0.00
2.25
0.11
0.26
2.48
3.22
0.80
2.14
2.30
1.47
2.22
0.01
2.89
1.75
0.17
1.33
0.02
1.27
0.70
0.26
2.58
6.50
0.21
1.75
4.02
0.26
3.21
0.25
0.01
0.00
4.16
0.06
3.29
1.43
0.00
0.44
0.06
0.09
0.47
1.83
0.51
5.68
1.43
2.09
0.58
0.01
0.00
5.40
5.09
0.55
0.55
0.65
0.51
2.49
1.90
0.24
0.16
3.73
0.43
3.17
0.01
0.00
1.75
0.32
4.83
0.00
3.02
0.20
1.08
0.08
0.20
3.51
0.02
0.01
1.02
0.00
1.10
0.03
1.45
