#------------------------------------------------------------------------------
#$Date: 2020-10-06 14:14:12 +0300 (Tue, 06 Oct 2020) $
#$Revision: 257975 $
#$URL: file:///home/coder/svn-repositories/cod/cif/7/24/10/7241081.cif $
#------------------------------------------------------------------------------
#
# This file is available in the Crystallography Open Database (COD),
# http://www.crystallography.net/
#
# All data on this site have been placed in the public domain by the
# contributors.
#
data_7241081
loop_
_publ_author_name
'Joy, Md. Tuhinur R.'
Roknuzzaman,
'Hossain, Md. Emdad'
'Ghosh, Shishir'
'Tocher, Derek A.'
'Richmond, Michael G.'
'Kabir, Shariff E.'
_publ_section_title
;
 Reactions of triosmium and triruthenium clusters with 2-ethynylpyridine:
 new modes for alkyne C--C bond coupling and C--H bond activation
;
_journal_issue                   51
_journal_name_full               'RSC Advances'
_journal_page_first              30671
_journal_page_last               30682
_journal_paper_doi               10.1039/D0RA05393G
_journal_volume                  10
_journal_year                    2020
_chemical_formula_moiety         'C17 H6 N O10 Os3'
_chemical_formula_sum            'C17 H6 N O10 Os3'
_chemical_formula_weight         954.83
_space_group_crystal_system      triclinic
_space_group_IT_number           2
_space_group_name_Hall           '-P 1'
_space_group_name_H-M_alt        'P -1'
_atom_sites_solution_hydrogens   geom
_atom_sites_solution_primary     iterative
_audit_creation_date             2018-01-19
_audit_creation_method
;
Olex2 1.2
(compiled 2017.08.10 svn.r3458 for OlexSys, GUI svn.r5381)
;
_audit_update_record
;
2020-06-13 deposited with the CCDC.	2020-08-19 downloaded from the CCDC.
;
_cell_angle_alpha                100.068(4)
_cell_angle_beta                 92.632(4)
_cell_angle_gamma                111.204(4)
_cell_formula_units_Z            2
_cell_length_a                   8.7108(4)
_cell_length_b                   9.1324(4)
_cell_length_c                   14.1005(6)
_cell_measurement_reflns_used    9337
_cell_measurement_temperature    150(1)
_cell_measurement_theta_max      29.1180
_cell_measurement_theta_min      4.0880
_cell_volume                     1022.35(9)
_computing_cell_refinement       'CrysAlisPro 1.171.38.46 (Rigaku OD, 2015)'
_computing_data_collection       'CrysAlisPro 1.171.38.46 (Rigaku OD, 2015)'
_computing_data_reduction        'CrysAlisPro 1.171.38.46 (Rigaku OD, 2015)'
_computing_molecular_graphics    'Olex2 (Dolomanov et al., 2009)'
_computing_publication_material  'Olex2 (Dolomanov et al., 2009)'
_computing_structure_refinement  'ShelXL (Sheldrick, 2015)'
_computing_structure_solution
;
Superflip (Palatinus & Chapuis, 2007;Palatinus & van der Lee, 2008;
Palatinus et al., 2012)
;
_diffrn_ambient_environment      N~2~
_diffrn_ambient_temperature      150(1)
_diffrn_detector                 'CCD plate'
_diffrn_detector_area_resol_mean 5.2031
_diffrn_detector_type            Atlas
_diffrn_measured_fraction_theta_full 0.997
_diffrn_measured_fraction_theta_max 0.997
_diffrn_measurement_details
;
List of Runs (angles in degrees, time in seconds):

  # Type    Start    End  Width  t~exp~   \w     \q     \k     \f   Frames
#--------------------------------------------------------------------------
  1  \w     13.00  72.00   1.00    1.70    --   11.17  38.00   0.00   59
  2  \w     -3.00  87.00   1.00    1.70    --   11.17  77.00   0.00   90
  3  \w     -9.00  83.00   1.00    1.70    --   11.17  57.00 -90.00   92
  4  \w     -8.00  57.00   1.00    1.70    --   11.17-107.00  91.00   65
  5  \w    -20.00  52.00   1.00    1.70    --   11.17 -99.00 -30.00   72
  6  \w    -17.00  54.00   1.00    1.70    --   11.17-102.00-144.96   71
  7  \w    -84.00 -39.00   1.00    1.70    --  -10.07 -38.00 150.00   45
  8  \w    -13.00  85.00   1.00    1.70    --   11.17  38.00 150.00   98
;
_diffrn_measurement_device       'four-circle diffractometer'
_diffrn_measurement_device_type  'SuperNova, Dual, Cu at zero, Atlas'
_diffrn_measurement_method       '\w scans'
_diffrn_orient_matrix_type
'CrysAlisPro convention (1999,Acta A55,543-557)'
_diffrn_orient_matrix_UB_11      -0.0128328000
_diffrn_orient_matrix_UB_12      -0.0659363000
_diffrn_orient_matrix_UB_13      -0.0386527000
_diffrn_orient_matrix_UB_21      -0.0304152000
_diffrn_orient_matrix_UB_22      -0.0536837000
_diffrn_orient_matrix_UB_23      0.0316495000
_diffrn_orient_matrix_UB_31      -0.0815355000
_diffrn_orient_matrix_UB_32      -0.0041184000
_diffrn_orient_matrix_UB_33      -0.0123239000
_diffrn_radiation_monochromator  mirror
_diffrn_radiation_probe          x-ray
_diffrn_radiation_type           MoK\a
_diffrn_radiation_wavelength     0.71073
_diffrn_reflns_av_R_equivalents  0.0553
_diffrn_reflns_av_unetI/netI     0.0453
_diffrn_reflns_Laue_measured_fraction_full 0.997
_diffrn_reflns_Laue_measured_fraction_max 0.997
_diffrn_reflns_limit_h_max       10
_diffrn_reflns_limit_h_min       -10
_diffrn_reflns_limit_k_max       11
_diffrn_reflns_limit_k_min       -11
_diffrn_reflns_limit_l_max       17
_diffrn_reflns_limit_l_min       -17
_diffrn_reflns_number            15181
_diffrn_reflns_point_group_measured_fraction_full 0.997
_diffrn_reflns_point_group_measured_fraction_max 0.997
_diffrn_reflns_theta_full        26.000
_diffrn_reflns_theta_max         25.999
_diffrn_reflns_theta_min         3.427
_diffrn_source                   'micro-focus sealed X-ray tube'
_diffrn_source_type              'SuperNova (Mo) X-ray Source'
_exptl_absorpt_coefficient_mu    18.652
_exptl_absorpt_correction_T_max  1.00000
_exptl_absorpt_correction_T_min  0.13668
_exptl_absorpt_correction_type   multi-scan
_exptl_absorpt_process_details
;
CrysAlisPro 1.171.38.46 (Rigaku Oxford Diffraction, 2015)
Empirical absorption correction using spherical harmonics,
 implemented in SCALE3 ABSPACK scaling algorithm.
;
_exptl_crystal_colour            'clear yellow'
_exptl_crystal_colour_lustre     clear
_exptl_crystal_colour_primary    yellow
_exptl_crystal_density_diffrn    3.102
_exptl_crystal_description       block
_exptl_crystal_F_000             846
_exptl_crystal_size_max          0.28
_exptl_crystal_size_mid          0.16
_exptl_crystal_size_min          0.1
_refine_diff_density_max         2.258
_refine_diff_density_min         -1.455
_refine_diff_density_rms         0.249
_refine_ls_extinction_coef       0.00091(11)
_refine_ls_extinction_expression Fc^*^=kFc[1+0.001xFc^2^\l^3^/sin(2\q)]^-1/4^
_refine_ls_extinction_method     SHELXL
_refine_ls_goodness_of_fit_ref   1.017
_refine_ls_hydrogen_treatment    constr
_refine_ls_matrix_type           full
_refine_ls_number_parameters     281
_refine_ls_number_reflns         4006
_refine_ls_number_restraints     0
_refine_ls_restrained_S_all      1.017
_refine_ls_R_factor_all          0.0294
_refine_ls_R_factor_gt           0.0269
_refine_ls_shift/su_max          0.001
_refine_ls_shift/su_mean         0.000
_refine_ls_structure_factor_coef Fsqd
_refine_ls_weighting_details
'w=1/[\s^2^(Fo^2^)+(0.0306P)^2^] where P=(Fo^2^+2Fc^2^)/3'
_refine_ls_weighting_scheme      calc
_refine_ls_wR_factor_gt          0.0623
_refine_ls_wR_factor_ref         0.0641
_reflns_Friedel_coverage         0.000
_reflns_number_gt                3714
_reflns_number_total             4006
_reflns_threshold_expression     'I > 2\s(I)'
_iucr_refine_instructions_details
;
TITL CF solution in P-1
CELL 0.71073 8.71081 9.13237 14.10053 100.0677 92.6325 111.2039
ZERR 2 0.00038 0.00039 0.00061 0.0036 0.0036 0.004
LATT 1
SFAC C H N O Os
UNIT 34 12 2 20 6
 
L.S. 10
PLAN  60
BOND
fmap 2
acta 52
OMIT -4 52
REM <olex2.extras>
REM <HklSrc "%.\\xstr0803.hkl">
REM </olex2.extras>
 
WGHT    0.030600
EXTI    0.000913
FVAR       2.16070
OS1   5    0.172176    0.633665    0.815646    11.00000    0.01047    0.01420 =
         0.01112    0.00298    0.00236    0.00341
OS2   5    0.397171    0.804513    0.698697    11.00000    0.01110    0.01291 =
         0.01064    0.00327    0.00218    0.00444
OS3   5    0.708760    0.986683    0.636168    11.00000    0.01164    0.01433 =
         0.01279    0.00477    0.00272    0.00438
O1    4   -0.099157    0.626396    0.669456    11.00000    0.02441    0.03494 =
         0.02516    0.00495   -0.00410    0.01109
O2    4    0.126956    0.902019    0.964828    11.00000    0.02261    0.03178 =
         0.02930   -0.00714   -0.00303    0.01449
O3    4   -0.053119    0.348352    0.890899    11.00000    0.02580    0.02461 =
         0.03910    0.01601    0.00498    0.00137
O4    4    0.228415    1.038115    0.679107    11.00000    0.03722    0.03702 =
         0.04756    0.01592    0.00743    0.02700
O5    4    0.281766    0.655440    0.482320    11.00000    0.04339    0.02507 =
         0.01178    0.00300   -0.00508    0.01075
O6    4    0.577484    1.007261    0.898388    11.00000    0.02890    0.01862 =
         0.01223   -0.00391   -0.00427    0.00376
O7    4    0.634197    1.278708    0.734826    11.00000    0.03514    0.02021 =
         0.04174    0.00370    0.01233    0.01472
O8    4    0.921759    0.967398    0.812890    11.00000    0.03025    0.04916 =
         0.02632    0.01104   -0.00376    0.02000
O9    4    0.655663    0.656951    0.508975    11.00000    0.02483    0.02130 =
         0.03178   -0.00095    0.01183    0.00798
O10   4    0.997090    1.179393    0.539872    11.00000    0.02344    0.02742 =
         0.04816    0.01230    0.02025    0.00149
N1    3    0.394029    0.646283    0.895116    11.00000    0.01237    0.01110 =
         0.01460    0.00486    0.00702    0.00307
C1    1    0.001328    0.627942    0.724743    11.00000    0.02011    0.01711 =
         0.02051   -0.00069    0.00546    0.00473
C2    1    0.140961    0.802601    0.911326    11.00000    0.00913    0.02080 =
         0.01968    0.00333    0.00140    0.00622
C3    1    0.033799    0.457206    0.864922    11.00000    0.01731    0.02804 =
         0.01820    0.00537   -0.00112    0.01174
C4    1    0.294199    0.951297    0.685498    11.00000    0.01673    0.02099 =
         0.01664    0.00045    0.00216    0.00658
C5    1    0.323821    0.707625    0.562011    11.00000    0.01485    0.01753 =
         0.02220    0.00866    0.00482    0.00250
C6    1    0.507895    0.930137    0.826105    11.00000    0.02150    0.01164 =
         0.01892    0.00876    0.00959    0.00704
C7    1    0.665089    1.174462    0.700411    11.00000    0.01197    0.02415 =
         0.02377    0.01105    0.00249    0.00693
C8    1    0.842782    0.973702    0.749304    11.00000    0.01541    0.02418 =
         0.01931    0.00714    0.00667    0.00467
C9    1    0.679130    0.776103    0.558300    11.00000    0.01582    0.01886 =
         0.02105    0.00615    0.00396    0.00120
C10   1    0.891738    1.106572    0.576137    11.00000    0.01599    0.02141 =
         0.03103    0.00282    0.00787    0.00287
C11   1    0.286319    0.547486    0.708134    11.00000    0.02678    0.00955 =
         0.01463    0.00262    0.00648    0.00278
AFIX  13
H11   2    0.224126    0.462627    0.652147    11.00000   -1.20000
AFIX   0
C12   1    0.460364    0.590274    0.735393    11.00000    0.02163    0.01575 =
         0.01242    0.00588    0.00875    0.01007
AFIX  13
H12   2    0.522790    0.543704    0.691837    11.00000   -1.20000
AFIX   0
C13   1    0.510922    0.629073    0.839260    11.00000    0.01492    0.01084 =
         0.02325    0.00829    0.00887    0.00271
C14   1    0.667288    0.651934    0.883063    11.00000    0.01299    0.02747 =
         0.02614    0.01542    0.00988    0.00990
AFIX  43
H14   2    0.747940    0.639577    0.845017    11.00000   -1.20000
AFIX   0
C15   1    0.701409    0.692147    0.981077    11.00000    0.01676    0.02318 =
         0.02538    0.01078   -0.00469    0.00355
AFIX  43
H15   2    0.806313    0.709273    1.009895    11.00000   -1.20000
AFIX   0
C16   1    0.581597    0.707912    1.038552    11.00000    0.01782    0.02356 =
         0.01862    0.00174   -0.00098    0.00572
AFIX  43
H16   2    0.603561    0.734619    1.105837    11.00000   -1.20000
AFIX   0
C17   1    0.429060    0.682710    0.992683    11.00000    0.01889    0.01135 =
         0.02376    0.00504    0.00628    0.00528
AFIX  43
H17   2    0.346508    0.691054    1.030306    11.00000   -1.20000
AFIX   0
HKLF 4
 
REM  CF solution in P-1
REM R1 =  0.0269 for    3714 Fo > 4sig(Fo)  and  0.0294 for all    4006 data
REM    281 parameters refined using      0 restraints
 
END  
     
WGHT      0.0250      0.0000 

REM Highest difference peak  2.258,  deepest hole -1.455,  1-sigma level  0.249
Q1    1   0.3420  0.7407  0.7520  11.00000  0.05    2.26
Q2    1   0.7460  1.0166  0.5795  11.00000  0.05    2.17
Q3    1   0.2213  0.6806  0.7608  11.00000  0.05    2.14
Q4    1   0.4194  0.8258  0.6379  11.00000  0.05    2.05
Q5    1   0.1378  0.5963  0.8767  11.00000  0.05    2.01
Q6    1   0.6679  0.9518  0.7010  11.00000  0.05    1.90
Q7    1   0.2353  0.7527  0.8430  11.00000  0.05    1.78
Q8    1   0.2909  0.7163  0.6885  11.00000  0.05    1.60
Q9    1   0.6557  0.8649  0.6083  11.00000  0.05    1.56
Q10   1   0.5927  0.8909  0.6268  11.00000  0.05    1.50
Q11   1   0.5258  0.8797  0.7064  11.00000  0.05    1.47
Q12   1   0.0467  0.5642  0.8065  11.00000  0.05    1.46
Q13   1   0.3475  0.6775  0.6718  11.00000  0.05    1.45
Q14   1   0.8385  1.0615  0.6534  11.00000  0.05    1.32
Q15   1   0.1244  0.4987  0.7868  11.00000  0.05    1.30
Q16   1   0.7115  0.9269  0.5448  11.00000  0.05    1.26
Q17   1   0.4534  0.9361  0.7301  11.00000  0.05    1.25
Q18   1   0.3836  0.8371  0.7808  11.00000  0.05    1.18
Q19   1   0.1840  0.5801  0.7320  11.00000  0.05    1.17
Q20   1   0.7538  1.1063  0.6588  11.00000  0.05    1.17
Q21   1   0.7224  1.0318  0.7199  11.00000  0.05    1.15
Q22   1   0.2172  0.5800  0.8177  11.00000  0.05    1.04
Q23   1   0.6443  1.0303  0.6357  11.00000  0.05    1.03
Q24   1   0.0341  0.6061  0.9692  11.00000  0.05    0.88
Q25   1   0.6185  1.0317  0.5954  11.00000  0.05    0.86
Q26   1   0.3438  0.8566  0.6955  11.00000  0.05    0.83
Q27   1   0.8712  0.6005  0.7960  11.00000  0.05    0.79
Q28   1   0.4435  0.7226  0.8757  11.00000  0.05    0.77
Q29   1   0.7835  1.0137  0.5019  11.00000  0.05    0.76
Q30   1   0.6906  1.1004  0.7827  11.00000  0.05    0.75
Q31   1   0.0124  0.4054  0.7845  11.00000  0.05    0.75
Q32   1   0.8406  0.9981  0.4714  11.00000  0.05    0.73
Q33   1   0.5441  1.0282  0.7168  11.00000  0.05    0.73
Q34   1   0.0205  0.5704  0.8927  11.00000  0.05    0.72
Q35   1  -0.0436  0.3338  0.8327  11.00000  0.05    0.70
Q36   1   0.4603  0.7600  0.6991  11.00000  0.05    0.69
Q37   1   0.0279  0.6637  0.7782  11.00000  0.05    0.69
Q38   1   0.8493  1.2010  0.6569  11.00000  0.05    0.69
Q39   1   0.4701  1.0634  0.7610  11.00000  0.05    0.68
Q40   1   0.3868  0.9422  0.8792  11.00000  0.05    0.68
Q41   1   0.7775  0.9243  0.6619  11.00000  0.05    0.67
Q42   1   0.9033  0.9412  0.6528  11.00000  0.05    0.67
Q43   1   0.0066  0.5059  0.8726  11.00000  0.05    0.66
Q44   1   1.0334  1.0944  0.4853  11.00000  0.05    0.66
Q45   1  -0.0487  0.5842  0.8362  11.00000  0.05    0.66
Q46   1   0.2833  0.6055  0.7802  11.00000  0.05    0.65
Q47   1   0.6011  0.9294  1.0259  11.00000  0.05    0.65
Q48   1   0.2250  0.4324  0.5521  11.00000  0.05    0.64
Q49   1   0.5104  0.8281  0.5346  11.00000  0.05    0.64
Q50   1   1.1436  1.1781  0.5020  11.00000  0.05    0.64
Q51   1   0.4017  0.6821  0.9336  11.00000  0.05    0.64
Q52   1   0.2866  0.5617  1.0472  11.00000  0.05    0.64
Q53   1   0.1644  0.7993  0.9814  11.00000  0.05    0.63
Q54   1   0.7370  0.8338  0.4740  11.00000  0.05    0.63
Q55   1  -0.2056  0.4597  0.7152  11.00000  0.05    0.63
Q56   1   0.4164  0.6020  1.0921  11.00000  0.05    0.63
Q57   1   0.8220  0.9579  0.6089  11.00000  0.05    0.62
Q58   1   0.6888  0.6332  0.9365  11.00000  0.05    0.62
Q59   1   0.2221  0.8568  0.7829  11.00000  0.05    0.62
Q60   1   0.0646  0.6779  0.8570  11.00000  0.05    0.61

  REM The information below was added by Olex2.
  REM
  REM R1 = 0.0269 for 3714 Fo > 4sig(Fo) and 0.0294 for all 16901 data
  REM n/a parameters refined using n/a restraints
  REM Highest difference peak 2.26, deepest hole -1.45
  REM Mean Shift 0, Max Shift 0.001.

  REM +++ Tabular Listing of Refinement Information +++
  REM R1_all = 0.0294
  REM R1_gt = 0.0269
  REM wR_ref = 0.0641
  REM GOOF = 1.017
  REM Shift_max = 0.001
  REM Shift_mean = 0
  REM Reflections_all = 16901
  REM Reflections_gt = 3714
  REM Parameters = n/a
  REM Hole = -1.45
  REM Peak = 2.26
  REM Flack = n/a

  
;
_cod_data_source_file            d0ra05393g2.cif
_cod_data_source_block           xstr0803
_cod_depositor_comments
'Adding full bibliography for 7241081--7241085.cif.'
_cod_original_cell_volume        1022.35(8)
_cod_database_code               7241081
_shelxl_version_number           2013-4
_chemical_oxdiff_formula         'Os3 C17 N1 O10 H7'
_chemical_oxdiff_usercomment     TR-06A
_shelx_space_group_comment
;
The symmetry employed for this shelxl refinement is uniquely defined
by the following loop, which should always be used as a source of
symmetry information in preference to the above space-group names.
They are only intended as comments.
;
_reflns_odcompleteness_completeness 99.74
_reflns_odcompleteness_iscentric 1
_reflns_odcompleteness_theta     26.32
_olex2_refinement_description
;
1. Fixed Uiso
 At 1.2 times of:
  All C(H) groups
2.a Ternary CH refined with riding coordinates:
 C11(H11), C12(H12)
2.b Aromatic/amide H refined with riding coordinates:
 C14(H14), C15(H15), C16(H16), C17(H17)
;
_olex2_date_sample_data_collection 2018-01-19
_olex2_exptl_crystal_mounting_method 'Nylon Loop'
_olex2_submission_original_sample_id xstr0803
_olex2_submission_special_instructions 'No special instructions were received'
_oxdiff_exptl_absorpt_empirical_details
;
Empirical correction (ABSPACK) includes:
- Absorption correction using spherical harmonics
- Frame scaling
;
_oxdiff_exptl_absorpt_empirical_full_max 4.462
_oxdiff_exptl_absorpt_empirical_full_min 0.488
loop_
_space_group_symop_operation_xyz
'x, y, z'
'-x, -y, -z'
loop_
_atom_site_label
_atom_site_type_symbol
_atom_site_fract_x
_atom_site_fract_y
_atom_site_fract_z
_atom_site_U_iso_or_equiv
_atom_site_adp_type
_atom_site_occupancy
_atom_site_site_symmetry_order
_atom_site_calc_flag
_atom_site_refinement_flags_posn
_atom_site_refinement_flags_adp
_atom_site_refinement_flags_occupancy
_atom_site_disorder_assembly
_atom_site_disorder_group
Os1 Os 0.17218(3) 0.63366(3) 0.81565(2) 0.01219(9) Uani 1 1 d . . . . .
Os2 Os 0.39717(3) 0.80451(3) 0.69870(2) 0.01143(9) Uani 1 1 d . . . . .
Os3 Os 0.70876(3) 0.98668(3) 0.63617(2) 0.01276(9) Uani 1 1 d . . . . .
O1 O -0.0992(6) 0.6264(6) 0.6695(4) 0.0286(12) Uani 1 1 d . . . . .
O2 O 0.1270(6) 0.9020(6) 0.9648(4) 0.0286(12) Uani 1 1 d . . . . .
O3 O -0.0531(6) 0.3484(6) 0.8909(4) 0.0309(12) Uani 1 1 d . . . . .
O4 O 0.2284(6) 1.0381(6) 0.6791(4) 0.0359(13) Uani 1 1 d . . . . .
O5 O 0.2818(6) 0.6554(6) 0.4823(3) 0.0277(11) Uani 1 1 d . . . . .
O6 O 0.5775(5) 1.0073(5) 0.8984(3) 0.0225(10) Uani 1 1 d . . . . .
O7 O 0.6342(6) 1.2787(6) 0.7348(4) 0.0312(12) Uani 1 1 d . . . . .
O8 O 0.9218(6) 0.9674(7) 0.8129(4) 0.0336(13) Uani 1 1 d . . . . .
O9 O 0.6557(6) 0.6570(6) 0.5090(4) 0.0267(11) Uani 1 1 d . . . . .
O10 O 0.9971(6) 1.1794(6) 0.5399(4) 0.0342(13) Uani 1 1 d . . . . .
N1 N 0.3940(6) 0.6463(6) 0.8951(4) 0.0126(11) Uani 1 1 d . . . . .
C1 C 0.0013(8) 0.6279(8) 0.7247(5) 0.0204(15) Uani 1 1 d . . . . .
C2 C 0.1410(7) 0.8026(8) 0.9113(5) 0.0165(14) Uani 1 1 d . . . . .
C3 C 0.0338(8) 0.4572(9) 0.8649(5) 0.0203(15) Uani 1 1 d . . . . .
C4 C 0.2942(8) 0.9513(8) 0.6855(5) 0.0187(14) Uani 1 1 d . . . . .
C5 C 0.3238(8) 0.7076(8) 0.5620(5) 0.0185(14) Uani 1 1 d . . . . .
C6 C 0.5079(8) 0.9301(7) 0.8261(5) 0.0161(14) Uani 1 1 d . . . . .
C7 C 0.6651(7) 1.1745(8) 0.7004(5) 0.0191(14) Uani 1 1 d . . . . .
C8 C 0.8428(8) 0.9737(8) 0.7493(5) 0.0199(15) Uani 1 1 d . . . . .
C9 C 0.6791(8) 0.7761(8) 0.5583(5) 0.0198(14) Uani 1 1 d . . . . .
C10 C 0.8917(8) 1.1066(8) 0.5761(5) 0.0242(16) Uani 1 1 d . . . . .
C11 C 0.2863(8) 0.5475(7) 0.7081(5) 0.0180(14) Uani 1 1 d . . . . .
H11 H 0.2241 0.4626 0.6521 0.022 Uiso 1 1 calc R . . . .
C12 C 0.4604(7) 0.5903(7) 0.7354(4) 0.0151(13) Uani 1 1 d . . . . .
H12 H 0.5228 0.5437 0.6918 0.018 Uiso 1 1 calc R . . . .
C13 C 0.5109(7) 0.6291(7) 0.8393(5) 0.0161(13) Uani 1 1 d . . . . .
C14 C 0.6673(7) 0.6519(8) 0.8831(5) 0.0200(15) Uani 1 1 d . . . . .
H14 H 0.7479 0.6396 0.8450 0.024 Uiso 1 1 calc R . . . .
C15 C 0.7014(8) 0.6921(8) 0.9811(5) 0.0224(15) Uani 1 1 d . . . . .
H15 H 0.8063 0.7093 1.0099 0.027 Uiso 1 1 calc R . . . .
C16 C 0.5816(8) 0.7079(8) 1.0386(5) 0.0210(15) Uani 1 1 d . . . . .
H16 H 0.6036 0.7346 1.1058 0.025 Uiso 1 1 calc R . . . .
C17 C 0.4291(8) 0.6827(7) 0.9927(5) 0.0178(14) Uani 1 1 d . . . . .
H17 H 0.3465 0.6911 1.0303 0.021 Uiso 1 1 calc R . . . .
loop_
_atom_site_aniso_label
_atom_site_aniso_U_11
_atom_site_aniso_U_22
_atom_site_aniso_U_33
_atom_site_aniso_U_23
_atom_site_aniso_U_13
_atom_site_aniso_U_12
Os1 0.01047(14) 0.01420(15) 0.01112(14) 0.00298(10) 0.00236(9) 0.00341(11)
Os2 0.01110(14) 0.01291(15) 0.01064(14) 0.00327(10) 0.00218(10) 0.00444(11)
Os3 0.01164(14) 0.01433(15) 0.01279(15) 0.00477(10) 0.00272(10) 0.00438(11)
O1 0.024(3) 0.035(3) 0.025(3) 0.005(2) -0.004(2) 0.011(2)
O2 0.023(3) 0.032(3) 0.029(3) -0.007(2) -0.003(2) 0.014(2)
O3 0.026(3) 0.025(3) 0.039(3) 0.016(3) 0.005(2) 0.001(2)
O4 0.037(3) 0.037(3) 0.048(4) 0.016(3) 0.007(2) 0.027(3)
O5 0.043(3) 0.025(3) 0.012(3) 0.003(2) -0.005(2) 0.011(2)
O6 0.029(3) 0.019(3) 0.012(2) -0.004(2) -0.004(2) 0.004(2)
O7 0.035(3) 0.020(3) 0.042(3) 0.004(2) 0.012(2) 0.015(2)
O8 0.030(3) 0.049(4) 0.026(3) 0.011(3) -0.004(2) 0.020(3)
O9 0.025(3) 0.021(3) 0.032(3) -0.001(2) 0.012(2) 0.008(2)
O10 0.023(3) 0.027(3) 0.048(3) 0.012(3) 0.020(2) 0.001(2)
N1 0.012(3) 0.011(3) 0.015(3) 0.005(2) 0.007(2) 0.003(2)
C1 0.020(3) 0.017(4) 0.021(4) -0.001(3) 0.005(3) 0.005(3)
C2 0.009(3) 0.021(4) 0.020(4) 0.003(3) 0.001(2) 0.006(3)
C3 0.017(3) 0.028(4) 0.018(4) 0.005(3) -0.001(3) 0.012(3)
C4 0.017(3) 0.021(4) 0.017(3) 0.000(3) 0.002(3) 0.007(3)
C5 0.015(3) 0.018(4) 0.022(4) 0.009(3) 0.005(3) 0.002(3)
C6 0.022(3) 0.012(3) 0.019(4) 0.009(3) 0.010(3) 0.007(3)
C7 0.012(3) 0.024(4) 0.024(4) 0.011(3) 0.002(3) 0.007(3)
C8 0.015(3) 0.024(4) 0.019(4) 0.007(3) 0.007(3) 0.005(3)
C9 0.016(3) 0.019(4) 0.021(4) 0.006(3) 0.004(3) 0.001(3)
C10 0.016(3) 0.021(4) 0.031(4) 0.003(3) 0.008(3) 0.003(3)
C11 0.027(4) 0.010(3) 0.015(3) 0.003(3) 0.006(3) 0.003(3)
C12 0.022(3) 0.016(3) 0.012(3) 0.006(3) 0.009(3) 0.010(3)
C13 0.015(3) 0.011(3) 0.023(4) 0.008(3) 0.009(3) 0.003(3)
C14 0.013(3) 0.027(4) 0.026(4) 0.015(3) 0.010(3) 0.010(3)
C15 0.017(3) 0.023(4) 0.025(4) 0.011(3) -0.005(3) 0.004(3)
C16 0.018(3) 0.024(4) 0.019(4) 0.002(3) -0.001(3) 0.006(3)
C17 0.019(3) 0.011(3) 0.024(4) 0.005(3) 0.006(3) 0.005(3)
loop_
_atom_type_symbol
_atom_type_description
_atom_type_scat_dispersion_real
_atom_type_scat_dispersion_imag
_atom_type_scat_source
C C 0.0033 0.0016 'International Tables Vol C Tables 4.2.6.8 and 6.1.1.4'
H H 0.0000 0.0000 'International Tables Vol C Tables 4.2.6.8 and 6.1.1.4'
N N 0.0061 0.0033 'International Tables Vol C Tables 4.2.6.8 and 6.1.1.4'
O O 0.0106 0.0060 'International Tables Vol C Tables 4.2.6.8 and 6.1.1.4'
Os Os -1.2165 7.6030 'International Tables Vol C Tables 4.2.6.8 and 6.1.1.4'
loop_
_geom_angle_atom_site_label_1
_geom_angle_atom_site_label_2
_geom_angle_atom_site_label_3
_geom_angle
_geom_angle_site_symmetry_1
_geom_angle_site_symmetry_3
_geom_angle_publ_flag
N1 Os1 Os2 83.17(13) . . ?
C1 Os1 Os2 86.5(2) . . ?
C1 Os1 N1 168.7(2) . . ?
C1 Os1 C2 92.2(3) . . ?
C1 Os1 C3 94.5(3) . . ?
C1 Os1 C11 92.0(3) . . ?
C2 Os1 Os2 104.10(19) . . ?
C2 Os1 N1 94.6(2) . . ?
C2 Os1 C11 154.7(3) . . ?
C3 Os1 Os2 159.21(19) . . ?
C3 Os1 N1 93.6(2) . . ?
C3 Os1 C2 96.6(3) . . ?
C3 Os1 C11 107.9(3) . . ?
C11 Os1 Os2 51.31(17) . . ?
C11 Os1 N1 78.1(2) . . ?
Os1 Os2 Os3 159.593(12) . . ?
C4 Os2 Os1 96.3(2) . . ?
C4 Os2 Os3 96.0(2) . . ?
C4 Os2 C5 88.3(3) . . ?
C4 Os2 C6 90.9(3) . . ?
C4 Os2 C11 130.1(3) . . ?
C4 Os2 C12 164.3(2) . . ?
C5 Os2 Os1 110.54(18) . . ?
C5 Os2 Os3 86.08(18) . . ?
C5 Os2 C6 168.7(3) . . ?
C5 Os2 C11 80.2(3) . . ?
C5 Os2 C12 95.1(2) . . ?
C6 Os2 Os1 80.71(18) . . ?
C6 Os2 Os3 82.81(18) . . ?
C6 Os2 C11 108.6(2) . . ?
C6 Os2 C12 88.6(2) . . ?
C11 Os2 Os1 45.98(15) . . ?
C11 Os2 Os3 130.92(16) . . ?
C11 Os2 C12 36.5(2) . . ?
C12 Os2 Os1 68.21(14) . . ?
C12 Os2 Os3 99.51(15) . . ?
C7 Os3 Os2 84.35(18) . . ?
C7 Os3 C8 96.2(3) . . ?
C8 Os3 Os2 93.45(18) . . ?
C9 Os3 Os2 82.52(18) . . ?
C9 Os3 C7 162.3(3) . . ?
C9 Os3 C8 96.4(3) . . ?
C10 Os3 Os2 170.3(2) . . ?
C10 Os3 C7 95.1(3) . . ?
C10 Os3 C8 96.2(3) . . ?
C10 Os3 C9 95.8(3) . . ?
C13 N1 Os1 114.4(4) . . ?
C17 N1 Os1 125.8(4) . . ?
C17 N1 C13 119.5(5) . . ?
O1 C1 Os1 178.8(6) . . ?
O2 C2 Os1 177.9(6) . . ?
O3 C3 Os1 177.2(6) . . ?
O4 C4 Os2 178.0(6) . . ?
O5 C5 Os2 178.1(6) . . ?
O6 C6 Os2 177.1(5) . . ?
O7 C7 Os3 177.2(6) . . ?
O8 C8 Os3 178.7(6) . . ?
O9 C9 Os3 175.4(6) . . ?
O10 C10 Os3 178.1(7) . . ?
Os1 C11 Os2 82.7(2) . . ?
C12 C11 Os1 113.1(4) . . ?
C12 C11 Os2 76.4(4) . . ?
C11 C12 Os2 67.1(3) . . ?
C11 C12 C13 114.9(5) . . ?
C13 C12 Os2 106.5(4) . . ?
N1 C13 C12 115.0(5) . . ?
N1 C13 C14 119.6(6) . . ?
C14 C13 C12 125.4(5) . . ?
C15 C14 C13 120.0(6) . . ?
C14 C15 C16 120.6(6) . . ?
C17 C16 C15 117.6(6) . . ?
N1 C17 C16 122.7(6) . . ?
loop_
_geom_bond_atom_site_label_1
_geom_bond_atom_site_label_2
_geom_bond_distance
_geom_bond_site_symmetry_2
_geom_bond_publ_flag
Os1 Os2 2.8248(4) . ?
Os1 N1 2.144(5) . ?
Os1 C1 1.899(7) . ?
Os1 C2 1.971(7) . ?
Os1 C3 1.896(7) . ?
Os1 C11 2.048(6) . ?
Os2 Os3 2.8945(4) . ?
Os2 C4 1.891(7) . ?
Os2 C5 1.946(7) . ?
Os2 C6 1.948(7) . ?
Os2 C11 2.223(6) . ?
Os2 C12 2.346(6) . ?
Os3 C7 1.966(7) . ?
Os3 C8 1.979(7) . ?
Os3 C9 1.961(7) . ?
Os3 C10 1.908(7) . ?
O1 C1 1.140(8) . ?
O2 C2 1.121(7) . ?
O3 C3 1.142(8) . ?
O4 C4 1.146(8) . ?
O5 C5 1.128(8) . ?
O6 C6 1.134(8) . ?
O7 C7 1.118(8) . ?
O8 C8 1.127(8) . ?
O9 C9 1.127(8) . ?
O10 C10 1.125(8) . ?
N1 C13 1.352(8) . ?
N1 C17 1.351(8) . ?
C11 C12 1.437(9) . ?
C12 C13 1.453(9) . ?
C13 C14 1.397(9) . ?
C14 C15 1.356(9) . ?
C15 C16 1.383(9) . ?
C16 C17 1.373(9) . ?
loop_
_refln_index_h
_refln_index_k
_refln_index_l
_refln_F_squared_meas
_refln_F_squared_sigma
_refln_scale_group_code
0 0 3 44757.8 2607.79 1
0 0 3 41869.1 2301.08 2
0 0 -3 42701.8 2454.28 8
0 0 3 39013.3 2430.82 8
0 0 -3 34308.1 2778.72 3
0 0 3 41680.9 2370.28 7
0 0 4 25350.4 1925.57 7
0 0 -4 26710.2 1995.39 8
0 0 4 26167 2087.03 1
0 0 -4 24033.2 2462.75 3
0 0 4 27048.9 1900.36 2
0 0 4 24561.5 2013.3 8
0 0 5 9524.49 1323.57 1
0 0 5 6099.52 944.812 7
0 0 -5 7111.48 1034.57 8
0 0 5 8037.73 1060.26 2
0 0 5 5785.45 997.782 8
0 0 -5 5783.16 1280.03 3
0 0 -6 207252 8737.74 8
0 0 -6 166683 9634.23 3
0 0 6 178858 8286.33 2
0 0 6 183614 8857.43 1
0 0 6 175285 8395.89 7
0 0 6 179592 8685.03 8
0 0 7 1449.46 714.95 1
0 0 -7 1861.51 609.502 8
0 0 7 845.177 401.054 2
0 0 7 1749.92 605.512 7
0 0 7 2107.98 750.244 8
0 0 -7 3393.44 886.448 5
0 0 -7 876.032 543.768 3
0 0 8 53456.4 3790.73 2
0 0 8 51402.3 4229.19 1
0 0 -8 57039.2 4185.57 5
0 0 -8 61623 4098.14 8
0 0 8 52970.5 3877.67 7
0 0 8 47242.2 3976.01 8
0 0 9 28147.9 2780.18 7
0 0 -9 21377.2 3166.46 3
0 0 -9 36066.9 3089.14 8
0 0 -9 29790.7 2971.76 5
0 0 9 28491.6 2994.66 8
0 0 9 25341.1 2584.29 2
0 0 9 28299.6 3167.45 1
0 0 10 44869.4 4104.83 8
0 0 10 44672.9 4334.27 1
0 0 -10 43046 4749.93 3
0 0 -10 47210.9 4004.6 5
0 0 10 48009.3 3947.47 7
0 0 10 53208.7 3969.71 2
0 0 -10 55915.6 4180.9 8
0 0 11 91771.1 6952.93 1
0 0 11 100897 6229.63 2
0 0 11 90784.2 6613.3 8
0 0 -11 106631 6644.55 5
0 0 -11 96505.1 7724.31 3
0 0 -11 119187 6757.49 8
0 0 -12 37143 3698.82 5
0 0 12 38338.3 4228.89 1
0 0 -12 35843.6 4467.47 3
0 0 12 37423.4 3478.2 2
0 0 13 1378.99 644.506 2
0 0 -13 2235.2 806.636 5
0 0 13 3286.18 1339.56 1
0 0 14 1352.28 853.014 1
0 0 -14 327.547 512.236 5
0 0 14 127.488 389.611 2
0 0 -15 87505.5 6395.87 5
0 0 15 86239.2 7388.39 1
0 0 15 71940.6 5681.34 2
0 0 -16 55732.8 5090.96 5
0 0 16 53105.4 4729.08 2
0 0 16 50365.2 5748.31 1
0 0 17 37480.7 5030.57 1
0 0 17 35473 3920.37 2
0 0 -17 44353.2 4539.77 5
0 0 18 49230.5 4802.97 2
0 0 -18 61283.9 5558.36 5
0 -1 18 74.7471 384.632 2
0 1 -17 33435 3991.65 5
0 -1 17 33147.9 4639.3 1
0 -1 17 27802.3 3261.75 2
0 1 -16 18871.1 2906.44 5
0 -1 16 18307.4 2526.31 2
0 -1 16 19134.3 3368.01 1
0 -1 15 108393 7018.69 2
0 1 -15 117494 7941.69 5
0 1 -15 123607 7728.85 8
0 -1 15 105830 8455.76 1
0 -1 14 101960 7934.45 1
0 -1 14 97853.6 6505.05 2
0 1 -14 111835 7478.87 5
0 1 -14 108711 7044.87 8
0 1 -13 15721.2 2440.65 5
0 -1 13 13721.1 2455.33 1
0 -1 13 13476.3 1989.51 2
0 1 -13 19311.3 2478.21 8
0 1 -12 18258.5 2573.69 5
0 -1 12 15080.6 2039.65 2
0 1 -12 18910.2 2394.53 8
0 -1 12 14752.4 2474.1 1
0 1 -11 47068.2 5254.38 3
0 1 -11 49983.3 4364.62 5
0 -1 11 46146.5 3708.55 2
0 -1 11 49439.2 4516.62 1
0 -1 11 43846.6 4258.52 8
0 1 -11 50418.1 4011.38 8
0 1 -10 66135.7 5012.89 5
0 1 -10 54004.6 5622.91 3
0 -1 10 61069.1 4247.57 2
0 -1 10 62274.6 4568.34 7
0 -1 10 60826.9 4954.11 1
0 -1 10 58784.7 4822.24 8
0 1 -10 59543.3 4333.23 8
0 -1 9 79128.3 5322.03 7
0 -1 9 91755.2 5241.4 2
0 -1 9 82038.6 5690.66 8
0 -1 9 84850.7 5868.47 1
0 1 -9 90514.2 5366.64 8
0 1 -9 80766 6835.48 3
0 -1 8 114891 6508.38 7
0 -1 8 101969 6534.21 8
0 -1 8 124675 6263.69 2
0 -1 8 123207 7027.58 1
0 1 -8 120105 6343.31 8
0 1 -7 25406.5 3267.32 3
0 -1 7 29700.2 2671.78 7
0 -1 7 33161 2531.55 2
0 1 -7 32327.6 2611.27 8
0 -1 7 31968.7 2944.48 1
0 -1 7 32359.1 2882.76 8
0 -1 6 9374.05 1374.79 1
0 1 -6 9073.56 1186.74 8
0 -1 6 6332.28 1400.86 3
0 -1 6 7901.58 1225.42 8
0 1 -6 6807.98 1483.89 3
0 -1 5 42798.9 2997.3 8
0 -1 5 59383.4 4092.69 3
0 1 -5 40220.1 3678.02 3
0 -1 5 47020.5 3166.68 1
0 1 -5 54239.7 3067.81 8
0 -1 4 34034.8 2212.57 8
0 -1 4 37305 2881.4 3
0 1 -4 30854.8 2750.19 3
0 1 -4 35720.6 2185.83 8
0 1 -3 133769 5315.81 8
0 -1 3 122473 5279.09 8
0 -1 3 124816 5974.12 3
0 -1 2 201.91 78.8148 8
0 -1 2 257.641 72.3653 6
0 1 2 304.712 128.026 7
0 1 2 217.577 137.549 1
0 1 2 527.937 197.103 2
0 -1 -2 411.373 133.057 7
0 -1 -2 253.7 110.025 5
0 1 3 454435 16844.8 7
0 -1 -3 437760 17016.3 2
0 1 3 475126 17361.7 1
0 -1 -3 450377 16895.6 5
0 1 3 473801 17203 2
0 -1 -3 464375 16859.2 7
0 1 4 98240.1 4464.02 2
0 1 4 90351.2 4508.27 1
0 -1 -4 83355.3 4133.97 5
0 1 4 85483 4255.91 8
0 -1 -4 88163.4 4048.68 7
0 -1 -4 82117.7 4107.64 2
0 1 4 81937.5 3989.72 7
0 1 5 5915.7 928.504 2
0 1 5 6144.91 1012.13 1
0 -1 -5 6218.39 867.44 2
0 -1 -5 4900.36 741.908 7
0 -1 -5 5302.63 834.126 5
0 1 5 4557.16 711.34 7
0 1 6 5115.01 943.29 2
0 -1 -6 4590.03 817.271 2
0 1 6 3351.9 793.942 1
0 -1 -6 4786.93 801.515 7
0 -1 -6 3685.32 777.603 5
0 1 6 3590.91 714.302 7
0 1 7 200490 9057.52 7
0 -1 -7 189158 8856.57 2
0 1 7 215228 9531.51 2
0 -1 -7 203501 9263.82 5
0 1 7 224981 10131.8 1
0 -1 -8 3249.34 797.653 2
0 1 8 4374.67 1021.06 8
0 1 8 4684.18 1055.79 2
0 1 8 2543.68 717.272 7
0 1 8 3446.47 983.462 1
0 -1 -8 2976.03 814.508 5
0 1 9 133857 7951.27 1
0 1 9 119420 6816.4 7
0 1 9 137913 7330.87 2
0 1 9 118605 7059.86 8
0 -1 -9 123936 6958.7 5
0 -1 -9 124378 7235.97 1
0 1 10 1800.27 749.291 2
0 1 10 1028.42 650.318 1
0 -1 -10 788.018 422.813 1
0 1 10 343.932 222.265 7
0 1 10 942.683 534.567 8
0 -1 -10 34.147 219.329 5
0 -1 -10 -204.898 380.08 3
0 -1 -11 16434.2 2778.37 3
0 1 11 21452.3 3004.99 1
0 -1 -11 17341.8 2279.39 5
0 1 11 17686.8 2375.04 2
0 -1 -12 46674 4061.03 5
0 1 12 44207.5 4059.92 2
0 -1 -12 45878.3 4947.37 3
0 1 12 45775.6 4788.81 1
0 1 13 15784 2367.39 2
0 -1 -13 16357.7 2355.29 5
0 1 13 17701.1 3028.11 1
0 1 14 4058.41 1499.04 1
0 -1 -14 5457.35 1363.17 5
0 1 14 7295.88 1692.85 2
0 1 15 5607.37 1849.89 1
0 1 15 7132.1 1636.99 2
0 -1 -15 6665.23 1565.97 5
0 1 16 15518 2544.19 2
0 -1 -16 16542.1 2621.68 5
0 1 16 16464.2 3318.48 1
0 -1 -17 11736.5 2226.65 5
0 1 17 15655.1 2626.35 2
0 1 18 48555.1 4901.9 2
0 -1 -18 48591.3 4908.92 5
0 -2 18 9333.05 1827.04 2
0 2 -17 -118.087 470.725 5
0 -2 17 1572.96 863.923 1
0 2 -17 800.419 467.581 8
0 -2 17 538.886 306.401 2
0 -2 16 3255.93 1137.63 2
0 2 -16 6213.73 1539.59 8
0 2 -16 5114.03 1581.01 5
0 -2 16 4139.83 1591.91 1
0 2 -15 16506.4 2691.24 5
0 -2 15 9539.93 1739.79 2
0 2 -15 13482.9 2247.32 8
0 -2 15 16705.1 2878 1
0 -2 14 75651.1 5526.26 2
0 -2 14 86808.8 6962.89 1
0 2 -14 95218.5 6298.94 8
0 2 -14 101373 7142.07 5
0 2 -13 114266 7572.46 5
0 2 -13 100198 6470.2 8
0 -2 13 90411 6001.16 2
0 -2 13 101641 7374.74 1
0 -2 12 69653.9 5517.62 8
0 -2 12 58872.2 5317.15 1
0 -2 12 61061.4 4505.74 2
0 2 -12 78219.9 5913.16 5
0 2 -12 62136.5 4721.55 8
0 -2 11 95308.2 6628.12 1
0 2 -11 85305.9 7648.57 3
0 -2 11 83773 5387.99 2
0 -2 11 91092.2 6308.7 8
0 2 -11 92772 5812.1 8
0 -2 10 19650.7 2485.89 8
0 2 -10 21742.3 3468.3 3
0 -2 10 24995.9 2912.87 1
0 -2 10 20495.2 1229.05 4
0 -2 10 19684.3 2158.39 2
0 2 -10 21057.5 2354.18 8
0 2 -9 12608.8 1687.52 8
0 -2 9 9573.71 1600.56 8
0 -2 9 9667.43 1676.87 1
0 2 -9 9530.36 2180.97 3
0 -2 8 141561 8518.17 3
0 2 -8 136187 6840.72 8
0 -2 8 131816 7096.82 8
0 -2 8 130548 7288.22 1
0 -2 7 294859 13865.9 3
0 -2 7 276904 12214.5 8
0 2 -7 293027 12133.8 8
0 -2 6 26897 2753.02 3
0 -2 6 25145.3 2046.34 8
0 2 -6 23679.8 1957.42 8
0 2 -5 139745 6033.47 8
0 -2 5 141475 7182.09 3
0 -2 5 127887 5939.95 8
0 -2 4 2779.34 347.88 6
0 -2 4 2454.39 460.155 8
0 -2 4 2796.66 678.806 3
0 2 -4 3066.11 509.725 8
0 -2 3 15768.9 853.412 6
0 2 -3 17383.3 890.332 6
0 -2 3 15570 1477.2 3
0 -2 3 13875.5 1065.79 8
0 2 -3 15449.5 1121.11 8
0 2 -2 83307.9 3580.64 8
0 2 -2 81145.3 3914.14 3
0 2 -2 88396.6 3268.86 6
0 -2 2 81271.2 3266.46 6
0 -2 2 89318.7 4036.13 3
0 2 -1 63024.4 2917.32 2
0 2 -1 58971.3 2771.55 3
0 -2 1 65146.2 2898.43 3
0 2 -1 60658.1 2494.67 6
0 -2 1 57593.1 2873.92 2
0 -2 0 393.081 132.793 3
0 2 0 532.23 163.489 3
0 2 0 696.387 217.503 2
0 -2 -1 912.245 201.574 3
0 2 1 904.527 136.578 5
0 2 1 644.228 196.908 2
0 -2 -2 87151 3458.3 5
0 2 2 85333 3477.71 5
0 2 2 95303 4273.65 2
0 -2 -3 3297.28 466.969 7
0 -2 -3 2771.38 532.194 2
0 2 3 3011.96 607.448 2
0 -2 -3 3487.92 430.604 5
0 2 3 3167.96 602.006 1
0 2 3 2834.46 395.115 5
0 2 4 584704 22358.5 2
0 2 4 589368 22396.9 1
0 -2 -4 604810 21696.5 7
0 -2 -4 569155 21508 5
0 2 5 31255.2 2153.21 7
0 -2 -5 33336.5 2181.9 5
0 -2 -5 35523.4 2243.89 7
0 2 5 35934.2 2682.85 2
0 -2 -5 29745.7 2324.16 2
0 2 5 35107.8 2678.94 1
0 -2 -6 42327.8 3011.97 2
0 2 6 47912.3 2946.63 7
0 -2 -6 41827.8 2859.23 5
0 2 6 48369.4 3510.7 1
0 2 7 51064 3231.5 7
0 2 7 45812.5 3586.41 2
0 -2 -7 42303 3128.79 2
0 2 7 48240.5 3766.81 1
0 -2 -7 41233.4 3031.07 5
0 -2 -8 78259.6 4803.88 2
0 2 8 79794.9 4762.04 7
0 2 8 90410.6 5573.68 2
0 2 8 70775.6 4761.73 8
0 2 8 90896.4 5774.31 1
0 -2 -8 73129.5 4664.96 5
0 -2 -8 87033.3 4853.79 7
0 -2 -9 6319.28 1164.09 7
0 -2 -9 6501.49 592.009 4
0 2 9 6356.77 1336.08 2
0 2 9 5193.31 1123 8
0 -2 -9 5778.26 1173.38 5
0 -2 -9 4867.08 1129.19 1
0 -2 -9 6840.58 1268.36 2
0 2 9 7042.19 1560.11 1
0 2 9 6200.17 1154.61 7
0 -2 -10 132523 7708.9 5
0 -2 -10 150730 5530.77 4
0 2 10 145971 8532.92 2
0 -2 -10 154303 8025.19 2
0 2 10 162818 9356.19 1
0 -2 -10 121158 8594.86 3
0 2 10 146853 7943.72 7
0 2 11 13371 2413.17 1
0 -2 -11 8212.18 2016.46 3
0 2 11 11861.5 2078.34 2
0 -2 -11 11635.4 1810.1 5
0 2 12 44993.8 4323.63 2
0 -2 -12 37591.8 4370.77 3
0 -2 -12 39786 3728.38 5
0 2 12 42398.4 4717.34 1
0 2 13 2611.57 1000.76 2
0 -2 -13 2428.89 852.743 5
0 2 13 5042.13 1660.77 1
0 2 14 5394.9 1577.57 2
0 2 14 8242.1 2185.89 1
0 -2 -14 5221.47 1292.21 5
0 2 15 12650.9 2836.75 1
0 2 15 16455.7 2692.91 2
0 -2 -15 16301.4 2514.36 5
0 2 16 864.856 537.131 1
0 2 16 4661.18 1403.31 2
0 -2 -16 2971.03 1175.36 5
0 2 17 1054.53 720.243 2
0 -2 -17 412.623 602.101 5
0 2 18 3270.12 1272.87 2
0 3 -19 7943.48 1902.74 8
0 3 -18 1341.84 692.064 8
0 -3 18 -144.879 451.894 2
0 -3 17 1145.9 879.575 1
0 -3 17 4346.48 1223.64 2
0 3 -17 3891.69 1319.18 8
0 3 -17 4895.8 1604.39 5
0 -3 16 15478.5 2252.08 2
0 -3 16 20594.2 3312.42 1
0 3 -16 13718.8 2346.25 8
0 3 -16 18060 2947.83 5
0 -3 15 7025.97 1411.6 2
0 3 -15 8743.5 2008.69 5
0 -3 15 6879.84 1837.7 1
0 3 -15 6237.84 1454.89 8
0 3 -14 30621.2 3333.53 8
0 -3 14 34893.5 4143.69 1
0 -3 14 30263.3 3105.82 2
0 3 -14 34276.1 4016.87 5
0 -3 13 50690.3 4892.79 1
0 -3 13 48746.5 3920.41 2
0 -3 13 44331.3 2195.75 4
0 3 -13 51487.1 4228.68 8
0 3 -12 80970.6 5483.06 8
0 -3 12 83539.8 5911.76 8
0 -3 12 89189.2 6414.51 1
0 -3 12 74774.7 3584.98 4
0 -3 11 127648 7582.96 8
0 3 -11 125142 7165.87 8
0 -3 11 127981 7955.2 1
0 3 -10 137420 7110.25 8
0 -3 10 141536 9129.52 3
0 -3 10 131029 7300.42 8
0 -3 9 965.268 470.667 8
0 -3 9 553.006 272.807 3
0 3 -9 871.951 465.376 8
0 3 -9 496.063 526.333 3
0 -3 8 38255.7 2353.47 6
0 3 -8 43675.1 3068.74 8
0 -3 8 37781.7 2951.42 8
0 -3 8 42299.2 4041.34 3
0 3 -7 134585 6200.05 8
0 -3 7 116019 5267.05 6
0 -3 7 124139 6063.76 8
0 -3 7 140939 7796.18 3
0 3 -6 254892 9826.67 8
0 -3 6 219162 8845.25 6
0 -3 6 225967 9620.89 8
0 -3 6 267712 11413.5 3
0 -3 5 107521 5080.3 8
0 -3 5 106469 4453.89 6
0 3 -5 118901 5231.52 8
0 3 -4 272945 9561.19 6
0 3 -4 256531 10168.5 8
0 -3 4 243116 10083.9 8
0 -3 4 249725 9507.91 6
0 -3 4 263164 11192.6 3
0 3 -3 54796.8 2349.97 6
0 3 -3 54863.9 3233.47 3
0 3 -3 56813.2 2824.48 8
0 -3 3 53280.9 3305.39 3
0 -3 3 55982.8 2397.83 6
0 3 -2 28022.5 1927.65 3
0 -3 2 31701.8 2057.63 2
0 -3 2 32396.4 2124.51 3
0 3 -2 30191 1507.76 6
0 -3 1 41880.6 2653.98 2
0 3 -1 51648.8 2800.03 2
0 -3 1 50072.6 2631.69 3
0 3 -1 48591.5 2494.44 3
0 -3 0 198633 8607.17 2
0 3 0 229102 8790.27 2
0 -3 0 232402 8309.75 3
0 3 0 187107 7995.59 3
0 -3 -1 12445.4 969.463 3
0 3 1 11597.9 700.185 5
0 3 1 11575.4 1227.71 2
0 -3 -2 19468.2 1042.16 5
0 3 2 21949.3 1821.26 2
0 3 2 19531.8 1099.66 5
0 -3 -2 20511.4 1305.95 3
0 3 3 27145.6 1558.72 5
0 -3 -3 29299.7 1510.93 5
0 -3 -3 31062.8 1876.2 7
0 3 3 32977 2439.97 2
0 3 4 6496.3 720.313 5
0 -3 -4 8017.67 920.92 7
0 -3 -4 7800.48 752.629 5
0 3 4 8610.08 1244.33 2
0 -3 -5 257152 10160.9 5
0 3 5 256390 11454.6 2
0 3 6 2423.01 752.074 1
0 -3 -6 2817.46 728.105 2
0 -3 -6 3447.15 653.612 5
0 3 6 3742.39 928.429 2
0 -3 -7 191851 8487.79 7
0 3 7 163805 8533.45 8
0 -3 -7 201386 8506.63 5
0 3 7 188653 9505.91 1
0 3 7 209502 9811.77 2
0 -3 -7 171389 8763.68 2
0 -3 -8 46144.8 3513.03 2
0 3 8 43527 3926.63 2
0 3 8 36697.1 3166.92 8
0 3 8 49978.2 4132.5 1
0 -3 -8 46139.4 3263.78 7
0 -3 -8 43558.2 3692.18 1
0 -3 -8 42700.2 3147.01 5
0 3 9 14342.1 2199.88 2
0 -3 -9 15079.5 1854.52 7
0 -3 -9 12429.2 1693.91 5
0 -3 -9 11823 1804.36 2
0 3 9 17560.3 2479.01 1
0 -3 -10 2.9253 229.933 5
0 3 10 296.646 438.147 1
0 -3 -10 646.991 348.253 7
0 -3 -10 157.521 126.201 4
0 3 10 -171.934 412.152 2
0 -3 -11 140713 8139.36 5
0 3 11 165769 9611.32 2
0 -3 -11 148313 8274.51 7
0 -3 -11 154939 6096.38 4
0 3 11 168369 10120.3 1
0 -3 -12 10023.3 1792.19 5
0 3 12 14566.7 2729.28 1
0 3 12 14804.6 2537.09 2
0 -3 -12 11629.5 2357.55 3
0 -3 -13 85962.4 6207.62 5
0 3 13 102483 8266.54 1
0 3 13 102741 7583.58 2
0 -3 -14 4257.84 1213.17 5
0 3 14 4266.15 1574.99 1
0 3 14 5233.04 1625.84 2
0 3 15 4840.8 1790.18 1
0 3 15 5758.71 1758.35 2
0 -3 -15 2657.95 964.766 5
0 3 16 8117.96 2040.6 2
0 -3 -16 9614.01 1996.29 5
0 -3 -17 -136.236 360.178 5
0 3 17 -341.51 574.963 2
0 4 -19 72308.5 6219.2 8
0 4 -18 12708.4 2379.07 8
0 -4 17 2067.57 1071.73 1
0 4 -17 1964.66 850.571 8
0 4 -17 1282.87 696.163 5
0 -4 17 428.104 360.27 2
0 4 -16 1684.94 674.577 8
0 -4 16 2170.85 1156.88 1
0 4 -16 2098.88 887.984 5
0 -4 16 2030.73 789.473 2
0 -4 15 38365.2 3602.85 2
0 4 -15 31301.2 3541.6 8
0 -4 15 39575.1 4684.47 1
0 4 -15 43619.8 4729.63 5
0 -4 14 15307.8 1308.96 4
0 -4 14 15902.2 1903.8 6
0 4 -14 19057.7 2544.42 8
0 -4 14 20051.2 3046.61 1
0 4 -13 38767.8 3666.33 8
0 -4 13 35624.7 2894.36 6
0 -4 13 37368.9 2397.26 4
0 -4 13 44982.1 4456.9 1
0 4 -12 279.387 262.514 8
0 -4 12 119.166 352.94 3
0 -4 12 197.404 148.657 8
0 -4 11 23427.4 3462.28 3
0 -4 11 22228.8 2516.73 8
0 4 -11 26433.2 2643.66 8
0 -4 11 18699.3 1796.84 6
0 -4 10 69670.5 3784.91 6
0 -4 10 82386.8 6515.12 3
0 -4 10 71164.2 4712.78 8
0 4 -10 73726.9 4748.93 8
0 4 -9 104939 5541.12 8
0 -4 9 88778.3 5243.34 8
0 -4 9 88256.7 4351.47 6
0 4 -9 93042.8 7209.8 3
0 -4 9 101708 7049.32 3
0 -4 8 27745.6 2337.38 8
0 -4 8 33616.4 3517.05 3
0 4 -8 29377.1 2441.95 8
0 -4 8 28094 1757.97 6
0 -4 7 25081.1 2076.23 8
0 -4 7 27560.6 2974.84 3
0 4 -7 29169.8 2272 8
0 -4 7 26278.9 1568.81 6
0 -4 6 44175.7 2189.14 6
0 4 -6 45568.9 2871.87 8
0 -4 6 51777.2 3954.97 3
0 -4 6 44121.3 2805.49 8
0 -4 5 47715.5 2322.12 6
0 4 -5 52808.2 2370.36 6
0 -4 5 52841.1 3837.75 3
0 4 -5 50346.9 2955.28 8
0 4 -4 240832 9456.05 8
0 -4 4 204447 9704.68 2
0 4 -4 221122 10093.3 3
0 4 -4 231649 8688.93 6
0 4 -3 428535 16535.9 3
0 4 -3 431795 15359.6 6
0 -4 3 463625 16971.1 3
0 4 -3 403457 15948.1 8
0 -4 3 374356 16355.6 2
0 4 -2 34607.3 1813.48 6
0 -4 2 34467.5 2401.77 3
0 -4 2 30916.7 2364.55 2
0 4 -2 33476.8 2248.67 3
0 -4 1 138962 6011.46 3
0 4 -1 141711 6325.67 2
0 -4 0 284.68 189.812 3
0 4 0 54.3077 108.17 3
0 4 0 177.317 233.313 2
0 4 1 21611.2 1957.61 2
0 -4 -1 22520 1592.51 3
0 4 1 19925.3 1112.38 5
0 -4 -2 4777.55 666.191 3
0 4 2 4550.3 876.339 2
0 4 2 5033.76 504.279 5
0 4 3 71779.6 3238.6 5
0 4 3 77220.8 4555.37 2
0 -4 -3 75046.1 3615.21 3
0 4 4 12431.3 1687.15 2
0 4 4 9464.99 910.497 5
0 -4 -4 11092.1 864.624 5
0 -4 -5 979.061 264.027 5
0 -4 -5 770.01 394.676 2
0 4 5 1665.93 648.148 2
0 -4 -6 123507 7230.98 1
0 -4 -6 136288 7223.71 2
0 4 6 140931 7802.78 2
0 -4 -6 147273 6670.14 7
0 -4 -6 137725 6077.74 5
0 -4 -7 1991.15 770.501 1
0 4 7 1334.2 699.169 2
0 4 7 809.768 434.066 8
0 -4 -7 838.339 407.528 7
0 -4 -7 739.329 420.056 2
0 -4 -7 571.578 283.274 5
0 -4 -8 156026 7262.64 5
0 4 8 157401 8994.18 2
0 -4 -8 141782 7405.52 7
0 -4 -9 15266.1 1924.19 7
0 4 9 16876 2585.99 2
0 -4 -9 16652.9 1899.71 5
0 -4 -10 7770.87 1379.53 7
0 4 10 6928.3 1632.57 2
0 -4 -10 7033.95 1295.57 5
0 -4 -11 12583.7 1847.48 5
0 -4 -11 12067.4 1889.89 7
0 4 11 13086.2 2453.35 2
0 -4 -11 12688.6 1257.86 4
0 4 12 86492.1 7174.75 2
0 -4 -12 84759.3 5934.85 7
0 -4 -12 76892.5 5547.15 5
0 -4 -13 5538.33 1371.2 5
0 4 13 8369.22 2091.53 2
0 4 14 83486.6 7335.48 2
0 -4 -14 81786.5 6062.07 5
0 -4 -15 12731 2228.58 5
0 4 15 11917.7 2640.27 2
0 5 -18 101664 7428.53 8
0 5 -17 17683.9 2772.22 8
0 -5 17 19502.5 2577.5 2
0 -5 17 21409.1 3550.73 1
0 5 -17 24315.6 3643.12 5
0 -5 16 22551.8 2737.1 2
0 5 -16 22113.6 2982.4 8
0 -5 16 16004 2972.46 1
0 -5 15 17335 2972.56 1
0 5 -15 20525.8 3299.32 5
0 5 -15 13066.9 2209.22 8
0 -5 14 18046.8 1733.38 4
0 -5 14 23119.6 3223.95 1
0 5 -14 23118 2880.15 8
0 5 -13 3734.87 1055.03 8
0 -5 13 3335.24 1323.49 3
0 -5 12 79513 7089.83 3
0 -5 12 59553.5 3610.33 6
0 5 -12 73766.2 5029.55 8
0 -5 11 23653.6 2531.19 8
0 -5 11 22292.1 1765.67 6
0 -5 11 24918.1 3607.91 3
0 5 -11 23884.4 2539.76 8
0 -5 10 27012.4 1850.46 6
0 5 -10 28288.2 2689.72 8
0 -5 10 26806.4 2546.9 8
0 5 -9 10611.3 1484.69 8
0 -5 9 10295.6 2054.35 3
0 -5 9 10438.6 975.058 6
0 -5 9 11743.2 1509.95 8
0 5 -8 41092.6 4057.77 3
0 -5 8 38853.2 2144.4 6
0 -5 8 46989.2 4267.09 3
0 5 -8 39147.6 2945.18 8
0 5 -7 62563.2 4758.28 3
0 5 -7 56888.2 3610.04 8
0 -5 7 56492.7 2762.87 6
0 5 -6 39112.3 2756.66 8
0 -5 6 46607.6 3840.99 3
0 5 -6 38979.9 3433.29 3
0 -5 5 4738 1050.73 3
0 5 -5 4092.91 970.01 3
0 5 -5 3171.3 422.582 6
0 5 -5 3260.81 678.523 8
0 5 -4 891.385 432.213 3
0 -5 4 1161.24 520.996 3
0 5 -4 1054.43 238.748 6
0 5 -4 1341.48 410.78 8
0 5 -3 116156 4774.45 6
0 -5 3 110940 5960.7 3
0 5 -3 104244 5582.12 3
0 5 -2 330006 12361.3 6
0 -5 2 338908 13434.3 3
0 5 -2 302286 12891.5 3
0 -5 1 109202 5243.07 3
0 5 -1 91157.1 4705.27 3
0 5 -1 112083 5674.43 2
0 -5 1 94749 5391.02 2
0 5 0 315026 12608.4 2
0 -5 0 278836 11702.9 3
0 5 0 284880 10683.4 5
0 5 1 1920.16 627.763 2
0 -5 -1 2079.65 491.186 3
0 5 1 1480.07 270.138 5
0 5 2 8559.81 726.063 5
0 5 2 9306.3 1410.85 2
0 -5 -2 9993.99 1114.93 3
0 -5 -3 10112.6 1474.07 1
0 5 3 7845.35 754.452 5
0 -5 -3 10273.6 1136.91 3
0 5 3 9145.58 1457.77 2
0 -5 -4 83787.9 5225.47 1
0 5 4 76683.3 3733.02 5
0 -5 -4 77808.4 5030.29 2
0 -5 -4 91479.8 4488.29 7
0 -5 -4 83164.4 4285.95 3
0 5 4 96717.2 5669.65 2
0 -5 -5 15762.2 1168.26 5
0 -5 -5 13115.2 1462.64 7
0 -5 -5 11922.2 1763.71 1
0 -5 -5 16365.7 1522.19 3
0 -5 -5 12980 1804.73 2
0 5 5 16663.5 2168.35 2
0 5 6 41117.1 3756.78 2
0 -5 -6 33956.9 2646.07 7
0 -5 -6 35384.5 2144.92 5
0 -5 -7 11681 1526.87 7
0 5 7 12522.3 2070.96 2
0 -5 -7 12269.3 1211.86 5
0 5 8 2449.97 1042.65 2
0 -5 -8 1311.42 537.283 7
0 -5 -8 1200.41 412.687 5
0 5 9 79132.5 6369.69 2
0 -5 -9 69450.7 4225.35 5
0 -5 -9 75070.9 4873.4 7
0 -5 -10 4594.48 968.278 5
0 -5 -10 3517.97 973.72 7
0 5 10 4668.76 1382.87 2
0 -5 -11 29656.5 2845.83 5
0 5 11 34208.1 4344.72 2
0 -5 -11 32325.4 3325.53 7
0 -5 -11 34903.1 2613.02 4
0 -5 -12 6048.41 1247.24 5
0 -5 -12 7834.1 1651.79 7
0 5 12 8954.49 2230.73 2
0 5 13 22778.3 3733.53 2
0 -5 -13 22187.9 2690.45 5
0 -5 -13 23651.1 3089.76 7
0 5 14 679.761 646.465 2
0 6 -18 2323.63 1024.58 8
0 6 -17 99838.7 7258.09 8
0 -6 16 6166.43 1813.11 1
0 6 -16 7986.91 2167.26 5
0 6 -16 4661.06 1352.37 8
0 6 -15 84815.1 6324.52 8
0 -6 15 94595.1 7201.36 1
0 -6 14 24947.1 4155.29 3
0 6 -14 19251.6 2592.03 8
0 -6 13 422.088 703.555 3
0 6 -13 967.303 581.35 8
0 -6 12 68.6556 587.954 3
0 6 -12 -133.896 257.976 8
0 -6 11 86650.4 7253.07 3
0 6 -11 90792.4 5547.16 8
0 -6 11 80818.3 4008.94 6
0 6 -10 16946.8 2031.39 8
0 -6 10 17927.4 1347.32 6
0 -6 10 18879.5 3002.63 3
0 6 -9 55221.9 3840.16 8
0 -6 9 52227.6 2705.53 6
0 -6 8 12334.1 1772.4 2
0 -6 8 16421.9 2522.38 3
0 6 -8 15096.5 1761.23 8
0 6 -7 11067.8 1863.52 3
0 6 -7 12988.7 1565.17 8
0 -6 7 15307.7 2300.48 3
0 -6 7 11651.7 1689.42 2
0 6 -6 38075.2 2038.81 6
0 -6 6 36525.5 3569.31 3
0 6 -6 36787.8 3347 3
0 6 -6 38611.1 2799.88 8
0 -6 6 29600.8 2895.38 2
0 6 -5 43603.7 2275.98 6
0 6 -5 41118 3405.88 3
0 -6 5 36984.9 3221.44 2
0 -6 5 48360.1 3876.16 3
0 6 -5 42739.5 2966.38 8
0 6 -4 19135.3 2100.62 3
0 6 -4 22155.4 1985.33 8
0 -6 4 19577.4 2194.17 2
0 -6 4 23164 2479.72 3
0 6 -4 22563 1479.39 6
0 6 -3 90.984 141.857 6
0 6 -3 -4.12571 219.396 3
0 -6 3 275.887 340.296 3
0 -6 2 17266.3 2041.4 2
0 6 -2 16732.9 1680.9 3
0 6 -2 19759.5 1525.34 6
0 -6 2 20947.1 2121.21 3
0 -6 1 108520 6454.49 2
0 6 -1 113239 5651.77 3
0 6 -1 128121 5601.4 6
0 -6 1 127573 6279.54 3
0 6 0 131096 5386.13 5
0 -6 0 124334 7113.34 2
0 -6 0 141264 6708.3 3
0 6 1 321243 13601.7 2
0 6 1 295338 11078.8 5
0 -6 -1 301586 12391 3
0 -6 -1 273432 13072.3 2
0 6 2 3452.48 455.891 5
0 6 2 4114.29 1039.43 2
0 -6 -2 2817.98 881.681 2
0 -6 -2 3937.91 768.294 3
0 -6 -3 55556.2 3367.2 3
0 6 3 47570.7 2470.39 5
0 6 3 54203.4 4198.79 2
0 6 4 20512 2519.55 2
0 -6 -4 17972.4 1769.8 7
0 -6 -4 17514.2 1754.98 3
0 6 4 16955.6 1312.88 5
0 -6 -5 23487.5 2104.96 3
0 -6 -5 23256.9 2114.18 7
0 6 5 23530 2851 2
0 6 6 12028.8 2086.31 2
0 -6 -6 12873.4 1590.98 7
0 -6 -6 12601.2 1523.22 3
0 -6 -7 86757.2 4231.02 5
0 -6 -7 87378.8 5199.79 7
0 -6 -7 88093.5 5052.96 3
0 6 7 94300.4 6807.67 2
0 -6 -8 1532.37 505.244 3
0 -6 -8 1523.74 606.428 7
0 -6 -8 1260.15 387.361 5
0 6 8 1490.19 640.932 2
0 6 9 18569.8 3119.25 2
0 -6 -9 18420.6 2219.47 7
0 -6 -9 17372.2 1657.75 5
0 -6 -10 31228.9 2537.95 5
0 6 10 40076.5 4772.46 2
0 -6 -10 34928 3341.04 7
0 -6 -11 -605.155 642.488 7
0 6 11 937.799 723.779 2
0 6 12 32014.8 4610.84 2
0 -6 -12 25956.6 3225.28 7
0 -6 -13 38.1167 360.063 7
0 7 -17 589.072 692.15 8
0 -7 16 42614.2 4755.86 1
0 7 -16 43754 4421.85 8
0 7 -15 1165.05 652.923 8
0 -7 15 2347.09 1574.66 3
0 7 -14 112652 7479.96 8
0 -7 14 137339 10655.3 3
0 7 -13 20822.3 2638.54 8
0 -7 13 19883 3593.27 3
0 7 -12 8026.4 1570.81 8
0 -7 12 7471.42 2102.43 3
0 7 -11 14234.3 2002.26 8
0 -7 11 14768.4 2883.05 3
0 7 -10 71817.8 4903.13 8
0 -7 10 85187.9 6975.79 3
0 -7 9 6924.81 1745.25 3
0 7 -9 7593.87 1301.02 8
0 7 -8 130011 6767.63 8
0 -7 8 142100 8690.03 3
0 7 -7 41608.8 2229.99 6
0 -7 7 43293.8 4230.29 3
0 7 -7 39641.6 3129.5 8
0 -7 7 30905.7 3189.35 2
0 7 -6 36698.4 2930.1 8
0 -7 6 36727.2 3757.87 3
0 7 -6 35877.8 2054.33 6
0 -7 6 26950.6 2932.41 2
0 -7 5 790.282 570.097 3
0 7 -5 459.398 214.33 6
0 7 -5 178.54 221.033 8
0 7 -5 420.338 394.29 3
0 -7 5 1372.61 605.813 2
0 7 -4 6457.13 786.636 6
0 7 -4 4730.8 1040.27 3
0 -7 4 6187.38 1334.11 3
0 7 -4 4884.5 957.096 8
0 -7 4 4593.84 1088 2
0 -7 3 34971.2 3359.55 2
0 7 -3 41691.5 2532.12 6
0 -7 3 41652.4 3558.45 3
0 7 -3 39147.9 3067.46 3
0 -7 2 2797.78 745.267 3
0 7 -2 2555.41 558.984 6
0 7 -2 2658.77 654.34 3
0 7 -1 182.665 118.94 5
0 7 -1 -24.0574 131.425 6
0 -7 0 26597.2 2476.88 3
0 7 0 23433.1 1469.9 5
0 7 0 30249.9 2983.33 2
0 -7 -1 50248.6 3616.35 3
0 7 1 51050.9 2516.62 5
0 7 2 129838 5453.1 5
0 7 2 150767 8210.46 2
0 -7 -2 136066 6886.56 3
0 7 3 34099.8 1983.89 5
0 7 3 42709.6 3931.61 2
0 -7 -3 40112.1 3010.71 3
0 -7 -4 95696.7 5318.21 3
0 -7 -4 86707 5005.97 7
0 7 4 102684 6771.28 2
0 7 4 86601 4141.83 5
0 -7 -5 8645.81 1312.99 7
0 7 5 11452.7 2133.38 2
0 -7 -5 10467.8 1473.57 3
0 -7 -6 3284.71 847.133 3
0 7 6 3065.59 1092.11 2
0 -7 -6 4378.01 964.526 7
0 7 7 10402 2334.64 2
0 -7 -7 10855.8 1648.85 7
0 -7 -7 14199.9 1826.05 3
0 -7 -8 80820 5170.5 3
0 -7 -8 74137.8 5091.83 7
0 7 8 84771.9 7159.77 2
0 7 9 4741.69 1678.83 2
0 -7 -9 4611.52 1139.37 7
0 -7 -9 4932.24 1104.7 3
0 7 10 45289.1 5563.7 2
0 -7 -10 42887.5 3904.74 7
0 7 11 3458.56 1661.5 2
0 -7 -11 2270.08 860.668 7
0 -7 -12 -113.954 284.327 7
0 8 -16 4409.68 1352.54 8
0 8 -15 7727.66 1695.54 8
0 8 -14 992.015 555.612 8
0 -8 14 1987.02 1262.2 3
0 -8 13 97227.3 8683.91 3
0 8 -13 79488.5 5874.36 8
0 -8 12 9344.24 2373.85 3
0 8 -12 8441.41 1606.38 8
0 -8 11 40929.8 5018.85 3
0 8 -11 34704.7 3341.78 8
0 8 -10 22462.7 2569.16 8
0 -8 10 27772.2 3970.82 3
0 8 -9 20203 2402.06 8
0 -8 9 22627.7 3368.6 3
0 8 -8 831.036 622.82 8
0 -8 8 -124.854 513.214 3
0 -8 7 165332 10281.9 3
0 8 -7 183027 7244.7 6
0 8 -7 157196 8580.06 8
0 8 -6 39169 2350.03 6
0 -8 6 47196.8 4470.65 3
0 8 -6 40467.1 3344.82 8
0 8 -5 66003.8 3420.82 6
0 -8 5 66074.7 5301.72 3
0 8 -5 64394.2 4404.95 8
0 -8 4 38883.7 3787.26 3
0 8 -4 37887.7 2437.38 6
0 8 -4 36843.9 3120.56 8
0 -8 3 3112.46 966.091 3
0 8 -3 4395.07 839.549 6
0 -8 2 15531.4 2147.09 3
0 8 -2 13138.2 1667.53 3
0 8 -2 15220.5 1563.48 6
0 8 -2 13780 1208.53 5
0 -8 1 588.133 312.166 3
0 8 -1 1014.39 415.478 6
0 8 -1 1426.11 341.013 5
0 -8 0 11029.8 1707.59 3
0 8 0 10192.2 904.403 5
0 8 0 10772.7 1396.19 6
0 -8 -1 4998.27 1135.61 3
0 8 1 5587.88 1437.89 2
0 8 1 5298.25 603.469 5
0 8 2 10315.2 1978.81 2
0 -8 -2 11174.7 1671.05 3
0 8 2 8339.51 784.662 5
0 8 3 62954.1 5332.83 2
0 -8 -3 60419.5 4368.33 3
0 -8 -4 26470.5 2514.03 7
0 -8 -4 32992.3 2982.56 3
0 8 4 29767.5 3646.49 2
0 8 5 106449 7700.05 2
0 -8 -5 103795 6083.46 3
0 -8 -5 86899.8 5484.5 7
0 8 6 1102.28 953.844 2
0 -8 -6 -234.04 432.161 7
0 -8 -6 486.045 438.861 3
0 -8 -7 8723.75 1511.39 7
0 -8 -7 10847.3 1707.66 3
0 8 7 14510.5 2802.74 2
0 8 8 20156.8 3487.82 2
0 -8 -8 18756.3 2384.14 7
0 -8 -9 31682.2 3279.64 7
0 -8 -10 4111.44 1145.86 7
0 -8 -11 53515.5 4837.28 7
0 9 -15 25537.3 3281.95 8
0 9 -14 561.449 696 8
0 9 -13 675.529 326.039 8
0 -9 12 31110.3 4666.17 3
0 9 -12 25742.5 3051.63 8
0 9 -11 1865.53 797.487 8
0 -9 11 2232.89 1130.46 3
0 -9 10 53999.1 5887.59 3
0 9 -10 49989.7 4260.03 8
0 -9 9 19959.6 3321.74 3
0 9 -9 16901.6 2280.46 8
0 -9 8 1211.76 802.292 3
0 9 -8 1495.5 720.98 8
0 9 -7 3587.71 985.446 8
0 -9 7 5579.84 1680.33 3
0 9 -6 78766.6 5423.17 8
0 -9 6 82019.7 6657.96 3
0 9 -6 86085.7 4174.15 6
0 9 -5 24656 2652.33 8
0 9 -5 24862.8 1893.1 6
0 -9 5 23674.4 3256.55 3
0 9 -4 115539 5642.69 6
0 9 -4 119643 6871.43 8
0 -9 4 119100 7909.51 3
0 9 -3 39004 2759.72 6
0 -9 3 34636 3812.01 3
0 9 -2 15781.6 1721.99 6
0 -9 2 14583 2300.17 3
0 9 -1 55.7237 248.609 6
0 -9 1 135.098 229.867 3
0 9 0 5270.52 1031.38 6
0 -9 0 4194.94 1156.83 3
0 9 1 13956.8 1826.54 6
0 -9 -1 19475.2 2484.05 3
0 -9 -2 2249.9 864.899 3
0 9 2 1359.79 574.631 2
0 9 2 446.96 331.787 6
0 9 3 2403.85 1136.33 2
0 -9 -3 1713.36 632.837 3
0 -9 -4 17440.4 2365.31 3
0 9 4 18012.4 2932.47 2
0 -9 -4 13925.8 1876.31 7
0 9 5 13193.3 2674.06 2
0 -9 -5 12198 1779.4 7
0 9 6 56075.4 5814.18 2
0 -9 -6 44552.1 3810.68 7
0 -9 -7 5343.41 1266 7
0 -9 -8 28255.6 3099.82 7
0 -9 -9 3508.91 1058.11 7
0 10 -13 842.258 709.749 8
0 10 -12 11722.6 2107.6 8
0 10 -11 1634.17 756.994 8
0 10 -10 -148.985 216.863 8
0 -10 10 1456.74 891.756 3
0 10 -9 38364.1 3732.66 8
0 -10 9 33676.2 4666.96 3
0 10 -8 2778.22 973.479 8
0 -10 8 1561.74 865.579 3
0 10 -7 13439.7 2062.31 8
0 -10 7 14167.7 2753.13 3
0 -10 6 2754.26 1201.06 3
0 10 -6 4712.47 1176.17 8
0 -10 5 14922.2 2711.09 3
0 10 -5 10821.9 1869.96 8
0 10 -4 4600.07 1185.45 8
0 -10 4 4474.79 1447.44 3
0 -10 3 113484 7988.74 3
0 10 -3 106056 6793.28 8
0 10 -3 106363 5652.53 6
0 -10 2 40918.8 4412.75 3
0 10 -2 40874.8 3141.61 6
0 10 -1 24372.1 2456.75 6
0 -10 1 31337.2 3700.57 3
0 -10 0 19090.4 2820.61 3
0 10 0 14056.4 1906.25 6
0 10 1 1284.91 608.153 6
0 -10 -1 2167.28 889.688 3
0 10 2 8195.23 1551.77 6
0 -10 -2 7532.07 1708.4 3
0 -10 -3 13877.8 1927.19 7
0 10 3 13863.1 2100.2 6
0 -10 -4 9748.06 1645.95 7
0 10 4 8910.19 1747.45 6
0 -10 -5 6892.13 1377.31 7
0 -10 -6 1105.57 570.435 7
0 11 -10 85.675 394.619 8
0 11 -9 9112.3 1842.71 8
0 11 -8 9760.29 1919.08 8
0 -11 8 7867.09 2178.09 3
0 11 -7 764.298 531.191 8
0 -11 7 -214.121 724.396 3
0 -11 6 17654.9 3228.22 3
0 11 -6 15771 2414.86 8
0 -11 5 3533.1 1334.1 3
0 11 -5 3210.34 1039.08 8
0 -11 4 654.087 577.738 3
0 11 -4 128.376 426.104 8
0 11 -3 329.557 517.258 8
0 -11 3 433.797 336.467 3
0 11 -2 64563.1 5293.36 8
0 -11 2 69195.4 6399.86 3
0 -11 1 21789.7 3414.98 3
0 -11 -3 301.139 149.803 7
1 -12 2 22576.9 3600.72 3
1 -12 3 18619.3 3286.78 3
1 -12 4 15484.4 3005.03 3
-1 12 -4 15420.7 2423.77 8
-1 12 -5 3729.91 1159.62 8
-1 12 -6 -644.667 727.623 8
-1 11 3 -69.5688 192.926 6
1 -11 -3 208.096 168.202 7
1 -11 -2 15816.3 2678.95 3
-1 11 2 15547.7 2288.3 6
-1 11 1 31.6725 174.679 6
1 -11 -1 668.459 487.54 3
-1 11 0 584.201 419.87 6
1 -11 0 434.989 617.905 3
-1 11 -1 103.757 210.859 6
1 -11 1 -86.9375 446.297 3
1 -11 2 63614.4 5822.74 3
1 -11 3 10819.3 2321.64 3
-1 11 -3 7859.48 1625.41 8
1 -11 4 55171.9 5493.58 3
-1 11 -4 53087.8 4394.88 8
1 -11 5 42469.2 4834.73 3
-1 11 -5 43162.6 3891.36 8
-1 11 -6 2151.72 787.873 8
1 -11 6 1426.62 860.825 3
-1 11 -7 2223.65 791.213 8
1 -11 7 1946.34 1173.08 3
1 -11 8 31500.9 4423.68 3
-1 11 -8 23650.9 2923.76 8
-1 11 -9 16926.8 2412.45 8
-1 11 -10 21257.4 2769.73 8
1 -10 -7 10774.9 1887.8 7
-1 10 6 44741.2 4617.41 6
1 -10 -6 46978.1 4046.28 7
-1 10 5 964.082 589.372 6
1 -10 -5 -305.905 380.496 7
-1 10 4 32224.8 3510.2 6
1 -10 -4 34577.5 3292.92 7
1 -10 -3 651.453 574.43 3
-1 10 3 405.429 445.811 6
1 -10 -2 483.285 243.6 3
-1 10 2 33.6446 266.986 6
1 -10 -1 5175.95 1385.01 3
-1 10 1 4873.46 1151.42 6
1 -10 0 3640.78 1067.07 3
-1 10 0 3873.88 1003.41 6
-1 10 -1 9323.29 1487.33 6
1 -10 1 7947.96 1718.16 3
1 -10 2 -392.655 585.146 3
-1 10 -2 17.303 186.958 6
-1 10 -3 16853 1853.6 6
1 -10 3 19277.7 2838.11 3
-1 10 -4 3771.31 846.237 6
1 -10 4 4254.59 1465.44 3
-1 10 -4 4341.04 1123.68 8
1 -10 5 81532.8 6577.04 3
-1 10 -5 83978.7 5449.5 8
-1 10 -5 78175 4464.85 6
-1 10 -6 39073.1 3503.2 8
1 -10 6 40010.1 4552.2 3
-1 10 -7 16116.9 2193.43 8
1 -10 7 20768.3 3233.61 3
-1 10 -8 14917.2 2141.4 8
1 -10 8 18540.4 3149.25 3
-1 10 -9 15121.4 2136.31 8
1 -10 9 16622.9 3063.42 3
1 -10 10 5130.7 1670.32 3
-1 10 -10 4699.35 1156.71 8
1 -10 11 44739.8 5550.25 3
-1 10 -11 43002.7 4017.46 8
-1 10 -12 34299.5 3642.92 8
-1 10 -12 58735.7 6176.35 5
-1 10 -13 16904.6 3286.74 5
1 -9 -9 34631.5 3557.6 7
1 -9 -8 211.627 264.616 7
1 -9 -7 5808.52 1425.11 3
1 -9 -7 4234.63 1101.19 7
-1 9 7 3617.44 1416.65 2
-1 9 6 14356.6 2878.38 2
1 -9 -6 9801.64 1674.83 7
1 -9 -6 15149.8 2251.72 3
1 -9 -5 51413.1 4338.84 3
-1 9 5 55331.6 5566.33 2
1 -9 -5 46770.2 3832.34 7
1 -9 -4 6709.67 1289.47 7
-1 9 4 6234.79 1742.9 2
1 -9 -4 6568.6 1440.67 3
-1 9 3 140608 8130.49 6
1 -9 -3 165085 8728.7 3
1 -9 -2 2003.78 824.482 3
-1 9 2 2567.25 815.464 6
-1 9 1 26813.9 2643.96 6
1 -9 -1 29786.8 3111.57 3
1 -9 0 502.429 201.562 3
-1 9 0 811.835 433.826 6
1 -9 1 5028.26 1208.65 3
-1 9 -1 4460.8 943.92 6
-1 9 -2 3129.11 759.211 6
1 -9 2 3359.42 1001.32 3
1 -9 3 3307.54 990.99 3
-1 9 -3 4843 883.671 6
-1 9 -4 211.546 212.028 8
-1 9 -4 395.566 222.872 6
-1 9 -5 3087.25 723.484 6
-1 9 -5 4901.36 1072.3 8
1 -9 5 2682.4 1095.55 3
1 -9 6 71359.6 5779.06 3
-1 9 -6 66557.3 3729.08 6
-1 9 -6 65524.7 4534.78 8
1 -9 7 36196.3 4090.01 3
-1 9 -7 32080.8 3001.57 8
-1 9 -7 37834 2485.58 6
1 -9 8 71188.5 6222.35 3
-1 9 -8 61777.5 4596.57 8
-1 9 -8 75937.6 3901.61 6
1 -9 9 53460.9 5335.75 3
-1 9 -9 41521.3 3610.16 8
-1 9 -10 1102.35 591.633 8
1 -9 10 -406.481 635.132 3
1 -9 11 -628.64 667.655 3
-1 9 -11 -70.2838 236.438 8
-1 9 -12 45219.5 4054.96 8
1 -9 12 47576.9 5740.67 3
-1 9 -13 35756.5 3724.94 8
-1 9 -13 54917 5978.53 5
1 -9 13 47442.6 5757 3
-1 9 -14 43109.3 5271.18 5
-1 9 -14 28779.5 3332.89 8
1 -8 -11 5164.25 1358.3 7
-1 8 10 16246.9 3504.91 2
1 -8 -10 14997.1 2313.9 7
-1 8 9 534.231 765.19 2
1 -8 -9 2174.58 792.71 3
1 -8 -9 1778.54 689.144 7
-1 8 8 54189.7 5867.94 2
1 -8 -8 47678.8 4132.06 3
1 -8 -8 43078.6 3811.42 7
1 -8 -7 2618.7 866.396 3
-1 8 7 2770.69 1184.94 2
1 -8 -7 2004.68 755.125 7
-1 8 6 38790 4504.02 2
1 -8 -6 33476.7 3049.77 7
1 -8 -6 34010 3250.48 3
1 -8 -5 5056.08 1062.72 7
1 -8 -5 5074.78 1157.31 3
-1 8 5 3738.27 1208.14 2
1 -8 -4 27794 2580.97 7
1 -8 -4 31590.4 2952.73 3
-1 8 4 29272.9 3624.39 2
-1 8 3 28287.5 3440.02 2
1 -8 -3 26733.5 2684.43 3
1 -8 -2 234949 10726.7 3
-1 8 2 206474 10258.1 6
-1 8 2 230099 11938 2
1 -8 -1 373.251 291.219 3
-1 8 1 681.495 391.75 6
-1 8 0 122524 6033.37 6
1 -8 0 127356 6704.47 3
-1 8 -1 6198.33 1065.83 6
1 -8 1 6864.04 1320.51 3
-1 8 -1 7157.86 606.632 5
-1 8 -2 2389.41 623.282 6
1 -8 2 1323.34 422.751 3
-1 8 -3 1079.64 389.134 6
1 -8 3 400.789 289.038 3
-1 8 -4 34677.4 2427.27 6
1 -8 4 39107.4 3604.78 3
-1 8 -4 35754.7 2836.38 8
1 -8 5 6289.94 1441.05 3
-1 8 -5 5736.68 853.384 6
-1 8 -5 4781.35 960.013 8
1 -8 6 26355.7 3114.24 3
-1 8 -6 24659.3 1891.83 6
-1 8 -6 25843.6 2399.11 8
-1 8 -7 16576 1458.87 6
1 -8 7 14212.3 2362.41 3
-1 8 -7 15133.5 1844.25 8
-1 8 -8 14166.3 1787.02 8
1 -8 8 14568.8 2456.59 3
-1 8 -9 70909.2 4745.58 8
1 -8 9 83382.1 6547.3 3
1 -8 10 46200.1 4918.65 3
-1 8 -10 40720.4 3450.92 8
-1 8 -11 8719.79 1507.49 8
1 -8 11 9580.82 2229.56 3
-1 8 -12 6035.69 1314.41 8
1 -8 12 3635.91 1369.35 3
1 -8 13 38128.8 5038.62 3
-1 8 -13 42140.5 3912.21 8
-1 8 -14 22745.3 2867.16 8
1 -8 14 20932.4 3789 3
-1 8 -15 85844.4 7544.78 5
-1 8 -15 54099.9 4895.08 8
1 -7 -12 5888.93 1460.69 7
-1 7 12 7692.53 2250.18 2
-1 7 11 21585.8 3879.41 2
1 -7 -11 21015.7 2707.34 7
-1 7 10 37008 5003.89 2
1 -7 -10 36681.2 3536.75 7
1 -7 -10 34563.9 3392.3 3
-1 7 9 17021.4 3149.61 2
1 -7 -9 18785.3 2319.67 3
1 -7 -9 13587.3 2018.19 7
1 -7 -8 5517.42 1203.78 3
1 -7 -8 5016.49 1111.35 7
-1 7 8 4156.93 1488.17 2
-1 7 7 20887 3148.99 2
1 -7 -7 19701.3 2195.33 7
1 -7 -7 21702.7 2348.14 3
1 -7 -6 12749.9 1743.57 3
1 -7 -6 11035.7 1543.64 7
-1 7 6 12117.1 2248.78 2
-1 7 5 38219 3998.16 2
1 -7 -5 38081.4 3102.39 3
1 -7 -5 37234.9 2961.04 7
-1 7 4 378.468 397.059 2
1 -7 -4 1058.04 471.18 3
-1 7 3 1804.89 754.52 2
1 -7 -3 854.29 466.085 3
-1 7 2 17472.3 2412.16 2
1 -7 -2 18923.5 2001.36 3
1 -7 -1 175605 8296.49 3
-1 7 1 162125 7979.55 6
-1 7 1 185669 9452.51 2
-1 7 0 1358.11 491.077 6
-1 7 0 2045.12 272.755 5
-1 7 -1 278090 11399.9 6
1 -7 1 266860 12075.9 3
-1 7 -2 18796.9 1681.19 6
1 -7 2 15061.5 2017.53 2
-1 7 -2 17268.3 1824.23 3
1 -7 2 20973 2212.38 3
1 -7 3 13210 1791.84 3
-1 7 -3 12621.9 1609.83 3
-1 7 -3 13216.4 1308.13 6
1 -7 3 9226.51 1581.31 2
1 -7 4 16882.6 2166.51 2
1 -7 4 21216.2 2407.07 3
-1 7 -4 17336.2 2043.39 3
-1 7 -4 20485.1 1616.12 6
-1 7 -4 19705.8 1889.26 8
-1 7 -5 83339 4531.28 8
1 -7 5 82515.1 5522.8 3
-1 7 -5 76801.2 3902.92 6
1 -7 5 73375.1 5128.01 2
-1 7 -6 2893.58 534.566 6
-1 7 -6 2484.68 641.732 8
1 -7 6 2353.09 833.976 2
1 -7 6 1889.75 786.843 3
1 -7 7 70095.5 5377.03 3
-1 7 -7 68681.2 4232.69 8
-1 7 -7 72829.5 3672.08 6
-1 7 -8 816.179 337.89 8
1 -7 8 1445.48 608.103 3
-1 7 -9 12406.4 1604.29 8
1 -7 9 12480.6 2233.78 3
1 -7 9 9327.02 1086.96 6
1 -7 10 32722.5 3883.91 3
-1 7 -10 27840.8 2648.23 8
1 -7 10 26530 2025.94 6
-1 7 -11 27094 2753.43 8
1 -7 11 32256.5 4066.73 3
1 -7 12 28749.7 3974.99 3
-1 7 -12 29327.3 3006.22 8
1 -7 13 13997.1 2841.25 3
-1 7 -13 15200.1 2210.49 8
-1 7 -14 16198.1 3181.91 5
-1 7 -14 12906.7 2133.98 8
1 -7 14 9698.41 2437.86 3
-1 7 -15 5988.69 1943.42 5
-1 7 -15 3073.51 1017.06 8
1 -7 15 2340.98 1149.2 3
-1 7 -16 98168.6 8037.03 5
-1 7 -16 56696.7 5165.81 8
-1 6 13 43030.8 5479.23 2
1 -6 -13 40569.6 4201.66 7
1 -6 -12 -584.941 484.275 7
-1 6 12 -384.914 1096.6 2
1 -6 -11 2707.29 945.761 7
-1 6 11 2113.66 1100.27 2
1 -6 -10 54120.2 4329.9 7
-1 6 10 61001 6004.81 2
1 -6 -10 56493.3 3488.52 5
-1 6 9 71424.1 6218.99 2
1 -6 -9 63575.9 3540.71 5
1 -6 -9 59089.7 4404.66 7
1 -6 -8 28901.8 2785.1 7
1 -6 -8 31334.7 2034.33 5
-1 6 8 33262.2 3931.51 2
1 -6 -7 37855.2 3044.62 7
-1 6 7 39466 4155.95 2
1 -6 -7 38329.7 2143.03 5
-1 6 6 22632.2 2911.3 2
1 -6 -6 21651.3 2106.18 3
1 -6 -6 19244.2 2007.72 7
-1 6 5 19.1741 224.115 2
1 -6 -5 148.946 183.069 7
1 -6 -5 20.2838 178.575 3
1 -6 -4 37565.9 2828.1 3
-1 6 4 44901.5 3870.44 2
-1 6 3 16304.9 2132.77 2
1 -6 -3 11774.2 1699.7 1
1 -6 -3 13083.6 1756.46 2
1 -6 -3 13980.6 1534.51 3
1 -6 -2 23220.9 2022.27 3
-1 6 2 22212.5 2468.2 2
1 -6 -2 21305.7 2291.91 2
-1 6 1 527.899 119.346 5
-1 6 1 607.044 376.775 2
1 -6 -1 1227.11 471.049 3
1 -6 -1 993.548 428.576 2
1 -6 0 63952.6 3693.13 3
-1 6 0 61537.8 3427.09 6
-1 6 0 52653.3 2272.46 5
1 -6 0 57070.9 3940.65 2
-1 6 -1 31329.5 2368.23 3
1 -6 1 31375.9 2776.94 2
-1 6 -1 36310.9 2386.02 6
-1 6 -2 255690 10092.6 6
1 -6 2 216846 10903.9 2
1 -6 2 277955 11095 3
-1 6 -2 236288 10452.8 3
-1 6 -3 12504 1176.65 6
1 -6 3 14660.6 1751.94 3
-1 6 -3 13815.1 1593.53 3
1 -6 3 13133 1712.7 2
1 -6 4 137158 7081.05 3
1 -6 4 121716 6820.01 2
-1 6 -4 121593 6678.79 3
-1 6 -4 134489 5723.2 6
-1 6 -4 134075 6132.62 8
1 -6 5 32241.4 2943.71 2
-1 6 -5 35544.9 2500.87 8
-1 6 -5 37526.6 3160.73 3
1 -6 5 39199.9 3291.74 3
-1 6 -5 39326.7 2233.03 6
-1 6 -6 25068.3 1712.43 6
-1 6 -6 23121 2554.34 3
1 -6 6 23197.2 1704.81 6
-1 6 -6 26550.2 2082.9 8
1 -6 6 27641 2839.6 3
-1 6 -7 442.953 451.49 3
-1 6 -7 475.186 215.987 8
1 -6 7 67.6213 233.9 3
1 -6 7 608.693 252.455 6
-1 6 -7 19.9645 72.2937 6
-1 6 -8 110734 5744.22 8
1 -6 8 124011 7425.97 3
1 -6 8 105564 5067.16 6
1 -6 9 20040.4 1662.84 6
1 -6 9 22453.4 2909.35 3
-1 6 -9 19266.3 2003.71 8
1 -6 10 56854.5 3399.31 6
-1 6 -10 67761.4 4318.17 8
1 -6 10 64699.6 5497.74 3
1 -6 11 4514.93 1005.36 8
1 -6 11 4755.66 1405.31 3
-1 6 -11 5473.54 1173.79 8
-1 6 -12 12753.9 1881.22 8
1 -6 12 11327.6 2458.92 3
1 -6 12 12280.5 1746.3 8
-1 6 -13 39999 4809.5 5
1 -6 13 30827.9 4272.97 3
-1 6 -13 27982.9 3061.7 8
1 -6 14 10931.9 2587.7 3
-1 6 -14 9249.47 1783.35 8
-1 6 -15 1015.32 539.053 8
-1 6 -15 1364.78 1103.49 5
1 -6 15 984.682 879.05 3
1 -6 15 1164.4 898.116 1
-1 6 -16 2657.22 921.521 8
-1 6 -16 4125.51 1813.68 5
1 -6 16 2368.97 1073.73 1
-1 6 -17 37599.4 4034.39 8
1 -6 17 36040.9 3855.7 2
-1 6 -18 36920.2 4081.41 8
-1 5 15 13898.6 2871.75 2
-1 5 14 17574.7 3257.38 2
1 -5 -13 60395.7 4718.88 5
-1 5 13 76713.7 7004.81 2
1 -5 -13 65553.8 5428.51 7
-1 5 12 53289.1 5732.9 2
1 -5 -12 58895.8 4795.13 7
1 -5 -12 55297 4235.51 5
-1 5 11 12860.7 2562.88 2
1 -5 -11 14117.6 1823.85 5
1 -5 -11 11795.8 1919.88 7
1 -5 -10 19193.5 2328.7 7
-1 5 10 26602.6 3577.27 2
1 -5 -10 22407.2 2197.29 5
1 -5 -9 42124.2 3455.49 7
1 -5 -9 42042.6 3008.11 5
-1 5 9 49456.1 4807.15 2
-1 5 8 35202.6 3800.65 2
1 -5 -8 35116 2435.68 5
1 -5 -8 31090 2775.23 7
-1 5 7 85060.2 6012.81 2
1 -5 -7 83555.8 4857.02 7
1 -5 -7 83985 4098.35 5
-1 5 6 161159 8398.15 8
1 -5 -6 176378 7015.53 5
1 -5 -6 178865 8080.02 7
-1 5 6 188235 9582.3 2
1 -5 -6 160965 8487.26 2
1 -5 -5 28130.3 2621.93 2
1 -5 -5 26693.1 2203.4 7
1 -5 -5 24866.1 2572.08 1
1 -5 -5 30861.8 1590.92 5
-1 5 5 29840.2 2989.25 2
1 -5 -4 15644.7 1838.51 2
-1 5 4 20472.2 2289.21 2
1 -5 -4 15088.5 1505.44 7
-1 5 3 12949.4 1755.32 2
1 -5 -3 15366.2 1447.99 3
1 -5 -2 34190 2341.3 3
-1 5 2 33839.5 2902.26 2
1 -5 -1 15469 1470.05 3
-1 5 1 15772.3 1840.62 2
-1 5 0 18890.3 933.985 5
1 -5 0 20236.4 1725.65 3
-1 5 0 20981.1 1635.8 6
-1 5 -1 10928.2 1078.54 6
1 -5 1 10585.2 1242.19 3
-1 5 -1 9377.9 1101.27 3
1 -5 2 28737.2 2251.03 3
-1 5 -2 26206.3 2060.57 3
-1 5 -2 27570.9 1805.11 6
1 -5 3 257577 11007.9 3
-1 5 -3 240893 10744.2 3
-1 5 -3 263659 10024.3 6
1 -5 4 86.3397 147.589 6
-1 5 -4 -137.226 135.236 3
-1 5 -4 123.44 107.262 6
-1 5 -4 56.9087 87.5278 8
1 -5 4 133.746 127.904 3
-1 5 -5 330969 12406.6 8
1 -5 5 317288 13541.7 3
-1 5 -5 324399 11964.6 6
1 -5 5 284790 11897.2 6
1 -5 6 33484.8 2081.47 6
-1 5 -6 36415.8 2090.4 6
-1 5 -6 33314.6 2316.81 8
1 -5 6 39859 3272.93 3
-1 5 -7 9658.58 1175.98 8
1 -5 7 8294.2 914 6
1 -5 7 8644.24 1533.34 3
-1 5 -7 10305.6 1738.82 3
1 -5 8 8858.26 1149.55 8
1 -5 8 8493.06 974.94 6
1 -5 8 9458.26 1687.66 3
-1 5 -8 8532.51 1679.11 3
-1 5 -8 9620.7 1264.53 8
-1 5 -9 142631 6738.73 8
1 -5 9 118062 6203 8
1 -5 9 132352 7998.64 3
1 -5 9 122211 5762.51 6
-1 5 -10 6756.76 1207.56 8
1 -5 10 4847.39 973.846 8
1 -5 10 7673.91 1792.75 3
-1 5 -11 172110 8472.54 8
1 -5 11 147769 9768.44 3
1 -5 11 154366 8036.73 8
-1 5 -12 5636.89 1812.47 5
1 -5 12 3230.89 727.278 6
1 -5 12 3227.01 1274.44 3
1 -5 12 4142.52 1072.11 8
-1 5 -12 4169.05 1093.89 8
1 -5 13 7123.13 1994.8 3
1 -5 13 6597.74 1174.54 6
-1 5 -13 9605.22 2271.45 5
-1 5 -13 8795.27 1613.54 8
-1 5 -14 13942.9 2162.4 8
1 -5 14 16663 2817.59 1
1 -5 14 15089.4 2955 3
-1 5 -14 21606.9 3421.73 5
1 -5 14 17434.1 2049.06 6
-1 5 -15 3567.71 1440.25 5
-1 5 -15 3084.88 1062.78 8
1 -5 15 4479.84 1524.56 1
1 -5 16 16906.2 3065.33 1
1 -5 16 13082.5 2214.95 2
-1 5 -16 15727.7 2436.15 8
-1 5 -16 15935.6 3076.27 5
1 -5 17 261.945 231.533 2
-1 5 -17 137.952 241.721 8
1 -5 17 1520.25 887.131 1
-1 5 -17 956.276 1012.24 5
-1 5 -18 6222.84 1609.12 8
1 -5 18 6376.61 1557.24 2
-1 4 16 3964.29 1540.49 2
1 -4 -15 13523.5 2208.4 5
-1 4 15 14704.9 2838.6 2
-1 4 14 -6.30084 405.052 2
1 -4 -14 918.802 668.737 5
1 -4 -13 21559.5 2811.36 7
1 -4 -13 20016.5 2539.11 5
-1 4 13 23568.8 3503.88 2
1 -4 -12 61262.7 4621.22 5
1 -4 -12 61457.3 4897.93 7
1 -4 -12 62572.7 3085 4
-1 4 12 68589.7 6079.12 2
1 -4 -11 44751.4 3790.35 5
-1 4 11 55417.1 5222.49 2
1 -4 -11 58952.6 4412.26 7
1 -4 -10 40704.8 3342.14 5
1 -4 -10 47877.5 3740.57 7
-1 4 10 47439.2 4638.83 2
-1 4 9 42054.4 4078.43 2
1 -4 -9 37381.3 3087.81 7
1 -4 -9 33314.5 2802.08 5
-1 4 8 7507.2 1627.53 2
1 -4 -8 8805.23 1436.58 2
1 -4 -8 8809.73 1346.04 7
1 -4 -8 8753.7 1197.74 5
1 -4 -7 427.961 319.679 1
-1 4 7 1161.09 526.462 8
1 -4 -7 792.75 444.335 7
1 -4 -7 -192.26 317.507 2
-1 4 7 109.633 303.773 2
1 -4 -7 268.727 211.444 5
-1 4 6 172689 9047.31 8
1 -4 -6 183616 9134.49 2
1 -4 -6 212517 8933.25 7
1 -4 -6 215032 8341.97 5
1 -4 -6 191573 9515.53 1
-1 4 6 228178 10268.1 2
1 -4 -5 219960 9682.23 7
1 -4 -5 219513 10169.2 2
-1 4 5 239107 10857 2
1 -4 -5 243777 9091.14 5
-1 4 4 76755.4 4729.16 2
1 -4 -4 72901.9 4392.33 2
1 -4 -4 81222.4 3321.69 5
-1 4 3 169614 7842.4 2
1 -4 -3 159942 5944.97 5
-1 4 2 2656.87 687.892 2
1 -4 -2 2453.54 484.926 3
1 -4 -1 1483.8 372.661 3
-1 4 1 1906.74 544.298 2
-1 4 0 3005.04 499.869 6
1 -4 0 3519.15 604.325 3
-1 4 -1 43444.1 2316.33 6
-1 4 -1 39256.1 2402.15 3
1 -4 1 42334.6 2562.53 3
-1 4 -2 16087.7 1174.3 6
1 -4 2 16114.3 1481.19 3
1 -4 3 215.773 131.436 6
1 -4 3 564.516 275.596 3
-1 4 -3 256.237 127.589 6
1 -4 4 127673 5433.43 6
1 -4 4 132514 6424.61 3
-1 4 -4 129166 5578.69 8
-1 4 -4 133564 5412.66 6
1 -4 5 5828.36 1047.19 3
-1 4 -5 5257.55 721.202 8
-1 4 -5 5230.23 635.119 6
1 -4 5 5242.46 636.328 6
1 -4 6 285596 12580.7 3
-1 4 -6 293008 11361.4 8
1 -4 6 280279 10923.1 6
1 -4 6 271239 11160.6 8
1 -4 7 23999 1690.99 6
1 -4 7 21724.6 2491.92 3
-1 4 -7 27532.3 2068.68 8
1 -4 7 21976.9 1806.15 8
1 -4 8 64169.5 4886.68 3
1 -4 8 67099.6 3896.11 8
-1 4 -8 65116.6 5213.6 3
-1 4 -8 77392.9 4234.29 8
1 -4 8 66155.5 3581.1 6
1 -4 9 47886.6 4276.42 3
1 -4 9 45392.6 2894.99 6
-1 4 -9 48300.6 3386.88 8
-1 4 -9 38024.7 4190.26 3
1 -4 9 45724.6 3255.62 8
1 -4 10 89354.3 5349.86 8
1 -4 10 88274.5 6605.84 3
-1 4 -10 78182.8 6872.34 3
-1 4 -10 100628 5574.11 8
-1 4 -11 1029.4 553.373 8
1 -4 11 -435.541 513.334 3
-1 4 -11 1670.63 1107.85 5
1 -4 11 -230.674 229.616 8
1 -4 11 114.21 151.207 6
1 -4 12 229091 13369.9 3
1 -4 12 255154 12690.6 1
1 -4 12 212080 11188.4 8
-1 4 -12 233672 11210.8 8
1 -4 12 214146 10437.1 6
1 -4 13 27562.8 3105.03 8
1 -4 13 27146.2 3539.4 1
-1 4 -13 31949 4099.72 5
1 -4 13 27827.5 4011.75 3
-1 4 -13 27811.5 2999.14 8
1 -4 13 24559.6 2535.26 6
1 -4 14 37520.2 3256.92 6
1 -4 14 31676.4 1905.02 4
-1 4 -14 35047.3 3540.75 8
1 -4 14 39735.5 4487.07 1
1 -4 15 715.018 791.403 1
1 -4 15 523.621 497.628 2
-1 4 -15 1217.33 893.744 5
-1 4 -15 1259.59 638.661 8
1 -4 16 -591.626 600.565 1
-1 4 -16 -318.08 408.746 8
1 -4 16 329.608 439.659 2
-1 4 -16 324.315 490.991 5
-1 4 -17 7818.54 2131.76 5
1 -4 17 9610.2 2408.91 1
-1 4 -17 7190.52 1701.37 8
1 -4 17 8485.85 1790.81 2
1 -4 18 2902.57 1069 2
-1 4 -18 1213.07 758.776 8
-1 3 17 9249.36 2191.96 2
1 -3 -17 6357.37 1557.69 5
-1 3 16 961.587 1027.36 1
1 -3 -16 1794.2 762.53 5
-1 3 16 1179.18 890.756 2
1 -3 -15 1939.99 819.813 5
-1 3 15 5246.29 1625.08 2
-1 3 15 4747.41 1796.71 1
-1 3 14 32304.2 3957.33 2
1 -3 -14 26808 3099.73 5
-1 3 14 32616.9 4510.78 1
-1 3 13 4109.86 1539.76 1
-1 3 13 3852.84 1315.72 2
1 -3 -13 2069.36 772.13 5
-1 3 12 21894.6 3101.84 2
1 -3 -12 22545.6 2572.88 5
1 -3 -12 22645.1 2744.79 7
-1 3 12 29787.6 3906.7 1
1 -3 -11 7151.11 665.234 4
1 -3 -11 6885.48 1313.64 5
-1 3 11 5015.07 1442.83 1
-1 3 11 8479.97 1836.94 2
1 -3 -11 7971.21 1511 7
-1 3 10 20648.2 2722.76 2
1 -3 -10 15972.7 1972.03 5
1 -3 -10 17393.1 2129.85 7
1 -3 -10 19352.2 2198.57 2
-1 3 10 21890.4 2921.32 1
-1 3 9 97009.9 6565.03 1
1 -3 -9 95168.9 5602.63 2
-1 3 9 109583 6742.83 2
1 -3 -9 85808.8 5313.94 5
1 -3 -9 107473 5806.7 7
1 -3 -8 88218.9 4819.86 7
-1 3 8 88618 5649.64 2
1 -3 -8 76929.8 4544.2 5
-1 3 8 63737.4 4809.51 8
-1 3 8 92499.6 5791.49 1
1 -3 -8 73667.4 5060.2 1
1 -3 -8 79497.6 4778.17 2
-1 3 7 22466 2428.23 2
1 -3 -7 23026.9 2027.45 7
-1 3 7 23519.8 2495.24 1
1 -3 -7 20942.3 2245.16 1
1 -3 -7 18116.7 1889.77 2
1 -3 -7 18902.9 1791.04 5
-1 3 6 6173.05 1168.37 1
1 -3 -6 4980.43 774.879 5
-1 3 6 4190.78 939.409 2
1 -3 -6 5024.55 877.904 2
1 -3 -5 121076 6026.65 2
1 -3 -5 122380 5506.38 5
-1 3 4 153039 7056.28 2
1 -3 -4 153105 5986.44 5
-1 3 3 236794 9926.98 2
1 -3 -3 243808 8693.46 5
-1 3 2 516318 18292.9 2
1 -3 -2 438288 17876.7 2
-1 3 1 8166.94 1007.5 2
1 -3 -1 8429.69 795.077 3
1 -3 0 20570.9 1385.54 3
-1 3 0 19341.5 1307.67 6
-1 3 -1 49528.8 2393.9 6
1 -3 1 51815.5 2652.15 3
-1 3 -1 48840.6 2566.97 3
1 -3 2 1386.64 276.819 6
1 -3 2 1673.06 389.465 3
-1 3 -2 1947.53 318.247 6
-1 3 -3 3594.11 457.867 8
1 -3 3 4642.94 730.841 3
1 -3 3 4647.66 523.611 6
-1 3 -3 4669.55 511.797 6
-1 3 -4 90798.8 3958.45 8
-1 3 -4 95725.5 3926.06 6
1 -3 4 82588.5 3834.63 6
1 -3 4 88176.1 3888.79 8
1 -3 4 88344.3 4640.19 3
1 -3 5 30439.1 2418.53 3
1 -3 5 26124.1 1646.71 6
1 -3 5 24849.5 1664.89 8
-1 3 -5 26633.1 1785.92 8
1 -3 6 2548.47 715.359 3
-1 3 -6 3055.38 603.205 8
1 -3 6 2325.45 468.212 6
1 -3 6 2390.58 506.389 8
1 -3 7 218264 9680.56 8
1 -3 7 241460 11114.6 3
1 -3 7 219155 9412.75 6
1 -3 8 2537.3 636.873 8
1 -3 8 1824.19 495.785 6
-1 3 -8 2909.14 684.252 8
-1 3 -8 3298.34 1129.09 3
1 -3 8 2598.68 811.86 3
-1 3 -9 204987 9390.13 8
1 -3 9 198630 9456.23 8
1 -3 9 190529 10652 3
-1 3 -9 175723 11103.2 3
1 -3 10 44692.9 3652.75 8
-1 3 -10 55581.2 5054.64 5
-1 3 -10 44551.2 3490.26 8
1 -3 10 49565.1 4728.73 3
1 -3 10 50340.6 4278.57 1
-1 3 -10 35212.9 4505.96 3
-1 3 -11 12553.3 2412.43 5
-1 3 -11 12346.8 1772.91 8
1 -3 11 12344.5 1884.41 8
1 -3 11 11215.8 2063.21 1
-1 3 -11 8195.57 2230.52 3
1 -3 11 9501.23 2095.88 3
1 -3 12 6641.63 733.189 4
1 -3 12 4987.2 1261.04 8
1 -3 12 6733.19 1665.37 1
-1 3 -12 9760.7 2070.69 5
-1 3 -12 5712.45 1253.69 8
-1 3 -13 201625 11499.5 5
-1 3 -13 181594 9595.04 8
1 -3 13 184234 11045.5 1
1 -3 13 171877 9672.79 2
1 -3 14 14311.7 2648.38 1
-1 3 -14 11956.4 2001.28 8
-1 3 -14 14995.2 2735.52 5
1 -3 14 11977.3 2003.08 2
1 -3 15 110189 8351.19 1
-1 3 -15 114645 8394.17 5
1 -3 15 95859.1 6781.18 2
-1 3 -15 109164 7045.03 8
1 -3 16 21987.3 2914.3 2
-1 3 -16 24785.1 3180.55 8
1 -3 16 27975.5 3997.36 1
-1 3 -16 30881.5 4048.96 5
-1 3 -17 1482.02 848.544 5
1 -3 17 3653.6 1251.63 2
-1 3 -17 2479.16 960.274 8
1 -3 17 1288.75 969.1 1
1 -3 18 1559.49 710.508 2
1 -3 19 941.493 641.991 2
1 -2 -18 1278.94 620.596 5
1 -2 -17 82798.1 6354.28 5
-1 2 17 84121.7 6726.58 2
-1 2 16 11147.7 2736.84 1
-1 2 16 12146.4 2301.65 2
1 -2 -16 11814.1 2066.96 5
-1 2 15 3555.01 1422.98 1
-1 2 15 3031.27 1168.37 2
1 -2 -15 4818.61 1293.18 5
-1 2 14 4489.26 1581.68 1
-1 2 14 3683.62 1320.57 2
1 -2 -14 2869.37 952.134 5
-1 2 13 59084.1 5048.05 2
1 -2 -13 53414.9 4392.63 5
-1 2 13 61052.3 5906.3 1
1 -2 -12 9364.42 1621.18 5
-1 2 12 10295.8 1948.88 2
-1 2 12 12440.7 2449.23 1
1 -2 -11 68120.3 4594.67 2
-1 2 11 69911.5 5266.73 2
1 -2 -11 56903.2 5505.3 3
-1 2 11 70521.2 5883.61 1
1 -2 -11 65587.9 4620.76 5
-1 2 10 11511.8 2021.02 1
1 -2 -10 9397.02 1434.92 2
1 -2 -10 8661.24 1457.18 5
-1 2 10 9310.09 1653.62 2
1 -2 -10 9547.49 1496.42 7
1 -2 -9 43633.1 3423.58 5
1 -2 -9 43556.1 3424.66 7
-1 2 9 50790.1 3975.39 2
-1 2 9 53291.9 4409.37 1
1 -2 -9 41512.5 3661.74 1
1 -2 -9 43991.5 3288.79 2
-1 2 9 47643.2 3633.01 7
1 -2 -9 48745.4 2178.06 4
-1 2 9 41674 3788.5 8
-1 2 8 45352.8 3393.07 7
-1 2 8 54336.1 4165.6 1
1 -2 -8 49555.7 3385.99 7
-1 2 8 51263.2 3800.83 2
1 -2 -8 44240 3312.52 5
1 -2 -8 44677.5 3582.12 1
1 -2 -8 46370.5 3203.57 2
-1 2 7 53848.4 3505.88 7
-1 2 7 58205.1 4122.29 1
1 -2 -7 51616.2 3302.16 2
-1 2 7 59303.4 3900.18 2
1 -2 -7 51038 3461.52 5
-1 2 6 83057.1 4473.16 7
1 -2 -6 87990.4 4634.25 5
-1 2 6 90579.9 4889.43 2
1 -2 -6 77017.7 4298.55 2
-1 2 6 92607.5 5116.66 1
-1 2 5 17429.6 1510 7
-1 2 5 18777.4 1803.25 1
-1 2 5 16937.6 1649.78 2
1 -2 -5 17457.2 1583.05 5
1 -2 -5 15624.8 1428.38 2
-1 2 4 31622.6 2264.13 1
-1 2 4 33132.8 2227.83 2
1 -2 -4 30134.1 2003.97 2
1 -2 -3 65729.8 3463.23 1
-1 2 3 72761.9 3526.87 2
1 -2 -3 65631.9 3285.14 2
-1 2 3 65199.2 3493.02 8
1 -2 -2 346774 13727.8 1
1 -2 -2 359636 13667.5 2
-1 2 2 396415 13896.3 2
-1 2 2 353719 13718.4 8
-1 2 1 446861 15165.5 2
1 -2 -1 368691 14880.8 2
1 -2 0 110196 4483.21 3
-1 2 0 111054 4453.88 6
1 -2 1 229419 8769.8 3
-1 2 -1 231899 8580.11 6
1 -2 1 223622 8572.79 6
-1 2 -1 232596 8530.63 5
-1 2 -2 25877 1679.21 5
-1 2 -2 23824.7 1278.54 6
1 -2 2 21641.5 1438.15 3
1 -2 2 22495.4 1258.49 6
-1 2 -2 21869.6 1105.91 8
1 -2 3 27150.4 1820.34 3
1 -2 3 25202.8 1377.03 8
-1 2 -3 25881 1421.08 8
-1 2 -3 28770.4 1525.74 6
1 -2 3 26405 1504.45 6
-1 2 -3 29764.5 2198.59 5
-1 2 -4 413.551 253.206 3
1 -2 4 398.862 162.432 8
1 -2 4 974.48 391.637 3
1 -2 4 440.808 186.119 6
-1 2 -4 279.064 144.641 8
-1 2 -4 85.4388 209.305 5
1 -2 5 211835 9326.24 3
-1 2 -5 248763 10457.6 5
1 -2 5 198947 8348.28 6
-1 2 -5 174551 9153.45 3
-1 2 -5 223009 8678.27 8
1 -2 5 215171 8591.76 8
-1 2 -6 1084.01 460.238 3
-1 2 -6 1940.25 778.45 5
1 -2 6 550.146 262.955 8
-1 2 -6 1419.59 429.1 8
1 -2 6 1027.29 438.573 3
-1 2 -7 31948.3 2467.49 8
1 -2 7 27629.1 2459.41 8
1 -2 7 31453.4 3001.18 3
-1 2 -7 38544.6 3561.18 5
1 -2 8 51248.7 3757.02 8
1 -2 8 50883.8 4327.17 3
1 -2 8 52342.9 4134.77 1
-1 2 -8 61255.1 4830.79 5
-1 2 -8 54373.6 3620.37 8
1 -2 9 -157.238 531.523 3
-1 2 -9 509.107 494.277 5
1 -2 9 222.934 119.996 4
1 -2 9 -311.659 508.27 1
-1 2 -9 344.313 221.616 8
1 -2 9 1172.08 563.332 8
-1 2 -9 528.313 703.431 3
1 -2 10 137161 7999.3 8
-1 2 -10 167069 7987.22 8
-1 2 -10 117854 9354.43 3
-1 2 -10 172596 9496.37 5
1 -2 10 147495 8748.68 1
1 -2 10 141435 5686.15 4
1 -2 10 160197 8108.51 2
1 -2 10 170663 9766.39 3
1 -2 11 -27.2388 493.078 1
-1 2 -11 9.40444 334.8 5
1 -2 11 1010.11 532.013 2
-1 2 -11 1568.72 925.603 3
1 -2 11 718.445 330.029 8
-1 2 -11 212.449 262.029 8
1 -2 12 11490.7 1964.55 8
1 -2 12 12676.9 2314.91 1
1 -2 12 12884.5 1959.66 2
-1 2 -12 13436.1 2395.01 5
-1 2 -12 13774.5 1956.69 8
-1 2 -13 12045.9 1885.98 8
1 -2 13 11656.6 2291.5 1
1 -2 13 10630.1 1817.39 2
-1 2 -13 13090.1 2369.92 5
1 -2 14 86275.6 7114.91 1
-1 2 -14 99672.7 6429.15 8
1 -2 14 82223.1 6051.87 2
-1 2 -14 88954 6992.4 5
1 -2 15 3396.89 1297.72 1
-1 2 -15 5211.59 1595.32 5
1 -2 15 4068.67 1194.54 2
-1 2 -16 170758 10560.5 5
1 -2 16 141805 8927.97 2
1 -2 16 157768 10833.5 1
-1 2 -17 27438.3 3805.51 5
1 -2 17 24022.8 3933.15 1
1 -2 17 24120.2 3162.26 2
1 -2 18 14845.7 2424.27 2
1 -2 19 3782.23 1231.49 2
1 -1 -18 36027 4060.63 5
-1 1 17 1021.83 779.432 2
1 -1 -17 491.484 518.806 5
-1 1 17 -373.858 423.611 1
-1 1 16 119497 7913.33 2
1 -1 -16 132188 8188.02 5
-1 1 16 117724 9515.51 1
1 -1 -15 14253 2248.68 5
-1 1 15 13295.1 2819.92 1
-1 1 15 12774.5 2119.54 2
1 -1 -14 53018.1 4560.6 5
-1 1 14 57321 5818.46 1
-1 1 14 58630.2 4819.45 2
-1 1 13 32703.3 4119.65 1
-1 1 13 35336.4 3536.61 2
1 -1 -13 34269.6 3426.59 5
1 -1 -12 52585.4 4230.9 5
-1 1 12 46416.6 4066.89 2
-1 1 12 49066.9 4913.67 1
1 -1 -11 6481.71 1421.18 8
1 -1 -11 4697.22 1466.74 3
1 -1 -11 3515.31 980.598 5
-1 1 11 4961.72 1372.9 1
-1 1 11 4573.78 1206.95 2
-1 1 10 206171 10087.6 2
-1 1 10 195015 10868.6 8
-1 1 10 217107 11323.4 1
1 -1 -10 203599 10430.9 1
1 -1 -10 210080 10149.1 5
1 -1 -10 243897 10963.9 8
1 -1 -10 170464 10992.6 3
-1 1 10 199208 10238.5 7
-1 1 9 31213.4 2934.17 7
1 -1 -9 30247.5 3522.59 3
-1 1 9 33570.5 3464.96 8
1 -1 -9 30963.5 3026.44 1
1 -1 -9 40730.6 3464.7 8
-1 1 9 30580.8 3318.72 1
-1 1 9 33445.9 2948.45 2
-1 1 8 83564.2 5710.66 1
-1 1 8 81110.1 5147.25 7
-1 1 8 92572.8 5234.28 2
1 -1 -8 86978.3 4768.22 2
1 -1 -8 88076.7 5408.42 1
-1 1 7 2598.54 678.931 7
1 -1 -7 4293.2 982.012 8
1 -1 -7 4002.66 895.52 1
1 -1 -7 3782.62 370.014 4
-1 1 7 4268.14 1034.9 1
-1 1 7 4039.38 827.516 2
1 -1 -7 3114.06 621.672 2
-1 1 6 25605.9 2160.52 7
-1 1 6 31377.1 2268.06 2
1 -1 -6 25891.3 2272.9 1
1 -1 -6 30922.4 2647.13 8
1 -1 -6 25440.4 1904.35 2
-1 1 6 29297.4 2535.81 1
1 -1 -6 28685.3 1414.91 4
-1 1 5 45269.8 2619.15 2
1 -1 -5 40856.1 1955.78 4
-1 1 5 40343.7 2575.12 7
1 -1 -5 46331.3 3146.56 8
1 -1 -5 38228.1 2302.29 2
-1 1 5 43138.8 2908.13 1
1 -1 -5 39453.9 2698.62 1
-1 1 4 7891.41 840.305 2
-1 1 4 6781.14 810.412 7
-1 1 4 7380.11 966.588 1
1 -1 -4 6505.3 857.561 1
1 -1 -4 8369.04 1133.13 8
1 -1 -4 7430.74 746.941 2
-1 1 3 14582.1 1179.01 1
1 -1 -3 12920.7 928.842 2
1 -1 -3 16176 1434.21 8
1 -1 -3 12963.7 1126.83 1
-1 1 3 14807.2 1084.87 7
-1 1 3 14441.7 1055.82 2
1 -1 -2 31420.3 2048.84 8
-1 1 2 33413.3 1744.33 7
-1 1 2 35800.1 1868 1
1 -1 -2 33917 1687.36 2
1 -1 -2 35743 1859.7 1
1 -1 2 491336 18761.7 6
-1 1 -2 520871 18871.1 3
1 -1 2 540641 18866.2 3
1 -1 2 493043 18625.4 8
-1 1 -3 8953.74 920.143 5
-1 1 -3 10441.2 879.809 8
1 -1 3 9920.69 882.958 8
-1 1 -3 7856.58 876.689 3
1 -1 3 8995.5 926.503 3
-1 1 -4 5956.5 766.707 8
-1 1 -4 4091.82 719.29 5
1 -1 4 4493.97 705.895 8
-1 1 -4 4600.69 803.502 3
1 -1 4 3796.21 660.422 3
-1 1 -5 91440 5539.46 3
-1 1 -5 104371 5503.06 5
1 -1 5 98022.2 4261.92 4
1 -1 5 97918.5 5123.8 8
1 -1 5 110415 5692.75 1
1 -1 5 107180 5593.67 3
-1 1 -6 86411.8 5770.61 3
1 -1 6 90641.9 5123.94 8
1 -1 6 92126.3 5555.99 1
1 -1 6 109387 5944.4 3
-1 1 -6 113571 5254.39 8
-1 1 -6 95410.8 5550.25 5
1 -1 6 89712.9 3869.76 4
1 -1 7 4954.78 1029.57 8
-1 1 -7 6681.4 1292.98 5
1 -1 7 5764.19 1216.52 1
-1 1 -7 6200.7 1073.51 8
-1 1 -7 6032.42 1423.01 3
1 -1 7 6356.41 1301.95 3
1 -1 7 5420.92 489.964 4
1 -1 7 6435.04 1144.63 2
1 -1 8 149890 7866.14 2
1 -1 8 146080 8430.09 1
-1 1 -8 159986 8529.83 5
1 -1 8 136561 7751.82 8
1 -1 8 152090 7883.74 7
1 -1 9 11954.3 2010.32 1
1 -1 9 12948.1 1813.05 7
-1 1 -9 14890.6 1868.68 8
1 -1 9 11060.7 1753.58 8
1 -1 9 12297.5 1764.46 2
-1 1 -9 12953.3 1989.2 5
-1 1 -10 8601.08 1685.18 5
1 -1 10 7558.05 1486.15 8
-1 1 -10 8558.06 1479.8 8
-1 1 -10 8327.24 2063.56 3
1 -1 10 8548.62 1500.96 2
1 -1 10 8916.35 1779.07 1
1 -1 10 9457.16 1621.16 7
-1 1 -11 63854.7 6462.75 3
-1 1 -11 85767.3 5307.07 8
1 -1 11 66567.7 5208.61 8
1 -1 11 67086 5589.48 1
-1 1 -11 70828.1 5520.7 5
1 -1 11 67141.1 4973.12 2
1 -1 11 67304 5000.56 7
1 -1 12 1570.27 710.313 2
1 -1 12 2394.44 917.099 8
-1 1 -12 1276.31 710.82 5
-1 1 -12 1429.03 783.002 3
1 -1 12 1892.02 970.544 1
1 -1 13 42204.6 3931.1 2
-1 1 -13 39900.6 4140.9 5
1 -1 13 36282.7 4295.59 1
1 -1 14 7635.2 1605.48 2
-1 1 -14 6480.82 1613.3 5
1 -1 14 7653.26 2030.85 1
1 -1 15 25243.8 3776.18 1
-1 1 -15 19946.1 3017.85 5
1 -1 15 20607.9 2785.7 2
1 -1 16 1343.8 775.169 2
-1 1 -16 909.12 761.787 5
1 -1 16 1722.25 1287.9 1
1 -1 17 108760 7689.25 2
-1 1 -17 127586 8797.85 5
1 -1 17 113058 9315.9 1
1 -1 18 11661.5 2166.08 2
1 -1 19 36990 4172.7 2
1 0 -18 8710.36 1961.55 5
-1 0 17 5056.22 1395.93 2
1 0 -17 4655.47 1361.82 5
-1 0 17 4894.31 1749.73 1
-1 0 16 444.547 646.524 2
1 0 -16 96.8464 252.729 5
-1 0 15 140059 9739.96 1
-1 0 15 122079 7662.76 2
1 0 -15 126961 8231.05 5
1 0 -15 147668 8778.57 8
-1 0 14 6816.23 1873.42 1
1 0 -14 8743.3 1721.7 5
1 0 -14 7813.58 1706.09 8
-1 0 14 8806.03 1621.95 2
1 0 -13 140464 8193.28 8
1 0 -13 141073 8176.69 5
-1 0 13 123920 8792 1
-1 0 13 124280 7425.74 2
-1 0 12 37966.4 3347.25 2
-1 0 12 35492.4 4052.9 1
1 0 -12 42840.6 3868.22 8
1 0 -12 36640.6 3609.85 5
-1 0 11 1624.62 769.071 1
-1 0 11 2112.6 1006.6 8
1 0 -11 2103.42 752.658 8
1 0 -11 1916.41 885.329 3
-1 0 11 1586.26 679.731 2
1 0 -10 15660.6 2696.98 3
-1 0 10 16023.3 2413.41 1
-1 0 10 16689.8 1961.29 2
-1 0 10 18081.6 2627.83 8
1 0 -10 17224.6 2201.93 8
-1 0 10 15064.8 2093.15 7
-1 0 9 307177 12445.1 2
-1 0 9 277915 13568.6 1
-1 0 9 268594 13695.9 8
-1 0 9 259394 12740.6 7
1 0 -9 243337 13997 3
1 0 -9 325155 13314.7 8
-1 0 8 75228.9 4378.97 2
-1 0 8 72723.4 5118.28 1
1 0 -8 77112 4870.68 8
-1 0 8 69523.1 4707.49 7
-1 0 7 272396 11400 2
1 0 -7 271256 12095.2 8
-1 0 7 271103 12005.9 7
-1 0 7 278578 12508.9 1
-1 0 6 34501.2 2766.03 7
-1 0 6 32775.6 2831.29 1
1 0 -6 33516.2 2700.54 1
1 0 -6 42478.3 3009.86 8
-1 0 6 37101.1 2413.06 2
-1 0 5 58792.1 2923.95 2
1 0 -5 61573.2 3537.74 8
-1 0 5 52290.9 3441.34 1
1 0 -5 50270.1 3240.83 1
1 0 -5 49746.6 2291.53 4
-1 0 5 50925.2 2367.88 4
-1 0 5 50764.5 3261.17 7
1 0 -4 1303.56 411.917 8
-1 0 4 1538.41 306.161 2
1 0 -4 1702.01 441.364 1
-1 0 4 1489.12 403.996 7
1 0 -4 1549.65 256.789 4
-1 0 4 1178.77 368.791 1
-1 0 4 1392.56 262.819 4
-1 0 3 3196.91 407.221 4
1 0 -3 2608.68 485.76 1
1 0 -3 2792.01 356.412 4
-1 0 3 2487.82 479.781 1
-1 0 3 2512.82 484.973 7
1 0 -3 3080.03 545.485 8
-1 0 3 3153.75 350.924 2
-1 0 2 73987.4 3274.45 7
-1 0 2 73370.3 3210.04 4
1 0 -2 76500.8 3170.22 4
1 0 -2 72388 3267.84 7
-1 0 2 72775.3 3269.92 1
1 0 -2 73953.1 3250.46 1
1 0 -2 75966 3371.96 8
1 0 2 188630 7619.27 4
-1 0 -2 194248 8025.56 1
-1 0 -2 194248 7490.05 3
-1 0 -2 206319 7610.72 5
1 0 2 202894 8012.75 1
1 0 2 210401 8236.45 2
1 0 2 217107 7690 3
-1 0 -2 189928 7529.06 4
-1 0 -3 449449 17307.4 3
1 0 3 499132 17628.6 3
-1 0 -3 459400 16973.4 5
1 0 3 482676 17641.6 1
-1 0 -3 446153 16588.3 4
-1 0 -3 442434 17549.1 1
1 0 3 500996 17766.9 2
1 0 3 465696 16852.5 5
1 0 3 451054 17173.9 7
1 0 3 439576 16723.6 4
-1 0 -4 14456.3 1262.81 5
1 0 4 14230.8 1516.07 1
1 0 4 12109.6 1231.84 7
1 0 4 15306.4 1550.14 2
-1 0 -4 11548 1444.1 3
1 0 4 12252 1076.87 5
1 0 4 11377.2 1068.44 8
-1 0 -4 14041.8 859.312 4
-1 0 -4 12767 1442.4 1
1 0 4 13127.6 919.962 4
1 0 5 155583 6845.95 8
-1 0 -5 161938 5923.73 4
1 0 5 160684 7512.35 2
-1 0 -5 149858 6967.82 5
1 0 5 151089 7056.46 7
1 0 5 160075 7667.49 1
-1 0 -6 29618.7 3275.04 3
1 0 6 39335.2 3135.35 2
1 0 6 39020.7 3290.92 1
-1 0 -6 40478.6 2968.58 5
-1 0 -6 46588.2 1907.63 4
1 0 6 41506.5 2956.57 7
1 0 6 33263.6 2625.21 8
1 0 7 56465.7 3931.15 2
1 0 7 52330.4 4054.64 1
1 0 7 51253.7 3563.73 7
-1 0 -7 51261.3 3661.68 5
-1 0 -7 38492.7 4121.03 3
1 0 7 52229.3 3498.46 8
1 0 8 40046.9 3201.63 7
1 0 8 34968.2 3002.59 8
-1 0 -8 32525.5 3876.32 3
-1 0 -8 38526.6 3316.92 5
1 0 8 43051.1 3834.64 1
1 0 8 48196.6 3660.26 2
1 0 9 218718 10625.9 7
1 0 9 247598 12034.1 1
1 0 9 209796 10595.6 8
-1 0 -9 217887 10969.1 5
1 0 9 243255 11194.3 2
1 0 10 3579.9 964.849 7
1 0 10 2886.83 945.327 2
-1 0 -10 4404.79 1202.23 5
-1 0 -10 3301.2 1321.99 3
1 0 10 5339.7 1410.69 1
1 0 10 4680.82 1149.3 8
-1 0 -11 46677.5 5157.41 3
1 0 11 42595.8 3748.41 7
1 0 11 38859.9 3689.54 8
1 0 11 47178.6 4028.95 2
1 0 11 41854.9 4374.23 1
-1 0 -11 36695.5 3703.29 5
1 0 12 7954.69 1616.14 2
1 0 12 10752.5 2135.38 1
-1 0 -12 6784.91 1522.08 5
-1 0 -12 9490.7 2309.65 3
1 0 13 471.424 458.711 1
-1 0 -13 200.855 360.189 5
1 0 13 -296.144 465.833 2
1 0 14 22547.5 3520.49 1
-1 0 -14 22264.6 3039.82 5
1 0 14 21834 2911.11 2
-1 0 -15 -473.226 730.523 5
1 0 15 -215.974 251.061 2
1 0 15 -157.321 504.457 1
1 0 16 483.186 705.176 2
-1 0 -16 202.256 238.685 5
1 0 16 -29.4477 460.413 1
-1 0 -17 1324.79 830.624 5
1 0 17 559.129 490.955 1
1 0 17 961.731 715.895 2
1 0 18 39255.7 4365.72 2
1 1 -18 -458.859 740.992 5
-1 -1 18 -341.977 547.291 1
1 1 -17 20385 3073.59 5
-1 -1 17 19283.1 3380 1
-1 -1 17 18386.3 2451.39 2
1 1 -17 22715 3145.74 8
-1 -1 16 135.397 191.567 2
-1 -1 16 -175.11 641.072 1
1 1 -16 117.885 223.56 8
1 1 -16 -171.364 297.593 5
1 1 -15 5326.03 1479.09 5
-1 -1 15 5955.61 1751.39 1
1 1 -15 8068.04 1754.64 8
-1 -1 15 6708.13 1413.34 2
1 1 -14 60412.8 4863.2 8
-1 -1 14 45845 3885.38 2
-1 -1 14 55772.6 5458.84 1
1 1 -14 58120.7 4975.34 5
-1 -1 13 17.1655 172.461 2
1 1 -13 200.495 172.884 8
-1 -1 13 198.329 419.736 1
1 1 -12 212535 10654.7 8
-1 -1 12 193291 9625.94 2
-1 -1 12 208066 11370.4 1
1 1 -11 21593.9 3366.51 3
-1 -1 11 22340.8 2845.42 1
-1 -1 11 23099.6 2271.17 2
1 1 -11 20482.6 2508.87 8
-1 -1 11 18826.1 2794.74 8
-1 -1 10 41538 3641.69 7
1 1 -10 37834.8 4491.94 3
-1 -1 10 41129 4028.82 8
-1 -1 10 43575.7 3992.35 1
-1 -1 10 41565.8 3083.89 2
1 1 -10 41826 3573.35 8
1 1 -9 16210.6 2775.12 3
-1 -1 9 20987.5 2527.62 1
-1 -1 9 18271.7 1132.73 4
1 1 -9 17080.9 2062.8 8
-1 -1 9 17377.2 1770.21 2
-1 -1 9 20648.1 2348.97 7
-1 -1 9 18087.8 2442.93 8
-1 -1 8 138342 5673.73 4
-1 -1 8 153558 8060.12 8
-1 -1 8 139205 6661.76 2
-1 -1 8 133958 7650.76 1
-1 -1 8 143194 7543.01 7
1 1 -8 145248 7307.82 8
1 1 -7 9149.63 1297.41 8
-1 -1 7 8807.7 1420.22 1
-1 -1 7 7861.18 1351.57 8
-1 -1 7 8271.22 786.427 4
-1 -1 7 6774.27 967.195 2
-1 -1 7 8778.67 1373.86 7
-1 -1 6 430356 16150.5 4
-1 -1 6 428081 17468.5 1
1 1 -6 441814 17228.9 8
-1 -1 5 108756 5395.79 8
1 1 -5 111979 5263.13 8
-1 -1 5 103860 4731.1 4
-1 -1 4 41356.4 2562.86 8
-1 -1 4 46932.7 2526.78 4
1 1 -4 43267 2550.63 8
1 1 -3 230.38 100.318 8
-1 -1 3 342.106 251.74 4
1 1 -3 516.469 368.565 3
-1 -1 3 94.5594 233.077 3
1 1 -2 648.837 202.201 8
-1 -1 2 1065.74 185.299 2
1 1 -2 444.612 276.507 3
-1 -1 1 68687.3 3650.32 3
1 1 -1 72347.4 2859.38 2
1 1 -1 68618.5 2963.85 8
-1 -1 1 67408.9 2883.67 2
-1 -1 0 38708.5 1974.69 2
-1 -1 0 38739.2 1886.14 3
1 1 0 37545.1 1858.53 2
1 1 0 34713.5 1629.22 3
-1 -1 -1 23129.3 1019.2 7
-1 -1 -1 20834.4 1427.56 2
-1 -1 -1 19755.1 1082.53 5
1 1 1 19396.9 1086.86 5
1 1 1 20989.8 1392.9 2
-1 -1 -1 20944.6 1311.46 1
-1 -1 -2 44595.8 1997.37 7
1 1 2 40852.7 2045.72 5
-1 -1 -2 44137.7 2064.38 5
1 1 2 44782.5 2403.2 1
-1 -1 -2 46970.3 2705.38 4
-1 -1 -2 42693.1 2364.12 1
1 1 2 42446.9 1949.79 7
1 1 2 43880.9 2490.62 2
1 1 3 55465.4 3112.74 2
1 1 3 47484 2434.23 5
-1 -1 -3 49089.3 2860.43 1
1 1 3 48773.3 2392.46 7
-1 -1 -3 50052 2474.6 7
-1 -1 -3 52447.6 2531.26 5
1 1 3 52717.4 2938.87 1
-1 -1 -3 52870.6 2824.75 4
-1 -1 -4 323231 12472.5 7
-1 -1 -4 297749 12880 1
1 1 4 314960 12306.2 7
-1 -1 -4 278983 13128.6 3
1 1 4 362652 13415.2 2
1 1 4 324521 12290.1 5
-1 -1 -4 322111 12437.2 5
1 1 4 362968 13298.7 1
-1 -1 -4 328614 12370.1 4
1 1 5 59984 3304.29 5
1 1 5 73127.9 4216.07 1
-1 -1 -5 61507.6 4359.53 3
-1 -1 -5 65811.5 3136.6 4
-1 -1 -5 70567.3 3661.7 7
-1 -1 -5 67142 3587.72 5
1 1 5 61035.6 3443.7 8
1 1 5 65185.2 3452.65 7
1 1 5 70567.2 4202.93 2
-1 -1 -6 295532 14441.4 3
-1 -1 -6 333267 13181.6 7
1 1 6 308620 12857.3 7
-1 -1 -6 321800 11991.9 4
1 1 6 358155 14167.1 1
-1 -1 -6 335573 13211.1 5
1 1 6 297818 12640 5
1 1 6 354842 14032.6 2
1 1 6 300466 12843.4 8
1 1 7 20096.2 1953.29 8
1 1 7 22295.5 2031.02 7
1 1 7 22936.4 2519.23 1
1 1 7 21524 2355.51 2
-1 -1 -7 21582.6 2119.74 5
-1 -1 -7 21898.3 2217.3 2
-1 -1 -7 21537.6 1296.58 4
-1 -1 -7 21131.4 2712.1 3
1 1 8 1795.07 625.197 2
-1 -1 -8 2251.88 324.216 4
1 1 8 881.414 500.427 1
1 1 8 2485.19 709.855 8
-1 -1 -8 919.791 580.633 3
1 1 8 2457.75 691.15 7
-1 -1 -8 1981.18 630.003 5
-1 -1 -9 66868.4 2765.58 4
1 1 9 70065.5 4555.57 7
-1 -1 -9 70121.8 5029.75 1
1 1 9 61246.8 4338.22 8
1 1 9 73956.8 5162.71 2
-1 -1 -9 62849.9 4596.18 5
1 1 9 74702.5 5551.95 1
1 1 10 173792 9303.03 7
1 1 10 179614 9339.16 8
1 1 10 224222 11291.8 1
-1 -1 -10 177540 9651.05 5
1 1 10 208053 10365.8 2
-1 -1 -11 14804.6 2759.66 3
1 1 11 16369.8 2423.63 2
-1 -1 -11 16774.9 2335.72 5
1 1 11 15841.1 2666.31 1
-1 -1 -12 115241 7649.07 5
-1 -1 -12 135378 9465.44 3
1 1 12 140650 8301.29 2
1 1 12 126715 8876.78 1
1 1 13 -189.813 543.556 2
-1 -1 -13 26.1619 278.812 5
-1 -1 -13 -6.655 148.551 3
1 1 13 -105.591 505.693 1
-1 -1 -14 4489.5 1323.86 5
1 1 14 4122.42 1496.68 1
1 1 14 4115.11 1249.11 2
1 1 15 3824.86 1576.3 1
1 1 15 5341.2 1626.98 2
-1 -1 -15 4148.79 1318.34 5
-1 -1 -16 5415.76 1541.69 5
1 1 16 3391.16 1238.15 2
1 1 16 4788.81 1750.5 1
1 1 17 3040.29 1216.81 2
-1 -1 -17 3961.95 1378.82 5
1 1 18 1540.28 983.865 2
-1 -2 18 9726.44 2463.25 1
1 2 -18 13201.7 2423.08 8
-1 -2 17 2051.32 1079.09 1
1 2 -17 1737.79 802.876 8
1 2 -17 3393.65 1302.34 5
-1 -2 17 1128.28 528.225 2
1 2 -16 31482.4 3657.68 8
-1 -2 16 28463.8 2970.86 2
1 2 -16 34563.5 4008.62 5
-1 -2 16 36003.2 4471.19 1
-1 -2 15 280.283 358.771 2
1 2 -15 227.924 255.796 8
-1 -2 14 52616 5044.61 1
1 2 -14 48542.1 4443.48 8
-1 -2 14 52793.9 3961.1 2
-1 -2 13 8934.66 1439.79 2
-1 -2 13 8361.78 1842.89 1
1 2 -13 8691.68 1678.34 8
-1 -2 12 1399.74 446.545 2
-1 -2 12 1903.19 313.039 4
-1 -2 12 700.489 260.682 1
1 2 -12 2009.15 822.407 8
-1 -2 11 160073 9254.78 8
-1 -2 11 147264 7586.79 2
1 2 -11 149632 8356.15 8
-1 -2 11 160084 6438.23 4
-1 -2 11 161772 9163.29 1
-1 -2 10 4622.05 904.196 2
1 2 -10 3461.29 967.519 8
-1 -2 10 4429.23 611.466 4
-1 -2 10 3520.37 1060.43 8
-1 -2 10 5220.75 1202.89 7
1 2 -10 1947.04 958.984 3
-1 -2 10 4795.27 1191.1 1
-1 -2 9 109013 4945.79 4
-1 -2 9 110126 6562.78 1
-1 -2 9 104880 6520.49 8
1 2 -9 112045 6201.98 8
-1 -2 8 39915.5 3308.92 8
1 2 -8 44593.1 3240.52 8
-1 -2 8 40827.3 2508.77 4
-1 -2 7 10874.8 1486.7 8
-1 -2 7 13144 1274.57 4
1 2 -7 14993.4 1620.69 8
-1 -2 6 12308.6 2086.26 3
-1 -2 6 10523.2 1319.46 8
1 2 -6 13472.1 1431.28 8
1 2 -5 393435 15240.4 8
-1 -2 5 371853 15168.7 8
1 2 -4 137494 5745.41 8
-1 -2 4 142674 7332.23 3
-1 -2 4 124716 5631.17 8
-1 -2 3 413727 15640 8
-1 -2 3 417935 15445.5 2
1 2 -3 428079 15689.5 8
-1 -2 3 442055 17107.9 3
1 2 -2 22999.5 1762.17 3
-1 -2 2 20593.2 1860.58 3
-1 -2 2 22046.9 1473.54 2
1 2 -2 24191.3 1559.8 8
1 2 -2 25681.5 1491.32 2
1 2 -1 155.648 88.4786 3
1 2 -1 222.291 153.26 2
-1 -2 1 74.8309 124.983 3
-1 -2 1 530.012 198.908 2
-1 -2 0 1012.54 259.509 3
1 2 0 896.811 271.421 2
-1 -2 0 733.604 264.073 2
1 2 0 523.874 151.251 3
1 2 1 21848.3 1597.14 2
-1 -2 -1 21810.2 1134.72 3
1 2 1 19587.4 1146.44 5
-1 -2 -1 19904.6 1576.46 2
-1 -2 -2 19581.2 1161.58 5
-1 -2 -2 17520.9 987.327 3
-1 -2 -2 19600.1 1581.03 1
1 2 2 20163.3 1646.56 2
1 2 2 20560.7 1214.75 5
-1 -2 -2 19353.6 1184.63 7
1 2 3 29080.8 2254.33 2
1 2 3 32664.6 2275.45 1
-1 -2 -3 30788.4 1722.68 5
1 2 3 29138.2 1726.83 5
-1 -2 -3 28465.9 2152.71 1
-1 -2 -3 32177.4 1788.41 7
-1 -2 -4 8282.48 865.475 5
1 2 4 7329.92 795.866 5
1 2 4 9106.84 1200.42 1
-1 -2 -4 8284.69 884.828 7
1 2 4 8717.39 1213.62 2
1 2 5 74936.9 4541.95 2
1 2 5 64873.8 3504.77 5
-1 -2 -5 71457 3710.46 5
-1 -2 -5 77600.4 3781.45 7
1 2 5 81422.4 4573.16 1
1 2 5 68551.2 3615.6 7
-1 -2 -6 62792.6 3439.85 4
1 2 6 64141.1 4335.02 2
1 2 6 60297.4 3434.53 7
-1 -2 -6 64060.2 3597.48 5
1 2 6 63433.8 4254.06 1
1 2 6 52910.9 3242.33 5
-1 -2 -6 63082.7 3562.33 7
-1 -2 -7 248891 11656.6 2
-1 -2 -7 281404 10528.4 4
-1 -2 -7 225232 11972.7 3
1 2 7 285932 12464.6 2
-1 -2 -7 267309 11326.9 5
1 2 7 238942 11107.2 8
1 2 7 259433 11039.3 7
1 2 7 285742 12508.3 1
-1 -2 -8 3542.25 1082.94 3
1 2 8 5503.89 1254.36 2
-1 -2 -8 3622.3 797.996 7
1 2 8 3564.78 833.099 7
-1 -2 -8 4727.05 1089.01 1
-1 -2 -8 3970.46 977.116 2
-1 -2 -8 3730.9 883.3 5
-1 -2 -8 3580.08 570.583 4
1 2 8 3888.7 1052.52 1
1 2 8 3343.58 782.018 8
1 2 9 36385.2 2920.29 7
-1 -2 -9 30330.4 2990.37 2
-1 -2 -9 29499.2 2836.97 5
1 2 9 36709 3732.93 1
1 2 9 24473.8 2528.95 8
1 2 9 35379.6 3521.99 2
-1 -2 -9 32592.2 1878.04 4
-1 -2 -10 27928 2987.66 5
1 2 10 33668.3 3593.12 2
1 2 10 36695.6 3970.44 1
-1 -2 -10 35796.9 1870.48 4
1 2 10 34523.9 3089.19 7
1 2 11 93801 7165.53 1
-1 -2 -11 85810.7 6023.24 5
1 2 11 96680.3 6773.97 2
-1 -2 -11 87201 7051.4 3
-1 -2 -11 92395.6 3672.35 4
-1 -2 -12 35257.2 4303.1 3
1 2 12 28215.7 3889.27 1
1 2 12 39657.3 4107.83 2
-1 -2 -12 34808 3577.23 5
1 2 13 142001 10002.6 1
1 2 13 134661 8913.95 2
-1 -2 -13 120754 8127.09 5
1 2 14 493.316 668.38 1
-1 -2 -14 -244.881 533.215 5
1 2 14 221.126 446.862 2
1 2 15 23112.7 3425.92 2
-1 -2 -15 22280.4 3162.12 5
1 2 15 26528.7 4244.16 1
-1 -2 -16 566.49 676.946 5
1 2 16 112.004 486.151 2
1 2 17 2928.61 1359.18 2
-1 -2 -17 3898.63 1334.31 5
1 3 -18 2154.09 1079.1 8
-1 -3 18 2957.9 1343.74 1
-1 -3 17 63208.2 6147.76 1
1 3 -17 53412.3 5103.46 8
1 3 -17 60181.9 5672.53 5
-1 -3 16 9199.44 2094.5 1
1 3 -16 8531.59 1890.6 8
-1 -3 16 7006.98 1317.72 2
-1 -3 15 13638.3 1887.41 2
1 3 -15 10626.5 2033.9 8
-1 -3 15 16631.3 2819.32 1
-1 -3 14 4102.22 536.618 4
-1 -3 14 5520.56 1166.28 2
-1 -3 14 5362.35 1589.54 1
1 3 -14 5024.74 1280.25 8
-1 -3 13 102340 5982.26 2
-1 -3 13 108041 4832.89 4
1 3 -13 94006.6 6566.28 8
1 3 -12 3371.96 990.17 8
-1 -3 12 2212.83 644.441 2
-1 -3 12 1638.71 464.754 4
-1 -3 12 2207.03 943.473 1
1 3 -11 47285.5 3824.83 8
-1 -3 11 47505.5 4163.55 1
-1 -3 11 42630.4 2694.54 4
-1 -3 11 45822.1 4112.22 8
1 3 -10 28837.8 4152.64 3
1 3 -10 35206.1 3091.6 8
-1 -3 10 33010.3 2322.46 4
-1 -3 10 33939.9 3267.84 8
1 3 -9 504.51 514.098 3
1 3 -9 194.65 146.675 8
-1 -3 9 363.672 669.926 3
-1 -3 9 255.866 351.865 8
1 3 -8 186654 8551.68 8
-1 -3 8 177670 7040.32 6
-1 -3 8 158732 8306.44 8
-1 -3 7 12619.3 1479.92 8
-1 -3 7 10735.6 782.349 6
1 3 -7 13983.4 1547.3 8
-1 -3 6 5740.87 908.35 8
-1 -3 6 7016.16 482.228 6
1 3 -6 7350.12 1043.8 8
-1 -3 6 7064.99 1562.97 3
1 3 -5 2011.89 712.504 3
-1 -3 5 1824.15 454.397 2
1 3 -5 2230.83 528.381 8
-1 -3 5 1930.78 498.201 8
-1 -3 5 2524.3 852.138 3
-1 -3 4 253725 10503.6 2
-1 -3 4 278440 12090.6 3
1 3 -4 286603 10735.9 8
1 3 -3 24762.6 1774.52 8
-1 -3 3 27127.2 2335 3
1 3 -3 20744.2 1883.48 3
-1 -3 3 21210.4 1696.37 2
1 3 -3 23055.7 1045.01 6
1 3 -2 482620 17365.1 2
-1 -3 2 488513 18007.8 3
-1 -3 2 440671 17413.6 2
1 3 -2 426133 17322.1 3
1 3 -1 180844 7269.04 2
-1 -3 1 170924 7263.42 3
-1 -3 1 154665 7217.74 2
1 3 -1 162639 6772.13 3
1 3 0 18551.7 1558.9 2
1 3 0 14419.2 1051.79 3
-1 -3 0 16344.3 1543.02 2
-1 -3 0 19056.2 1361.8 3
1 3 1 24587.9 1916.53 2
1 3 1 20987.7 1278.39 5
-1 -3 -1 21580.6 1377.7 3
1 3 2 25238.6 1540.3 5
-1 -3 -2 27009.3 2147.53 1
-1 -3 -2 28380.8 1558.66 3
1 3 2 31141.6 2319.29 2
-1 -3 -3 40401 2053.1 3
1 3 3 39920.7 2197.12 5
1 3 3 45334.6 3083.36 2
-1 -3 -3 40370.9 2132.84 5
-1 -3 -3 41745.2 2317.69 7
-1 -3 -4 56608.6 2915 5
1 3 4 55578 2952.65 5
-1 -3 -4 64020.2 3198.59 7
1 3 4 63173.8 4025.16 2
1 3 5 36550.6 3039.98 2
1 3 5 29016.5 1989.41 5
-1 -3 -5 32769 2219.15 7
-1 -3 -5 31823.4 2053.49 5
-1 -3 -5 30616 2719.43 1
-1 -3 -6 37612 3176.41 1
1 3 6 33754.5 2332.98 5
1 3 6 39050.3 3368.69 2
-1 -3 -6 37813.1 2498.45 5
1 3 6 37769.7 3205.14 1
-1 -3 -6 34940 3028.43 2
-1 -3 -7 13143.4 1874.11 1
1 3 7 12433 1564.73 8
-1 -3 -7 14247.8 1579.48 7
1 3 7 14119.5 2000.69 1
1 3 7 11946.9 1907.14 2
-1 -3 -7 13517.4 1534.93 4
-1 -3 -7 13870.4 1535.5 5
-1 -3 -7 12482.5 1792.53 2
-1 -3 -8 90104.6 5091.28 7
1 3 8 90170.8 6091.03 1
1 3 8 75992.6 4976.36 8
-1 -3 -8 80811 5495.61 2
1 3 8 95718.3 6289.12 2
-1 -3 -8 89412.1 5091.17 5
-1 -3 -8 92789.6 4662.62 4
-1 -3 -9 37895.7 3116.78 5
-1 -3 -9 31873 2899.49 7
1 3 9 36684.6 3799.1 2
-1 -3 -9 33141 2311.33 4
1 3 9 34895.2 3715.68 1
-1 -3 -10 59391.9 3196.64 4
-1 -3 -10 55060.9 4286.92 5
1 3 10 62998.2 5403.88 1
1 3 10 61246.1 5248.56 2
-1 -3 -10 57567.9 4312.76 7
1 3 11 13943.5 2520.42 1
1 3 11 13915.7 2491.02 2
-1 -3 -11 9286.15 1684.99 5
-1 -3 -11 13338.4 2417.07 3
-1 -3 -11 13781.7 1163.11 4
-1 -3 -12 4709.88 1391.25 3
1 3 12 6036.98 1758.5 1
1 3 12 6372.11 1638.81 2
-1 -3 -12 4044.88 1154.4 5
1 3 13 22141.5 3622.99 1
-1 -3 -13 18917.6 2664.28 5
1 3 13 19907.1 3178.9 2
-1 -3 -14 90736.5 6832.8 5
1 3 14 99971.6 7931.84 2
1 3 15 3023.98 1263.93 2
1 3 15 2943.01 1312.86 1
-1 -3 -15 3325.59 1142.07 5
1 3 16 52869.8 5717.25 2
-1 -3 -16 51095.4 5021.89 5
1 4 -18 69209.2 6008.6 8
1 4 -17 14072.5 2519.67 8
1 4 -17 15078.1 2795.52 5
-1 -4 17 13626.5 2712.33 1
1 4 -16 80998.2 6413.06 8
-1 -4 16 86166.2 5567.12 2
-1 -4 16 90521.2 7397.28 1
-1 -4 15 5381.95 1149.12 2
-1 -4 15 4248.68 1384.53 1
1 4 -15 3413.16 1158.04 8
-1 -4 14 2004.89 706.449 2
1 4 -14 515.364 266.553 8
-1 -4 14 1468.12 936.504 1
-1 -4 14 1715.15 485.035 4
-1 -4 13 22443 1958.65 4
1 4 -13 28640.4 3118.7 8
-1 -4 13 27539.1 2188.16 6
-1 -4 13 26794.5 3320.71 1
1 4 -12 134980 7696.33 8
-1 -4 12 128551 6296.27 4
-1 -4 12 130797 6032.03 6
-1 -4 11 888.277 296.754 6
-1 -4 11 944.817 408.984 4
-1 -4 11 2236.49 1214.7 3
1 4 -11 1250.65 623.026 8
-1 -4 10 146415 6125.53 6
1 4 -10 148461 7790.38 8
-1 -4 10 139081 7760.66 8
-1 -4 9 135.898 178.736 8
-1 -4 9 183.584 115.656 6
1 4 -9 562.891 377.595 8
-1 -4 8 19911.4 2926.69 3
-1 -4 8 17405.8 1008.99 6
-1 -4 8 19099.1 1940.8 8
1 4 -8 17834.6 1916.21 8
1 4 -8 14583.9 2545.5 3
1 4 -7 41229.4 4066.2 3
-1 -4 7 42203 3009.4 8
-1 -4 7 43015.9 1840.77 6
1 4 -7 48707.5 3231.56 8
1 4 -6 1684.56 693.026 3
-1 -4 6 2979.44 954.035 3
1 4 -6 3083.72 659.462 8
-1 -4 6 2173.84 579.591 2
-1 -4 5 12712.4 1927.56 3
-1 -4 5 10526.1 1308.78 2
1 4 -5 11567.7 1679.9 3
1 4 -5 13301.6 1416.82 8
-1 -4 4 1281.19 420.969 2
-1 -4 4 1337.27 543.629 3
1 4 -4 1321.78 191.935 6
1 4 -4 936.879 363.51 8
1 4 -4 1049.95 454.492 3
-1 -4 3 129308 6878.76 3
1 4 -3 137858 6179.76 8
1 4 -3 126157 6279.76 3
-1 -4 3 115374 6184.74 2
1 4 -3 136718 5128.35 6
1 4 -2 11486.3 1303.01 2
-1 -4 2 11091.1 1379.33 2
1 4 -2 10622.7 1175.09 3
-1 -4 1 310069 13898.7 2
-1 -4 1 358814 13830.7 3
1 4 -1 378049 14039.5 2
1 4 -1 330966 13152.2 3
-1 -4 0 172852 7245.59 3
1 4 0 164574 6727.64 3
1 4 0 161117 6596.86 5
1 4 0 172554 7728.66 2
1 4 1 159378 7253.05 2
-1 -4 -1 152974 6393.76 3
1 4 1 142488 5948.57 5
1 4 2 92392.7 5117.87 2
1 4 2 86201.1 3929.39 5
-1 -4 -2 91985.6 4149.82 3
-1 -4 -3 23580.9 1580.8 3
1 4 3 21008.3 1502.78 5
-1 -4 -3 24856.9 1733.3 7
1 4 3 24566.4 2366.53 2
-1 -4 -3 23162.5 2244.49 1
-1 -4 -4 8425.2 1353.42 1
-1 -4 -4 8921.35 883.824 5
1 4 4 8249.93 1356.48 2
1 4 4 7493.92 851.59 5
-1 -4 -4 8201.98 874.432 3
1 4 5 78243.9 5162.82 2
1 4 5 69131.3 3706.33 5
-1 -4 -5 77116 3737.84 5
-1 -4 -5 74588.8 4901.36 2
-1 -4 -5 78523.6 3683.94 3
-1 -4 -5 74634.8 4915.38 1
-1 -4 -6 80205.5 4330.34 7
-1 -4 -6 75818.3 3930.9 5
-1 -4 -6 71043.3 4994.46 1
-1 -4 -6 70853.4 4994.06 2
1 4 6 80593.3 5494.61 2
-1 -4 -7 36095.4 2766.99 7
1 4 7 40008 3823.76 2
-1 -4 -7 34950.2 2533.81 5
-1 -4 -8 3486.14 797.536 5
1 4 8 3460.39 1116.28 2
-1 -4 -8 2143.59 640.677 7
-1 -4 -8 2463.91 737.791 4
-1 -4 -9 19604.5 2209.75 7
-1 -4 -9 18844.5 1905.62 4
1 4 9 21632 3057.81 2
-1 -4 -9 19177.1 2072.75 5
1 4 10 14388.4 2498.27 2
-1 -4 -10 13702.5 1514.28 4
-1 -4 -10 12952 1806.07 5
-1 -4 -10 15511.4 2073.65 7
-1 -4 -11 29661 3046 5
-1 -4 -11 28944.5 3133.87 7
1 4 11 35910.2 4354.25 2
-1 -4 -11 33561.9 2378.68 4
-1 -4 -12 1267.78 654.607 5
1 4 12 1198.23 698.773 2
1 4 13 2669.25 1383.69 2
-1 -4 -13 1230.89 701.409 5
1 4 14 7590.41 2122.9 2
-1 -4 -14 6393.27 1547.95 5
-1 -4 -15 41356.5 4282.89 5
1 5 -18 2100.39 952.212 8
-1 -5 17 39603.5 4743.46 1
1 5 -17 31861.6 3868.5 8
-1 -5 16 22866.7 3457.59 1
1 5 -16 25160.5 3291.54 8
-1 -5 15 111853 8106.39 1
1 5 -15 104424 7236.84 8
1 5 -14 1548.1 781.1 8
-1 -5 14 754.68 571.154 1
-1 -5 14 447.773 245.395 4
1 5 -13 35478.6 3528.71 8
-1 -5 13 33102.8 2704.71 4
-1 -5 12 34116.2 2834.03 4
-1 -5 12 32742 1992.15 6
1 5 -12 34034.1 3358.81 8
-1 -5 11 45937.3 5370.83 3
1 5 -11 42218.3 3618.9 8
-1 -5 11 42625.5 2180.35 6
-1 -5 10 12643 843.682 6
1 5 -10 10514 1598.3 8
-1 -5 10 14405.2 2760.2 3
-1 -5 9 188580 9400.7 8
1 5 -9 203992 9661.36 8
1 5 -8 1267.52 556.417 8
-1 -5 8 524.291 651.917 3
1 5 -8 589.263 538.644 3
1 5 -7 60931.1 4993.01 3
1 5 -7 63065.6 4064.69 8
1 5 -6 2551.92 658.948 8
-1 -5 6 2451.09 864.607 3
1 5 -6 3550.77 993.81 3
1 5 -5 125.914 166.964 3
-1 -5 5 611.478 409.564 3
1 5 -5 284.281 112.468 8
1 5 -5 321.194 110.851 6
1 5 -4 51059.3 2306.23 6
-1 -5 4 53009.8 4130.57 3
1 5 -4 51093.3 3311.19 8
1 5 -4 48917.3 3516.18 3
1 5 -3 12487.7 946.075 6
1 5 -3 11127.5 1402.64 3
-1 -5 3 13352.8 1800.67 3
1 5 -3 12892.8 1467.21 8
-1 -5 2 2263.81 667.482 3
1 5 -2 2238.12 603.016 2
-1 -5 2 1684.49 589.676 2
1 5 -2 1701.36 467.371 3
-1 -5 1 1102.47 505.358 2
1 5 -1 805.164 488.955 2
-1 -5 1 1565.18 541.348 3
1 5 -1 801.949 296.65 3
1 5 0 148623 6758.02 3
-1 -5 0 152829 8021.68 2
-1 -5 0 179483 7613.47 3
1 5 0 163723 6627.66 5
1 5 0 187444 8238.19 2
-1 -5 -1 42852.8 2713.79 3
-1 -5 -1 37635.8 3180.87 2
1 5 1 37404.2 2137.69 5
1 5 1 46935.1 3370.47 2
1 5 2 177279 8329.72 2
-1 -5 -2 148683 7915.21 1
-1 -5 -2 174289 7173.57 3
1 5 2 156441 6556.14 5
-1 -5 -2 147552 8035.23 2
-1 -5 -3 120333 6666.27 1
1 5 3 126059 6871.66 2
-1 -5 -3 126678 5591.46 3
-1 -5 -3 111800 6638.01 2
1 5 3 115707 5220.1 5
-1 -5 -4 -3.07317 177.762 2
-1 -5 -4 53.5549 177.304 7
1 5 4 766.421 292.485 5
-1 -5 -4 602.781 295.341 3
1 5 4 169.191 242.861 2
-1 -5 -4 460.803 386.136 1
1 5 5 5599.54 1273.45 2
-1 -5 -5 4173.06 704.549 3
-1 -5 -5 4514.2 811.148 7
1 5 5 3534.13 633.665 5
-1 -5 -6 65558 4019.9 7
-1 -5 -6 63110.6 3499.23 5
-1 -5 -6 67313.4 3694.64 3
1 5 6 75398.9 5480.21 2
-1 -5 -7 54222 3186.91 3
1 5 7 56725.9 4918.08 2
-1 -5 -7 49179.6 3046.25 5
1 5 7 42148.2 3037.13 5
-1 -5 -7 54885.1 3644.66 7
1 5 8 72994.4 5877.31 2
-1 -5 -8 65192.8 4344.86 7
-1 -5 -8 65500.4 3797.59 3
-1 -5 -8 58905.8 3710.71 5
-1 -5 -9 44860.3 3621.35 7
-1 -5 -9 43884.5 3466.01 4
-1 -5 -9 43377 3161.47 5
1 5 9 43152.5 4698.8 2
-1 -5 -10 16045.7 2183.25 7
-1 -5 -10 15594.2 1898.64 5
-1 -5 -10 18452.4 2000.72 4
-1 -5 -11 923.644 444.299 4
-1 -5 -11 1176.82 619.236 7
1 5 11 429.407 582.988 2
-1 -5 -11 1508.49 521.328 5
-1 -5 -12 9583.57 1627.06 5
1 5 12 8823.6 2308.93 2
-1 -5 -12 8973.69 1805.73 7
1 5 13 5873.14 1955.36 2
1 6 -17 7427.64 1850.16 8
-1 -6 17 7744.15 2071.88 1
1 6 -16 9910.52 2034.94 8
-1 -6 16 9655.58 2135.47 1
1 6 -15 11085.1 2095.05 8
-1 -6 15 13322.4 2390.79 1
-1 -6 14 90833.9 5347.98 4
1 6 -14 83286.5 6238.54 8
-1 -6 13 6620.66 2181.93 3
-1 -6 13 7246.09 1361.17 4
1 6 -13 7960.79 1600.46 8
-1 -6 12 84225.2 7711.84 3
1 6 -12 75161.4 5187.39 8
-1 -6 11 3536.88 987.084 2
1 6 -11 6033.85 1252.35 8
-1 -6 11 3783.56 1624.44 3
-1 -6 10 1434.45 560.632 2
-1 -6 10 3011.19 1229.39 3
1 6 -10 3172.8 893.851 8
-1 -6 9 33913.6 4155.43 3
1 6 -9 29979.1 2770.18 8
1 6 -8 181304 8648.27 8
-1 -6 8 145870 8513.36 2
1 6 -7 1415.73 527.8 8
-1 -6 7 1458.04 587.795 2
-1 -6 7 734.734 501.341 3
1 6 -6 168129 6102.54 6
1 6 -6 154519 7795.76 8
1 6 -6 142969 8379.36 3
-1 -6 6 173366 9612.83 3
-1 -6 6 124043 7740.69 2
-1 -6 5 2787.8 1058.55 3
1 6 -5 2797.46 381.25 6
1 6 -5 2738.37 750.216 8
-1 -6 5 2320 694.568 2
1 6 -5 3083.42 849.318 3
-1 -6 4 1701.84 612.488 2
1 6 -4 2251.99 652.058 8
1 6 -4 3249.3 792.974 3
1 6 -4 2567.21 409.364 6
-1 -6 4 1947.02 832.555 3
-1 -6 3 10796.4 1677.12 2
1 6 -3 12882 1616.61 8
1 6 -3 13824.4 1607.88 3
1 6 -3 12543.8 1073.92 6
-1 -6 3 12720.7 1867.99 3
-1 -6 2 22380.8 2466.82 2
1 6 -2 23539.1 1675.8 6
1 6 -2 21252.3 1949.02 3
-1 -6 2 23986.1 2494.39 3
1 6 -1 19207.8 2158.73 2
-1 -6 1 19931 2110.83 3
-1 -6 1 17339.5 2160.76 2
1 6 -1 17593.8 1377.88 5
1 6 -1 16239.6 1558.21 3
1 6 0 2445.97 799.98 2
1 6 0 2684.83 483.329 5
-1 -6 0 3739.01 980.829 2
-1 -6 0 2535.79 662.392 3
-1 -6 -1 33462.5 3147.96 2
-1 -6 -1 33216.1 2599.94 3
1 6 1 30103.5 1901.42 5
1 6 1 35880.7 3196.02 2
1 6 2 18322.9 2260.96 2
1 6 2 14225.3 1212.62 5
-1 -6 -2 17248.5 2099.47 1
-1 -6 -2 16392.3 1670.6 3
1 6 3 169773 8794.43 2
-1 -6 -3 166477 7369.8 3
1 6 3 147462 6576.86 5
1 6 4 59869.1 4624.04 2
-1 -6 -4 59879.5 3424.85 3
-1 -6 -4 57408.9 3438.21 7
-1 -6 -5 30412.5 2478.73 7
-1 -6 -5 31174.7 2403.63 3
1 6 5 29568.3 3382.13 2
1 6 6 27625.6 3380.3 2
-1 -6 -6 29877.4 2349.02 3
-1 -6 -6 26375.3 2417.37 7
-1 -6 -7 25418.4 2216.72 3
1 6 7 29788.1 3642.89 2
-1 -6 -7 25250 2455.79 7
-1 -6 -8 11713.8 1715.92 7
-1 -6 -8 12808.3 1560.35 3
-1 -6 -9 74218.8 5081.16 7
-1 -6 -9 75535.3 4547.28 3
-1 -6 -9 65264.2 4114.78 5
1 6 9 75372.1 6699.35 2
-1 -6 -9 78409 5334.85 4
-1 -6 -10 51019.9 4262.94 7
1 6 10 62314.3 6244.02 2
-1 -6 -10 51690.9 4010.68 4
-1 -6 -10 49005.1 3500.18 5
-1 -6 -11 13426.8 2164.83 7
1 6 11 17248.8 3361.93 2
-1 -6 -12 6655.68 1572.29 7
1 7 -17 11657.8 2289.41 8
1 7 -16 16031.6 2625.11 8
-1 -7 16 19664.9 3062.33 1
1 7 -15 8231.84 1789.31 8
-1 -7 14 1344.72 579.882 4
-1 -7 14 916.674 484.25 3
1 7 -14 2555.2 905.939 8
-1 -7 13 56723.6 6659.92 3
1 7 -13 43964.5 4202.34 8
-1 -7 12 15616.9 3377.03 3
1 7 -12 10398.2 1821.33 8
-1 -7 11 101537 8604.28 3
1 7 -11 86456.9 5872.77 8
-1 -7 10 145.492 305.596 2
-1 -7 10 55.8439 268.743 3
1 7 -10 -319.284 398.264 8
-1 -7 9 3222.28 957.176 2
1 7 -9 3761.97 981.562 8
-1 -7 9 3362.39 1376.35 3
1 7 -8 32779.2 2959.73 8
-1 -7 8 27743.2 3740.13 3
-1 -7 8 20596.2 2590.01 2
1 7 -7 84557.5 5184.51 8
-1 -7 7 96717.4 7014.65 3
1 7 -6 25000.4 2535.28 8
-1 -7 6 28587.6 3480.11 3
1 7 -6 25372.9 1432.3 6
1 7 -5 246357 11481.6 3
1 7 -5 246772 9192.55 6
1 7 -5 248965 11126.6 8
-1 -7 5 237714 12506.4 3
-1 -7 4 5210.71 1399.2 3
1 7 -4 3330.57 929.434 3
1 7 -4 6568.74 1355.52 8
1 7 -4 4757.95 696.692 6
1 7 -3 18741.3 2060.36 3
1 7 -3 23012.6 1673.97 6
1 7 -3 21880.1 2316.23 8
-1 -7 3 22022.8 2662.51 3
-1 -7 2 532.846 409.08 3
1 7 -2 1297.06 379.532 6
1 7 -2 568.113 382.407 3
-1 -7 1 13642.8 1924.06 3
1 7 -1 13689 1468.88 3
1 7 -1 11992.8 1863.87 2
1 7 0 9989.5 1017.63 5
1 7 0 11415.9 1863.22 2
-1 -7 0 12418.1 1749.18 3
-1 -7 -1 36134.8 2994.86 3
1 7 1 27382.8 1875.3 5
1 7 1 37188.8 3492.09 2
1 7 2 978.833 308.07 5
1 7 2 1186 645.539 2
-1 -7 -2 915.262 457.228 3
1 7 3 9270.07 1003.59 5
1 7 3 10452.2 1873.6 2
-1 -7 -3 9310.21 1398.07 3
1 7 4 47730.3 4479.38 2
-1 -7 -4 51513.3 3530.91 3
1 7 4 42460 2662.46 5
-1 -7 -4 49564.2 3355.56 7
-1 -7 -5 26937.1 2445.32 3
1 7 5 27901.9 3435.64 2
-1 -7 -5 23117.6 2267.15 7
-1 -7 -6 56658.8 3802.52 3
-1 -7 -6 47647.5 3670.58 7
1 7 6 60901.2 5438.74 2
1 7 7 39752.1 4560.76 2
-1 -7 -7 35442.9 3151.94 7
-1 -7 -7 40710.7 3154.7 3
-1 -7 -8 3228.53 893.31 7
1 7 8 3586.49 1407.59 2
-1 -7 -9 522.532 264.14 4
1 7 9 781.109 776.086 2
-1 -7 -9 -3.42802 383.128 7
-1 -7 -10 53973.8 4564.33 7
-1 -7 -11 28770.6 3360.35 7
-1 -7 -12 27260.3 3408.72 7
1 8 -16 8375.54 1891.58 8
1 8 -15 19579.1 2886.45 8
-1 -8 14 18833 2517.14 4
1 8 -14 16294.7 2564.66 8
1 8 -13 16302 2483.2 8
-1 -8 13 24055.1 4346.43 3
1 8 -12 10163.9 1863.99 8
-1 -8 12 7338.98 2341.13 3
-1 -8 11 786.355 615.141 3
1 8 -11 1053.94 570.726 8
1 8 -10 38691.2 3686.64 8
-1 -8 10 43993.6 5387.41 3
-1 -8 9 4053.86 1611.38 3
1 8 -9 3056.42 944.402 8
-1 -8 8 33615.7 4373.19 3
1 8 -8 33304.6 3251.8 8
-1 -8 7 9506.98 2086.43 3
1 8 -7 8754.32 1575.5 8
1 8 -6 23909.9 2681.2 8
-1 -8 6 26845.7 3583.39 3
1 8 -6 27765.5 1649.81 6
-1 -8 5 17894.5 2793.67 3
1 8 -5 17185.2 1307.03 6
1 8 -5 18109.6 2286.88 8
1 8 -4 221789 10483.2 8
1 8 -4 200864 8487.5 6
-1 -8 4 213770 11617.5 3
1 8 -3 1518.32 829.265 8
1 8 -3 457.082 487.932 6
-1 -8 3 183.548 567.478 3
-1 -8 2 98723.5 6666 3
1 8 -2 100970 4965.69 6
1 8 -2 90002.9 4647.03 5
1 8 -2 93289.6 5327.91 3
-1 -8 1 15511.8 2297.74 3
1 8 -1 17317.8 1729.2 6
1 8 0 976.175 680.944 2
-1 -8 0 1769.9 730.844 3
1 8 1 1363 717.93 2
-1 -8 -1 3844.06 1075.5 3
-1 -8 -2 38747.7 3465.46 3
1 8 2 33088.8 3718.67 2
-1 -8 -3 3500.44 995.222 3
1 8 3 2730.5 1117 2
-1 -8 -3 3733.6 814.394 7
-1 -8 -4 18301.3 2268.59 3
-1 -8 -4 16755.8 1950.21 7
1 8 4 22180.3 3140.88 2
-1 -8 -5 6130.11 1163.93 7
1 8 5 5522.41 1683.12 2
1 8 6 13138.1 2625.13 2
-1 -8 -6 13679.7 1877.9 7
-1 -8 -7 43625.5 3729.16 7
1 8 7 49076.1 5429.09 2
-1 -8 -8 16043.4 2197.17 7
-1 -8 -9 2893.84 1097.93 4
-1 -8 -9 2568.25 896.216 7
-1 -8 -10 1144.16 697.714 7
-1 -9 14 7234.23 1574.35 4
1 9 -14 6762.95 1664.16 8
1 9 -13 23121.2 3067.37 8
1 9 -12 40807.1 4120.77 8
-1 -9 12 51662.8 6467.98 3
-1 -9 11 7696.25 2365.23 3
1 9 -11 6643.86 1524.38 8
-1 -9 10 5966.42 1954.46 3
1 9 -10 5523.35 1413.67 8
1 9 -9 13794.5 2163.04 8
-1 -9 9 14562.6 3044.89 3
1 9 -8 4687.21 1251.62 8
-1 -9 8 7345.41 2093.88 3
-1 -9 7 28255.4 3997.53 3
1 9 -7 26976.1 3071.58 8
1 9 -6 601.905 505.756 8
-1 -9 6 648.413 571.389 3
-1 -9 5 1443.07 939.11 3
1 9 -5 1470.45 692.792 8
-1 -9 4 4480.85 1455.01 3
1 9 -4 6806.36 1434.79 8
1 9 -3 100429 6454.6 8
-1 -9 3 98744.3 7383.34 3
1 9 -3 92742.8 4872.96 6
1 9 -2 3241.76 751.113 6
-1 -9 2 6337.14 1644.6 3
-1 -9 1 152584 9233.27 3
1 9 -1 137795 7018.7 6
1 9 0 9048.81 1384.28 6
-1 -9 0 11860.8 2194.84 3
-1 -9 -1 7102.72 1606.49 3
1 9 1 6470.96 1677.53 2
1 9 2 7119.16 1704.34 2
-1 -9 -2 9162.93 1834.7 3
1 9 3 33917.5 4125.53 2
-1 -9 -3 31457.7 2866.94 7
-1 -9 -4 2595.5 806.121 7
1 9 4 3819.54 1316.21 2
-1 -9 -5 33450.9 3104.04 7
-1 -9 -6 173.736 263.035 7
-1 -9 -7 8840.48 1584.17 7
-1 -9 -8 7845.01 1974.2 4
1 10 -11 36381 3979.47 8
-1 -10 10 22894.2 4151.57 3
1 10 -10 18278.2 2699.48 8
1 10 -9 23535 3026.2 8
-1 -10 9 30174.9 4634.72 3
1 10 -8 3884.26 1228.52 8
-1 -10 8 3853.2 1587.52 3
-1 -10 7 45.0025 683.697 3
1 10 -7 -163.47 446.077 8
1 10 -6 5252.96 1265.22 8
-1 -10 6 4428.19 1545.57 3
-1 -10 5 7904.64 2101.68 3
1 10 -5 10074.8 1891.49 8
1 10 -4 343.039 433.211 8
-1 -10 4 -171.434 795.755 3
-1 -10 3 1550.21 881.653 3
1 10 -3 1906.53 899.733 8
-1 -10 2 30836 4107.35 3
1 10 -2 28297 3319.41 8
-1 -10 1 4556.13 1591.06 3
1 10 1 1150.57 418.718 6
1 10 2 23936.1 2723.73 6
-1 -10 -2 30458.5 2868.54 7
-1 -10 -3 10174.1 1657.01 7
-1 -10 -4 6399.62 1307.41 7
-1 -11 7 7730.88 2398.63 3
-1 -11 6 7807.45 2331.73 3
-1 -11 5 -1849.41 1114.38 3
-1 -11 4 10277.6 2566.5 3
2 -12 0 55.0279 481.448 3
2 -12 1 705.99 610.829 3
2 -12 2 19282.9 3222.04 3
-2 12 -3 1636.16 696.75 8
2 -12 3 4100.86 1502.72 3
2 -12 4 75968 6819.75 3
-2 12 -4 64374.4 5036.04 8
-2 12 -5 469.863 311.841 8
-2 11 4 34215.1 3935.89 6
2 -11 -4 44736.7 4615.85 3
-2 11 3 9291.22 1867.75 6
2 -11 -3 11122.4 2229.63 3
-2 11 2 18389.1 2531.9 6
2 -11 -2 20397.8 3011.41 3
-2 11 1 -310.318 466.157 6
2 -11 -1 584.802 420.733 3
2 -11 0 2310.51 900.815 3
-2 11 0 2186.43 817.586 6
2 -11 1 -663.848 774.716 3
-2 11 -1 3.2134 294.131 6
2 -11 2 9437.44 1996.57 3
-2 11 -2 8342.59 1466.08 6
2 -11 3 803.573 699.278 3
-2 11 -3 485.188 322.471 8
-2 11 -3 217.532 291.795 6
-2 11 -4 329.677 317.168 6
-2 11 -4 442.823 392.896 8
2 -11 4 433.11 652.692 3
2 -11 5 50039.9 5190.53 3
-2 11 -5 52005 4107.52 8
-2 11 -6 874.502 699.314 8
2 -11 6 256.626 509.147 3
2 -11 7 66399.5 6266.12 3
-2 11 -7 61481.8 4676.88 8
2 -11 8 5970.42 1749.4 3
-2 11 -8 4992.73 1170.5 8
-2 10 6 41.3448 499.302 6
2 -10 -6 802.904 535.121 3
2 -10 -6 939.144 508.732 7
2 -10 -5 257.332 215.805 3
-2 10 5 1007.03 683.16 6
2 -10 -5 499 389.703 7
-2 10 4 38298.6 3925.84 6
2 -10 -4 49701.2 4459.83 3
2 -10 -4 37766.3 3491.81 7
2 -10 -3 62900 5128.29 3
-2 10 3 56626.6 4710.72 6
-2 10 2 30105.1 3155.96 6
2 -10 -2 34031 3605.88 3
-2 10 1 68898.6 5003.4 6
2 -10 -1 77688.1 5733.91 3
2 -10 0 227.326 217.919 3
-2 10 0 27.6595 292.305 6
-2 10 -1 832.644 495.124 6
2 -10 1 649.276 529.694 3
2 -10 2 2418.18 907.079 3
-2 10 -2 4503.94 1002.56 6
-2 10 -3 24021 2337.17 6
2 -10 3 20169.5 2795.93 3
2 -10 4 -641.352 390.518 3
-2 10 -4 -92.8863 196.608 6
2 -10 5 11770.8 2204.38 3
-2 10 -5 9770.79 1337.4 6
-2 10 -5 9627.21 1530.62 8
-2 10 -6 19962.6 1947.75 6
-2 10 -6 16151.8 2213.6 5
-2 10 -6 22392.7 2387.35 8
2 -10 6 21282.2 3092.86 3
2 -10 7 465.881 574.877 3
-2 10 -7 563.878 466.248 8
-2 10 -7 157.151 304.075 5
-2 10 -7 439.69 283.96 6
-2 10 -8 75306.6 5085.06 8
-2 10 -8 79526.4 6395.51 5
2 -10 8 82472.9 6871.85 3
-2 10 -9 688.581 517.968 8
-2 10 -9 418.023 235.551 5
2 -10 9 163.071 243.876 3
2 -10 10 21796.5 3605.42 3
-2 10 -10 33314.8 4388.23 5
-2 10 -10 27648.6 2870.57 8
-2 10 -11 8579.68 1568.38 8
2 -10 11 7454.21 2047.69 3
-2 10 -11 10367.8 2527.78 5
-2 10 -12 31105.4 4547.4 5
-2 10 -13 3171.71 1591.81 5
-2 10 -14 115854 9771.5 5
2 -9 -9 -19.569 237.953 7
2 -9 -9 60.9912 217.354 3
2 -9 -8 9764.12 1894.56 3
2 -9 -8 9607.23 1745.89 7
-2 9 8 14327.1 3058.05 2
-2 9 7 13673.5 2882.98 2
2 -9 -7 11071.1 2002 3
2 -9 -7 12710.2 1937.39 7
2 -9 -6 14374.5 2199.97 3
2 -9 -6 12381.7 1870.77 7
-2 9 6 13893.7 2826.95 2
-2 9 6 14128.3 2353.62 6
-2 9 5 7547.03 1672.96 6
2 -9 -5 8411.41 1663.06 3
2 -9 -5 7406.81 1384.83 7
2 -9 -4 504.701 476.905 3
-2 9 4 149.93 297.361 6
2 -9 -3 33051.4 3315.23 3
-2 9 3 29760.8 3113.46 6
-2 9 2 37970.8 3437.51 6
2 -9 -2 42123.4 3686.76 3
-2 9 1 86195.3 5404.69 6
2 -9 -1 82668.7 5608 3
2 -9 0 131761 7478.33 3
-2 9 0 121215 6815.69 6
-2 9 -1 3881.07 880.93 6
2 -9 1 1600.46 657.925 3
-2 9 -2 22779.9 1260.94 5
-2 9 -2 31002.1 2568.2 6
2 -9 2 27851.9 2962.24 3
-2 9 -3 3402.47 770.824 6
2 -9 3 3164.89 960.092 3
-2 9 -3 2257.02 501.214 5
2 -9 4 18734.2 2550.29 3
-2 9 -4 17204.5 1880.59 8
-2 9 -4 19093.8 1867.03 6
-2 9 -4 15693.3 1699.05 5
-2 9 -5 7555.07 1391.29 5
-2 9 -5 6643.92 1081.14 6
2 -9 5 8922.97 1817.7 3
-2 9 -5 6962.21 1173.26 8
-2 9 -6 49795.9 3611 8
2 -9 6 52640 4748.26 3
-2 9 -6 47429.3 4219.69 5
-2 9 -6 52743.6 3324.84 6
-2 9 -7 1703.93 578.962 8
2 -9 7 2154.86 984.459 3
-2 9 -7 1719.1 509.176 6
-2 9 -7 1680.62 850.987 5
-2 9 -8 1913.3 557.774 6
-2 9 -8 1676.93 664.346 8
2 -9 8 66.8963 444.227 3
-2 9 -8 973.729 655.044 5
-2 9 -9 49610.5 3805.15 8
2 -9 9 54512.6 5334.1 3
-2 9 -9 64627.4 6112.69 5
2 -9 10 1594.8 1004.02 3
-2 9 -10 1074 395.065 8
-2 9 -10 2303.11 1261.71 5
2 -9 11 52909.1 5567.33 3
-2 9 -11 47886.2 3935.62 8
-2 9 -12 4993.85 1183.32 8
2 -9 12 6547.39 1844.77 3
-2 9 -12 8260.88 2340.16 5
-2 9 -13 -357.219 427.725 5
2 -9 13 -168.928 827.43 3
-2 9 -14 9714.03 2582.53 5
2 -8 -11 30503.6 3488.77 7
2 -8 -11 36769.7 3857.15 3
2 -8 -10 4319.89 1184.8 7
-2 8 10 4598.96 1870.32 2
2 -8 -10 3308.06 1132.98 3
-2 8 9 67559 6963.98 2
2 -8 -9 55660.5 4561.68 7
2 -8 -9 58660.8 4840.07 3
2 -8 -8 11593.6 1833.38 7
2 -8 -8 13300.1 2103.22 3
-2 8 8 12674.8 2765.87 2
2 -8 -7 12053.4 1772.93 7
-2 8 7 13102.5 2672.37 2
2 -8 -7 12285.5 1928.71 3
2 -8 -6 3852.09 963.055 7
-2 8 6 7444.96 1828.01 2
2 -8 -6 4599.72 1155.41 3
2 -8 -5 1796.83 667.493 7
-2 8 5 923.47 592.37 2
2 -8 -5 1397.66 564.073 3
-2 8 4 23528.9 2687.91 6
-2 8 4 27114.4 3480.88 2
2 -8 -4 26623.7 2702.8 3
-2 8 3 1691.98 701.47 6
2 -8 -3 855.323 484.93 3
2 -8 -2 1977.91 676.926 3
-2 8 2 1464.52 530.223 6
-2 8 1 19490.9 2120.83 6
2 -8 -1 21067.9 2315.38 3
2 -8 0 51965.7 3885.75 3
-2 8 0 50978.5 3602.95 6
2 -8 1 145969 7842.52 3
-2 8 -1 151123 7344 6
-2 8 -2 31814.5 2462.18 6
-2 8 -2 25780 1608.04 5
2 -8 2 30079.8 2904.05 3
2 -8 3 119567 6752.48 3
-2 8 -3 116847 5648.27 6
-2 8 -4 8862.43 1361.45 5
-2 8 -4 11106 1370.04 8
-2 8 -4 9507.75 1209.14 6
2 -8 4 13107.2 1903.04 3
-2 8 -5 5207.27 870.631 6
-2 8 -5 5397.59 942.734 8
2 -8 5 4248.87 1125.69 3
-2 8 -5 5542.68 1242.62 5
-2 8 -6 39955.2 2702.17 6
-2 8 -6 34543.7 3723.9 5
2 -8 6 43797.8 3959.95 3
-2 8 -6 38766.2 2893.86 8
2 -8 7 105491 7073.5 3
-2 8 -7 103690 7537.25 5
-2 8 -7 104382 5659.07 8
-2 8 -7 108643 5324.6 6
-2 8 -8 5120.68 992.221 8
2 -8 8 7138.91 1641.8 3
-2 8 -8 7439.99 1954.52 5
-2 8 -8 6011.97 911.167 6
2 -8 9 35374.3 2669.25 6
-2 8 -9 37644 3064.99 8
-2 8 -10 8005.98 1335.01 8
-2 8 -10 10244.3 2410.68 5
2 -8 10 7018.75 1789.73 3
2 -8 10 6780.73 1064.1 6
2 -8 11 660.183 264.977 3
-2 8 -11 25.6221 254.183 8
-2 8 -12 43381.3 3719.61 8
2 -8 12 37262.7 4654.83 3
-2 8 -13 1182.08 667.97 8
2 -8 13 1937.31 1084.36 3
-2 8 -13 1866.52 1161.04 5
-2 8 -14 7334.28 1527.52 8
2 -8 14 5454.55 1755.56 3
-2 8 -14 9488.04 2578.11 5
-2 8 -15 2604.68 1339.4 5
-2 7 13 3584.37 1725.2 2
2 -7 -12 25761.9 3135.16 7
-2 7 12 30902.9 4788.62 2
2 -7 -11 18929.1 2530.97 7
-2 7 11 19716.1 3656.69 2
2 -7 -10 15132.5 2237.95 7
-2 7 10 16916.1 3295.24 2
-2 7 9 873.749 853.991 2
2 -7 -9 1218.59 582.253 7
2 -7 -8 108532 6551.87 7
-2 7 8 131277 9059.97 2
2 -7 -7 28660.2 2817.74 3
2 -7 -7 25236.7 2522.85 7
-2 7 7 32511 3957.13 2
-2 7 6 59252.7 5380.65 2
2 -7 -6 63623.3 4353.54 3
2 -7 -6 59216.2 4088.13 7
2 -7 -5 3724.25 905.507 3
-2 7 5 2626.79 1036.48 2
2 -7 -5 2291.67 682.502 7
-2 7 4 5443.63 1346.95 2
2 -7 -4 4704.95 973.271 3
-2 7 3 15644.1 1930.46 6
2 -7 -3 15663.7 1826.8 3
-2 7 3 16837.8 2453.17 2
-2 7 2 228.776 184.489 6
2 -7 -2 1101.15 520.988 3
-2 7 1 8721.52 1276.29 6
2 -7 -1 9325.98 1358.88 3
2 -7 0 9023.17 1338.38 3
-2 7 0 9679.95 1291.73 6
-2 7 -1 37916.8 2631.4 6
-2 7 -1 29599.9 1436.93 5
2 -7 1 31703.3 2939.66 2
2 -7 1 36099.9 2854.8 3
2 -7 2 84931.9 5349.97 2
-2 7 -2 90551.1 4590.07 6
2 -7 2 92134.3 5244.02 3
-2 7 -2 78436.7 4703.8 3
-2 7 -2 79448.8 3799.96 5
2 -7 3 79553.4 5265.67 2
-2 7 -3 90328.3 4501.15 6
-2 7 -3 76008.1 4336.06 5
2 -7 3 94456 5393.6 3
-2 7 -3 82117 4937.24 3
-2 7 -4 202270 10038.6 5
-2 7 -4 235912 9471.68 8
2 -7 4 208752 10560.3 2
-2 7 -4 216261 10286.2 3
-2 7 -4 224258 9345.58 6
2 -7 4 236861 10767.6 3
-2 7 -5 310.789 187.438 8
-2 7 -5 732.389 297.887 6
2 -7 5 542.16 279.846 2
2 -7 5 394.349 243.248 3
-2 7 -5 346.066 375.416 5
-2 7 -6 15663.4 1537.37 8
2 -7 6 13786.4 2019.5 3
-2 7 -6 16535.2 1502.02 6
-2 7 -6 11097.5 2001.39 5
-2 7 -7 40826.7 2836.69 8
2 -7 7 41709.7 3814.66 3
-2 7 -7 43854.8 4488.59 5
-2 7 -7 42726.3 2704.04 6
-2 7 -8 95409.2 5304.58 8
2 -7 8 107153 6895.28 3
-2 7 -8 113877 8193.05 5
2 -7 9 23881 2080.24 6
-2 7 -9 31795.5 4179.19 5
-2 7 -9 24974 2302.5 8
2 -7 9 27806.7 3300.62 3
-2 7 -10 127316 6703.88 8
2 -7 10 124791 8302.19 3
2 -7 10 113856 6072.92 6
2 -7 11 1308.57 501.005 6
2 -7 11 2335.46 938.29 3
-2 7 -11 1624.41 659.208 8
-2 7 -11 3385.57 1609.43 5
2 -7 12 9436.8 2173.92 3
-2 7 -12 13031.3 1898.13 8
-2 7 -12 16527 3235.34 5
-2 7 -13 8610.05 1581.4 8
2 -7 13 5399 1681.1 3
-2 7 -14 2066.04 746.577 8
-2 7 -14 2612.42 1384.47 5
2 -7 14 1197.88 878.691 3
-2 7 -15 16476.5 3353.13 5
2 -7 15 10821.2 2623.76 3
-2 7 -15 13228.8 2128.61 8
-2 7 -16 227.083 562.152 5
-2 6 14 1184.11 1107.56 2
2 -6 -13 40889.8 4161.52 7
-2 6 13 42121.7 5421.94 2
-2 6 12 1730.92 1072.09 2
2 -6 -12 993.564 481.487 7
-2 6 11 78771.1 7278.72 2
2 -6 -11 78542.2 5564.01 7
2 -6 -10 18041.2 2281.8 7
-2 6 10 18588 3160.2 2
2 -6 -10 16836.1 1668.3 5
2 -6 -9 1426.77 592.477 7
2 -6 -9 597.099 280.841 5
2 -6 -8 13068.1 1151.03 5
2 -6 -8 13904.5 1810.31 7
-2 6 8 17521.4 2785.14 2
-2 6 7 141725 8580.45 2
2 -6 -7 124229 6605.1 7
2 -6 -7 123189 5117.35 5
2 -6 -6 12024.4 1544.16 7
-2 6 6 15487.5 2406.78 2
2 -6 -6 12725.8 786.083 5
-2 6 5 163973 8906.14 2
-2 6 5 136173 7584.38 8
2 -6 -5 152678 7263.51 7
2 -6 -4 38698.1 3316.57 1
-2 6 4 45144 3873.07 2
2 -6 -4 38878.9 2886.51 3
2 -6 -4 37218.6 3135.54 2
-2 6 3 26814.2 2839.39 2
2 -6 -3 25661.9 2458.45 2
2 -6 -3 23906 2140.62 3
2 -6 -2 121.363 155.476 2
-2 6 2 1253.5 427.02 6
-2 6 1 4582.82 862.542 6
2 -6 -1 3303.37 830.378 2
2 -6 -1 3701.74 746.157 3
2 -6 0 33575.8 2594.96 3
-2 6 0 35791.7 2528.12 6
-2 6 -1 1492.68 236.838 5
-2 6 -1 1272.35 448.786 6
2 -6 1 1762.63 568.493 3
-2 6 -2 1023.96 323.208 6
2 -6 2 714.354 349.633 3
-2 6 -2 531.788 211.413 5
-2 6 -2 518.399 321.218 3
-2 6 -3 62333.5 3295.83 6
2 -6 3 53780.2 3922.07 2
2 -6 3 60790.9 3887.55 3
-2 6 -3 55242.3 3393.52 5
-2 6 -3 57158.6 3702.66 3
-2 6 -4 71310.3 3574.24 8
-2 6 -4 64682.2 3542.06 6
2 -6 4 73579.9 4501.09 3
-2 6 -4 73029.9 4447.07 3
-2 6 -4 64045.7 4319.29 5
-2 6 -5 186527 7854.28 6
-2 6 -5 179406 8981.45 3
2 -6 5 196600 9214.15 3
-2 6 -5 162743 9332.48 5
-2 6 -5 192118 7874.81 8
-2 6 -6 26088.7 1979.92 8
-2 6 -6 29492.6 2866.83 3
2 -6 6 29200.6 2832.81 3
-2 6 -6 25329.1 3082.49 5
-2 6 -6 29985.7 2043.24 6
2 -6 7 96420.8 6093.09 3
-2 6 -7 107724 7427.24 5
-2 6 -7 89675.9 6003.8 3
-2 6 -7 97273.7 4902.37 8
-2 6 -7 98454.3 4756.61 6
-2 6 -8 27769.9 2264.16 8
-2 6 -8 31845.7 3957.5 5
2 -6 8 30949.5 3203.73 3
-2 6 -9 32558.4 2635.15 8
-2 6 -9 34174.6 4310.28 5
2 -6 9 28220.2 3239.62 3
2 -6 10 38971.8 2920 6
2 -6 10 43445 4263.99 3
-2 6 -10 50355.6 3573.86 8
2 -6 11 150948 7703.4 6
2 -6 11 144781 7688.17 8
2 -6 12 5877.46 1661.91 3
2 -6 12 5734.08 1091.69 8
2 -6 12 6188.53 1132.49 6
-2 6 -12 8209.28 2244.34 5
-2 6 -12 8292.61 1486.6 8
2 -6 13 64305.8 4373.22 6
2 -6 13 56152.1 5722.89 3
-2 6 -13 61762.5 4719.84 8
-2 6 -13 74970.2 7111.17 5
-2 6 -14 447.989 283.627 8
2 -6 14 503.942 240.271 3
-2 6 -15 2080.61 869.786 8
2 -6 15 -30.9704 730.51 1
2 -6 15 730.336 603.823 3
-2 6 -15 3309.57 1394.88 5
-2 6 -16 10747.9 1991.88 8
2 -6 16 9219.94 2285.88 1
2 -6 16 4855.71 1770.27 3
-2 6 -16 11122.6 2717.61 5
2 -6 17 4923.09 1366.42 2
2 -6 18 1115.25 574.891 2
-2 5 16 -221.402 675.966 2
-2 5 15 31643 4531.32 2
-2 5 14 605.678 844.302 2
2 -5 -14 200.279 326.256 7
-2 5 13 20857.6 3569.42 2
2 -5 -13 21974.4 2914.92 7
2 -5 -13 21939.3 2512.27 5
2 -5 -12 22624.4 2755.59 7
2 -5 -12 24090.4 2551.08 5
-2 5 12 20896.1 3475.67 2
2 -5 -11 1225.26 625.005 7
-2 5 11 1664.11 871.618 2
2 -5 -11 2287.99 750.67 5
-2 5 10 83739.8 6719.28 2
2 -5 -10 79145.4 4703.49 5
2 -5 -10 71670.1 5015.75 7
2 -5 -9 3334.48 864.644 7
-2 5 9 3599.56 1214.65 2
2 -5 -9 2022.24 555.964 5
2 -5 -8 10512.2 1243.75 5
-2 5 8 13440.4 2260.43 2
2 -5 -8 12017.8 1602.36 7
2 -5 -7 21265.8 1614.27 5
2 -5 -7 21251.1 2080.31 7
2 -5 -7 19233.6 2126.98 2
-2 5 7 20446.1 2681.53 2
2 -5 -6 82557 5483.26 1
2 -5 -6 88865.5 5322.64 2
2 -5 -6 102994 4222.69 5
-2 5 6 102829 6381.45 2
-2 5 6 83586.4 5408.17 8
2 -5 -6 91335.3 5043.32 7
2 -5 -5 2187.94 558.062 7
2 -5 -5 2103.17 308.184 5
-2 5 5 2249.87 766.466 2
-2 5 5 2062.6 633.72 8
2 -5 -5 2263.18 710.706 1
2 -5 -5 1500.89 529.389 2
-2 5 4 346192 14661.6 8
2 -5 -4 346375 14695.6 2
2 -5 -4 343741 14881.2 1
2 -5 -3 158942 7786.52 2
-2 5 3 177162 8559.72 2
-2 5 2 120996 5999.88 6
2 -5 -2 132403 5905.95 3
-2 5 2 128792 6721.7 2
2 -5 -2 108598 6020.05 2
-2 5 1 39816 2636.07 6
2 -5 -1 36708.3 2509.85 3
-2 5 0 612.324 257.691 6
2 -5 0 556.957 206.129 3
-2 5 -1 17539.8 1018.95 5
-2 5 -1 19538.4 1578.2 6
2 -5 1 21895.2 1804.27 3
-2 5 -2 40963 2424.43 6
2 -5 2 42433.7 2808.96 3
-2 5 -2 38081.6 2162.03 5
2 -5 3 25913.5 1820.48 6
-2 5 -3 24611.3 1933.15 5
-2 5 -3 25548.5 1777.04 6
2 -5 3 26825 2197.83 3
2 -5 4 43479.8 2994.48 3
-2 5 -4 38631.5 2168.01 8
-2 5 -4 36271.1 2895.04 5
2 -5 4 37025.9 2332.14 6
-2 5 -4 38334.5 2307.64 6
-2 5 -5 31820.1 2014.5 6
-2 5 -5 29007.7 1874.15 8
2 -5 5 26963.1 1941 6
2 -5 5 29573.5 2557.23 3
-2 5 -5 25665.4 2693.17 5
-2 5 -6 99433.9 4587.91 8
2 -5 6 86787.9 4532.04 6
-2 5 -6 96301.1 4578.97 6
2 -5 6 105026 5757.66 3
-2 5 -6 97171.3 6421 5
-2 5 -7 55764.2 3222.27 8
2 -5 7 54950.6 4055.98 3
-2 5 -7 50807.7 4089.47 3
-2 5 -7 58456.5 5071.5 5
2 -5 8 128181 6171.48 8
2 -5 8 142453 7864.75 3
-2 5 -8 122345 7763.24 3
-2 5 -8 151597 6777.65 8
2 -5 9 1232.63 526.627 3
2 -5 9 340.028 242.983 8
-2 5 -9 478.499 541.682 3
-2 5 -9 702.335 345.249 8
-2 5 -9 325.348 431.751 5
2 -5 10 1781.98 562.837 8
2 -5 10 1033.03 445.333 6
2 -5 10 1345.36 629.189 3
-2 5 -10 1931.23 970.856 5
-2 5 -10 1206 465.364 8
2 -5 11 43557.4 3344.59 6
2 -5 11 47631.1 3495.45 8
2 -5 11 47844.6 4634.75 3
-2 5 -11 53703.3 3915.62 8
2 -5 12 148210 9631.92 3
2 -5 12 137601 7703.01 8
2 -5 12 136506 7532.62 6
2 -5 13 14406.4 2037.41 8
-2 5 -13 12924.3 1934.83 8
2 -5 13 12776.1 1824.56 6
2 -5 13 10492.8 2262.64 3
-2 5 -13 16720.8 3153.78 5
-2 5 -14 139927 8117.47 8
-2 5 -14 154590 10754.3 5
2 -5 14 153633 9916.53 1
2 -5 15 1095.82 776.775 1
-2 5 -15 673.055 646.158 8
2 -5 15 -648.71 914.499 3
-2 5 -15 443.409 748.898 5
-2 5 -16 4037.57 1205.34 8
2 -5 16 3137.23 1057.31 2
2 -5 16 6620.4 1922.16 1
-2 5 -16 3056.03 1303.21 5
2 -5 17 -330.492 577.873 2
-2 5 -17 345.449 222.17 8
2 -5 18 10708.6 2153.03 2
-2 4 16 11531.6 2476.58 2
2 -4 -15 5228.41 1319.3 5
-2 4 15 8523.84 2112.89 2
-2 4 14 32625.2 4154.64 2
2 -4 -14 26633 2960.91 5
2 -4 -13 3086.93 1013.88 7
-2 4 13 2792.68 1218.55 2
2 -4 -13 2055.34 726.779 5
-2 4 12 69562.1 6164.53 2
2 -4 -12 73936.6 5362.61 7
2 -4 -12 68386.9 4761.23 5
-2 4 11 6372.94 1646.16 2
2 -4 -11 6619.52 1244.44 5
2 -4 -11 6481.82 835.62 4
2 -4 -11 5176.6 1182.89 7
-2 4 10 9434.98 1965.47 2
2 -4 -10 8908.44 1461.43 2
2 -4 -10 8542.76 1451.72 7
2 -4 -10 5664.49 1083.99 5
2 -4 -9 29519.2 2741.41 2
-2 4 9 33698.4 3596.2 2
2 -4 -9 31378.7 2805.68 7
2 -4 -9 33004.1 2631.02 5
2 -4 -8 1808.3 648.005 1
2 -4 -8 2418.64 617.95 5
2 -4 -8 2749.71 739.207 2
2 -4 -8 2217.3 630.556 7
-2 4 8 2545.29 874.043 2
2 -4 -7 58498.2 3452.65 5
-2 4 7 54226.7 4211.34 8
2 -4 -7 60011.3 3857.29 2
2 -4 -7 58732.7 4183.94 1
2 -4 -7 63990.5 3871.03 7
-2 4 7 66319.1 4700.23 2
-2 4 6 3112.34 835.065 8
-2 4 6 2700.23 725.253 2
2 -4 -6 1874.42 636.403 1
2 -4 -6 2962.61 559.248 5
2 -4 -6 2906.67 685.792 2
2 -4 -6 3544.48 741.037 7
2 -4 -5 17467.4 1757.07 2
2 -4 -5 19669.2 1997.67 1
-2 4 5 17582 1934.06 8
-2 4 5 18885 2108.69 2
2 -4 -5 19696.4 1374.31 5
2 -4 -4 1624.75 554.916 1
-2 4 4 2028.6 671.32 2
2 -4 -4 1067 404.772 2
2 -4 -4 1959.83 313.225 5
-2 4 3 445462 16798.9 2
2 -4 -3 404380 16114.8 2
-2 4 3 389931 16096.1 8
-2 4 2 107082 5504.97 2
-2 4 2 111714 5123.34 6
2 -4 -1 253893 10170.2 3
-2 4 1 255223 10308.2 6
-2 4 0 179767 7407.79 6
2 -4 0 173312 7424.97 3
2 -4 1 1439.44 326.613 6
-2 4 -1 1754.73 393.002 6
-2 4 -1 1455.86 219.026 5
2 -4 1 1031.18 310.725 3
-2 4 -2 360.907 151.126 6
-2 4 -2 619.871 210.346 5
2 -4 2 171.806 112.238 6
2 -4 2 255.248 216.297 3
2 -4 3 99362.5 4674.32 6
-2 4 -3 102987 4660.99 6
2 -4 3 110494 5216 3
-2 4 -3 105119 4308.37 8
-2 4 -3 108378 4925.66 5
2 -4 4 76779.1 4139.12 3
2 -4 4 69565.1 3566.62 6
-2 4 -4 73468.8 3272.08 8
-2 4 -4 71773 4187.66 5
-2 4 -4 74422.6 3582.95 6
2 -4 5 59549.6 3692.26 3
-2 4 -5 57528.6 2886.24 8
-2 4 -5 61123.3 3111.73 6
-2 4 -5 56476.1 3992.18 5
2 -4 5 55259.3 3067.31 6
2 -4 6 23550.8 1815.26 6
2 -4 6 23051.2 1599.16 8
2 -4 6 28140.1 2458.63 3
-2 4 -6 22180.6 2612.94 5
-2 4 -6 28812.2 1914.66 8
-2 4 -7 87044.2 4285.54 8
2 -4 7 72129.6 3770.87 8
2 -4 7 82269.1 5039.96 3
2 -4 7 71627.1 3998.54 6
-2 4 -7 83113.9 5905.92 5
-2 4 -7 75192.2 5079.44 3
-2 4 -8 58366.7 5085.59 5
2 -4 8 47144.3 3057.23 8
-2 4 -8 47641.3 4144.11 3
2 -4 8 48345.4 3930.81 3
-2 4 -8 59932.6 3511.33 8
-2 4 -9 85602.1 6256.36 3
2 -4 9 91919.2 4788.67 8
2 -4 9 90231.4 5897.5 3
-2 4 -9 112669 7565.47 5
-2 4 -9 104541 5168.91 8
2 -4 10 10829.7 2020.61 3
-2 4 -10 9627.9 1445.85 8
-2 4 -10 13061.9 2380.6 3
2 -4 10 10327.9 1458.15 6
-2 4 -10 14900.6 2646.32 5
2 -4 10 11749.2 1531.75 8
2 -4 11 20082.4 2242.08 8
2 -4 11 22833.6 3042.44 3
-2 4 -11 25369.5 3576.4 5
2 -4 11 18216.1 2127.88 6
-2 4 -11 24518.9 2476.67 8
2 -4 12 32205.1 4050.35 3
-2 4 -12 36960.1 3321.34 8
2 -4 12 38595.9 3395.94 8
2 -4 12 34768.5 3160.81 6
2 -4 12 38088.6 4157.37 1
-2 4 -12 42492.8 4838.77 5
2 -4 13 50331.6 5081.45 1
-2 4 -13 51291.2 4156.09 8
2 -4 13 42967.8 4980.13 3
2 -4 13 41429.8 3879.04 8
2 -4 13 53397.9 3067.38 4
-2 4 -13 54206.9 5644.41 5
2 -4 14 40001.1 4745.73 1
2 -4 14 39822.4 4949.67 3
-2 4 -14 39424.4 3737.81 8
2 -4 14 35476.4 3910.85 2
-2 4 -14 43023.4 5082.74 5
2 -4 15 178736 10914.9 2
2 -4 15 206524 12697.7 1
-2 4 -15 206936 10793.5 8
-2 4 -15 219543 13240.2 5
-2 4 -16 1049.16 671.89 8
2 -4 16 -83.3145 610.103 2
2 -4 16 713.487 717.639 1
-2 4 -16 935.747 910.859 5
-2 4 -17 53303.4 5907.89 5
2 -4 17 37941.5 4271 2
2 -4 17 50445.8 5738.36 1
2 -4 18 1047.69 656.134 2
2 -4 19 4023.85 1254.91 2
2 -3 -17 62780.8 5201.18 5
-2 3 16 7068.05 1862.34 2
-2 3 16 6256.48 2002.08 1
2 -3 -16 4442.14 1298.91 5
-2 3 15 52709 6001.04 1
2 -3 -15 41305.1 3928.53 5
-2 3 15 55918.2 5303.96 2
2 -3 -14 8782.61 1597.35 5
-2 3 14 9105.57 2309.57 1
-2 3 14 8523.1 1943.32 2
-2 3 13 9790.29 2228.27 1
-2 3 13 6063.49 1667.29 2
2 -3 -13 5073.88 1214.09 5
2 -3 -12 20086.9 2508.35 7
2 -3 -12 15296.3 2003.65 2
-2 3 12 18503.3 2751.76 2
-2 3 12 18717 3015.76 1
2 -3 -12 15583.6 2027.68 5
-2 3 11 119789 7784.04 2
-2 3 11 124825 8286.19 1
2 -3 -11 121793 4989.73 4
2 -3 -11 111081 6502.75 2
2 -3 -11 108198 6469.64 5
2 -3 -11 126276 7148.62 7
2 -3 -10 370.907 239.488 7
2 -3 -10 265.161 136.361 5
-2 3 10 550.659 521.036 2
-2 3 10 730.794 633.43 1
2 -3 -10 255.765 317.17 2
2 -3 -10 249.726 139.467 4
2 -3 -9 81006.4 4883.87 7
-2 3 9 83899.1 5787.65 1
2 -3 -9 74652.7 4521.05 2
-2 3 9 84464.7 5626.1 2
2 -3 -9 72932.3 4561.73 5
2 -3 -9 79306.8 3776.01 4
2 -3 -9 63021.5 4812.84 1
-2 3 8 6025.66 1364.12 8
2 -3 -8 5564.5 999.81 7
2 -3 -8 3860.81 979.263 1
-2 3 8 5563.83 1192.15 2
2 -3 -8 3652.87 801.085 5
-2 3 8 4008.04 1036.19 1
2 -3 -8 4987.59 906.98 2
-2 3 7 2348.11 688.07 2
2 -3 -7 1821.65 513.46 2
2 -3 -7 2139.48 643.81 1
-2 3 7 2852.34 811.985 1
-2 3 6 77321.6 4615.19 2
2 -3 -6 74827.6 4084.84 2
2 -3 -6 73974.3 4482.66 1
2 -3 -5 2471.91 636.906 1
-2 3 5 1824.45 578.266 2
2 -3 -5 2242.4 520.452 2
-2 3 4 4571.61 929.236 8
2 -3 -4 6354.57 879.246 2
-2 3 4 7347.93 1064.26 2
2 -3 -4 6342.03 955.205 1
-2 3 3 313.608 163.228 2
2 -3 -3 328.339 198.707 1
2 -3 -3 250.311 142.024 2
-2 3 3 56.3847 107.598 8
-2 3 2 143440 6702.8 8
2 -3 -2 149340 6520.6 2
-2 3 1 9076.3 923.183 6
-2 3 1 7979.42 870.964 8
2 -3 -1 8195.49 463.066 5
2 -3 -1 9206.83 964.925 2
2 -3 0 487692 17656.4 3
-2 3 0 488167 17673.2 6
-2 3 0 465255 16867.3 5
2 -3 0 456579 17535.5 6
2 -3 0 454854 16975.4 5
2 -3 1 277954 10718 5
-2 3 -1 281296 10994.9 6
-2 3 -1 293933 10558.6 5
2 -3 1 310282 11207.9 3
2 -3 1 276793 10965.2 6
2 -3 2 19507.7 1464.23 3
-2 3 -2 19631.7 1339.73 6
2 -3 2 23054.4 1447.67 6
-2 3 -2 16998.5 1194.95 5
2 -3 2 19943.4 1388.55 5
2 -3 3 55942 2968.76 3
-2 3 -3 51327.2 2670.22 6
2 -3 3 49943 2681.93 6
-2 3 -3 52553.1 2796.96 5
-2 3 -3 52334.9 2229.51 8
-2 3 -4 36782.8 2104.78 6
2 -3 4 33123.7 1652.7 8
2 -3 4 31709.6 2043.96 6
-2 3 -4 34023.8 2389.02 5
2 -3 4 35002.9 2346.29 3
-2 3 -4 36335.5 1820.79 8
-2 3 -5 44261.8 3161.52 3
2 -3 5 52746.5 3273.25 3
2 -3 5 50295 2860.08 6
2 -3 5 48152.6 2437.26 8
-2 3 -5 55074 2733.3 8
-2 3 -5 54327.2 3562.97 5
-2 3 -6 171764 6836.59 8
2 -3 6 152477 7406.28 3
2 -3 6 147546 6787.42 6
-2 3 -6 150230 7951.53 5
2 -3 6 144833 6376.07 8
2 -3 7 89800.4 4528.55 8
2 -3 7 88441 4680.64 6
2 -3 7 95937 5473.72 3
-2 3 -7 81701.6 5743.16 5
-2 3 -7 91179.5 4703.06 8
-2 3 -8 42163.6 3849.03 3
2 -3 8 40550.4 2943.9 8
2 -3 8 41820.7 3564.5 3
-2 3 -8 48640.4 4296.02 5
-2 3 -8 47674.4 3162.56 8
2 -3 9 3141.95 786.587 6
2 -3 9 3577.71 1067.13 3
-2 3 -9 4155.78 886.42 8
2 -3 9 4020.41 883.688 8
-2 3 -9 1119.23 736.842 3
-2 3 -9 3889.61 1173.92 5
2 -3 10 41593.6 3475.21 8
2 -3 10 51866.3 4501.8 1
2 -3 10 44201.2 3452.65 6
-2 3 -10 50831.7 3662.86 8
2 -3 10 46168.8 4325.3 3
-2 3 -10 36467.5 4322.43 3
-2 3 -10 55835.4 5064.04 5
2 -3 10 49149.9 2881.2 4
2 -3 11 16771.6 2163.22 8
2 -3 11 20190.9 2938.86 3
-2 3 -11 23819.9 2447.98 8
-2 3 -11 12990.8 2670.8 3
2 -3 11 16107 2043.26 6
2 -3 11 18290.7 2745.03 1
-2 3 -11 20454.6 3102.72 5
2 -3 11 19850.8 1535.12 4
2 -3 12 38110.7 2181.51 4
2 -3 12 42583.9 4484.78 1
2 -3 12 37230.2 4398.13 3
2 -3 12 42235.5 3936.62 2
-2 3 -12 43075.5 3602.4 8
2 -3 12 37391.7 3385.59 6
2 -3 12 37794.4 3554.33 8
-2 3 -12 43414.9 4775.7 5
2 -3 13 548.409 694.866 1
2 -3 13 1207.82 672.608 2
2 -3 13 642.593 506.696 8
-2 3 -13 -30.4109 278.425 5
-2 3 -13 815.216 398.748 8
2 -3 14 4643.21 1589.22 1
-2 3 -14 3549.79 1527.99 5
2 -3 14 2542.23 958.808 2
-2 3 -15 33752.6 4387.34 5
2 -3 15 30676.2 3605.8 2
2 -3 15 31368.5 4234.74 1
2 -3 16 133407 9794.93 1
-2 3 -16 146357 10084.4 5
2 -3 17 5676.91 1534.27 2
2 -3 17 6150.99 2040.84 1
-2 3 -17 6223.41 1873.63 5
2 -3 18 77545.2 6426.52 2
2 -3 19 1285.64 774.834 2
2 -2 -18 7214.27 1731.27 5
2 -2 -17 4467.78 1268.51 5
-2 2 17 5502.75 2044.29 1
-2 2 16 75504.4 6090.14 2
-2 2 16 69872.1 7083.81 1
2 -2 -16 67038.4 5383.34 5
2 -2 -15 18365.4 2528.8 5
-2 2 15 23147.7 3820.85 1
-2 2 15 22089.5 3011.74 2
-2 2 14 122078 7891.44 2
-2 2 14 116927 8938.81 1
2 -2 -14 108955 6988.25 5
-2 2 13 3430.08 1155.57 2
2 -2 -13 2150.2 757.644 5
-2 2 13 3928.28 1381 1
-2 2 12 5979.26 1436.9 2
2 -2 -12 2826.55 899.757 5
-2 2 12 3265.36 1292.51 1
2 -2 -11 59416.3 4634.34 8
-2 2 11 58586.5 5074.22 1
2 -2 -11 43563.9 1977.84 4
2 -2 -11 47870.9 3919.83 7
2 -2 -11 48176.3 3466.99 2
-2 2 11 52667.4 4299.11 2
-2 2 10 128686 8054.86 1
-2 2 10 125823 7385.08 2
2 -2 -10 118965 7303.29 1
2 -2 -10 121899 7009.31 7
2 -2 -10 134026 5185.03 4
2 -2 -10 111537 6362.39 2
2 -2 -9 14071.2 2023.03 8
-2 2 9 13556.7 2020.67 1
2 -2 -9 8324.55 1185.3 2
2 -2 -9 10141.3 1477.63 7
2 -2 -9 9991.93 864.633 4
2 -2 -9 7052.54 1360.64 1
-2 2 9 9928.12 1580.16 2
-2 2 9 10928.9 2022.13 8
-2 2 9 8461.07 1462.43 7
2 -2 -8 220911 10474.2 1
2 -2 -8 262705 11470.3 8
-2 2 8 225066 10343.9 7
-2 2 8 234710 10535.4 2
2 -2 -8 211701 9545.33 2
-2 2 8 235338 11047.7 1
2 -2 -8 223077 8843.78 4
2 -2 -7 635.064 397.098 8
2 -2 -7 132.695 158.684 2
-2 2 7 -119.149 158.664 7
-2 2 7 354.168 354.294 1
-2 2 7 67.2001 172.248 2
2 -2 -7 302.446 144.093 4
2 -2 -7 428.523 368.01 1
-2 2 6 25472.4 2276.81 1
2 -2 -6 22575.7 1692.52 2
-2 2 6 25107.9 2074.46 2
-2 2 6 19094.3 1820.06 7
2 -2 -6 26268.5 2509.56 8
2 -2 -6 24218.7 2107.78 1
2 -2 -6 23916.3 1626.23 4
2 -2 -5 43293.5 2499.97 2
-2 2 5 45871.7 2823.62 2
2 -2 -5 44102.3 2923.04 1
2 -2 -5 52750.9 3532.58 8
-2 2 5 47665.5 3059.69 1
-2 2 5 46488.8 2806.91 7
2 -2 -4 3995.82 683.667 1
2 -2 -4 4232.94 859.655 8
-2 2 4 3895.01 907.038 8
2 -2 -4 4321.66 592.686 2
-2 2 4 3788.57 637.585 2
2 -2 -3 192689 7832.3 2
-2 2 3 204728 8126.52 2
2 -2 -3 194654 8048.82 1
-2 2 3 181708 8890.34 8
-2 2 2 24959.9 1602.37 6
2 -2 -2 23112.2 1464.17 2
-2 2 2 21763.6 1905.78 8
2 -2 -2 25633 1809.5 8
-2 2 1 11909 1191.41 8
2 -2 -1 12067.8 716.189 5
-2 2 0 6020.86 437.958 5
-2 2 0 5179.3 585.892 6
2 -2 0 4889.67 423.455 5
-2 2 -1 422492 15338.3 6
2 -2 1 414807 15303.6 3
-2 2 -1 414635 15073.4 5
2 -2 1 409974 15075 5
2 -2 2 87753.6 4189.08 6
2 -2 2 92489.9 4237.22 3
-2 2 -2 102923 4290.45 3
-2 2 -2 103979 4181.67 5
2 -2 2 106473 4197.55 5
-2 2 -2 92210.5 4224.52 6
2 -2 3 268465 10490.6 3
-2 2 -3 281737 10404.1 6
-2 2 -3 264429 9768.11 8
-2 2 -3 284049 10555.2 3
2 -2 3 268902 10446.6 6
2 -2 3 284320 10508.9 5
2 -2 3 246536 9665.32 8
2 -2 4 157950 6857.01 6
2 -2 4 159420 6446.6 8
-2 2 -4 161740 7004.32 3
-2 2 -4 159615 6504.28 8
-2 2 -4 175364 7253.47 5
2 -2 4 163888 6901.15 5
2 -2 4 164240 6986.05 3
2 -2 5 43772.8 2718.87 6
2 -2 5 47529.9 2975.75 3
2 -2 5 45872.8 2658.34 8
-2 2 -5 44528.6 2984.99 3
-2 2 -5 48632.6 3129.92 5
-2 2 -5 51412.1 2748.84 8
2 -2 6 7137.41 990.85 6
2 -2 6 6564.99 875.031 4
2 -2 6 8437.32 1078.67 8
-2 2 -6 9588.19 1119.27 8
2 -2 6 6872.32 1106.87 3
-2 2 -6 7732.71 1219.6 3
-2 2 -6 8872.23 1345.93 5
2 -2 7 184985 8902.96 1
-2 2 -7 147889 8361.15 5
2 -2 7 163429 7788.57 8
2 -2 7 176777 8464.85 3
-2 2 -7 151542 8367.41 3
2 -2 7 155370 7055.71 4
-2 2 -7 205497 8063.65 8
-2 2 -8 104323 6706.01 5
2 -2 8 98943.5 5863.79 8
2 -2 8 106853 6740.43 1
2 -2 8 110476 5048.2 4
2 -2 8 113721 6700.91 3
-2 2 -9 128033 6264.16 8
2 -2 9 104304 4669.57 4
2 -2 9 112811 7056.63 3
2 -2 9 89998 5763.49 8
-2 2 -9 88486.1 6924.16 3
-2 2 -9 101165 6820.01 5
2 -2 9 111405 7066.27 1
2 -2 10 62167.8 5240.87 1
2 -2 10 68954.9 5546.51 3
-2 2 -10 52704.9 5447.15 3
2 -2 10 63989 3027.73 4
2 -2 10 70917.6 5044.68 2
-2 2 -10 64142.4 5363.71 5
2 -2 10 59051.4 4440.02 8
2 -2 11 25100.3 1366.43 4
2 -2 11 32340.8 3671.36 1
-2 2 -11 21039.5 3511.86 3
-2 2 -11 29037 3509.85 5
2 -2 11 30578.9 3168.73 2
2 -2 11 23677.5 2696.37 8
2 -2 12 9278.77 2005.66 1
2 -2 12 8898.37 1678.61 8
-2 2 -12 7873.85 2171.53 3
2 -2 12 10311.5 1875.17 2
-2 2 -12 12132.5 2294.9 5
2 -2 13 24353.7 3043.31 2
-2 2 -13 23931.7 3356.98 5
2 -2 13 18512.7 3046.72 1
-2 2 -14 4499.16 1418.47 5
2 -2 14 5109.69 1643.94 1
2 -2 14 3871.82 1217.08 2
2 -2 15 411.393 494.682 2
-2 2 -15 -1295.37 1162.1 5
2 -2 15 -1239.47 1020.86 1
2 -2 16 10789.3 2517.91 1
2 -2 16 7187.15 1722.81 2
-2 2 -16 14541.9 2738.06 5
-2 2 -17 50795.1 5523.69 5
2 -2 17 40692.5 4483.74 2
2 -2 17 48131.6 5763.76 1
2 -2 18 12718.6 2461.65 2
2 -1 -18 16830.1 2685.87 5
-2 1 17 17038 3332.66 1
2 -1 -17 15780.3 2522.79 5
-2 1 16 -766.758 899.347 1
-2 1 16 704.765 504.178 2
2 -1 -16 323.015 408.901 5
-2 1 15 35186 3629.42 2
-2 1 15 37496.5 4723.57 1
2 -1 -15 38264.1 4069.83 8
2 -1 -15 32122.8 3511.09 5
2 -1 -14 24049.4 3100.34 8
-2 1 14 19520 2610.66 2
-2 1 14 22951.8 3485.26 1
2 -1 -14 22814 2814.15 5
-2 1 13 116822 7171.42 2
-2 1 13 99749.8 7954.7 1
-2 1 12 4203.96 1290.73 1
-2 1 12 1883.55 757.197 2
2 -1 -12 3621.6 1102.89 8
2 -1 -11 52058.3 4321.72 8
-2 1 11 42724.7 4372.22 1
-2 1 11 46519.9 3766.33 2
2 -1 -10 52122.9 4209.44 8
2 -1 -10 49801.8 4000.84 1
-2 1 10 53113.5 3789.07 2
-2 1 10 44026.2 4202.9 1
-2 1 10 43060.5 4514.33 8
-2 1 10 43818.1 3857.58 7
-2 1 9 60335.6 4452.41 7
2 -1 -9 69994.7 4716.11 1
2 -1 -9 74656.1 4976.72 8
-2 1 9 63360.6 5419.74 8
-2 1 9 71359.5 4323.38 2
2 -1 -9 63162.6 2881.75 4
-2 1 9 68012.5 5061.33 1
-2 1 8 52161.9 3828.74 7
-2 1 8 52711.5 3462.05 2
2 -1 -8 45860.8 3671 1
-2 1 8 57348.7 4293.35 1
2 -1 -8 52487.6 3123.35 2
2 -1 -8 63570.7 4367.22 8
2 -1 -8 53768.5 2557.55 4
-2 1 7 442746 16985.4 1
-2 1 7 396534 16370.2 7
-2 1 7 410478 15807.3 2
2 -1 -7 439712 17121.8 8
2 -1 -7 398257 14827.4 4
2 -1 -7 372307 15206.5 2
2 -1 -7 383244 16309.8 1
2 -1 -6 405.036 292.952 8
-2 1 6 110.504 132.812 7
2 -1 -6 110.038 67.0928 2
-2 1 6 156.716 201.617 2
-2 1 6 372.868 243.559 1
2 -1 -6 738.727 416.953 1
2 -1 -6 308.567 159.512 4
-2 1 5 152426 6162.43 2
2 -1 -5 160656 7396.11 8
2 -1 -5 143271 5872.71 2
-2 1 5 151118 6801.58 1
2 -1 -5 133547 6545.2 1
2 -1 -5 150918 6093.69 4
-2 1 5 141611 6553.62 7
-2 1 4 1325.15 495.734 8
2 -1 -4 1076.55 383.191 8
2 -1 -4 1485.08 328.18 4
2 -1 -4 1053.9 354.15 7
2 -1 -4 1263.87 362.011 1
-2 1 4 1042.38 318.988 7
-2 1 4 1630.06 398.275 1
-2 1 4 1547.47 315.386 2
2 -1 -4 1421.06 259.799 2
-2 1 3 6233.76 687.244 7
-2 1 3 5646.87 650.917 1
2 -1 -3 6109.57 509.144 2
2 -1 -3 7303.85 735.925 7
-2 1 3 5831.45 911.978 8
-2 1 3 5618.58 634.576 6
2 -1 -3 5446.42 843.65 8
2 -1 -3 5607.7 658.224 1
2 -1 -3 5657.55 698.457 4
2 -1 -2 16733.7 1066.27 7
2 -1 -2 16134.2 998.818 1
2 -1 -2 16985 1034.7 6
2 -1 -2 14638.2 1293.65 8
-2 1 2 14364.2 1281.17 8
-2 1 2 15423 1346.22 4
2 -1 -2 15519.7 1260.91 4
2 -1 -2 14619.8 886.728 2
-2 1 2 17060.2 1097.69 6
-2 1 1 24501 1352.38 6
2 -1 -1 21912.2 1419.34 8
2 -1 -1 23718.8 1308.46 6
-2 1 1 23152.5 1414.8 8
-2 1 1 24108 1709.22 4
2 -1 0 5379.32 533.815 6
-2 1 0 5386.84 721.553 4
-2 1 0 5735.63 558.588 6
-2 1 0 5992.48 492.172 5
2 -1 0 5757.46 487.631 5
2 -1 0 5060.48 461.112 8
-2 1 0 5472.02 450.864 8
2 -1 1 29011.1 1303.61 8
-2 1 -1 30912.9 1550.67 5
-2 1 -1 34675.2 2026.14 4
-2 1 -1 28522.4 1625.28 6
2 -1 1 28575.7 1457.67 3
2 -1 1 33235.1 2012.4 4
2 -1 1 27573.6 1515.04 5
-2 1 -2 248385 9401.55 3
2 -1 2 245280 9397.04 3
-2 1 -2 239657 9884.04 4
-2 1 -2 257473 9590.33 5
2 -1 2 278236 10158 4
2 -1 3 33927.7 1885.52 3
-2 1 -3 33266.6 1821.18 3
2 -1 3 30087.2 2020.41 4
-2 1 -3 36804.7 2023.63 5
-2 1 -4 484785 18831.3 3
2 -1 4 512515 18598.7 8
-2 1 -4 529916 19103.9 5
2 -1 4 486875 19761.1 1
2 -1 4 479098 18850.8 4
2 -1 4 537203 19049.5 3
-2 1 -5 138378 6562.29 3
-2 1 -5 152638 6783.04 5
2 -1 5 137362 6140.66 4
2 -1 5 160580 6845.55 3
2 -1 5 141047 6258.65 8
2 -1 5 142922 7350.62 1
2 -1 6 6294.44 1187.81 2
2 -1 6 5625.2 1149.54 1
2 -1 6 4823.57 658.851 4
2 -1 6 4819.98 962.868 3
-2 1 -6 4691.57 954.095 3
2 -1 6 5207.37 838.313 8
-2 1 -6 4118.79 883.045 5
2 -1 7 13399 1559.85 8
2 -1 7 16480.7 1276.21 4
-2 1 -7 14220 1835.65 5
2 -1 7 19690.6 2240.59 2
-2 1 -7 15427.3 2042.13 3
2 -1 7 15643.1 2123.79 1
2 -1 7 20656.2 2263.1 3
2 -1 8 153835 8535.35 1
2 -1 8 155896 7747.65 7
-2 1 -8 116609 7986.98 3
2 -1 8 158036 8230.28 2
2 -1 8 148751 6047.43 4
-2 1 -8 136045 7795.5 5
2 -1 8 178747 8841.75 3
2 -1 8 134702 7214.28 8
2 -1 9 59219.6 4322.84 7
2 -1 9 64193 4719.59 2
2 -1 9 61022.7 4193.69 8
2 -1 9 59830.1 2773.45 4
-2 1 -9 52627.8 4490.4 5
2 -1 9 67521.5 5189.49 1
2 -1 10 141764 7540.89 7
2 -1 10 147765 8048.83 2
2 -1 10 124535 8127.18 1
-2 1 -10 128662 7953.47 5
2 -1 10 123887 7106.88 8
-2 1 -11 62028.6 6449.56 3
2 -1 11 67814.9 4949.3 8
2 -1 11 79585.4 5317.6 7
-2 1 -11 68754.8 5640.01 5
2 -1 11 78515.2 5583.84 2
2 -1 11 64478.4 5677.61 1
2 -1 12 15422.1 2226.91 8
-2 1 -12 19022 3465.24 3
-2 1 -12 15005.1 2512.95 5
2 -1 12 12451.6 2379.1 1
2 -1 12 15855.1 2405.77 2
2 -1 13 3418.61 1136.26 2
2 -1 13 2768.74 1142.18 1
-2 1 -13 2050.45 1398.29 3
-2 1 -13 2101.01 918.683 5
2 -1 14 3877.04 1227.32 2
2 -1 14 3050.31 1090.95 1
-2 1 -14 1341.58 679.487 5
2 -1 15 20059.6 3399.08 1
2 -1 15 21721.9 3044.12 2
-2 1 -15 20521.6 3218.18 5
2 -1 16 -358.576 620.981 2
2 -1 16 -236.043 799.187 1
-2 1 -16 750.493 633.025 5
2 -1 17 -59.1196 485.946 2
-2 1 -17 -238.299 332.613 5
2 -1 18 11897 2377.17 2
2 0 -18 5621.82 1585.99 5
-2 0 18 5601.03 1810.87 1
2 0 -17 14945.4 2580.82 8
2 0 -17 9336.83 1987.63 5
-2 0 17 9577 2419.51 1
-2 0 16 18813.2 3278.46 1
-2 0 16 17162.8 2351.07 2
2 0 -16 22248 3008.67 5
2 0 -16 25284.1 3320.63 8
-2 0 15 20807.3 2560.96 2
-2 0 15 27349.4 3876.57 1
2 0 -15 27293 3351.99 8
2 0 -14 16222.8 2463.57 8
-2 0 14 16733.3 2871.57 1
-2 0 14 13515.8 1919.53 2
-2 0 13 1365.13 570.143 2
-2 0 13 1448.47 939.429 1
2 0 -13 1791.12 747.45 8
-2 0 12 75940.7 4873.16 2
-2 0 12 72941.2 6002.96 1
2 0 -12 74351.9 5473.2 8
-2 0 11 15705.3 1861.86 2
-2 0 11 18663 2652.06 1
2 0 -11 18547.9 2396.05 8
-2 0 10 117547 6011.29 2
2 0 -10 90798.3 7470.63 3
-2 0 10 118861 7943.83 8
-2 0 10 111537 6836.69 7
-2 0 10 114154 7251.46 1
2 0 -10 118264 6880.81 8
2 0 -9 12872.4 2329.42 3
-2 0 9 12903 1450.49 2
-2 0 9 14899.7 2320.52 8
2 0 -9 12321.8 1778.85 8
-2 0 9 10105.5 1693.68 7
-2 0 9 12797.5 1983.28 1
2 0 -8 5628.81 1113.45 8
-2 0 8 4180.48 989.348 7
-2 0 8 4412.28 645.866 4
-2 0 8 3514.52 685.011 2
-2 0 8 4234.22 1038.78 1
2 0 -7 78178.2 3703.91 4
-2 0 7 79021.2 4918.06 7
-2 0 7 82238.2 4039.36 2
2 0 -7 90263.3 5105.76 8
-2 0 7 76651.7 5062.19 1
-2 0 7 88979.8 4030.79 4
2 0 -6 412317 15926.8 8
-2 0 6 400437 14477.6 2
2 0 -6 356843 14435.5 4
-2 0 6 406687 16040.8 1
-2 0 6 377996 15773.3 7
-2 0 6 390021 14763.5 4
-2 0 5 7458.98 607.135 2
2 0 -5 7158.1 783.889 4
-2 0 5 7295.03 1075.04 7
-2 0 5 6581.92 838.436 4
-2 0 5 7418.55 1051.66 1
2 0 -5 8113.61 1128.64 8
2 0 -4 355474 13569.2 4
-2 0 4 338020 13889.5 1
-2 0 4 366429 13832.4 4
2 0 -4 370668 14118.3 8
2 0 -4 376416 14044.1 7
-2 0 4 335982 13911.6 7
-2 0 3 63279.6 3409.51 8
-2 0 3 66785.4 3250.92 7
-2 0 3 66443.5 3471.05 4
2 0 -3 66821.7 3318.25 4
2 0 -3 62312.1 3360.77 8
2 0 -3 67178.3 3329.17 7
-2 0 3 63434.8 3152.2 1
-2 0 3 69335.6 2868.58 6
2 0 -2 33611.6 2081.19 4
2 0 -2 33411.3 1972.71 8
-2 0 2 36549.1 1777.64 7
-2 0 2 32018.7 1933.68 8
-2 0 2 33264.4 1611.12 6
-2 0 2 31869.3 2151.85 4
2 0 -2 33912.3 1838.88 7
-2 0 2 33555.4 1592.75 1
2 0 -2 35244 1582.22 6
2 0 -1 20222.4 1066.7 7
-2 0 1 22340.7 1012.46 7
-2 0 1 17831.2 1199.12 8
-2 0 1 18236.1 1093.69 6
2 0 -1 19674.8 1282.91 8
2 0 -1 20283.8 1104.57 6
2 0 -1 20004.6 1193.13 2
-2 0 1 19865.8 1574.55 4
2 0 0 91583.6 3836.67 8
2 0 0 97048.3 3902.03 6
-2 0 0 84186.4 4308.47 4
2 0 0 93590.4 4154.81 2
-2 0 -1 61979 2934.9 1
2 0 1 52445.7 2981.47 4
2 0 1 67335.2 3340.25 2
-2 0 -1 50833.9 2479.07 5
2 0 1 54332 2611.32 1
-2 0 -1 58411.5 3063.04 4
2 0 2 83928.1 3354 3
2 0 2 84629.4 4221.11 4
-2 0 -2 85275.3 4311.73 1
-2 0 -2 87435.4 3786.07 5
2 0 2 87658.8 4598.32 2
-2 0 -2 87388.3 3297.22 3
2 0 2 86086.5 4054.61 1
-2 0 -2 91211.4 4183.43 4
-2 0 -3 9705.08 1202.92 1
-2 0 -3 10152.1 700.702 3
2 0 3 9750.42 1065.11 4
2 0 3 9587.31 821.396 3
2 0 3 9896.19 1274.61 2
-2 0 -3 10297.1 946.839 5
2 0 3 11062.7 948.391 5
-2 0 -3 10022.6 989.55 4
2 0 3 10992.9 1213.72 1
2 0 3 10208.7 946.942 7
-2 0 -4 41597.2 2994.06 1
2 0 4 44316.2 3142.05 2
2 0 4 41377.4 2544.38 3
2 0 4 36262.9 2375.42 7
-2 0 -4 37044.8 2139.1 3
-2 0 -4 41387.3 2438.84 5
2 0 4 38001.8 2387.11 4
2 0 4 43485.8 2956.2 1
-2 0 -4 42086.9 2298.64 4
2 0 5 164976 7231.49 4
-2 0 -5 181865 7682.04 5
-2 0 -5 167382 8330.41 1
2 0 5 192510 8273.13 3
-2 0 -5 158093 7504.53 3
2 0 5 187778 8564.37 1
2 0 5 187433 8655.73 2
2 0 5 165752 7613.2 7
-2 0 -5 174697 7060.42 4
2 0 6 52173 2888.6 4
-2 0 -6 49790.8 3629.18 3
2 0 6 63832.9 4310.18 2
2 0 6 53139 3130.7 8
-2 0 -6 57609.8 3577.01 5
2 0 6 52285.2 3414.45 7
2 0 6 58802.8 4176.74 1
-2 0 -6 59869.5 2819.3 4
2 0 7 80415 4737.42 7
2 0 7 73631.6 4289.38 5
-2 0 -7 89467.8 3784.27 4
2 0 7 91778.6 5632.1 2
-2 0 -7 72391.2 5224.35 3
-2 0 -7 86269.1 5014.46 5
-2 0 -7 86227.4 5440.55 1
2 0 7 87911 5658.19 1
2 0 7 71615.1 4264.27 8
2 0 8 38710.9 3681.45 1
-2 0 -8 34077.7 3659.31 3
2 0 8 39930.6 3116.33 7
-2 0 -8 39594.1 3330.08 5
2 0 8 43473.2 3692.26 2
2 0 8 34298.9 2743.47 8
2 0 9 49126.9 3739.39 7
2 0 9 46855.8 3516.14 8
2 0 9 57646.6 4511.92 2
-2 0 -9 51311.9 4123.43 5
-2 0 -9 42591.9 4549.31 3
2 0 9 50848 4538.4 1
-2 0 -10 18691.2 2527.09 5
2 0 10 19850 2317.38 7
2 0 10 19814 2267.7 8
2 0 10 21710.7 2986.1 1
2 0 10 20964.5 2689.19 2
2 0 11 103136 6414.28 8
2 0 11 122279 7466.48 2
-2 0 -11 101273 7066.15 5
2 0 11 108832 6595.24 7
2 0 11 100583 7562.52 1
-2 0 -11 115404 8822.09 3
-2 0 -12 107289 8853.66 3
2 0 12 100130 7749.01 1
2 0 12 111423 7308.91 2
-2 0 -12 102079 7228.35 5
2 0 13 35043.5 3799.78 2
-2 0 -13 35053.8 4857.48 3
2 0 13 31412.9 4144.98 1
-2 0 -13 28865.4 3621.24 5
-2 0 -14 34387.2 4076.71 5
2 0 14 32493.2 3823.19 2
2 0 14 30400.3 4228.13 1
-2 0 -15 101.589 286.04 5
2 0 15 285.488 948.241 1
2 0 15 841.454 719.447 2
2 0 16 8524.13 2350.13 1
2 0 16 5272.25 1524.26 2
-2 0 -16 6986.68 1873.88 5
2 0 17 402.896 343.971 2
-2 0 -17 371.047 417.06 5
-2 -1 18 32691 4541.98 1
-2 -1 17 -200.904 697.041 1
2 1 -17 294.334 419.235 5
2 1 -17 -576.119 575.233 8
-2 -1 16 119.181 259.57 2
2 1 -16 496.612 527.425 8
-2 -1 15 29787.4 3945.19 1
2 1 -15 34623.7 3758.87 8
-2 -1 15 27841.3 2765.29 2
2 1 -14 76238.3 5820.01 8
-2 -1 14 73733.5 4753.03 2
-2 -1 14 73474.1 6243.47 1
2 1 -13 38916.3 3756.21 8
-2 -1 13 32592.9 3783.9 1
-2 -1 13 30166 2736.27 2
2 1 -12 5674.57 1315.07 8
-2 -1 12 5562.9 1371.53 1
-2 -1 12 6022.88 1064.73 2
-2 -1 11 34173.3 2710.69 2
-2 -1 11 41085.1 2237.12 4
2 1 -11 34853.4 3405.63 8
-2 -1 11 32328.1 3553.66 1
-2 -1 10 9182.49 1199.63 2
-2 -1 10 10995.6 1806.21 7
-2 -1 10 10994.2 1992.1 8
2 1 -10 9977.1 1663.61 8
-2 -1 10 11274.4 1873.96 1
2 1 -10 6569.6 1770.41 3
-2 -1 10 10300.3 1002.94 4
-2 -1 9 107786 6954.4 8
-2 -1 9 110817 5052.6 4
2 1 -9 97642.5 6106.35 8
-2 -1 9 111204 6572.66 7
-2 -1 9 111697 5327.49 2
-2 -1 9 109983 6718.05 1
-2 -1 8 4195.22 687.981 4
-2 -1 8 2655.55 819.38 7
-2 -1 8 2929.97 575.177 2
2 1 -8 2626.34 775.663 8
-2 -1 8 2783.27 810.665 1
-2 -1 7 6226.78 858.316 4
-2 -1 7 7510.04 1300.48 7
2 1 -7 7184.03 1150.73 8
-2 -1 7 8444.6 1354.11 1
-2 -1 7 7044.45 802.754 2
-2 -1 6 32063 2248.03 4
-2 -1 6 30583.7 2500.03 1
2 1 -6 31706.1 2454.77 8
-2 -1 6 30821.4 1729.18 2
-2 -1 6 30232.8 2672.17 7
-2 -1 5 233420 9411.8 4
-2 -1 5 213527 9775.45 7
2 1 -5 210974 9332.81 8
2 1 -4 16417 1468.45 8
2 1 -4 17689.6 2326.06 3
-2 -1 4 17600 900.341 6
-2 -1 4 14952.7 1528.07 4
-2 -1 4 15521.9 874.303 2
2 1 -3 804174 35114.4 3
-2 -1 3 903964 32634.7 2
-2 -1 3 885916 34141.3 4
-2 -1 2 68796.3 3120.98 2
2 1 -2 70325.8 3471.29 8
2 1 -2 75460.4 2985.55 2
2 1 -2 70395 2783.48 6
-2 -1 2 66909 4027.78 4
2 1 -1 167549 8119.86 3
2 1 -1 180130 7434.44 8
-2 -1 1 187272 7520.26 2
2 1 -1 190216 7237.39 2
-2 -1 1 177486 8370.41 4
2 1 -1 193191 7076.63 6
-2 -1 0 42263 2991.45 4
-2 -1 0 45382.3 2614.84 2
2 1 0 42656.3 2315.84 2
-2 -1 0 45961.5 2168.74 1
2 1 0 44415.6 2175.95 5
2 1 0 41602 2319.25 3
-2 -1 -1 77735 2987.27 7
-2 -1 -1 79807.4 4408.47 4
2 1 1 82790.5 3903.67 2
-2 -1 -1 82484.6 4187.44 2
-2 -1 -1 76606 3577 1
-2 -1 -1 79275 3413 5
2 1 1 76772.3 3421.23 5
2 1 2 15421.7 1459.4 2
2 1 2 14685.6 1242.24 1
-2 -1 -2 16048 1579.48 4
-2 -1 -2 15092.2 946.746 7
-2 -1 -2 14300.9 1505.26 2
-2 -1 -2 14337.6 1069.55 5
2 1 2 13084.7 1032.07 5
-2 -1 -2 13937.1 1244.3 1
2 1 3 185762 7609.02 1
2 1 3 183432 8023.43 2
-2 -1 -3 175722 7663.13 4
-2 -1 -3 173904 7065.31 7
-2 -1 -3 171754 7054.69 5
2 1 3 175805 7061.43 5
-2 -1 -3 161150 7501.52 1
2 1 3 168211 6682.44 7
-2 -1 -4 12420.5 1047.32 3
2 1 4 14262.9 1670.92 2
2 1 4 15927 1601.38 1
-2 -1 -4 14354.3 1247.22 5
2 1 4 13322.2 1175.68 5
-2 -1 -4 13941.1 1339.92 4
2 1 4 13018.3 1056.48 7
-2 -1 -4 13559.4 1498.02 1
2 1 5 95028.1 5067.22 1
2 1 5 83744 4046.45 7
-2 -1 -5 70169.6 4278.89 3
2 1 5 93992.8 5300.44 2
-2 -1 -5 85774.6 4328.69 5
-2 -1 -5 79619.9 4789.06 1
2 1 5 81774 4098.05 5
-2 -1 -5 84969.3 4181.23 4
2 1 6 54234.7 3898.55 1
2 1 6 51345.8 3053.58 7
2 1 6 56208.8 4077.63 2
-2 -1 -6 56137.3 3364.76 5
-2 -1 -6 52904.3 2847.51 4
-2 -1 -7 46005.1 3695.82 1
2 1 7 51274.4 3991.77 1
2 1 7 44092.3 2973.88 8
-2 -1 -7 51807.2 3428.99 5
2 1 7 50732.3 3992.88 2
2 1 7 44443.3 3005.3 7
2 1 7 40883 2860.26 5
-2 -1 -7 47436.9 2568.71 4
2 1 8 103134 5937.74 8
2 1 8 112360 6139.44 7
-2 -1 -8 124334 7203.87 1
-2 -1 -8 96811.5 7245.11 3
2 1 8 130824 7518.42 2
2 1 8 131957 7641.38 1
-2 -1 -8 126801 6716.73 5
2 1 8 121965 6101.92 5
-2 -1 -8 135346 5387.14 4
-2 -1 -9 24431.2 3400.36 3
2 1 9 27152.6 2566.46 7
-2 -1 -9 29400.4 3154.9 1
2 1 9 26497.6 2477.52 8
2 1 9 30676.3 3443.02 1
-2 -1 -9 25337.9 2728.83 5
-2 -1 -9 32608.7 1841.54 4
2 1 9 30799.5 3281.47 2
2 1 10 2063.41 631.306 8
2 1 10 1647.46 851.11 1
2 1 10 1274.76 576.224 7
2 1 10 268.12 401.352 2
-2 -1 -10 1161.95 608.287 5
-2 -1 -10 1227.93 271.174 4
2 1 11 326.667 309.086 1
-2 -1 -11 -173.202 425.461 5
2 1 11 161.833 261.618 2
2 1 12 112936 8298.69 1
-2 -1 -12 119997 9111.75 3
2 1 12 104241 7486.8 2
-2 -1 -12 104056 7235.07 5
-2 -1 -13 78821.3 7337.82 3
2 1 13 75650.3 6103.93 2
-2 -1 -13 59510.5 5476.94 5
2 1 13 73289.2 6726.05 1
2 1 14 53328.6 5213.61 2
2 1 14 55735.5 5970.78 1
-2 -1 -14 52439.7 5121.09 5
2 1 15 44983.3 5529.25 1
2 1 15 46806.2 4891.96 2
-2 -1 -15 46720.2 4887.41 5
-2 -1 -16 1491.66 978.766 5
2 1 16 32.5588 562.535 1
2 1 16 1637.23 1087 2
-2 -1 -17 1880.04 1045.09 5
2 1 17 110.611 583.776 2
-2 -2 18 87501.3 7794.61 1
2 2 -18 94771 7301.17 8
2 2 -17 57490 5345.59 8
-2 -2 17 56210.1 5823.95 1
-2 -2 16 9310.89 2241.87 1
2 2 -16 6892.36 1685.22 8
-2 -2 15 11169 1558.41 2
-2 -2 15 9743.16 2119.66 1
2 2 -15 9652.55 1934.62 8
-2 -2 14 35588.6 4117.16 1
-2 -2 14 43944.3 3243.54 2
2 2 -14 44258.6 4205.79 8
-2 -2 13 36013 3929.9 1
2 2 -13 36749.2 3707.68 8
-2 -2 13 40257.3 2327.9 4
-2 -2 13 38038.1 2915.82 2
-2 -2 12 99307.1 4601.4 4
-2 -2 12 88043 4982.87 2
-2 -2 12 85207.8 6384.92 1
2 2 -12 97149.6 6307.63 8
-2 -2 11 82400.7 4121.08 4
-2 -2 11 75307.7 4265.76 2
2 2 -11 72685.4 5264.84 8
-2 -2 11 77951.4 5686.5 1
-2 -2 10 35927 3432.49 7
-2 -2 10 35457 3441 1
2 2 -10 31618.4 4213.06 3
-2 -2 10 37782.5 2568.86 2
-2 -2 10 34610.4 3559.52 8
2 2 -10 39055.1 3390.21 8
-2 -2 10 38406.1 2526.4 4
-2 -2 9 451.416 417.98 8
-2 -2 9 28.7063 162.541 4
-2 -2 9 90.3493 199.121 7
2 2 -9 845.18 640.848 3
2 2 -9 882.651 529.256 8
-2 -2 9 317.143 269.946 1
2 2 -8 50627.4 3568.59 8
-2 -2 8 43669.4 3579.3 8
-2 -2 8 45876.1 3015.9 4
2 2 -7 30431.9 2616.42 8
-2 -2 7 34104.1 2526.8 4
-2 -2 6 49099.8 2072.88 6
2 2 -6 54350.1 3392.03 8
-2 -2 6 54144.1 3468.07 4
-2 -2 6 48664 2553.51 2
2 2 -5 3042.21 649.734 8
2 2 -5 2812.48 943.041 3
-2 -2 5 2966.65 782.241 4
-2 -2 5 3426.32 498.294 2
2 2 -4 46350.9 2833.2 8
-2 -2 4 51821 3544.34 4
-2 -2 4 40952.5 2285.76 2
2 2 -4 36223.4 3449.45 3
-2 -2 3 80242.7 3943.49 2
2 2 -3 87295.3 4342.63 8
-2 -2 3 88287.9 5362.51 4
2 2 -3 91261.9 3817.43 2
2 2 -3 79218.7 5005.38 3
-2 -2 2 539015 22154.6 4
-2 -2 2 657659 23432.1 3
-2 -2 2 514736 20237.9 2
2 2 -2 595824 20094.2 2
2 2 -2 550831 20429.2 8
2 2 -2 459924 20692.7 3
-2 -2 1 5770.54 801.716 2
-2 -2 1 4730.48 1144.45 4
2 2 -1 5511.64 734.27 3
2 2 -1 7140.06 788.705 2
-2 -2 1 7042.68 1325.16 3
-2 -2 0 326360 12612.1 3
2 2 0 314376 11741.4 2
2 2 0 304199 11281.3 5
-2 -2 0 275771 11908.3 2
2 2 0 284873 11004 3
-2 -2 0 299953 13546.5 4
-2 -2 -1 44794.3 2628.16 3
-2 -2 -1 50237.3 3846.45 4
2 2 1 50557.7 2891.76 2
2 2 1 45674.9 1881.05 3
2 2 1 47734.8 2381.62 5
-2 -2 -1 45676.9 2673.61 1
-2 -2 -1 46583.9 3017.75 2
-2 -2 -2 130.747 138.017 1
-2 -2 -2 338.712 135.602 7
-2 -2 -2 462.359 367.119 4
-2 -2 -2 323.929 165.36 5
2 2 2 561.131 205.554 5
2 2 2 701.801 318.455 2
-2 -2 -3 4039.8 522.266 7
2 2 3 4450.52 616.658 5
-2 -2 -3 4454.92 798.728 1
-2 -2 -3 3569.95 547.015 5
-2 -2 -3 5518.74 1049.99 4
2 2 3 3611.14 773.092 2
-2 -2 -4 209644 9039.15 4
2 2 4 206521 9105.8 2
-2 -2 -4 197065 7918.19 5
-2 -2 -4 199404 7825.18 7
2 2 4 217212 8904.4 1
-2 -2 -5 4355.28 726.305 7
-2 -2 -5 4964.91 908.759 4
-2 -2 -5 3441.98 804.71 3
2 2 5 3639.46 856.365 1
-2 -2 -5 4566.86 730.222 5
2 2 5 5846.72 1143.85 2
2 2 6 124463 5949.25 7
-2 -2 -6 133255 6390.06 7
-2 -2 -6 121634 7116.86 3
2 2 6 150819 7694.71 2
-2 -2 -6 143854 6444.87 4
2 2 6 142755 7379.11 1
-2 -2 -6 138372 6384.56 5
-2 -2 -6 118017 6857.86 1
-2 -2 -7 480.499 323.745 2
-2 -2 -7 629.237 448.181 1
-2 -2 -7 966.611 511.788 3
2 2 7 533.129 283.819 7
-2 -2 -7 239.682 289.618 5
-2 -2 -7 373.711 245.523 4
2 2 7 483.039 384.974 1
2 2 7 812.518 355.164 5
2 2 7 1527.36 702.915 2
-2 -2 -8 12689 1278.25 4
2 2 8 15714.8 2264.69 1
2 2 8 10413.1 1387.96 7
-2 -2 -8 15455.9 2075.56 2
-2 -2 -8 13916.1 1744.24 5
2 2 8 17596.7 2408.44 2
-2 -2 -8 11673.9 1836.61 1
2 2 8 12399.7 1480.53 5
-2 -2 -8 14108.3 2260.42 3
2 2 8 11017 1485.01 8
-2 -2 -9 71683.3 5944.32 3
-2 -2 -9 77505.8 3837.2 4
2 2 9 68404.7 4464.14 7
2 2 9 70285.4 5535.35 2
2 2 9 77512.2 5833.73 1
-2 -2 -9 76004.1 5019.43 5
-2 -2 -10 12058.2 1900.32 5
-2 -2 -10 14378.4 2584.68 3
2 2 10 11978.2 1713.18 7
2 2 10 13811.9 2406.9 1
2 2 10 14533.7 2428.08 2
-2 -2 -10 15537.2 1301.17 4
-2 -2 -11 9551.42 1792.72 5
2 2 11 11752.5 2361.47 1
2 2 11 12173.4 2253.75 2
-2 -2 -11 10655.7 980.594 4
2 2 12 5960.41 1650.99 1
-2 -2 -12 4809.72 1638.46 3
-2 -2 -12 5436.83 1365.83 5
-2 -2 -12 4031.09 493.167 4
2 2 12 3549.15 1213.81 2
2 2 13 33605.4 4130.63 2
-2 -2 -13 29992.1 3593.84 5
2 2 13 39917 4853.76 1
2 2 14 19023 3497.68 1
-2 -2 -14 17435.4 2799.54 5
2 2 14 15498 2771.46 2
2 2 15 76294 7516.12 1
-2 -2 -15 63884.7 5870.85 5
2 2 15 72334.7 6544.06 2
2 2 16 51948.4 5628.78 2
-2 -2 -16 57355.7 5588.13 5
2 3 -18 5155.44 1546.23 8
-2 -3 18 9388 2309.29 1
2 3 -17 63637.8 5728.15 8
-2 -3 17 69990.1 6503.85 1
2 3 -16 54397.3 5071.59 8
-2 -3 16 51510.8 5270.16 1
-2 -3 15 23847.6 3354.48 1
2 3 -15 22681.4 3048.88 8
-2 -3 15 22218.9 2215.26 2
-2 -3 14 42271.8 2635.57 4
-2 -3 14 40146.5 4306.87 1
-2 -3 14 37935.4 2958.7 2
2 3 -14 37116.8 3875.07 8
-2 -3 13 20354.3 2855.66 1
2 3 -13 18922.9 2589.98 8
-2 -3 13 17256.8 1658.99 4
-2 -3 13 19552.3 1931.21 2
2 3 -12 5167.45 1244.71 8
-2 -3 12 5078.81 1331.55 1
-2 -3 12 3696.24 772.535 2
-2 -3 12 4529.02 803.812 4
-2 -3 11 126693 7404.29 1
2 3 -11 112930 6961.99 8
-2 -3 11 116528 5922.27 4
-2 -3 10 144184 8415.93 8
-2 -3 10 166469 7559.89 4
2 3 -10 155499 8292.54 8
2 3 -9 34805.2 3004.35 8
-2 -3 9 36762.5 2794.26 4
-2 -3 9 32289.5 1718.23 6
-2 -3 9 35830.8 3153.79 8
2 3 -9 34532.1 4401.66 3
2 3 -8 48612.7 5070.63 3
-2 -3 8 50495.8 3626.34 8
2 3 -8 50398.3 3558.22 8
-2 -3 8 46477.5 1932.16 6
-2 -3 8 46173.8 1949.04 6
-2 -3 8 54234.7 3591.03 4
-2 -3 7 926.208 361.278 8
2 3 -7 1371.57 547.29 8
-2 -3 7 651.257 281.288 2
2 3 -7 1605.78 735.982 3
-2 -3 7 1622.11 569.122 4
2 3 -6 20793.2 1971.64 8
-2 -3 6 23718.2 2440.65 4
2 3 -6 16766.9 2552.06 3
-2 -3 6 19654.5 1650.32 2
-2 -3 5 30611.2 2183.58 2
2 3 -5 30434.1 3158.8 3
2 3 -5 32985.6 2485.53 8
-2 -3 4 22474 2854.94 3
2 3 -4 19984.4 2193.52 3
-2 -3 4 16744.9 1528.3 2
2 3 -4 17192 1663.29 8
2 3 -3 1537.87 426.47 8
2 3 -3 1980.49 433.195 2
-2 -3 3 2456.27 912.889 3
2 3 -3 1773.65 530.859 3
-2 -3 3 1322.12 412.351 2
2 3 -2 7904.2 1028.69 8
-2 -3 2 8226.49 1079.55 2
2 3 -2 6535.89 936.468 3
-2 -3 2 7145.97 1349.38 3
2 3 -2 8498.69 967.179 2
2 3 -1 107574 5000.84 3
2 3 -1 124931 5473.43 2
-2 -3 1 126662 6341.79 3
-2 -3 1 103823 5546.11 2
-2 -3 0 13728.2 1478.96 3
-2 -3 0 12983.9 1498.63 2
2 3 0 12506.4 939.236 3
2 3 0 15474.6 1475.61 2
2 3 0 13611.2 1115.95 5
2 3 1 412553 16135.8 2
-2 -3 -1 421547 15615.2 3
2 3 1 405214 14668 3
-2 -3 -1 389764 15905.4 1
2 3 1 398868 15178 5
2 3 2 31112.6 2467.2 2
-2 -3 -2 30948.5 1758.12 7
-2 -3 -2 30823.4 1786.99 3
2 3 2 29103.8 1838.97 5
-2 -3 -2 27820.7 2305.66 1
-2 -3 -3 38880.7 1879.25 3
-2 -3 -3 41113.8 2206.72 7
2 3 3 38404.1 2982.51 2
-2 -3 -3 36485.9 2182.63 5
2 3 3 34346.8 2198.33 5
-2 -3 -4 35219.3 3237.73 4
-2 -3 -4 29045.2 1517.7 3
2 3 4 32685 2835.16 2
-2 -3 -4 31230.8 2014.48 5
-2 -3 -4 27850.3 2560.62 1
-2 -3 -4 31655.1 2021.02 7
-2 -3 -5 118403 6299.43 4
-2 -3 -5 107464 4998.3 7
-2 -3 -5 97103.8 4153.45 3
-2 -3 -5 97591.6 4857.3 5
-2 -3 -5 102465 5932.27 1
2 3 5 114463 6349.19 2
-2 -3 -6 599.016 473.677 1
-2 -3 -6 131.757 495.123 2
-2 -3 -6 -214.898 231.41 4
2 3 6 1359.09 644.879 2
-2 -3 -6 803.709 447.004 3
-2 -3 -6 1063.71 377.098 5
2 3 6 305.999 235.674 5
2 3 7 158497 7557.59 5
-2 -3 -7 161989 8916.25 3
-2 -3 -7 176622 8142.71 4
2 3 7 177786 9194.12 1
-2 -3 -7 163428 7773.27 5
2 3 7 187959 9621.26 2
-2 -3 -7 165634 8900.13 1
2 3 8 9918.5 1798.6 1
-2 -3 -8 7853.52 1258.8 5
-2 -3 -8 8423.78 1646.22 3
-2 -3 -8 8175.98 1314.85 7
2 3 8 9524.16 1289.24 5
2 3 8 10855.6 1989.36 2
-2 -3 -8 7742.73 1172.4 4
2 3 9 41592 4207.01 2
2 3 9 36697 3909.41 1
-2 -3 -9 39802.5 4084.09 3
-2 -3 -9 36118.4 2650.83 4
-2 -3 -9 36425.7 3164.7 5
2 3 10 7667.09 1815.18 1
-2 -3 -10 5293.62 1557.75 3
-2 -3 -10 5374.12 1237.62 5
2 3 10 5528.25 1575.57 2
-2 -3 -10 6155.27 910.045 4
2 3 11 9333.28 2093.8 1
2 3 11 5205.25 1562.66 2
-2 -3 -11 6285.44 1378.03 5
-2 -3 -11 7084.17 930.517 4
2 3 12 16517.2 2984.66 1
-2 -3 -12 12839.3 2140.57 5
2 3 12 16872.3 2966.03 2
2 3 13 1250.24 865.741 1
-2 -3 -13 1514.84 765.919 5
2 3 13 3238.15 1407.39 2
2 3 14 1837.18 1020.27 2
-2 -3 -14 431.782 188.919 5
-2 -3 -15 4087.02 1291.1 5
2 3 15 3576.64 1413.83 2
-2 -3 -16 44016.8 4742.92 5
-2 -4 18 422.376 454.266 1
-2 -4 17 15437.9 2903.89 1
2 4 -17 14241.5 2572.98 8
-2 -4 16 32418.1 4080.05 1
2 4 -16 24688.8 3360.44 8
2 4 -15 25266.3 3222.04 8
-2 -4 15 26464 3585.91 1
-2 -4 14 73116.1 5980.19 1
2 4 -14 68961.3 5563.33 8
-2 -4 14 69932.9 4135.2 4
-2 -4 14 70412.4 4383.71 2
-2 -4 13 51862.5 3495.88 4
-2 -4 13 54969.1 4865.93 1
2 4 -13 47134.2 4328.9 8
2 4 -12 2321.08 873.677 8
-2 -4 12 4321.92 550.567 6
-2 -4 12 4121.39 1163.82 1
-2 -4 12 5272.31 977.968 4
-2 -4 11 7588.28 1247.57 4
-2 -4 11 6475.36 554.974 6
2 4 -11 6839.85 1441.45 8
2 4 -10 87598.8 5447.99 8
-2 -4 10 96410 5304.43 4
-2 -4 9 111049 6085.29 4
2 4 -9 113898 6120.56 8
-2 -4 9 106722 6011.67 8
2 4 -8 78237.4 4838.03 8
2 4 -8 82302.5 6618.95 3
-2 -4 8 73206.7 4683.5 8
-2 -4 8 79341.7 5199.41 4
-2 -4 8 66544.7 4237.67 2
2 4 -7 179706 10492.6 3
-2 -4 7 173311 8563.18 8
-2 -4 7 166842 8291.21 2
-2 -4 6 16169.8 1729.38 2
2 4 -6 17993.4 2468.91 3
2 4 -6 19852.7 2006.78 8
2 4 -5 3776.14 806.045 8
2 4 -5 3971.92 984.499 3
-2 -4 5 3919.67 1264.4 3
-2 -4 5 3715.27 790.237 2
-2 -4 4 5473 968.683 2
2 4 -4 5845.73 980.966 8
-2 -4 4 5781.19 1421.07 3
2 4 -4 4978.91 1012.31 3
2 4 -3 78821.8 4232.98 8
2 4 -3 69977.7 4134.09 3
-2 -4 3 81475 5512.68 3
2 4 -3 68597.4 3867.62 2
2 4 -2 6492.86 913.065 3
2 4 -2 5737.67 934.45 2
-2 -4 1 8729.28 1353.32 3
2 4 -1 9261.03 1215.89 2
2 4 -1 7375.12 856.208 3
2 4 0 30999 2025.57 5
2 4 0 36679.5 2716.67 2
2 4 0 35568.6 1972.29 3
-2 -4 0 37780.1 2834.85 3
2 4 1 13288.2 1570.17 2
-2 -4 -1 10729.6 1540.54 2
-2 -4 -1 14148.4 1438.73 3
2 4 1 10242.5 1023.65 5
2 4 2 231496 10276.9 2
-2 -4 -2 236976 9198.14 3
-2 -4 -2 213843 10424.2 2
-2 -4 -2 197955 9885.34 1
2 4 2 220009 8919.69 5
-2 -4 -3 1965.01 668.149 1
-2 -4 -3 1781.12 438.074 7
2 4 3 1216.64 540.505 2
-2 -4 -3 920.048 272.722 3
-2 -4 -3 1448.59 598.164 2
-2 -4 -4 158233 6825.18 7
-2 -4 -4 147539 8205.47 2
-2 -4 -4 151552 6276.23 3
-2 -4 -4 146675 7925.3 1
2 4 4 170531 8399.04 2
2 4 5 36871.7 3370.43 2
-2 -4 -5 33992.5 1939.91 3
-2 -4 -5 33905.4 2317.2 5
-2 -4 -5 32079.1 3083.83 1
-2 -4 -6 23998.8 2090.33 7
-2 -4 -6 27810.8 2874.12 4
2 4 6 27299.4 3039.27 2
2 4 6 20921.9 1872.79 5
-2 -4 -6 24101.5 1974.34 5
-2 -4 -6 25661 1594.77 3
-2 -4 -7 81.3005 424.35 4
-2 -4 -7 436.509 320.04 5
-2 -4 -7 83.4902 233.989 7
-2 -4 -7 82.8375 164.709 3
2 4 7 160.597 202.604 5
-2 -4 -7 207.682 118.898 3
2 4 7 200.129 343.664 2
2 4 8 190854 10315 2
-2 -4 -8 164912 8143.86 7
-2 -4 -8 149652 7669.07 5
-2 -4 -8 178963 8418.73 4
2 4 8 147200 7556.94 5
-2 -4 -8 166354 9029.81 3
-2 -4 -9 5871.32 1078.99 4
-2 -4 -9 4539.12 1077.42 7
-2 -4 -9 4754.8 1297.55 3
-2 -4 -9 4352.03 977.43 5
2 4 9 6748.48 1775.35 2
-2 -4 -10 81087.2 5377.09 5
2 4 10 84076.7 7023.7 2
-2 -4 -10 90584.1 5007.66 4
-2 -4 -11 8246.36 1168.91 4
-2 -4 -11 7585.25 1447.82 5
2 4 11 7258.94 1924.03 2
-2 -4 -12 1082.62 583.739 5
2 4 12 3703.61 1651.15 2
-2 -4 -13 6582.92 1541.91 5
2 4 13 7163.68 2041.1 2
-2 -4 -14 608.194 440.648 5
-2 -4 -15 1215.38 773.295 5
2 5 -17 6802.5 1826.68 8
-2 -5 17 5251.19 1599.41 1
2 5 -16 22100.1 3129.72 8
-2 -5 16 22431.4 3319.78 1
2 5 -15 4173.41 1288.19 8
-2 -5 15 2723.85 1236.15 1
2 5 -14 12174.7 2146.15 8
-2 -5 14 9885.67 2008.03 1
-2 -5 14 7623.39 1268.27 4
2 5 -13 70464.3 5431.36 8
-2 -5 13 69782.2 4603.97 4
2 5 -12 33634.9 3435.28 8
-2 -5 12 38901 3265.23 4
2 5 -11 14979.9 2078.14 8
-2 -5 11 12763.6 1834.85 4
-2 -5 10 19010.6 2357.28 4
-2 -5 10 21335 3750.75 3
2 5 -10 16719.7 2135.18 8
2 5 -9 30275.7 2919.04 8
-2 -5 9 37417.2 4806.32 3
2 5 -8 30474.2 2863.38 8
-2 -5 8 42008.9 4917.51 3
2 5 -7 126692 8351.96 3
2 5 -7 145557 7520.63 8
2 5 -6 166930 9448.39 3
2 5 -6 186071 8839.59 8
-2 -5 5 32518.3 3849.42 3
2 5 -5 37596.6 2945.51 8
2 5 -5 31414.7 3024.02 3
2 5 -4 82011.8 4645.16 8
-2 -5 4 90073.1 6237.99 3
2 5 -4 71093.7 2985.12 6
2 5 -4 66911.9 4488.05 3
2 5 -3 3945.69 869.877 8
2 5 -3 3408.86 753.953 2
-2 -5 3 3772.3 1171.09 3
-2 -5 3 3766.78 936.339 2
2 5 -3 4450.74 879.507 3
-2 -5 2 27891.7 2742.06 2
2 5 -2 28651.4 2223.24 3
-2 -5 2 35820.5 3333.85 3
2 5 -2 31464 2598.88 2
2 5 -1 994.386 328.294 3
2 5 -1 1128.1 501.153 2
-2 -5 1 480.896 315.538 3
-2 -5 1 451.208 365.85 2
-2 -5 0 48759.5 3903.84 2
2 5 0 48693.7 2704.63 3
2 5 0 56403.5 3829.95 2
-2 -5 0 56139.2 3864.79 3
-2 -5 -1 8549.53 1374.45 1
-2 -5 -1 9902.86 1373.14 3
2 5 1 10019.8 1461.94 2
-2 -5 -1 8505.37 1498.05 2
-2 -5 -2 1085.17 451.112 3
-2 -5 -2 457.358 295.573 1
2 5 2 1207.54 608.058 2
-2 -5 -2 443.208 428.919 2
2 5 3 142091 7608.14 2
-2 -5 -3 138189 6227.26 3
2 5 4 1291.12 647.389 2
-2 -5 -4 874.529 313.107 3
-2 -5 -4 1527.74 559.337 1
-2 -5 -5 138939 6331.1 7
2 5 5 132736 7870.09 2
-2 -5 -5 131739 5716.25 3
-2 -5 -6 7145.3 1607.96 4
-2 -5 -6 4964.95 933.809 7
2 5 6 6126.3 1469.37 2
2 5 6 4394.31 788.966 5
-2 -5 -6 4929.3 711.33 3
-2 -5 -7 1973.72 768.025 4
-2 -5 -7 1041.18 453.189 7
-2 -5 -7 1491.34 498.786 5
2 5 7 1271.06 918.482 2
-2 -5 -7 1255.15 322.518 3
2 5 7 731.339 355.297 5
-2 -5 -8 15897.2 2153.7 4
-2 -5 -8 12128.4 1242.8 3
2 5 8 11231.6 1473.49 5
2 5 8 18118.2 2831.99 2
-2 -5 -8 11459.9 1483.84 5
-2 -5 -8 12920.6 1763.06 7
-2 -5 -9 90871 5713.24 4
2 5 9 99756 7641.33 2
-2 -5 -9 88970.5 5702.75 7
-2 -5 -9 86512.3 5209.42 5
-2 -5 -10 1466.44 609.004 4
-2 -5 -10 2954.17 907.832 7
2 5 10 2360.69 1200.36 2
-2 -5 -10 3536.73 943.283 5
2 5 11 100125 8101.72 2
-2 -5 -11 77362.8 5312.17 5
2 5 12 10279.8 2532.36 2
-2 -5 -12 8079.33 1572.51 5
-2 -6 17 20885.1 3280.48 1
2 6 -16 2232.17 1097.74 8
-2 -6 16 3693.27 1404.66 1
2 6 -15 46362.8 4620.07 8
-2 -6 15 48687.5 4792.44 1
-2 -6 14 2607.52 817.529 4
2 6 -14 1862.73 916.518 8
-2 -6 13 14434.2 2028.44 4
2 6 -13 15352.1 2341.57 8
-2 -6 12 14097.2 2005.05 4
2 6 -12 10417.1 1839.46 8
2 6 -11 17442.1 2331.34 8
-2 -6 11 21415 2617.02 4
-2 -6 11 25063.4 4294.92 3
-2 -6 11 12792.3 2004.38 2
2 6 -10 36935.3 3392.51 8
-2 -6 10 26179.5 2938.77 2
-2 -6 9 16346.3 3156.13 3
-2 -6 9 8258.98 1559.37 2
2 6 -9 13171.4 1865.72 8
2 6 -8 8554.34 1476.15 8
-2 -6 8 6687.06 1913.88 3
-2 -6 8 4999 1195.68 2
2 6 -7 660.222 473.908 8
-2 -6 7 -70.5465 749.522 3
-2 -6 7 623.732 474.496 2
2 6 -6 120371 7119.73 3
2 6 -6 130342 6796.95 8
-2 -6 6 141265 9133.18 3
-2 -6 5 106737 7118.02 2
2 6 -5 138194 7252.28 8
-2 -6 5 155695 9473.16 3
2 6 -5 122701 7218.09 3
2 6 -5 135032 5022.38 6
-2 -6 4 70594.1 5726.83 3
-2 -6 4 54800.2 4461.38 2
2 6 -4 62337.8 2810.29 6
2 6 -4 65435.5 4364.23 8
2 6 -4 60805.8 4209.22 3
-2 -6 3 153752 9182.94 2
2 6 -3 188185 7398.58 6
2 6 -3 166904 8452.73 3
-2 -6 3 211310 10792.6 3
2 6 -3 209684 9357.79 8
2 6 -2 2302.98 784.297 2
-2 -6 2 2005.37 846.251 3
2 6 -2 2275.08 603.724 3
-2 -6 2 1534.69 753.441 2
2 6 -1 2715.75 745.399 2
-2 -6 1 1608.8 672.58 3
2 6 -1 1634.19 448.141 5
-2 -6 1 1292.54 533.944 2
2 6 -1 1520.7 439.519 3
-2 -6 0 14613.2 2040.59 3
2 6 0 16409 2077.03 2
2 6 1 61016.4 4471.84 2
-2 -6 -1 63873.1 4374.12 3
-2 -6 -1 52633.3 4175.09 1
2 6 2 6619.34 1391.25 2
-2 -6 -2 7351.16 1270.79 3
-2 -6 -3 29183 2497.65 3
-2 -6 -3 30912.2 2266.13 7
2 6 3 24027.2 1929.39 5
2 6 3 27630.7 3040.28 2
-2 -6 -4 32088.3 2483.85 3
-2 -6 -4 29524 2327.67 7
2 6 4 24392.1 2004.95 5
2 6 4 32043.2 3352.76 2
-2 -6 -5 106.163 118.059 3
2 6 5 308.126 204.528 5
-2 -6 -5 186.573 325.237 7
-2 -6 -6 59688.1 3921.63 7
2 6 6 62556.8 5427.01 2
-2 -6 -6 65457.8 3706.29 3
2 6 6 48912.8 3373.96 5
-2 -6 -6 64627.2 5715.02 4
-2 -6 -7 165.771 293.077 4
-2 -6 -7 872.698 415.266 7
2 6 7 113.197 531.14 2
-2 -6 -8 25278.9 2680.74 7
-2 -6 -8 31509.8 3410.77 4
2 6 8 33548.2 4251.16 2
-2 -6 -9 8629.29 1548.38 7
-2 -6 -9 8224.65 1595.79 4
2 6 9 6656.73 1908.88 2
2 6 10 32080.8 4475.4 2
-2 -6 -10 26069.1 2989.5 7
-2 -6 -10 28795.8 2981.55 4
-2 -6 -11 763.945 652.116 7
-2 -7 16 566.461 440.201 1
2 7 -15 1438.69 875.603 8
2 7 -14 57560 5152.34 8
-2 -7 14 60818.4 4698.03 4
2 7 -13 7186.15 1611.79 8
-2 -7 13 7181.67 1495.02 4
2 7 -12 34229 3675.05 8
-2 -7 12 38366.4 3808.69 4
2 7 -11 1555.18 686.563 8
-2 -7 11 3151.16 1503.25 3
-2 -7 11 1269.41 611.467 4
2 7 -10 7493.88 1515.82 8
-2 -7 10 10860.1 2783.06 3
-2 -7 9 28700.6 4360.86 3
-2 -7 9 19009 2668.93 2
2 7 -9 23974.2 2729.56 8
2 7 -8 11118 1790.83 8
-2 -7 8 11309.3 2673.18 3
-2 -7 8 7102.77 1546.11 2
2 7 -7 6802.45 1379.21 8
-2 -7 7 8913.5 2244.07 3
-2 -7 7 4422.98 1249.92 2
2 7 -6 192.078 349.761 8
-2 -7 6 65.4015 176.33 2
-2 -7 6 -643.443 647.307 3
-2 -7 5 37938.7 4468.04 3
2 7 -5 33909.6 1715.38 6
2 7 -5 33910.5 3192.64 8
2 7 -4 67092.9 4602.63 3
2 7 -4 67355 3209.67 6
-2 -7 4 70915 6125.38 3
2 7 -4 72887.3 4959.8 8
2 7 -3 95205.7 5805.85 8
2 7 -3 88104.3 4102.93 6
-2 -7 3 96514.4 7025.36 3
2 7 -2 171653 8836.89 2
2 7 -2 148131 7496.14 3
2 7 -2 156127 7283.09 5
2 7 -1 1507.37 454.049 5
2 7 -1 3063.72 1127.24 2
-2 -7 1 1871.87 781.55 3
2 7 -1 1844.79 520.077 3
-2 -7 0 54329.8 4528.04 3
2 7 0 39610.2 2681.95 5
2 7 0 49422.9 4144.96 2
2 7 1 20556.4 2592.24 2
-2 -7 -1 24203.9 2824.47 3
2 7 1 18039.4 1629.03 5
2 7 2 26413.9 3079.35 2
2 7 2 21095.5 1798.33 5
-2 -7 -2 26014.4 2798.32 3
-2 -7 -3 12527.7 1500.59 7
2 7 3 11213.2 1258.41 5
2 7 3 13803.6 2277.19 2
-2 -7 -3 17073.6 2170.46 3
-2 -7 -4 70931.3 4472.36 7
2 7 4 80333.9 6141.71 2
-2 -7 -5 2197.01 676.371 7
2 7 5 1473.1 754.477 2
-2 -7 -6 11185 2444.04 4
-2 -7 -6 10924.6 1562 7
2 7 6 9528.01 2078.27 2
-2 -7 -7 37317.8 3324.45 7
2 7 7 46385.3 5007.54 2
-2 -7 -7 43076.8 4597.48 4
2 7 8 479.648 335.301 2
-2 -7 -8 137.238 263.185 7
-2 -7 -8 208.469 407.055 4
-2 -7 -9 23504.4 3015.64 4
-2 -7 -9 20244.8 2570.59 7
2 8 -14 7661.26 1803.67 8
-2 -8 14 5928.41 1439.43 4
2 8 -13 47930.3 4634.93 8
-2 -8 13 50949.9 4646.8 4
-2 -8 12 4800.26 1418.02 4
-2 -8 12 5735.44 2341.62 3
2 8 -12 4581.03 1327.93 8
-2 -8 11 110497 9817.1 3
2 8 -11 78712.1 6103.47 8
-2 -8 10 26858.4 4524.32 3
2 8 -10 19362.3 2720.51 8
2 8 -9 12324.1 2058.82 8
-2 -8 9 14370.7 3189.19 3
-2 -8 8 717.103 418.889 3
2 8 -8 1861.71 885.03 8
-2 -8 7 1760.23 1156.96 3
2 8 -7 1476.93 730.901 8
-2 -8 6 26372.4 3979.78 3
2 8 -6 19631.9 2581.33 8
2 8 -5 590.522 450.514 8
-2 -8 5 -46.6834 540.766 3
2 8 -4 1156.48 316.472 6
2 8 -4 1430.03 673.993 8
-2 -8 4 363.98 544.932 3
2 8 -3 18748.4 2473.33 8
2 8 -3 17581.1 1523.03 6
2 8 -3 20098.6 1929.68 5
-2 -8 3 19128.2 3125.42 3
-2 -8 2 54935.8 5408.22 3
2 8 -2 52778.1 3208.01 6
2 8 -2 54698.5 3418.01 5
2 8 -1 82567.1 6192.34 2
-2 -8 1 108484 7675.07 3
-2 -8 0 38863.1 4261.28 3
2 8 0 29391.5 3415.41 2
-2 -8 -1 83109.4 6463.17 3
2 8 1 74477.1 5910.89 2
2 8 2 9113.06 1970.88 2
-2 -8 -2 6000.57 1526.96 3
-2 -8 -3 3596.76 839.325 7
2 8 3 3500.05 1168.54 2
-2 -8 -4 15238.3 1831.47 7
2 8 4 14626.2 2594.24 2
-2 -8 -5 56110.6 4047.45 7
2 8 5 61869.8 5808.64 2
-2 -8 -6 1462.66 1183.31 4
-2 -8 -6 3892.48 972.764 7
2 8 6 1777.42 1054.16 2
-2 -8 -7 30761.8 4148.99 4
-2 -8 -8 3619.77 1355.16 4
-2 -9 13 14023.9 2534.82 4
-2 -9 12 18304.7 2905.44 4
2 9 -12 14211.2 2469.79 8
-2 -9 11 1092.26 971.013 4
2 9 -11 501.373 210.202 8
-2 -9 11 546.125 482.303 3
-2 -9 10 108787 9900.71 3
2 9 -10 82279.5 6410.55 8
-2 -9 9 21006.4 4037.18 3
2 9 -9 18684.3 2708.57 8
-2 -9 8 37623.6 5377.77 3
2 9 -8 31893.4 3599.11 8
2 9 -7 8658.86 1794.63 8
-2 -9 7 8960.73 2496.58 3
2 9 -6 499.005 261.77 8
-2 -9 6 170.166 413.686 3
2 9 -5 9855.78 1910.11 8
-2 -9 5 9677.72 2498.94 3
-2 -9 4 765.947 500.975 3
2 9 -4 495.154 555.524 8
-2 -9 3 6343.92 2027.17 3
2 9 -3 7889.73 1665.02 8
2 9 -2 5435.56 1382.29 8
-2 -9 2 6672.32 2013.53 3
-2 -9 1 19378.9 3346.5 3
2 9 0 27290 2502.8 6
2 9 0 33654.6 3897.07 2
2 9 1 31315.1 3849.85 2
2 9 2 58821.2 5537.72 2
-2 -9 -2 55141.5 3905.7 7
-2 -9 -3 -340.658 174.169 7
2 9 3 758.448 838.826 2
-2 -9 -5 15779.5 3473.68 4
-2 -9 -6 34254.2 4865.4 4
-2 -10 9 63833.4 7713.94 3
-2 -10 8 6469.48 2304.01 3
-2 -10 7 86084 8834.97 3
2 10 -7 78939.4 6350.91 8
2 10 -6 20689 2972.11 8
-2 -10 6 23531.5 4324.57 3
2 10 -5 6432.64 1657.82 8
-2 -10 5 5495.43 2098.13 3
2 10 -4 233.739 361.682 8
-2 -10 4 -685.696 1013.96 3
-3 12 1 3861.94 1225.95 6
3 -12 -1 4456.39 1484.45 3
3 -12 0 2765.01 1200.15 3
-3 12 0 1988.04 810.513 6
3 -12 1 8330.37 2029.45 3
-3 12 -1 5437.23 1272.89 6
-3 12 -2 7702.37 1510.87 6
3 -12 2 9405.41 2147.23 3
-3 12 -3 9158.02 1596.12 8
3 -12 3 11460.1 2399.75 3
3 -11 -6 11675.5 2321.63 3
3 -11 -5 1966.27 908.428 3
-3 11 4 15992.1 2575.89 6
3 -11 -4 11421.5 2266.51 3
-3 11 3 465.456 512.214 6
3 -11 -3 245.998 409.019 3
-3 11 2 78069.4 5866.8 6
3 -11 -2 79100.5 6329.74 3
3 -11 -1 22160.6 3065.29 3
-3 11 1 17985.3 2512.34 6
3 -11 0 32469.8 3744.64 3
-3 11 0 27943.1 3089.9 6
3 -11 1 20782.7 2960 3
-3 11 -1 15658.6 2161.23 6
-3 11 -2 7589.15 1487.98 6
3 -11 2 7696.49 1767.58 3
-3 11 -3 3475.91 961.43 6
3 -11 3 3750.11 1206.36 3
3 -11 4 24886.5 3386.89 3
-3 11 -4 25973.8 2625.27 6
-3 11 -4 25539.5 2583.9 8
-3 11 -5 21838.6 2378.04 8
-3 11 -5 22152.5 2343.95 6
3 -11 5 22163.8 3270.19 3
-3 11 -6 18332.7 2200.85 8
-3 11 -6 17374.5 2024.89 6
3 -11 6 18986 3114.22 3
3 -11 7 -95.6169 508.265 3
3 -11 8 18666.2 3194.49 3
3 -10 -8 16485 2732.05 3
3 -10 -7 14092.4 2448.34 3
3 -10 -6 341.427 267.273 3
3 -10 -6 595.702 587.785 7
-3 10 6 669.008 606.291 6
-3 10 5 16589.5 2674.79 6
3 -10 -5 21018.1 2909.93 3
3 -10 -5 17676.5 2349.48 7
3 -10 -4 431.302 353.8 7
-3 10 4 -462.344 612.534 6
3 -10 -4 -302.946 267.869 3
-3 10 3 525.592 297.87 6
3 -10 -3 1097.77 773.944 3
3 -10 -2 313.657 470.934 3
-3 10 2 210.601 377.9 6
-3 10 1 92992.1 6169.16 6
3 -10 -1 102215 6737.37 3
-3 10 0 6681.42 1344.68 6
3 -10 0 8227.87 1683.56 3
-3 10 -1 96194.6 5934.52 6
3 -10 1 96743.7 6621.58 3
-3 10 -2 44616.1 3631.18 6
3 -10 2 53560.2 4567.28 3
-3 10 -3 1034.42 473.019 6
3 -10 3 2148.83 826.822 3
-3 10 -4 4065.44 940.651 8
-3 10 -4 4394.56 998.815 6
3 -10 4 4540.56 1245.83 3
-3 10 -5 39356.8 3061.64 8
3 -10 5 34262.4 3852.86 3
-3 10 -5 36664.8 2996.46 6
-3 10 -6 22984.7 2308.8 8
-3 10 -6 22791.7 2254.53 6
3 -10 6 25528.2 3344.4 3
-3 10 -6 20309.6 2130.04 5
-3 10 -7 48601.9 3469.96 6
-3 10 -7 46332.9 3537.23 8
3 -10 7 52912.5 5064.71 3
-3 10 -7 46829.7 3827.16 5
3 -10 8 13125.5 2538.07 3
-3 10 -8 12494.4 1594 6
-3 10 -8 9980.3 1866.17 5
-3 10 -8 13757.5 1761.52 8
-3 10 -9 15298.8 1891.72 8
3 -10 9 12001.7 2445.52 3
-3 10 -9 11043 2181.41 5
3 -10 10 7633.98 1994.85 3
-3 10 -10 5342.87 1644.04 5
3 -10 11 19454.2 3298.24 3
-3 10 -11 13631.3 2914.54 5
-3 10 -12 5300 1805.07 5
-3 10 -13 3966.09 1720.25 5
-3 10 -14 7162.34 2109.74 5
3 -9 -10 12853.1 2386.56 3
3 -9 -9 73513.6 5976.6 3
3 -9 -9 65635.3 5267.12 7
-3 9 9 80473.4 8217.53 2
-3 9 8 -347.396 775.676 6
3 -9 -8 22.0822 393.553 7
3 -9 -8 1243.41 649.982 3
-3 9 7 47093.6 4975.9 6
3 -9 -7 52489.2 4638.22 3
3 -9 -7 48477.1 4082.96 7
3 -9 -6 124.546 293.714 7
-3 9 6 2195.94 934.767 6
3 -9 -6 1799.16 739.672 3
3 -9 -5 612.956 367.149 7
-3 9 5 279.83 450.836 6
3 -9 -5 1364.4 647.943 3
3 -9 -4 9234.44 1710.07 3
-3 9 4 8904.24 1736.33 6
-3 9 3 5750.31 1298 6
3 -9 -3 5231.65 1284.14 3
3 -9 -2 5796.03 1294.86 3
-3 9 2 4057.83 1089.27 6
-3 9 1 67.4151 294.306 6
3 -9 -1 -364.262 196.772 3
-3 9 0 43729.6 3592.32 6
3 -9 0 50785.8 4073.75 3
3 -9 1 4514.84 1133.03 3
-3 9 -1 4280.15 1033.61 6
-3 9 -2 136556 7191.41 6
3 -9 2 140974 7951.79 3
-3 9 -3 33751.1 2824.7 6
3 -9 3 36797.9 3522.03 3
-3 9 -3 34238.3 1850.74 5
-3 9 -4 33269.7 2575.38 8
-3 9 -4 30722.1 2113.94 5
3 -9 4 34867.6 3463.67 3
-3 9 -4 32315.9 2673.53 6
-3 9 -5 21280.5 2027.78 8
-3 9 -5 23263.6 2180.2 6
3 -9 5 23320.5 2853.97 3
-3 9 -5 21638.8 1992.15 5
-3 9 -6 42955.3 3047.26 8
-3 9 -6 45201.1 3160.66 6
-3 9 -6 35916.1 3116.95 5
3 -9 6 45376 4250.56 3
-3 9 -7 8905.35 1252.72 6
3 -9 7 8287.12 1804.53 3
-3 9 -7 6177.83 1329.64 5
-3 9 -7 6338.04 1112.45 8
-3 9 -8 71027.9 4412.75 8
3 -9 8 83157.5 6321.11 3
-3 9 -8 80070.2 4514.93 6
-3 9 -9 37561.7 2990.99 8
-3 9 -9 31281.4 3951.1 5
3 -9 10 18760.6 3031.67 3
-3 9 -10 17434.1 1985.81 8
-3 9 -10 17402.2 3038.94 5
3 -9 11 2276.03 1104.64 3
-3 9 -11 1796.08 1016.29 5
-3 9 -11 1888.13 708.79 8
-3 9 -12 4139.74 1674.31 5
3 -9 12 4370.97 1467.51 3
3 -9 13 6581.22 1869.5 3
-3 9 -13 6809.81 2146.22 5
-3 9 -14 4805.05 1820.96 5
-3 8 11 -1189.75 1339.69 2
3 -8 -10 2474.86 902.455 7
-3 8 10 1247.15 1070.07 2
3 -8 -9 16853.1 2305.1 7
-3 8 9 17265.5 3416.31 2
3 -8 -9 14326 2262.44 3
3 -8 -8 59562.8 4548.2 7
3 -8 -8 57698.6 4757.19 3
-3 8 8 65565.9 6649.41 2
3 -8 -7 4520 1045.2 7
-3 8 7 5227.43 1720.94 2
-3 8 7 2729.95 1079.69 6
3 -8 -7 4265.14 1107.54 3
-3 8 6 149156 9270.81 6
3 -8 -6 163720 8411.65 7
3 -8 -6 164017 8839.14 3
3 -8 -5 3738.6 927.611 7
-3 8 5 2517.71 847.012 6
3 -8 -5 3509.48 975.04 3
-3 8 4 17889.2 2363.54 6
3 -8 -4 20265.7 2361.92 3
-3 8 3 415.886 402.581 6
3 -8 -3 -149.657 290.598 3
-3 8 2 17051.7 2096.37 6
3 -8 -2 15007.7 1942.54 3
-3 8 1 1444.3 550.711 6
3 -8 -1 1044.15 464.188 3
-3 8 0 18769.4 2091.36 6
3 -8 0 20768.5 2261.68 3
-3 8 -1 827.274 367.221 6
3 -8 1 1251.01 513.341 3
-3 8 -2 7581.56 1177.04 6
-3 8 -2 7001.92 557.486 5
3 -8 2 9826.09 1542.38 3
-3 8 -3 115214 5809.78 6
3 -8 3 107912 6457.94 3
-3 8 -3 107597 4782.66 5
-3 8 -4 39185 2645.79 8
-3 8 -4 39759.5 2848.59 6
3 -8 4 40623.4 3574.55 3
-3 8 -4 37789.8 2518.91 5
-3 8 -5 90596.8 4624.58 8
-3 8 -5 85913.7 4799.81 6
-3 8 -5 82170.8 4811 5
-3 8 -6 45012.6 2890.49 8
-3 8 -6 41868.9 2951.21 6
3 -8 6 48222 4104.39 3
3 -8 6 41175.3 2990.87 6
-3 8 -6 40075.9 3372.04 5
-3 8 -7 4196.09 779.074 8
-3 8 -7 4633.56 867.503 6
3 -8 7 3483.31 793.856 6
-3 8 -7 3685.26 1100.92 5
3 -8 7 3851.86 1161.99 3
-3 8 -8 57.2591 174.315 6
3 -8 8 247.374 208.16 6
3 -8 8 240.313 466.122 3
-3 8 -8 1154.91 732.324 5
-3 8 -8 474.391 359.18 8
-3 8 -9 102464 5353.43 8
3 -8 9 101367 6979.68 3
3 -8 9 90523.7 5199.5 6
3 -8 10 51300.1 4934.56 3
3 -8 10 49267.2 3545.88 6
-3 8 -10 44983.5 5129.05 5
-3 8 -10 51806.4 3655.78 8
3 -8 11 44352.3 4745.65 3
-3 8 -11 45596.7 5435.18 5
-3 8 -11 51222.1 3808.9 8
3 -8 12 30246.8 3982.2 3
-3 8 -12 25051.5 4166.45 5
-3 8 -12 34076.4 3107.94 8
3 -8 13 482.863 690.3 3
-3 8 -13 1338.98 1110.42 5
3 -8 14 473.118 534.613 3
-3 8 -14 765.131 878.564 5
-3 8 -15 227.542 1093.81 5
-3 7 13 17498.5 3683.6 2
3 -7 -12 3595.17 1176.79 7
-3 7 12 2697.72 1347.98 2
3 -7 -11 39816.1 3808.62 7
-3 7 11 37840.2 5303.69 2
3 -7 -10 1370.55 676.23 7
-3 7 10 1868.58 832.86 2
3 -7 -9 30903.9 3081.69 7
-3 7 9 34850.6 4577.95 2
3 -7 -8 2687.81 814.968 7
-3 7 8 2458.92 1118.06 2
3 -7 -7 30509.9 2824.66 7
-3 7 7 29878.3 3862.73 2
3 -7 -6 37506.2 3091.3 7
-3 7 6 40433.3 4363.51 2
-3 7 5 247636 12387.6 6
3 -7 -5 270244 11958 3
3 -7 -5 255743 11468.8 7
-3 7 4 413.435 319.847 6
3 -7 -4 -167.723 236.973 3
-3 7 3 112773 6461.38 6
-3 7 3 97580.1 6072.89 8
-3 7 2 6111.43 1127.73 6
3 -7 -2 7268.16 1217.55 3
-3 7 1 2182.36 645.664 6
3 -7 -1 2615.57 725.787 3
-3 7 0 299.134 193.58 6
3 -7 0 538.456 246.828 3
3 -7 1 56784.1 4226.78 2
-3 7 -1 61760.5 3846.29 6
3 -7 1 64786.7 4133.81 3
-3 7 -2 6459.91 1022.33 6
3 -7 2 6010.25 1239.57 2
-3 7 -2 5744.25 577.934 5
3 -7 2 5014.61 1036.5 3
-3 7 -3 34387.8 2877.11 3
-3 7 -3 35407.2 2580.09 6
-3 7 -3 36532.1 2139.49 5
3 -7 3 37478.7 3056.84 3
3 -7 4 29652.8 2731.26 3
-3 7 -4 25935.6 1831.62 8
-3 7 -4 26325.8 2101.47 6
3 -7 4 23842.2 2049.18 6
-3 7 -4 22629.6 1889.78 5
-3 7 -5 18661.5 1533 8
3 -7 5 17949 1734.2 6
-3 7 -5 19028 1733.17 6
3 -7 5 19590.3 2255.08 3
-3 7 -5 16582.9 1821.68 5
-3 7 -6 151981 6762.24 6
3 -7 6 140819 7804.33 3
3 -7 6 132908 6628.04 6
-3 7 -6 126106 7283.76 5
-3 7 -6 145466 6381.94 8
3 -7 7 24075.3 2744.31 3
3 -7 7 25801.7 2178.51 6
-3 7 -7 23537.7 2021.15 6
-3 7 -7 22032.7 2701.73 5
-3 7 -7 24954.6 1960.29 8
-3 7 -8 9813.11 1215.38 8
3 -7 8 6988.9 1105.07 6
3 -7 8 11578.2 1914.95 3
-3 7 -8 7007.54 1620.06 5
-3 7 -9 6251.71 1055.29 8
3 -7 9 5933.39 1050.25 6
3 -7 9 4716.36 1287.93 3
-3 7 -9 4717.22 1437.12 5
-3 7 -10 90231.7 4921.23 8
3 -7 10 81457.7 6060.37 3
3 -7 10 64395.2 4326.78 6
-3 7 -10 57993.4 6044.13 5
-3 7 -11 32054.2 2795.08 8
3 -7 11 27251.3 3442.53 3
3 -7 11 22151.8 2331.14 6
-3 7 -11 25184.4 3915.81 5
-3 7 -12 107140 9028.1 5
-3 7 -12 114900 6455.17 8
-3 7 -13 85126.8 8171.95 5
3 -7 13 71867.6 6589.78 3
-3 7 -13 88673.9 5676.67 8
3 -7 14 11594.6 2531.57 3
-3 7 -14 16108.8 3361.04 5
-3 7 -14 13583.6 2048.7 8
3 -7 15 1987.2 875.848 3
-3 7 -15 3725.24 1341.05 5
-3 6 15 5075.14 1903.39 2
-3 6 14 24472.2 4167.68 2
3 -6 -13 24579 3095.95 7
-3 6 13 21257.9 3909.3 2
-3 6 12 16028.2 3257.85 2
3 -6 -12 23169 2814.49 7
3 -6 -11 1757.25 720.819 7
-3 6 11 2513.18 1251.68 2
3 -6 -10 23013.8 2018.4 5
3 -6 -10 21643.2 2519.26 7
-3 6 10 27526.4 3922.6 2
3 -6 -9 17803.5 2155.12 7
-3 6 9 17115.5 2951.53 2
3 -6 -9 16865.1 1536.88 5
3 -6 -8 36093.1 2188.44 5
3 -6 -8 34802.8 3006.39 7
-3 6 8 33970.5 4039.95 2
3 -6 -7 -4.85953 247.949 7
-3 6 7 -472.656 744.246 2
3 -6 -7 14.2699 66.0399 5
3 -6 -6 5572.69 1037.99 7
-3 6 6 4837.2 1328.46 2
3 -6 -6 4998.99 400.009 5
3 -6 -5 37001.5 2801.34 7
-3 6 5 37110.2 3366.03 6
-3 6 5 33194.9 3111.72 8
3 -6 -5 36031.1 3013.73 2
-3 6 5 33840.9 3564.92 2
3 -6 -4 162418 7991.03 2
-3 6 4 154187 8071.36 8
-3 6 4 167148 8331.07 6
3 -6 -4 159012 8180.28 1
-3 6 3 7880.49 1298.26 8
3 -6 -3 9768.39 1406.18 2
-3 6 3 7734.81 1286.21 6
3 -6 -3 12493.5 1505.87 3
3 -6 -2 317555 13467.1 2
-3 6 2 346439 13591.7 6
3 -6 -2 345393 13326.4 3
3 -6 -1 16963.4 1921.09 2
-3 6 1 18529.2 1866.23 6
3 -6 -1 22187.8 1974.88 3
-3 6 0 5056.35 879.548 6
3 -6 0 3608.31 833.469 2
3 -6 0 4376.81 848.322 3
-3 6 -1 6473.81 944.229 6
3 -6 1 4646.35 988.092 2
-3 6 -1 4989.5 424.069 5
3 -6 1 5176.03 931.74 3
3 -6 2 95689.7 5134.51 3
-3 6 -2 94941 4786.72 6
3 -6 2 90242.3 4693.54 6
-3 6 -2 92033 3964.23 5
3 -6 3 448.023 218.33 6
-3 6 -3 589.378 277.092 6
-3 6 -3 458.209 179.494 5
3 -6 3 1033.28 462.062 3
-3 6 -3 851.411 413.875 3
-3 6 -4 133501 6032.77 6
3 -6 4 118327 5955.05 6
-3 6 -4 120473 6560.94 3
-3 6 -4 129171 5984.31 5
-3 6 -4 125817 5423.04 8
-3 6 -5 2200.51 435.694 8
-3 6 -5 2044.63 505.11 6
3 -6 5 2055.9 535.419 6
3 -6 5 2220.78 700.12 3
-3 6 -5 1791.46 555.016 5
-3 6 -5 2531.95 746.835 3
-3 6 -6 8718.36 958.661 8
-3 6 -6 10225.6 1188.33 6
-3 6 -6 9464.78 1529.05 3
3 -6 6 9304.6 1486.76 3
3 -6 6 9851.45 1223.07 6
-3 6 -6 7830.7 1378.71 5
-3 6 -7 73360.2 3784.24 8
-3 6 -7 75637.2 4052.44 6
3 -6 7 79107.5 5096.58 3
3 -6 7 64956.4 3981.97 6
-3 6 -7 61101.5 4893.03 5
3 -6 8 22768.7 2595 3
3 -6 8 19130.8 1885.87 6
-3 6 -8 18825.3 2714.87 5
-3 6 -8 21270 1862.98 8
3 -6 9 44153.7 3945.38 3
-3 6 -9 47195.1 3106.51 8
3 -6 9 37204 2931.91 6
-3 6 -9 38301.9 4330.89 5
3 -6 10 13716.3 1712.03 6
-3 6 -10 18172.3 1933.22 8
-3 6 -10 15265.9 2776.24 5
3 -6 10 13776.9 2198.6 3
3 -6 11 22501.7 2348.88 6
3 -6 11 20757.3 2872.21 3
-3 6 -11 26818 2571.4 8
-3 6 -11 22783.7 3686.89 5
3 -6 11 21672.6 1968.06 8
3 -6 12 3374.01 1131.04 3
-3 6 -12 6081.5 1228.49 8
-3 6 -12 7261.19 2102.23 5
3 -6 13 124042 9122.83 3
-3 6 -13 138969 10782.2 5
-3 6 -13 156255 8171.49 8
3 -6 14 62285.2 6243.73 3
-3 6 -14 68899.6 7328.22 5
-3 6 -14 78287.6 5398.27 8
3 -6 15 39294.8 5129.04 3
3 -6 15 50854.4 5560.55 1
-3 6 -15 49964.8 6313.04 5
-3 6 -15 53556 4475.55 8
3 -6 16 32656.1 4771.01 3
-3 6 -16 37479.3 5405.75 5
3 -6 16 42572 5223.85 1
3 -6 17 909.444 407.269 2
-3 5 15 396.165 314.536 2
3 -5 -14 764.056 538.631 7
-3 5 14 -93.0218 461.087 2
-3 5 13 53119.2 5852.94 2
3 -5 -13 53459.2 4681.64 7
3 -5 -13 51752.2 4021.75 5
-3 5 12 53700.4 5624.84 2
3 -5 -12 50469.2 4281.78 7
3 -5 -12 46123.2 3633.73 5
-3 5 11 30455.7 4024.9 2
3 -5 -11 34037.2 3269.15 7
3 -5 -11 30251.9 2696.13 5
-3 5 10 48517.7 4997.84 2
3 -5 -10 50929.2 3896.74 7
3 -5 -10 43473.4 3210.43 5
3 -5 -9 28619.3 2718.14 7
3 -5 -9 28041.7 2295.86 5
-3 5 9 28647.3 3576.84 2
3 -5 -8 2447.94 717.032 7
3 -5 -8 1219.09 537.899 2
-3 5 8 1945.12 903.72 2
3 -5 -8 1999.54 529.163 5
3 -5 -7 20787.7 2032.81 7
3 -5 -7 17701.9 1951.89 2
-3 5 7 20122.2 2675.31 2
3 -5 -7 19454.9 1594.45 5
-3 5 6 9921.19 1645.43 8
3 -5 -6 7364.72 1293.14 1
3 -5 -6 8843.48 1255.55 7
3 -5 -6 8257.79 1241.89 2
-3 5 6 9693.52 1730.02 2
3 -5 -6 7144.21 816.385 5
-3 5 5 6905.26 1311.7 8
3 -5 -5 9944.31 1250.37 7
3 -5 -5 9201.76 1394.85 1
-3 5 5 10495 1733.41 2
3 -5 -5 9103.27 793.717 5
3 -5 -5 9135.71 1308.54 2
-3 5 4 6111.96 1175.48 8
3 -5 -4 6934.99 1160.13 1
-3 5 4 7466.24 1246.25 6
3 -5 -4 7903.37 1166.68 2
3 -5 -4 7283.8 536.919 5
3 -5 -3 90679.5 5097.27 2
-3 5 3 107556 5515.46 6
-3 5 2 71107.1 3982.98 6
3 -5 -2 59713.5 3745.13 2
3 -5 -2 66043.8 3681.64 3
-3 5 2 55125.3 3676.51 8
3 -5 -1 301779 13039.8 2
3 -5 -1 349200 13005.8 3
-3 5 1 338627 13064.5 6
-3 5 1 287329 12700.9 8
-3 5 0 4288.18 756.424 6
3 -5 0 3691.69 698.91 3
-3 5 -1 168067 7278.17 6
3 -5 1 165541 7416.35 3
-3 5 -1 163194 6275.73 5
3 -5 2 67026 3852.48 3
-3 5 -2 64903.3 3567.29 6
-3 5 -2 67275.9 3073.11 5
-3 5 -3 34641.9 2127.47 5
3 -5 3 37694.6 2673.62 3
-3 5 -3 35295.6 2339.89 6
-3 5 -4 442.281 160.537 8
3 -5 4 698.146 354.718 3
-3 5 -4 457.459 253.772 5
-3 5 -4 373.628 153.203 6
3 -5 5 191670 8396.92 3
-3 5 -5 161066 7919.01 5
-3 5 -5 178034 7599.19 6
-3 5 -5 170678 6922.84 8
-3 5 -6 2690.83 494.873 8
3 -5 6 2385.96 715.942 3
-3 5 -6 919.455 432.612 5
-3 5 -6 1612.59 592.409 3
-3 5 -6 1924.54 456.133 6
3 -5 7 84474.4 5124.94 3
3 -5 7 74124.4 4355.4 6
-3 5 -7 74225.8 5303.57 5
-3 5 -7 90745.8 4219.23 8
-3 5 -7 75162.4 5169.72 3
-3 5 -8 7490.84 1026.87 8
3 -5 8 4703.07 902.519 6
3 -5 8 6034.22 1249.07 3
-3 5 -8 5868.78 1304.76 3
-3 5 -8 4237.86 1248.46 5
3 -5 9 11966.2 1227.75 8
-3 5 -9 13177.3 2111.23 3
3 -5 9 11599.1 1517.49 6
-3 5 -9 10274.9 2108.18 5
-3 5 -9 15132.6 1646.29 8
3 -5 9 12152.4 1883.49 3
3 -5 10 46515 4224.47 3
-3 5 -10 60610.4 3861.64 8
3 -5 10 47691.9 3612.39 6
-3 5 -10 48315.1 5114.2 5
3 -5 10 51028.3 3214.65 8
3 -5 11 6634.36 1271.59 6
3 -5 11 4267.28 1254.4 3
-3 5 -11 10945.1 2375.38 5
-3 5 -11 10143.3 1506.48 8
3 -5 11 6757.48 1105.17 8
3 -5 12 1102.57 564.465 8
-3 5 -12 1421.21 594.664 8
3 -5 12 631.424 486.424 3
-3 5 -12 840.422 732.953 5
3 -5 13 541.993 442.377 1
-3 5 -13 694.042 480.148 8
3 -5 13 1089.55 643.299 3
-3 5 -13 1593.1 1120.22 5
3 -5 14 71392.9 6905.37 3
3 -5 14 79564.9 7197.08 1
-3 5 -14 87077.3 8179.45 5
3 -5 15 41314.7 5237.66 3
3 -5 15 56176.5 5984.17 1
-3 5 -15 55216.1 6439.86 5
3 -5 16 85199.9 7721.3 1
3 -5 16 72815.6 6435.92 2
-3 5 -16 82521.1 8128.41 5
3 -5 17 81919.8 6847.34 2
3 -5 18 776.894 625.282 2
-3 4 15 42389.4 4899.25 2
3 -4 -15 39133.9 3665.74 5
-3 4 14 7507.22 1912.96 2
3 -4 -14 11564.4 2116.48 7
3 -4 -14 6622.44 1341.06 5
3 -4 -13 21649.3 2780.25 7
-3 4 13 17144.2 2950.86 2
3 -4 -13 17195.8 2177.7 5
-3 4 12 32919.1 4050 2
3 -4 -12 33923.8 3425.73 7
3 -4 -12 34288.5 3046.29 5
3 -4 -11 38984.6 3452.78 7
-3 4 11 35224.9 4056.46 2
3 -4 -11 32137.3 2870.19 5
3 -4 -11 28754.4 2779.92 2
3 -4 -11 38010.2 2382.72 4
-3 4 10 55286.7 4990.41 2
3 -4 -10 56513.8 4164.58 7
3 -4 -10 59002.2 3957.37 2
3 -4 -10 58710 3874.29 5
3 -4 -10 53628.9 3248.99 4
-3 4 9 130716 8027.86 2
3 -4 -9 133430 6923.16 7
3 -4 -9 125590 6423.25 5
3 -4 -9 124626 6020.29 4
3 -4 -9 119973 6462.95 2
3 -4 -8 39876 3033.2 7
3 -4 -8 35858.9 2805.07 2
3 -4 -8 35199.3 3173.43 1
-3 4 8 40349.4 3714.08 2
3 -4 -7 10187.6 1357.81 7
3 -4 -7 9708.37 1274.08 2
-3 4 7 11606.8 1793.55 2
-3 4 7 7475.33 1591.7 8
3 -4 -7 9414.85 1462.27 1
-3 4 6 14047 1876.18 2
3 -4 -6 13627.5 1481.41 2
3 -4 -6 12684 1619.84 1
-3 4 6 12017.3 1916.11 8
-3 4 5 64651.8 4174.49 2
-3 4 5 51476.8 4132.86 8
3 -4 -5 51654.6 3510.64 1
3 -4 -5 53727.6 3318.9 2
-3 4 4 7318.16 1138.92 6
3 -4 -4 6148.02 1011.53 1
3 -4 -4 6602.22 959.132 2
3 -4 -3 21894.1 1828.94 2
-3 4 3 19770.6 2155.6 8
3 -4 -2 17362.3 1572.9 2
-3 4 2 16502 1589.09 6
-3 4 2 12521.9 1562.27 8
3 -4 -2 17013.6 883.386 5
3 -4 -1 28184.3 1347.67 5
-3 4 1 28902.6 2070.26 6
3 -4 -1 25862.4 2042.78 2
-3 4 1 23525.7 2034.21 8
3 -4 0 310508 11407.1 5
-3 4 0 326544 12300.2 6
3 -4 0 313028 12204 3
-3 4 0 283697 12109.3 8
-3 4 -1 -49.2823 129.123 6
-3 4 -1 305.596 187.623 8
-3 4 -1 160.908 61.0005 5
3 -4 1 163.725 118.685 5
3 -4 1 -77.004 192.051 3
3 -4 2 382358 15123.4 6
3 -4 2 413954 15398.5 3
-3 4 -2 396750 15166.6 6
-3 4 -2 390425 14665.6 5
3 -4 2 393812 14932.7 5
-3 4 -3 49122.7 2134.39 8
-3 4 -3 54800.4 2967.9 6
3 -4 3 51433.5 2953.05 6
3 -4 3 56329.3 3163.24 3
-3 4 -3 55941.3 2826.48 5
3 -4 3 53383.8 2996.63 5
-3 4 -4 314.705 112.523 8
-3 4 -4 266.207 209.69 6
3 -4 4 351.152 198.106 3
-3 4 -4 147.913 162.577 5
-3 4 -5 12607.1 984.199 8
-3 4 -5 14794.6 1368.08 6
-3 4 -5 13648.9 1511.99 5
3 -4 5 12569.9 1440.68 3
3 -4 6 207061 9496.76 3
-3 4 -6 210397 9767.54 3
-3 4 -6 206847 9781.38 5
3 -4 6 206570 8051.46 8
-3 4 -6 227490 8649.73 8
3 -4 7 4883.78 618.37 8
-3 4 -7 4959.33 776.002 8
3 -4 7 4636.24 874.335 6
3 -4 7 5008.09 1036.41 3
-3 4 -7 5029.45 1084.13 3
-3 4 -7 6583.39 1299.94 5
3 -4 8 226601 10713.5 3
3 -4 8 199853 9890.16 6
-3 4 -8 206440 11324.7 5
3 -4 8 227850 9252.66 8
-3 4 -8 204343 10843.2 3
3 -4 9 788.88 383.4 8
-3 4 -9 1040.37 472.271 8
3 -4 9 739.917 384.105 6
3 -4 9 275.34 213.876 3
-3 4 -9 318.223 372.397 5
-3 4 -9 473.137 378.794 3
3 -4 10 14097.2 2135.52 3
3 -4 10 12051.3 1713.8 6
-3 4 -10 19106.2 2055.12 8
-3 4 -10 11995.1 2208.96 3
-3 4 -10 12043.8 2345.3 5
3 -4 10 13516.3 1562.62 4
3 -4 10 13982.4 1625.71 8
3 -4 11 19706.8 2128.72 8
3 -4 11 15630.4 2479.63 3
3 -4 11 19780.8 2362.9 6
3 -4 11 23574.6 3143.62 1
-3 4 -11 22031.4 3415.66 5
3 -4 11 18064.3 1871.3 4
-3 4 -11 26090.5 2576.34 8
3 -4 12 1596.87 699.827 3
3 -4 12 1456.47 840.025 1
-3 4 -12 573.827 353.467 5
3 -4 12 858.967 472.505 8
3 -4 12 1115.94 488.158 4
3 -4 13 21768.1 2534 8
3 -4 13 16444.8 2919.72 3
3 -4 13 26106.9 3631.76 1
-3 4 -13 22926.1 3785.27 5
3 -4 14 838.721 707.113 2
3 -4 14 -195.178 858.776 1
3 -4 14 -303.995 622.142 3
-3 4 -14 -76.7804 428.717 5
3 -4 15 15654.9 2708.37 2
3 -4 15 18574.4 3286.08 1
-3 4 -15 16597.8 3372.27 5
-3 4 -16 22471.1 3944.85 5
3 -4 16 21218.4 3222.86 2
3 -4 16 23351.6 3878.84 1
3 -4 17 50870.6 5237.71 2
3 -4 18 52975.4 5392.41 2
3 -3 -17 145.606 504.903 5
-3 3 16 5730.77 2113.74 1
3 -3 -16 6612.87 1481.28 5
-3 3 15 61492 6466.33 1
3 -3 -15 48168.4 4270.34 5
-3 3 15 59910.5 5491.78 2
-3 3 14 36902.1 4776.25 1
-3 3 14 39117.1 4303.86 2
3 -3 -14 37401.7 3506.62 5
-3 3 13 45883.5 5066.29 1
-3 3 13 41758.1 4381.47 2
3 -3 -13 39518.4 3544.26 5
-3 3 12 26596 3356.47 2
3 -3 -12 33057 3308.65 7
-3 3 12 30577.5 3912.21 1
3 -3 -12 30259.3 1801.71 4
3 -3 -12 31084.5 2954.46 5
3 -3 -12 26958.8 2648.16 2
-3 3 11 7459.3 1762.19 1
3 -3 -11 8027.68 1269.96 2
3 -3 -11 7879.75 1467.42 7
-3 3 11 7597.36 1606.63 2
3 -3 -11 8607.6 934.462 4
3 -3 -10 694.563 390.41 2
3 -3 -10 597.944 253.444 4
-3 3 10 -26.1408 421.217 2
3 -3 -10 557.322 408.432 7
-3 3 10 897.506 562.665 1
-3 3 9 150932 8393.68 2
3 -3 -9 154050 7813.73 7
3 -3 -9 145074 7150.78 2
-3 3 9 161590 8804.46 1
3 -3 -9 157959 6783.21 4
3 -3 -9 173989 9088.23 8
3 -3 -9 144772 7971.48 1
-3 3 8 179449 10444.4 8
-3 3 8 193537 9349.6 2
3 -3 -8 188513 8696.42 7
-3 3 8 176933 9247.48 1
3 -3 -8 172175 8046.43 2
3 -3 -8 170872 8833.08 1
3 -3 -8 185912 7933.67 4
3 -3 -7 84221.6 4630.67 7
3 -3 -7 77425.9 4203.4 2
-3 3 7 78478.1 4955.08 2
3 -3 -7 76158.4 4768.93 1
3 -3 -7 85998 4305.31 4
-3 3 7 74464.7 5842.69 8
3 -3 -6 97323.1 4961.22 2
-3 3 6 105438 6948.2 8
3 -3 -6 98759.7 5489.65 1
3 -3 -6 106347 5221.47 4
-3 3 6 111739 5827.39 2
-3 3 5 14627.8 1613.07 2
3 -3 -5 13375.8 1462.31 1
3 -3 -5 13715.8 1774.18 8
3 -3 -5 14845.3 1339.59 2
3 -3 -4 6817.42 1128.61 8
3 -3 -4 7162.9 965.137 1
-3 3 4 7893.06 1099.5 6
-3 3 4 5464.85 1204.21 8
3 -3 -4 7196.84 876.697 2
3 -3 -3 366.123 320.454 8
-3 3 3 -190.701 409.351 8
-3 3 3 327.386 210.724 6
3 -3 -3 249.928 135.603 2
3 -3 -3 250.554 206.047 1
-3 3 2 95047.1 5556.31 8
3 -3 -2 113142 5136.62 8
-3 3 2 115848 5101.88 6
3 -3 -2 98347.4 4746.94 2
-3 3 1 12120.1 1378.46 8
-3 3 1 13750.6 1255.11 6
3 -3 -1 15071.8 900.48 5
-3 3 0 1119.7 341.184 6
-3 3 0 937.81 206.566 5
3 -3 0 1388.53 273.566 5
3 -3 0 877.341 298.928 3
-3 3 -1 241945 9232.58 6
-3 3 -1 211431 8580.72 8
3 -3 1 234534 9113.68 3
-3 3 -1 236408 8682.85 5
3 -3 1 227796 8749.72 5
-3 3 -2 24213.8 1710.14 6
-3 3 -2 22694.1 1677.79 3
3 -3 2 27177.8 1829.71 3
-3 3 -2 27275.6 1625.65 5
3 -3 2 21410.4 1495.88 5
-3 3 -3 354132 14156 3
-3 3 -3 376226 14016.3 5
3 -3 3 384236 14031.7 5
-3 3 -3 330705 13995.2 6
3 -3 3 386228 14187.5 3
3 -3 4 5206.58 789.011 3
-3 3 -4 4777.09 779.351 3
-3 3 -4 5355.7 795.513 5
3 -3 4 7234.6 891.848 5
-3 3 -4 3888.06 665.588 6
-3 3 -5 53949.1 3388.86 3
-3 3 -5 62777.1 3585.16 5
3 -3 5 53190.6 3266.1 5
3 -3 5 57999.1 3372.91 3
3 -3 5 55459.6 2464.36 8
3 -3 6 59327.9 3542.51 3
-3 3 -6 51920.6 3620.52 5
3 -3 6 56550.6 2762.01 8
3 -3 7 171951 7018.17 8
3 -3 7 167544 7874.7 3
3 -3 7 160306 7587.96 6
-3 3 -7 163714 8287.62 5
3 -3 8 656.068 390.321 8
3 -3 8 172.762 216.06 4
3 -3 8 710.477 427.632 6
3 -3 8 762.175 497.246 3
-3 3 -8 360.212 390.238 3
-3 3 -8 1012.98 637.878 5
3 -3 9 251437 12294.8 3
3 -3 9 259162 11749.4 6
3 -3 9 263829 11344.5 8
-3 3 -9 229177 12414.4 3
-3 3 -9 240377 12907.6 5
3 -3 9 267721 11040.4 4
3 -3 10 15823.2 2528.28 1
3 -3 10 11329.8 1739.39 6
-3 3 -10 11126.1 2149.74 3
-3 3 -10 11855 2211.98 5
3 -3 10 12960.9 1694.58 8
3 -3 10 14148.4 1475.33 4
3 -3 10 16237.9 2362.91 3
3 -3 11 37903.5 4123.78 1
3 -3 11 34600.1 3875.25 3
-3 3 -11 30830.9 3986.09 3
-3 3 -11 31596.8 3999.92 5
3 -3 11 35047.3 3128.88 8
3 -3 11 37086.5 2492.08 4
3 -3 12 517.323 555.766 8
3 -3 12 201.468 189.079 4
3 -3 12 -194.938 426.545 2
3 -3 12 -342.481 667.876 3
3 -3 12 -38.6218 362.243 1
-3 3 -12 -1414.35 862.946 5
3 -3 13 1849.84 937.231 2
3 -3 13 596.691 430.696 8
3 -3 13 472.497 376.765 3
3 -3 13 1209.62 926.515 1
-3 3 -13 -499.666 709.338 5
3 -3 14 16626.9 2692.18 2
3 -3 14 18252.2 3169.01 1
-3 3 -14 18408.6 3349.46 5
3 -3 15 5160.46 1498.59 2
3 -3 15 7339.35 1957.35 1
-3 3 -15 5649.02 1899.39 5
3 -3 16 -209.104 440.832 2
-3 3 -16 1291.49 931.864 5
3 -3 16 515.371 472.001 1
3 -3 17 2714.67 1120.18 2
3 -3 18 27878.9 3817.8 2
3 -2 -18 263.146 324.933 5
-3 2 17 27594.1 4446.82 1
3 -2 -17 29748.4 3416.48 5
-3 2 16 717.397 456.287 1
3 -2 -16 676.412 470.183 5
-3 2 15 25753.2 3201.68 2
3 -2 -15 18722.1 2539.93 5
-3 2 15 20051 3496.53 1
3 -2 -14 23602.4 3191.66 8
-3 2 14 22612.1 2948.21 2
-3 2 14 16018.4 3014.67 1
3 -2 -13 14829.8 2416.18 8
-3 2 13 10896.6 1985.59 2
-3 2 13 11304.7 2388.16 1
3 -2 -12 58534.1 2730.51 4
3 -2 -12 69058.6 5304.08 8
-3 2 12 59680.6 5527.89 1
-3 2 12 56169.4 4700.09 2
-3 2 11 75564 5292.45 2
3 -2 -11 70907.1 5059.47 7
-3 2 11 71867.5 5902.28 1
3 -2 -11 72427.5 3497.32 4
3 -2 -11 86114.9 5943.3 8
3 -2 -10 8796.2 1689.91 8
3 -2 -10 6906.72 1331.94 7
3 -2 -10 7358.43 827.756 4
3 -2 -10 10267.3 1676.83 1
3 -2 -10 5429.24 923.515 2
-3 2 10 6113.82 1239.35 2
-3 2 10 10104.5 1835.79 1
3 -2 -9 7881.98 1528.53 8
3 -2 -9 7293.48 1243.17 7
-3 2 9 6074.07 1690 8
-3 2 9 6871.5 1295.72 7
3 -2 -9 6671.28 1267.18 1
-3 2 9 6187.11 1158.39 2
3 -2 -9 4978.69 808.551 2
-3 2 9 7040.08 1433.31 1
3 -2 -9 6416.95 796.231 4
-3 2 8 141732 6973.08 2
3 -2 -8 137726 7190.8 1
-3 2 8 134901 7162.07 7
3 -2 -8 130708 6123.56 2
3 -2 -8 139920 7022.97 7
-3 2 8 141120 7569.46 1
3 -2 -8 159013 8131 8
3 -2 -8 140335 6124.06 4
-3 2 8 128591 8645.49 8
3 -2 -7 99982.3 5564.23 1
-3 2 7 103843 5618.82 7
-3 2 7 112716 6003.78 1
3 -2 -7 102469 4789.3 2
-3 2 7 102872 5404.46 2
3 -2 -7 108053 5005.53 4
3 -2 -7 117715 6518.99 8
3 -2 -6 231755 10171.1 8
-3 2 6 208476 9012.07 7
3 -2 -6 191751 8167.97 2
-3 2 6 209358 9200.73 1
-3 2 6 210306 8845.41 2
3 -2 -6 187888 8899.59 1
3 -2 -6 216338 8662.82 4
-3 2 5 383377 14440.2 6
3 -2 -5 398633 15363.9 8
3 -2 -5 320799 13985.9 1
3 -2 -5 358716 13457.8 2
3 -2 -5 345160 14018.4 4
-3 2 5 363510 13970.1 2
3 -2 -4 8070.74 783.942 2
3 -2 -4 10282.8 1043.51 7
-3 2 4 8540.29 1425.96 8
-3 2 4 8806.42 1043.01 6
3 -2 -4 8372.6 1238.94 8
3 -2 -4 7321.4 897.835 1
3 -2 -4 9013.61 1074.94 4
-3 2 3 15298.4 1307.21 6
3 -2 -3 12444.4 1097.19 1
-3 2 3 14918.6 1684.94 8
3 -2 -3 13156.1 1018.9 2
3 -2 -3 13262.4 1139.93 7
3 -2 -3 14649 1429.41 4
3 -2 -3 14281.1 1551.97 8
3 -2 -2 6893.05 740.38 6
-3 2 2 6734.83 948.121 8
3 -2 -2 7999.05 1051.07 4
-3 2 2 8363.29 897.912 6
3 -2 -2 7039.53 976.324 8
-3 2 1 16303.8 1264.16 8
-3 2 1 14566.6 1201.75 6
3 -2 -1 14710.2 1144.52 6
3 -2 -1 15126.9 995.884 5
3 -2 -1 13498.1 1449.3 4
3 -2 -1 15132.4 1317.65 8
-3 2 0 46908.6 2273.32 8
-3 2 0 53410.1 2669.6 6
3 -2 0 47572.7 2543.65 6
3 -2 0 49731.6 2327.73 5
3 -2 0 49205.1 2489.21 8
3 -2 1 93898 3981.26 8
-3 2 -1 103813 4520.48 6
-3 2 -1 93149.3 3760.41 8
-3 2 -1 112801 4276.34 5
3 -2 1 110332 4375.3 3
3 -2 1 109642 4294.12 5
3 -2 1 85213.7 4888.01 4
-3 2 -2 26159.6 1793.42 6
-3 2 -2 29062.9 1703.11 5
3 -2 2 26862.5 1658.07 5
3 -2 2 27378.5 1665.5 3
3 -2 2 26256.1 2148.68 4
3 -2 3 286.423 85.106 8
3 -2 3 669.766 338.302 4
-3 2 -3 1122.55 353.065 6
-3 2 -3 1430.41 346.579 5
3 -2 3 306.853 212.935 3
3 -2 3 501.75 217.248 5
-3 2 -3 417.376 180.585 3
-3 2 -4 377306 13978.9 3
3 -2 4 396891 14021.2 3
3 -2 4 349860 13365.8 8
-3 2 -4 368037 14118.5 5
3 -2 5 1482.85 480.607 4
3 -2 5 1538.8 447.79 3
-3 2 -5 1299.63 407.085 5
-3 2 -5 939.57 323.392 3
3 -2 6 150953 7033.61 3
-3 2 -6 137847 6816.69 3
3 -2 6 152460 7898.59 1
-3 2 -6 158469 7300.86 5
3 -2 6 136348 6757.48 4
3 -2 6 151447 6589.94 8
3 -2 7 50927.7 4063.25 1
-3 2 -7 40603.3 3206.77 3
3 -2 7 48052.3 3376.56 6
3 -2 7 44769.4 2986.25 4
3 -2 7 47168.9 3036.17 8
3 -2 7 51267.8 3540.24 3
-3 2 -7 51473.4 3702.13 5
3 -2 8 33232.4 3421.14 1
3 -2 8 35247.1 3122.38 3
3 -2 8 30564.7 2535.94 8
-3 2 -8 30817.5 3063.79 5
3 -2 8 31598.2 2321.84 4
3 -2 9 21012.9 2584.21 3
3 -2 9 20015.5 2731.3 1
3 -2 9 20161.6 2594.02 2
-3 2 -9 20686.4 2638.99 5
3 -2 9 19465.3 1678.8 4
3 -2 9 19051.7 2060.45 8
3 -2 10 239328 11718.6 3
-3 2 -10 174755 10947.2 3
3 -2 10 225156 11269.8 2
-3 2 -10 174234 10846.5 5
3 -2 10 223353 11735.2 1
3 -2 10 214506 8656.86 4
3 -2 10 198514 9878.37 8
-3 2 -11 5454.67 1568.41 5
-3 2 -11 5938.7 1696.91 3
3 -2 11 9129.32 942.064 4
3 -2 11 7497.69 1488.89 7
3 -2 11 6428.06 1644.49 1
3 -2 11 7242.74 1384.37 8
3 -2 11 10348 1888.6 2
3 -2 11 8765.4 1936.53 3
3 -2 12 108714 7239.06 2
-3 2 -12 102676 7748.6 5
3 -2 12 97971.7 4196.63 4
3 -2 12 90751.3 6068.86 8
3 -2 12 105755 7607.54 1
3 -2 13 16831.4 2935.55 1
3 -2 13 15472.9 2491.2 2
3 -2 13 13332.3 2046.82 8
-3 2 -13 12219 2537.37 5
3 -2 14 2469.03 1053.13 2
-3 2 -14 4400.9 1625.54 5
3 -2 14 2348.16 1252.14 1
3 -2 15 450.909 637.427 1
-3 2 -15 1107.97 729.94 5
3 -2 16 6906.77 2160.18 1
-3 2 -16 6440.04 1917.36 5
3 -2 16 6147.43 1719.37 2
3 -2 17 5133.56 1610.37 2
3 -1 -18 -450.948 421.737 5
3 -1 -17 2154.64 906.574 8
3 -1 -17 2115.54 850.474 5
-3 1 17 3203.61 1414.54 1
-3 1 16 45046.7 5380.72 1
3 -1 -16 42889.8 4290.45 5
3 -1 -16 52833.2 5085.46 8
-3 1 15 6604.77 1430.26 2
3 -1 -15 7868.76 1838.38 8
-3 1 15 5390.3 1813.07 1
3 -1 -14 66889.9 5551.63 8
-3 1 14 65273.2 4943.91 2
-3 1 14 59007.5 5907.12 1
-3 1 13 4960.8 1534.16 1
-3 1 13 5934.52 1312.94 2
-3 1 12 13651.9 2443.5 1
-3 1 12 19401.7 2294.55 2
3 -1 -12 19587.8 2654.76 8
-3 1 11 36710.7 3157.66 2
-3 1 11 39854.4 4031.34 1
3 -1 -11 38950.3 3730.46 8
3 -1 -10 37296.4 2183.82 4
-3 1 10 39407.3 3060.58 2
-3 1 10 36565.3 3717.72 1
3 -1 -10 43595 3795.09 8
3 -1 -9 43991 2556.85 4
-3 1 9 42249.7 3042.87 2
-3 1 9 44460.1 3724.58 7
3 -1 -9 45536.4 3630.57 1
-3 1 9 50266.8 4809.14 8
-3 1 9 49752.1 4070.22 1
3 -1 -9 52742.4 4118.15 8
3 -1 -8 5322.89 750.89 4
-3 1 8 3784.22 953.927 1
3 -1 -8 3706.02 974.149 8
-3 1 8 4490.42 1011.63 7
3 -1 -8 3628.93 843.947 7
-3 1 8 3897.83 714.887 2
3 -1 -8 3931.04 881.053 1
3 -1 -7 54365.4 3607.89 7
3 -1 -7 53153.1 3628.46 1
-3 1 7 53954 3693.39 7
3 -1 -7 54346.8 2725.49 2
-3 1 7 64901.5 4037.94 1
-3 1 7 56088.6 3004.85 2
3 -1 -7 59432 4177.58 8
3 -1 -7 55410.4 3045.45 4
3 -1 -6 64762.2 3803.22 1
3 -1 -6 64099.3 3751.61 7
3 -1 -6 64074.4 2838.93 2
-3 1 6 61148.8 3041.5 2
-3 1 6 65899.6 3868.33 1
-3 1 6 60458.4 3732.79 7
3 -1 -6 68256.7 4289.73 8
3 -1 -6 63131 3370.23 4
3 -1 -5 254099 10974.4 1
3 -1 -5 294437 11196.3 7
3 -1 -5 258349 10004 2
3 -1 -5 271724 11787.3 8
-3 1 5 280032 11142.6 7
-3 1 5 274674 11026.7 1
-3 1 5 292878 10987.7 6
-3 1 5 301505 11617.8 4
3 -1 -5 270080 10969.7 4
-3 1 4 396284 15143.2 8
3 -1 -4 369221 13267.4 2
3 -1 -4 385143 14166.1 7
3 -1 -4 342995 13927.1 1
-3 1 4 390335 14051.6 6
3 -1 -4 357183 14749.5 8
-3 1 4 369137 13905.4 1
-3 1 4 355801 14065.8 7
-3 1 4 361070 14722.9 4
3 -1 -4 343554 14271.6 4
-3 1 3 83186.6 4271.84 8
3 -1 -3 79980.2 4183.13 4
3 -1 -3 84584.2 3780.05 7
-3 1 3 82733.6 3755.28 6
3 -1 -3 79384.6 3545.15 6
3 -1 -3 82512.8 4237.3 8
-3 1 3 83676.4 3719.54 7
3 -1 -3 74778.4 3502.59 1
-3 1 3 81943.3 4423.29 4
3 -1 -3 79727.6 3254.13 2
-3 1 2 216121 9002.14 8
3 -1 -2 221030 8281.86 1
3 -1 -2 238193 8634.01 7
-3 1 2 234786 8780.98 6
3 -1 -2 214116 9349.89 4
3 -1 -2 226423 9103.64 8
3 -1 -2 220161 8597.06 6
-3 1 2 207886 9492.8 4
3 -1 -1 14379.2 1185.7 8
3 -1 -1 16974 1014.4 7
-3 1 1 17092.8 1211.75 6
3 -1 -1 16116.9 1147.42 6
-3 1 1 15369 1155.22 8
-3 1 1 16431.5 1597.27 4
-3 1 0 1456.39 477.7 4
-3 1 0 2907.88 375.503 8
-3 1 0 2102.03 398.973 6
3 -1 0 1695.9 348.256 6
3 -1 0 1503.03 316.37 8
3 -1 0 2741.76 399.051 5
-3 1 -1 416.503 291.671 4
3 -1 1 870.699 371.787 4
3 -1 1 1412.49 355.021 6
3 -1 1 457.985 159.438 8
-3 1 -1 1196.99 316.412 6
-3 1 -1 995.632 245.75 5
3 -1 1 479.643 179.264 5
3 -1 2 297863 12139.6 4
3 -1 2 288694 10945.6 3
-3 1 -2 278312 11240.5 5
-3 1 -2 297015 12052.2 4
3 -1 3 14193.8 1553.67 1
3 -1 3 14371.9 1053.67 3
-3 1 -3 15424.9 1053.16 3
-3 1 -3 16024.2 1289.99 5
-3 1 -3 16159.3 1480.72 4
3 -1 3 13413.7 1448.36 4
3 -1 4 25673.8 1678.84 3
-3 1 -4 25748 1575.74 3
-3 1 -4 26151.7 1890.26 5
3 -1 4 22905.9 2252.54 1
-3 1 -4 26418.9 1939.4 4
3 -1 4 20731.8 1899.69 4
3 -1 5 104729 6068.83 1
3 -1 5 100667 6108.26 2
-3 1 -5 110283 5318.93 5
-3 1 -5 113606 5124.41 4
-3 1 -5 104589 4788.79 3
3 -1 5 106576 4651.5 8
3 -1 5 107345 5130.94 3
3 -1 5 96190.6 5160.91 4
3 -1 6 19410.7 1833.67 3
3 -1 6 16858.8 2159.47 1
-3 1 -6 16410.8 1532.06 3
3 -1 6 16833 2146.91 2
-3 1 -6 17305.7 1777.51 5
3 -1 6 17232.7 1436.19 8
3 -1 6 15657.8 1540.18 4
3 -1 7 181857 9571.46 1
3 -1 7 202804 9052.41 3
3 -1 7 174710 7881.34 4
-3 1 -7 167872 8257.36 3
3 -1 7 189748 9622.49 2
-3 1 -7 185548 8770.58 5
3 -1 7 175932 7889.92 8
3 -1 8 1364.8 439.848 8
3 -1 8 3.66035 237.509 2
3 -1 8 624.44 272.053 4
3 -1 8 713.594 581.226 1
3 -1 8 526.719 330.966 7
3 -1 8 309.262 147.735 3
-3 1 -8 311.224 267.523 3
3 -1 8 569.567 352.355 5
3 -1 9 4061.58 1289.91 1
3 -1 9 3343.84 793.082 8
3 -1 9 4485.57 1037.7 7
3 -1 9 3343.01 1099.33 2
3 -1 9 2477.33 536.496 4
-3 1 -9 4818.56 1164.35 5
3 -1 10 14438 1842.34 8
3 -1 10 14604.9 1996.03 7
3 -1 10 17244 2495 2
3 -1 10 15557.9 2507.54 1
-3 1 -10 12324.1 2087.15 5
3 -1 11 113848 7349.35 2
-3 1 -11 96577.6 7050.42 5
3 -1 11 114595 7800.84 1
3 -1 11 103642 6382.51 7
3 -1 11 97916.9 6040.98 8
3 -1 12 261.402 331.413 2
3 -1 12 1226.77 643.307 8
3 -1 12 1080.32 359.748 1
-3 1 -12 926.355 818.359 3
-3 1 -12 1944.72 938.2 5
3 -1 13 198516 10926.2 2
-3 1 -13 181205 11160 5
3 -1 13 175917 11377.6 1
3 -1 14 24015.8 3332.21 2
-3 1 -14 20801.6 3353.15 5
3 -1 14 22231.4 3627.71 1
3 -1 15 17514.6 2901.11 2
3 -1 15 17238.7 3263.43 1
-3 1 -15 18724.4 3240.71 5
3 -1 16 1281.71 1067.67 1
3 -1 16 1418.14 877.451 2
-3 1 -16 2139.38 862.05 5
3 -1 17 6493.01 1783.85 2
-3 0 18 5805.81 1893.97 1
3 0 -17 31470 3892.67 8
-3 0 17 26789.8 4016.92 1
-3 0 16 12079.6 2624.2 1
3 0 -16 20229.8 2971.12 8
-3 0 15 43390.4 3615.76 2
-3 0 15 37517.6 4541.73 1
3 0 -15 40269.7 4254.91 8
3 0 -14 1489.23 799.005 8
-3 0 14 2051.11 1132.49 1
-3 0 14 1877.58 777.988 2
3 0 -13 142419 8572.34 8
-3 0 13 144043 7433.56 2
-3 0 13 134475 9014.79 1
-3 0 12 30304.2 2664.28 2
-3 0 12 32905.3 3758.27 1
3 0 -12 33888.9 3522.84 8
-3 0 11 66040 4022.5 2
-3 0 11 68135.3 5417.74 1
3 0 -11 63676.7 4972.37 8
3 0 -10 1082.61 526.461 8
-3 0 10 545.036 355.8 7
-3 0 10 743.083 551.94 1
3 0 -10 290.399 477.813 3
-3 0 10 670.577 406.344 2
-3 0 9 4352.72 1293.81 8
-3 0 9 3231.08 683.457 4
-3 0 9 3855.15 1036.11 1
-3 0 9 2717.6 893.725 7
-3 0 9 3022.79 590.437 2
3 0 -9 4231.79 1037.78 8
3 0 -9 3525.25 1296.94 3
3 0 -8 55540.3 3058.59 4
3 0 -8 57858.8 4114.49 8
-3 0 8 51525.1 2718.52 2
-3 0 8 59773.2 4275.28 1
-3 0 8 49715 3922.04 7
-3 0 8 61523.6 3492.54 4
3 0 -7 3261.37 873.068 8
-3 0 7 3371 697.163 4
3 0 -7 3451.86 598.392 4
-3 0 7 3591.8 870.34 7
-3 0 7 2740.31 711.439 1
-3 0 7 2787.99 347.157 2
3 0 -6 4615.6 747.427 4
-3 0 6 4394.1 812.178 4
-3 0 6 3563.47 792.361 7
-3 0 6 4082.02 626.283 6
3 0 -6 4925.67 956.719 8
-3 0 6 3552.41 797.228 1
3 0 -5 46321.5 2956.38 4
-3 0 5 51651.3 3227.23 7
3 0 -5 53255.4 3387.86 8
-3 0 5 53475.8 2646.83 6
-3 0 5 50727.3 3074.77 1
-3 0 5 52676 3331.46 4
-3 0 4 154523 6666.36 7
-3 0 4 156380 6149.9 6
3 0 -4 142674 6891.13 8
-3 0 4 155012 6429.8 1
-3 0 4 148416 7152.24 4
3 0 -4 152595 6876.43 4
3 0 -3 166185 7750.38 4
3 0 -3 161375 7614.43 8
-3 0 3 183076 7209.56 7
-3 0 3 177609 7649.17 8
3 0 -3 185196 7493.38 7
-3 0 3 179212 7004.64 6
-3 0 3 180343 6827.51 1
3 0 -3 179980 6860.27 6
-3 0 3 182340 8225.28 4
3 0 -2 174907 8117.69 4
-3 0 2 188150 7158.25 7
-3 0 2 183785 7295.28 6
3 0 -2 195511 7201.26 2
3 0 -2 181988 7187.53 6
3 0 -2 198448 7880.36 8
3 0 -2 188154 7435.61 7
-3 0 2 187918 7705.62 8
-3 0 2 174141 8376.46 4
3 0 -1 356909 12989 7
-3 0 1 358586 13269.6 6
3 0 -1 351362 13227.1 6
3 0 -1 371642 13494.8 2
3 0 -1 360990 13598.2 8
-3 0 1 345879 13354.3 8
-3 0 1 323696 14328 4
3 0 0 16345.5 867.159 1
3 0 0 14935.2 1184.55 8
3 0 0 15965.5 1227.03 6
3 0 0 15204.2 1385.12 2
-3 0 0 14098.2 1589.26 4
3 0 1 6713.43 815.792 6
-3 0 -1 5930.81 794.243 1
3 0 1 8505.18 1105.22 2
-3 0 -1 6554.02 708.268 5
3 0 1 8568.56 737.423 1
3 0 1 7689.12 1083.37 4
-3 0 -1 6897.33 1009.07 4
3 0 2 27744.3 2302.57 4
3 0 2 30916 1527.22 7
-3 0 -2 25554.6 2132.81 1
3 0 2 36805.8 2659.52 2
3 0 2 30076.4 1408.35 3
-3 0 -2 31576.3 1899.91 5
3 0 2 31902.9 2010.21 1
-3 0 -2 33273.4 2386.7 4
3 0 3 163455 7948.72 4
-3 0 -3 160786 8053.65 1
3 0 3 196814 8680.37 2
3 0 3 176021 7023.14 7
3 0 3 175435 6777.15 3
-3 0 -3 174459 7360.93 5
3 0 3 194730 7909.04 1
-3 0 -3 182426 7829.17 4
3 0 4 38402.5 2284.34 7
3 0 4 38883 2203.1 3
-3 0 -4 36029.8 2976.28 1
3 0 4 43774.2 3354.08 2
-3 0 -4 39460 1838.9 3
-3 0 -4 40438.6 2494.66 5
3 0 4 38171.1 2861.14 1
3 0 4 36072.2 2699.48 4
-3 0 -4 39493.6 2576.89 4
3 0 5 156879 6864.13 3
3 0 5 136973 6846.13 4
3 0 5 139354 6554.72 7
3 0 5 155713 8050.28 2
-3 0 -5 145340 5956.31 3
-3 0 -5 141045 7639.29 1
-3 0 -5 155630 6845.63 5
3 0 5 159679 7694.34 1
-3 0 -5 153623 6675.72 4
3 0 6 14079.1 1468.51 7
3 0 6 13192.1 1414.92 4
-3 0 -6 14063.6 1246.58 3
3 0 6 15465.8 2101.2 2
-3 0 -6 12274 1484.28 5
3 0 6 13192 1848.69 1
-3 0 -6 14228.3 1345.84 4
3 0 7 4333.02 746.069 8
3 0 7 4710.7 1202.73 2
3 0 7 2917.54 620.854 4
3 0 7 3731.11 792.458 7
3 0 7 4637.25 1173.57 1
-3 0 -7 3679.55 763.744 3
-3 0 -7 3406.16 812.973 5
3 0 7 4215.72 815.468 5
-3 0 -7 4681.81 722.123 4
3 0 8 89586.1 5276 7
3 0 8 99809.4 6500.98 2
-3 0 -8 94398.1 5700.94 5
3 0 8 104675 6702.17 1
3 0 8 93826.5 5140.06 5
-3 0 -8 81966.4 5279.24 3
3 0 8 83780.1 4835.48 8
-3 0 -8 105654 4640.93 4
3 0 9 11051 1585.51 7
3 0 9 11225 2079.22 1
3 0 9 15180.9 2309.23 2
-3 0 -9 11617.2 1810.69 5
3 0 9 12401.5 1569.93 5
-3 0 -9 7537.86 1517.26 3
-3 0 -9 14630.9 1267.52 4
3 0 9 11229.4 1484.97 8
3 0 10 22331.2 2446.97 7
3 0 10 27097.7 3222.75 2
-3 0 -10 24048.7 2881.24 5
3 0 10 23127.2 3164.62 1
3 0 10 19903.6 2177.77 8
3 0 11 5345.3 1238.1 7
3 0 11 5863 1532.51 2
3 0 11 6177.62 1211.21 8
-3 0 -11 6267.56 1493.57 5
3 0 11 6598.89 1669.73 1
3 0 12 47866.5 4633.8 2
-3 0 -12 33490 4566.93 3
3 0 12 43946.4 4842.38 1
-3 0 -12 41528.1 4351.89 5
3 0 13 964.831 527.336 2
3 0 13 431.455 609.298 1
-3 0 -13 1529.79 978.809 3
-3 0 -13 982.348 700.509 5
3 0 14 161948 10178.8 2
3 0 14 154233 10925.7 1
-3 0 -14 159984 10403.5 5
3 0 15 12167.7 2434.96 2
3 0 15 13033.9 2931.84 1
-3 0 -15 12696.8 2571.3 5
3 0 16 44010.9 4898.09 2
3 0 16 44014.5 5528.97 1
-3 0 -16 43571.7 5054.5 5
-3 -1 18 78538 7261.1 1
3 1 -17 2167.26 1059.56 8
-3 -1 17 2072.56 1183.88 1
3 1 -16 82893.6 6515.11 8
-3 -1 16 74523.7 6722.6 1
3 1 -15 20294.4 2965.15 8
-3 -1 15 21316 3240.68 1
3 1 -14 1984.91 858.343 8
-3 -1 14 2176.64 1003.74 1
-3 -1 14 2716.91 707.364 2
3 1 -13 7724.53 1661.5 8
-3 -1 13 9087.98 1259.73 2
-3 -1 13 8853.2 1897.31 1
3 1 -12 151234 9059.49 8
-3 -1 12 155365 7469.2 2
-3 -1 12 154139 9492.31 1
3 1 -11 36423.3 3545.73 8
-3 -1 11 34447.9 2402.72 2
-3 -1 11 36234.1 3676.09 1
-3 -1 11 41924.6 2715.82 4
-3 -1 10 191475 9995.15 1
-3 -1 10 185089 7927.4 2
-3 -1 10 182625 9938.61 7
-3 -1 10 210954 8669.09 4
3 1 -10 188885 9793.75 8
-3 -1 9 15274.2 2069.25 1
-3 -1 9 15317.8 2264.91 8
-3 -1 9 14514.2 1144.13 2
-3 -1 9 18997.6 2346.78 7
3 1 -9 16576.7 2098.26 8
3 1 -9 14686.7 2664.48 3
-3 -1 9 15835.6 1649.06 4
-3 -1 8 18027.8 2221.08 7
-3 -1 8 16304.2 1435.21 6
3 1 -8 19623.9 2188.11 8
3 1 -8 13586.1 2481.48 3
-3 -1 8 22096.1 1970.43 4
-3 -1 8 20484.3 2244.01 1
3 1 -7 14861.7 1786.48 8
3 1 -7 13080.8 2400.95 3
-3 -1 7 15439 1968.53 7
-3 -1 7 19047.1 2019.17 1
-3 -1 7 16351.9 1217.16 6
-3 -1 7 17865 1795.78 4
-3 -1 6 1373.51 464.367 4
-3 -1 6 1292.06 538.979 7
3 1 -6 1966.19 584.9 8
-3 -1 6 2037.89 346.767 6
3 1 -6 2967.41 1029.57 3
-3 -1 6 2760.84 681.673 1
3 1 -5 40359.5 4068.12 3
-3 -1 5 47438.3 2164.59 6
-3 -1 5 47261.2 2860.37 1
-3 -1 5 44895.3 3263.05 7
3 1 -5 44916.7 3087.73 8
-3 -1 5 44311.2 3262.75 4
3 1 -4 511.129 325.294 8
-3 -1 4 499.531 159.937 2
-3 -1 4 412.529 336.417 4
3 1 -4 299.689 260.125 4
-3 -1 4 717.703 335.387 7
-3 -1 4 400.588 145.04 6
3 1 -4 -264.651 360.555 3
-3 -1 3 69765.2 4600.31 4
3 1 -3 70861.7 4040.09 8
3 1 -3 84928.6 3263.68 2
3 1 -3 65106.1 4974.78 3
-3 -1 3 73967.9 3961.89 7
-3 -1 3 77080.6 3269.83 6
3 1 -3 76232.1 4400.25 4
3 1 -3 79096.3 3184.57 6
-3 -1 3 73736.7 3630.6 2
3 1 -2 112088 4504.03 2
3 1 -2 112953 5185.2 8
-3 -1 2 105287 4701.67 7
3 1 -2 110858 4374.93 6
-3 -1 2 105963 5988.49 4
-3 -1 2 99069.8 4982.36 2
3 1 -1 187391 7182.49 2
3 1 -1 174711 7449.83 8
3 1 -1 161781 8198.12 3
-3 -1 1 173552 6631.17 7
-3 -1 1 176072 6737.74 1
-3 -1 1 161828 8476.31 4
3 1 -1 185327 7068.46 6
-3 -1 1 164003 7793.19 2
-3 -1 0 277515 12757.6 4
3 1 0 267588 11880.5 3
3 1 0 314094 11701 2
3 1 0 302960 11446.1 6
-3 -1 0 306043 12508 2
-3 -1 0 292357 11136.8 1
3 1 1 26344.6 1573.76 3
3 1 1 32022.6 2198.51 2
-3 -1 -1 30447.4 2591.13 2
-3 -1 -1 28150.9 1849.03 1
-3 -1 -1 27926.5 2517.36 4
-3 -1 -2 112674 6090.05 4
3 1 2 113363 6134.56 4
3 1 2 129300 5399.02 1
3 1 2 125034 5978.54 2
-3 -1 -2 119166 5150.02 5
-3 -1 -2 110459 6348.78 2
-3 -1 -2 106629 5416.1 1
3 1 3 61925.1 3926.47 2
3 1 3 61120 3457.84 1
-3 -1 -3 52287.2 3447.83 1
-3 -1 -3 58682.6 3120.63 5
-3 -1 -3 62498.9 3827.3 4
-3 -1 -4 56879.9 3816.31 1
-3 -1 -4 59450.7 3645.85 4
3 1 4 58043.2 4089.63 2
3 1 4 64636.3 3797.48 1
-3 -1 -4 59641.1 3321.92 5
3 1 4 60151 2805.2 7
-3 -1 -5 53669 3232.11 4
3 1 5 54268.9 4008.73 2
3 1 5 54191.2 3646.9 1
-3 -1 -5 46272.5 2022.14 3
3 1 5 49870.9 2622.92 7
-3 -1 -5 50147.2 3066.77 5
3 1 5 44859.4 2853.98 5
3 1 6 228262 10247.6 1
3 1 6 237661 10824.5 2
-3 -1 -6 196019 8030.18 3
3 1 6 193233 8530.16 7
-3 -1 -6 216797 9210.87 5
-3 -1 -6 206081 10130.9 1
3 1 6 205167 8877.71 5
-3 -1 -6 211466 8941.45 4
3 1 7 15886.1 1562.77 7
3 1 7 17931.1 2411.53 2
-3 -1 -7 16300.2 1521 3
-3 -1 -7 17056.7 1602.78 4
3 1 7 18187.7 2343.01 1
-3 -1 -7 13848.8 2035.43 1
-3 -1 -7 21252.3 2074.74 5
3 1 7 16710.9 1683.18 5
3 1 8 32679.9 2637.03 7
-3 -1 -8 38904.8 3644.35 1
3 1 8 41102.1 3899.56 2
-3 -1 -8 33944.2 2865.86 3
3 1 8 41061.1 3802.36 1
-3 -1 -8 36960 3127.95 5
3 1 8 33130.6 2673.51 5
3 1 8 34845.2 2675.58 8
-3 -1 -8 38789.5 2493.04 4
3 1 9 5944.28 1071.84 7
3 1 9 6488.26 1493 2
3 1 9 4731.57 964.307 8
-3 -1 -9 4716.28 1169.86 3
-3 -1 -9 6126.71 1279.95 5
3 1 9 8323.55 1758.78 1
-3 -1 -9 6626.85 890.275 4
3 1 10 4941.59 1385.47 1
-3 -1 -10 4144.77 693.654 4
3 1 10 3267.71 854.453 7
-3 -1 -10 4029.05 1271.17 3
-3 -1 -10 3676.01 1031.1 5
3 1 10 4194.73 1176.1 2
3 1 11 28639 2925.61 7
3 1 11 31363.4 3736.44 2
3 1 11 30773.6 3875.84 1
-3 -1 -11 30942.1 3436.31 5
-3 -1 -11 35299 2122.7 4
-3 -1 -12 -222.454 669.29 5
3 1 12 1149.33 871.486 1
3 1 12 -376.22 518.077 2
3 1 13 411.056 654.715 1
3 1 13 708.078 434.818 2
-3 -1 -13 2049.69 872.097 5
-3 -1 -14 505.506 498.636 5
3 1 14 410.358 439.547 1
3 1 15 66266.4 6242.1 2
3 1 15 63795.5 6753.88 1
-3 -1 -15 68274.9 6232.38 5
-3 -1 -16 3032.82 1302.68 5
-3 -2 18 1252.98 1152.23 1
-3 -2 17 36659.8 4527.66 1
3 2 -17 37083.7 4250.15 8
3 2 -16 174.802 365.564 8
-3 -2 16 675.012 655.432 1
3 2 -15 107819 7477.93 8
-3 -2 15 97925.8 7516.08 1
-3 -2 14 17451.1 1741.77 2
3 2 -14 15761.2 2506.62 8
-3 -2 14 23722.7 1874.58 4
-3 -2 14 21139.8 2981.46 1
-3 -2 13 22516.2 2994.9 1
-3 -2 13 22822.4 1907.64 2
-3 -2 13 25224.5 2054.07 4
3 2 -13 21355.6 2869.35 8
3 2 -12 24255.2 2917.38 8
-3 -2 12 20172.7 2730.21 1
-3 -2 12 22704.6 1815.4 2
-3 -2 12 26842.9 2220.61 4
-3 -2 11 91880.3 6180.42 1
-3 -2 11 87825.7 4286.04 2
-3 -2 11 94685.1 5008.77 4
3 2 -11 83274.2 5855.12 8
3 2 -10 3551.54 1012.22 8
-3 -2 10 3332.05 756.668 4
-3 -2 10 3872.86 1029.11 1
-3 -2 10 2981.61 939.389 7
-3 -2 10 3345.41 539.127 2
-3 -2 10 3069.33 580.634 6
-3 -2 9 333418 14266.1 7
3 2 -9 270126 15684.5 3
-3 -2 9 340417 13055.3 4
-3 -2 9 322886 13783.4 1
-3 -2 9 318426 14140.4 8
-3 -2 9 296108 11435.9 6
-3 -2 9 315668 11503.4 2
3 2 -9 327840 13779.5 8
-3 -2 9 260459 11417.5 2
3 2 -8 39937.7 3222.97 8
-3 -2 8 36360.7 3210.59 8
-3 -2 8 46065.9 3664.09 7
3 2 -8 35054 4300.27 3
-3 -2 8 37911.2 1865.13 6
-3 -2 8 40561.6 3134.38 1
-3 -2 8 43148.9 3150.53 4
-3 -2 8 32801.2 1962.58 2
3 2 -7 53339.8 3669.71 8
-3 -2 7 57260.1 4053.01 7
3 2 -7 42411.5 4663.15 3
-3 -2 7 45916.8 2406.19 2
-3 -2 7 48620.8 2095.56 6
-3 -2 7 52318.9 3699.34 4
3 2 -6 48.9849 226.845 3
-3 -2 6 57.6279 188.313 4
-3 -2 6 172.679 93.6318 2
3 2 -6 -116.781 173.3 8
-3 -2 5 580.046 368.51 4
3 2 -5 938.013 383.242 3
3 2 -5 276.238 290.838 8
-3 -2 5 477.659 178.209 2
-3 -2 4 66750.3 4606.75 4
3 2 -4 57931.7 3619.99 8
-3 -2 4 58121.8 3125.22 2
3 2 -4 57951.9 2312.36 6
3 2 -4 63122.8 2786.55 2
3 2 -3 5227.05 866.578 8
-3 -2 3 3309.18 1007.25 4
3 2 -3 4348.52 408.777 6
3 2 -3 3580.68 510.276 2
3 2 -3 3110.39 916.865 3
-3 -2 3 3718.7 669.193 2
-3 -2 2 3850.69 744.92 2
-3 -2 2 4506.87 1182.18 4
3 2 -2 4159.32 496.899 6
3 2 -2 2854.14 698.512 3
3 2 -2 4045.65 751.767 8
3 2 -2 3987.63 595.675 2
-3 -2 1 46961.1 4052.77 4
3 2 -1 53179.3 3023.75 8
3 2 -1 47114.1 2692.23 2
3 2 -1 39120.6 2689.57 3
-3 -2 1 46019.8 3146.05 2
-3 -2 0 63436.6 3322.93 1
3 2 0 60953.4 2994.18 3
-3 -2 0 67816.4 5029.02 4
-3 -2 0 64917.1 4112.65 2
3 2 0 69267.6 3623.8 2
3 2 0 66419.8 3316.54 5
-3 -2 -1 259831 11845.5 4
-3 -2 -1 250151 8589.88 7
3 2 1 253445 10075.7 2
-3 -2 -1 239528 10730.3 2
3 2 1 219754 8433.77 3
-3 -2 -1 226975 9604.98 1
-3 -2 -2 85758.8 5424.2 4
3 2 2 78417.1 4435.79 2
-3 -2 -2 76388.5 3225.31 7
-3 -2 -3 196222 7630.9 7
3 2 3 208515 9104.67 2
-3 -2 -3 208769 9681.34 4
-3 -2 -3 193794 9496.49 2
-3 -2 -3 188093 7881.87 5
-3 -2 -4 19857.5 1633.39 7
3 2 4 20269.4 1994.12 1
3 2 4 19494.8 2168.97 2
-3 -2 -4 21344.4 2441.28 2
-3 -2 -4 19142.9 1622.8 5
-3 -2 -4 18948.6 2134.63 4
-3 -2 -5 3177.95 836.923 1
-3 -2 -5 4400.06 898.907 4
3 2 5 3197.39 814.595 1
-3 -2 -5 4419.67 1125.46 2
-3 -2 -5 3494.85 700.472 5
3 2 5 4162.28 738.986 5
3 2 5 4821.65 1126.2 2
-3 -2 -6 87261.4 5679.87 1
3 2 6 108643 6449.05 2
-3 -2 -6 99211.9 5275.82 4
3 2 6 96235.8 5813.73 1
-3 -2 -6 93438.3 6200.11 2
-3 -2 -6 91721.2 4976.09 5
3 2 6 89171.9 4829.63 5
3 2 7 238046 11399 2
3 2 7 233218 10955.3 1
-3 -2 -7 203666 8507.18 3
-3 -2 -7 213699 9609.04 5
3 2 7 208722 9324.56 5
-3 -2 -7 196537 10482.1 1
-3 -2 -7 214424 9431.07 4
3 2 8 23608 2958.65 2
-3 -2 -8 18671.1 1879.68 3
3 2 8 26020.1 3045.91 1
-3 -2 -8 20557.7 2189.59 5
3 2 8 19399.8 1963.39 5
-3 -2 -8 20312.5 1874.23 4
3 2 9 103793 5798.78 7
3 2 9 123009 7884.66 2
3 2 9 122548 7743.03 1
-3 -2 -9 117316 6580.3 5
-3 -2 -9 120590 5647.99 4
-3 -2 -10 444.764 268.679 4
3 2 10 610.41 310.389 7
-3 -2 -10 1181.8 750.641 3
3 2 10 1636.87 988.908 1
-3 -2 -10 899.74 564.511 5
3 2 10 1416.42 842.906 2
-3 -2 -11 3170.45 625.119 4
3 2 11 4866.98 1629.03 1
-3 -2 -11 3181.14 1079.04 5
3 2 11 3441.96 1232.98 2
3 2 12 5979.11 1851.22 1
-3 -2 -12 5599.56 1505.68 5
3 2 12 8248.29 1975.62 2
3 2 13 8836.79 2339 1
-3 -2 -13 4937 1438.03 5
3 2 13 9908.74 2251.39 2
3 2 14 3391.04 1421.07 1
-3 -2 -14 2253.88 1235.32 5
3 2 14 597.741 356.661 2
-3 -2 -15 378.221 327.831 5
-3 -3 18 2701.47 1286.54 1
-3 -3 17 24443 3592.34 1
3 3 -17 28699.2 3710.76 8
-3 -3 16 11782.7 2366.26 1
3 3 -16 9294.08 2046.79 8
3 3 -15 563.61 680.859 8
-3 -3 15 673.832 460.656 1
-3 -3 14 69068.7 5779.97 1
-3 -3 14 72924.8 4326.68 4
3 3 -14 73417.6 5827.67 8
-3 -3 13 6660.47 915.085 2
-3 -3 13 4792.29 946.276 4
-3 -3 13 4497.17 769.157 6
-3 -3 13 5786.48 1431.91 1
3 3 -13 6069.31 1472.77 8
-3 -3 12 69119.4 5161.18 1
-3 -3 12 61528.2 3218.78 2
-3 -3 12 53069.3 2842.51 6
-3 -3 12 63703.7 3942.67 4
3 3 -12 63768.5 4931.16 8
-3 -3 11 18698.4 1977.18 4
-3 -3 11 19976.4 2531.11 1
-3 -3 11 15948.7 1066.4 6
-3 -3 11 16509 1400 2
-3 -3 11 12297.9 1407.65 2
3 3 -11 15232.5 2178.92 8
-3 -3 10 19016.6 936.996 6
-3 -3 10 18236.5 952.846 6
-3 -3 10 23313.7 2494.43 1
3 3 -10 24848.4 2679.57 8
-3 -3 10 23768.8 2287.42 4
-3 -3 10 17482.1 1646.34 2
3 3 -9 3675.67 947.613 8
-3 -3 9 3407.72 652.04 2
3 3 -8 288795 12088.8 8
-3 -3 8 293277 12247.1 4
3 3 -8 267641 14590.5 3
-3 -3 8 259329 11783.6 8
3 3 -7 74566.9 4716.32 8
-3 -3 7 78266.4 4728.45 8
-3 -3 7 67443.1 3889.87 2
3 3 -7 68265.8 6100.38 3
-3 -3 6 198063 9056.49 2
3 3 -6 201209 11629.9 3
3 3 -6 229489 10012.2 8
-3 -3 6 211538 9717.76 8
-3 -3 5 31665.1 3256.71 4
3 3 -5 24060.4 2949.21 3
-3 -3 5 27622.3 2177.61 2
3 3 -5 29034.3 2484.73 8
-3 -3 4 609.063 371.971 4
3 3 -4 1288.95 384.844 2
3 3 -4 1681.39 502.755 8
3 3 -4 1416.75 593.437 3
-3 -3 4 737.804 300.389 2
-3 -3 3 4436.02 1327.56 4
3 3 -3 5550.12 517.532 6
3 3 -3 5543.03 975.959 8
3 3 -3 5019.56 743.655 2
3 3 -3 3620.91 845.329 3
-3 -3 3 3665.41 783.142 2
-3 -3 2 61350.6 4049.84 2
-3 -3 2 65792.7 5656.01 4
3 3 -2 62064.9 3773.26 3
3 3 -2 71028 4073.5 8
3 3 -2 73844.4 3735.81 2
-3 -3 1 22432.1 3124.43 4
-3 -3 1 18936.5 2044.2 2
3 3 -1 18270.2 1492.12 3
3 3 -1 22492.9 1847.76 2
3 3 0 26968.9 2198.66 2
-3 -3 0 28985.4 3578.82 4
-3 -3 0 25252 2045.57 1
3 3 0 26347.4 1515.65 3
3 3 1 8889.93 1277.43 2
3 3 1 9192.59 605.122 3
-3 -3 -1 9469.68 1228.72 1
-3 -3 -1 9244.63 1972.91 4
-3 -3 -2 143386 8563.05 4
-3 -3 -2 118357 7052.23 2
-3 -3 -2 127790 5254.8 7
3 3 2 131950 6686.49 2
-3 -3 -3 98301.9 6405.97 4
-3 -3 -3 86929.1 3890.79 7
3 3 3 87683.8 5194.11 2
-3 -3 -3 82899.7 5537.61 2
3 3 3 76946.7 4164.46 5
3 3 4 179865 8840.26 2
-3 -3 -4 171719 7209.21 7
-3 -3 -4 166793 9058.06 2
-3 -3 -4 169403 7440.74 5
3 3 4 164429 7426.83 5
-3 -3 -4 154012 8281.54 1
-3 -3 -5 831.997 527.092 2
-3 -3 -5 1674.24 640.69 4
-3 -3 -5 1929.12 505.449 7
-3 -3 -5 2124.32 711.91 1
-3 -3 -5 2434.09 578.139 5
3 3 5 2156.21 548.463 5
3 3 5 2455.63 840.118 2
3 3 6 19563.4 2514.84 2
-3 -3 -6 17441.4 1777.19 7
-3 -3 -6 14785.7 1592.03 5
3 3 6 16045.4 1632.08 5
-3 -3 -6 17075 2075.08 4
-3 -3 -6 15769.4 2129.54 1
3 3 7 44476.8 4180.5 2
-3 -3 -7 43594.4 3135.28 5
3 3 7 40241.8 2929.59 5
-3 -3 -7 42610.3 3372.32 4
3 3 8 114369 7520.06 2
-3 -3 -8 109242 5768.15 4
-3 -3 -8 102965 4837.38 3
-3 -3 -8 96664.9 4078.28 3
-3 -3 -8 101292 5751.22 5
3 3 8 108816 7013.62 1
3 3 9 55123.1 5081.68 2
3 3 9 54809.6 4878.9 1
-3 -3 -9 43576.3 3323.76 3
-3 -3 -9 47385 3742.03 5
-3 -3 -9 49485.6 3407.75 4
3 3 10 138327 9384.52 2
3 3 10 144486 9301.51 1
-3 -3 -10 129905 7679.23 5
-3 -3 -10 144162 6898.21 4
3 3 11 2127.93 1083.41 1
-3 -3 -11 1301.65 698.438 5
3 3 11 1664.77 974.071 2
-3 -3 -11 1131.52 415.518 4
3 3 12 22070.6 3573.13 1
-3 -3 -12 16824.6 2510.76 5
3 3 12 20472.3 3348.8 2
3 3 13 900.121 498.084 1
-3 -3 -13 716.98 544.071 5
3 3 13 1822.23 1090.37 2
-3 -3 -14 4295.57 1310.26 5
-3 -3 -15 1820.47 868.612 5
-3 -4 18 8597 2099.88 1
3 4 -17 5427.02 1609.48 8
-3 -4 17 5253.63 1670.97 1
-3 -4 16 60091 5637.15 1
3 4 -16 59336.3 5473.07 8
3 4 -15 2133.83 856.369 8
-3 -4 15 1292.48 806.27 1
-3 -4 14 12876.6 2278.8 1
-3 -4 14 13045.3 1654.52 4
3 4 -14 7852.12 1726.55 8
-3 -4 13 22131.7 2888.85 1
-3 -4 13 20204 1753.41 2
3 4 -13 17618.7 2567.9 8
-3 -4 13 20529.4 2182.2 4
-3 -4 12 -102.781 182.233 4
-3 -4 12 306.716 536.342 1
3 4 -12 145.975 329.072 8
-3 -4 11 86893.4 5207.23 4
3 4 -11 81605.5 5512.11 8
3 4 -10 4257.56 1109.02 8
-3 -4 10 5312.09 1209.35 4
-3 -4 10 4204.75 910.551 2
3 4 -9 -227.241 158.613 8
-3 -4 9 141.66 344.783 4
-3 -4 9 -150.098 293.905 2
3 4 -8 2281.35 718.141 8
-3 -4 8 2225.77 792.4 4
3 4 -8 2680.41 1108.2 3
-3 -4 8 1336.37 503.573 2
3 4 -7 133273 6989.07 8
-3 -4 7 114497 6360.49 2
3 4 -7 113357 8136.37 3
-3 -4 6 13292.8 2213.73 4
3 4 -6 12133.3 1638.95 8
3 4 -6 8609.42 1769.94 3
-3 -4 6 8545.1 1307.78 2
3 4 -5 312511 12817.8 8
-3 -4 5 252049 12267.8 2
-3 -4 5 347130 15499.6 4
3 4 -5 278675 13391 3
-3 -4 4 99978.5 7391.89 4
3 4 -4 85449.6 3329.34 6
3 4 -4 81976.4 5246.16 3
3 4 -4 89459.7 4546.15 2
-3 -4 4 75732.3 4951.6 2
3 4 -4 94757.5 5234.55 8
-3 -4 3 6996.41 1860.81 4
3 4 -3 8691.1 1293.18 8
-3 -4 3 11243.4 2531.17 3
3 4 -3 5515.9 1013.08 3
3 4 -3 7201.71 1037.61 2
3 4 -2 10506.8 1443.02 8
3 4 -2 9557.19 1178.56 3
-3 -4 2 9711.57 2319.22 4
-3 -4 2 10365.1 2380.39 3
3 4 -2 9570.76 1262.17 2
-3 -4 1 26282.1 4014.38 4
-3 -4 1 31696.7 3888.23 3
-3 -4 1 24309.3 2606.83 2
3 4 -1 23733.3 1769.11 3
3 4 -1 28878.8 2358.96 2
3 4 -1 30267.8 2111.3 5
3 4 0 46235.5 3301.81 2
-3 -4 0 48631 4627.86 3
-3 -4 0 40182.7 3570.31 2
3 4 0 44907.5 2323.22 3
3 4 0 45114 2771.98 5
3 4 1 60298.2 3960.53 2
3 4 1 56443.1 3214.36 5
-3 -4 -1 64464.5 6205.85 4
-3 -4 -1 51212.2 4210.41 2
-3 -4 -1 53063.7 4572.18 3
-3 -4 -2 21791.4 3288.65 4
3 4 2 16698.7 1982.01 2
-3 -4 -2 15366 1946.93 3
-3 -4 -2 17427.8 2317.29 2
-3 -4 -2 15780.4 1914.33 1
3 4 2 15343.1 1453.61 5
-3 -4 -2 17089.4 1302.11 7
-3 -4 -3 39595.1 4362.84 4
3 4 3 30874.2 2934.98 2
-3 -4 -3 30438 1986.86 7
-3 -4 -3 32928.4 3325.63 2
-3 -4 -3 27742.9 2731.6 1
3 4 3 29001.2 2164.87 5
3 4 4 32982.1 3181.68 2
-3 -4 -4 30053 2127.63 7
-3 -4 -4 40504.3 4092.54 4
-3 -4 -4 31683.2 3022.07 1
3 4 4 31527.4 2306.22 5
-3 -4 -5 89401.6 6148.39 4
3 4 5 86049.5 5795.62 2
3 4 5 73379.5 4202.97 5
-3 -4 -5 70293.4 5191.87 1
3 4 6 34585.4 3596.45 2
-3 -4 -6 28895.8 2374.51 5
3 4 6 26578.5 2255.99 5
-3 -4 -6 34344.7 3382.43 4
-3 -4 -7 23001.9 2630.85 4
3 4 7 21485.5 2951.7 2
-3 -4 -7 24791.6 2350.26 7
-3 -4 -7 20503.7 2036.8 5
3 4 7 19594.1 1960.64 5
-3 -4 -8 10144.7 1654.98 4
-3 -4 -8 9336.36 1513.84 7
-3 -4 -8 10125.7 1472.63 5
3 4 8 10969 2198.67 2
-3 -4 -9 8436.74 1413.35 4
-3 -4 -9 8121.43 1414.36 5
3 4 9 10818 2235.59 2
3 4 10 43691.4 4883.3 2
-3 -4 -10 34578.1 3283.85 5
-3 -4 -10 36640.1 3023.11 4
-3 -4 -11 88488.1 6133.75 5
3 4 11 117374 8741.36 2
-3 -4 -12 4201.58 1190.98 5
3 4 12 6071.01 2040.38 2
-3 -4 -13 46633.6 4458.08 5
-3 -4 -14 649.7 456.392 5
-3 -5 17 424.941 385.107 1
-3 -5 16 12689.4 2456.63 1
3 5 -16 13695.5 2536.44 8
-3 -5 15 61132.3 5516.11 1
3 5 -15 63420.6 5599.95 8
3 5 -14 919.044 521.228 8
-3 -5 14 891.105 557.282 4
-3 -5 14 568.757 450.405 1
-3 -5 13 74831.3 5029.19 4
3 5 -13 67983.5 5572.86 8
3 5 -12 480.347 270.65 8
-3 -5 12 922.261 501.903 4
3 5 -11 742.409 491.531 8
-3 -5 11 2143.14 900.336 4
3 5 -10 29937.5 3071.57 8
-3 -5 10 36345.8 3489.14 4
3 5 -9 2462.21 858.34 8
-3 -5 9 2087.66 967.906 4
-3 -5 9 943.833 424.103 2
-3 -5 8 10855.3 2076.08 4
3 5 -8 10566.3 1708.53 8
3 5 -7 424.582 442.374 8
-3 -5 7 -340.776 410.84 4
-3 -5 7 379.355 570.086 3
3 5 -7 -169.532 442.01 3
3 5 -6 68029.7 4606.43 8
3 5 -6 54162.2 4733.38 3
-3 -5 6 68178.2 6108.72 4
-3 -5 5 1603.26 999.573 4
-3 -5 5 2232.16 1177.94 3
3 5 -5 2046.48 702.648 8
3 5 -5 1767.93 682.228 3
-3 -5 4 223580 13773.2 4
3 5 -4 226450 10503.9 8
3 5 -4 242022 8342.04 6
3 5 -4 211412 8139.08 6
3 5 -4 199670 10153.8 3
3 5 -3 94902.3 5467.92 8
-3 -5 3 109613 8465.78 3
-3 -5 3 66668.2 5169.53 2
-3 -5 3 79264.6 7835.95 4
3 5 -3 76874.2 4698.8 3
3 5 -3 92166.2 4999.45 2
-3 -5 2 103749 9198.51 4
3 5 -2 94970.4 5598.34 8
-3 -5 2 110365 8306.74 3
-3 -5 2 79011.5 5657.16 2
3 5 -2 87679 4717.9 3
3 5 -2 89992.8 5223.81 2
-3 -5 1 68703.5 7511.52 4
3 5 -1 70773.6 4461.15 2
-3 -5 1 57645 4699.58 2
3 5 -1 60611.5 3392.79 3
3 5 -1 68973.3 3777.62 5
-3 -5 0 12205.4 2970.83 4
3 5 0 12270.1 1741.18 2
-3 -5 0 11062 1581.08 1
-3 -5 0 11297.2 1902.96 2
3 5 0 10360.4 982.577 3
3 5 0 11353.3 1259.28 5
-3 -5 0 12695.4 2457.46 3
-3 -5 -1 21739.9 3904.83 4
-3 -5 -1 16117.1 2559.66 3
-3 -5 -1 16622.2 2033.96 1
3 5 1 16206.7 2039.1 2
-3 -5 -1 13425 2122.37 2
3 5 1 16995.6 1576.95 5
-3 -5 -2 67114.4 3579.71 7
-3 -5 -2 70068.2 5295.93 3
3 5 2 73904.9 3925.79 5
3 5 2 70205.8 4894.2 2
-3 -5 -2 60303.2 4573.36 1
3 5 3 40816.9 3652.73 2
-3 -5 -3 39931.5 3294.37 3
-3 -5 -3 35251.8 3350.99 1
3 5 3 36985 2599.74 5
-3 -5 -4 41900.6 4652.34 4
3 5 4 37278.6 3585.42 2
3 5 4 29483.7 2342.52 5
-3 -5 -5 594.373 678.814 4
3 5 5 483.215 518.07 2
3 5 5 -282.553 199.02 5
-3 -5 -6 21478.1 2922.76 4
3 5 6 20371.4 2891.91 2
-3 -5 -6 19546.7 1980.51 7
3 5 6 18418.3 1849.25 5
-3 -5 -7 37623.1 3816.56 4
-3 -5 -7 37618 3090.95 7
3 5 7 37980 4258.29 2
-3 -5 -8 25891.4 2943.31 4
3 5 8 26245.7 3605.62 2
-3 -5 -8 20467 2384.4 7
-3 -5 -9 908.893 498.809 4
-3 -5 -9 -250.756 429.755 7
-3 -5 -9 1478.1 650.076 5
3 5 9 328.534 489.705 2
-3 -5 -10 569.837 425.576 4
-3 -5 -10 362.822 426.99 5
3 5 10 -144.885 371.552 2
-3 -5 -11 9226.03 1681.43 5
3 5 11 11289.1 2563.65 2
-3 -5 -12 41945.7 3898.4 5
-3 -6 17 516.734 489.584 1
-3 -6 16 13864.3 2515.83 1
3 6 -15 25347.6 3381.9 8
-3 -6 15 27205.5 3457.7 1
-3 -6 14 23297.3 2749.05 4
3 6 -14 23567.7 3183.19 8
3 6 -13 6583.05 1575.39 8
-3 -6 13 9305.36 1697.71 4
-3 -6 12 116973 7482.39 4
3 6 -12 123664 7777.56 8
3 6 -11 -415.121 603.422 8
-3 -6 11 -159.005 486.492 4
3 6 -10 29820.4 3283.22 8
-3 -6 10 38446.9 3926.59 4
3 6 -9 5441.07 1375.78 8
-3 -6 9 4651.32 1358.17 4
-3 -6 9 2611.82 910.674 2
-3 -6 8 2280.3 1055.32 4
3 6 -8 1841.12 695.071 8
-3 -6 8 2201.34 839.947 2
3 6 -7 26371.4 2861.41 8
-3 -6 7 27146.1 3866.59 4
-3 -6 7 16821.7 2459.44 2
-3 -6 6 4722.42 1742.18 4
-3 -6 6 4724.21 1966.41 3
3 6 -6 4702.77 1141.52 8
3 6 -6 3580.19 1116.38 3
-3 -6 6 2497.35 924.774 2
-3 -6 5 6649.49 2014.61 4
3 6 -5 9854.84 1613.91 8
-3 -6 5 10149.7 2611.2 3
3 6 -5 8444.56 1519.32 3
-3 -6 5 6833.62 1568.71 2
3 6 -4 297.07 526.148 8
-3 -6 4 -64.104 432.787 3
3 6 -4 719.121 194.93 6
3 6 -4 1140.59 560.176 3
-3 -6 4 1216.67 632.565 2
3 6 -3 119058 6489.38 2
3 6 -3 109443 6022.82 3
3 6 -3 126868 7014.37 8
3 6 -2 17707.1 2135.43 2
-3 -6 2 13674.7 2273.95 2
3 6 -2 19019.6 1824.43 5
3 6 -2 19092 2418.54 8
3 6 -2 19265.1 1816.32 3
3 6 -1 121492 5953.21 3
3 6 -1 135580 6411.05 5
3 6 -1 133756 7387.83 2
-3 -6 0 103264 10268.1 4
-3 -6 0 94227.4 7477.08 3
-3 -6 0 66217.4 4906.81 1
3 6 0 78826.2 5302.69 2
3 6 0 71280.2 4113.2 5
-3 -6 -1 -585.787 1376.79 4
-3 -6 -1 763.025 681.482 3
3 6 1 119.59 459.391 2
3 6 1 236.122 251.433 5
-3 -6 -2 1459.83 1161.61 4
-3 -6 -2 1641.74 833.716 3
3 6 2 2494.57 840.831 2
3 6 2 1667.19 474.833 5
3 6 3 69315.2 5256.64 2
-3 -6 -3 65464.6 3784.68 7
-3 -6 -3 74329.4 5518.9 3
3 6 3 61212.8 3798.8 5
3 6 4 42292.9 4197.27 2
-3 -6 -4 48354.3 3121.23 7
3 6 4 40011.8 2916.36 5
3 6 5 67727.7 5637.17 2
-3 -6 -5 64690.2 4078.66 7
3 6 6 23083.7 3261.04 2
-3 -6 -6 23312.6 2280.2 7
-3 -6 -6 25557.1 3504.64 4
-3 -6 -7 13425.3 1813.9 7
-3 -6 -7 13939 2457.78 4
3 6 7 19316.3 3036.94 2
-3 -6 -8 4039.44 1083.05 4
-3 -6 -8 2627.3 804.378 7
3 6 8 2901.46 1246.51 2
-3 -6 -9 11930.8 2063.54 4
3 6 9 11252.9 2616.86 2
-3 -7 16 5409.46 1558.07 1
-3 -7 14 6193.26 1484.15 4
3 7 -14 7554.17 1810.64 8
-3 -7 13 1857.63 832.705 4
3 7 -13 1078.99 498.042 8
-3 -7 12 15269.2 2462.76 4
3 7 -12 12233.7 2223.15 8
3 7 -11 113405 7751.3 8
-3 -7 11 138852 8703.42 4
3 7 -10 1419.84 751.786 8
-3 -7 10 1954.9 842.847 4
-3 -7 9 93707.1 7426.42 4
-3 -7 9 103413 9797.87 3
3 7 -9 82137.3 6060.04 8
-3 -7 8 370.021 471.943 4
-3 -7 8 -841.735 433.225 3
3 7 -8 -47.0153 260.992 8
3 7 -7 321.496 238.732 8
-3 -7 7 -486.415 454.401 4
-3 -7 7 1055.29 1233.18 3
-3 -7 6 10305.5 2799.29 4
3 7 -6 9709.76 1772.78 8
-3 -7 6 10244.2 2854.6 3
-3 -7 5 27533.7 4709.61 3
3 7 -5 21910 2734.86 8
3 7 -4 3630.63 491.391 6
3 7 -4 3873.72 975.072 3
3 7 -3 2527.85 901.949 8
3 7 -3 2097.69 420.559 6
-3 -7 3 4085.12 1716.01 3
3 7 -3 2614.53 734.537 3
3 7 -2 32652.8 3422.8 8
3 7 -2 30120 2484.75 3
3 7 -2 35867.8 3370.85 2
3 7 -1 11158.7 1383.78 5
3 7 -1 9298.73 1754.07 2
-3 -7 1 14362.6 3118.33 3
-3 -7 0 151273 13898 4
-3 -7 0 157050 10867.3 3
3 7 0 106554 5745.34 5
3 7 0 112942 7245.83 2
3 7 1 27922.4 3275.11 2
-3 -7 -1 35524.8 6344.42 4
-3 -7 -1 37533.7 4873.8 3
3 7 2 25425.3 3110.13 2
-3 -7 -2 22348.3 1986.48 7
-3 -7 -2 22492.8 4768.55 4
-3 -7 -3 27881.6 4868.92 4
-3 -7 -3 20798.7 1981.21 7
3 7 3 22789.4 3045.85 2
-3 -7 -4 48947 6079.37 4
-3 -7 -4 36658.3 2876.41 7
3 7 4 40785.6 4323.93 2
-3 -7 -5 12646.6 1644.64 7
-3 -7 -5 15015.6 3075.38 4
3 7 5 13988.4 2498.41 2
-3 -7 -6 88062.9 7382.75 4
3 7 6 61831.5 6011.45 2
3 7 7 40802.8 4784.01 2
-3 -7 -7 33697.7 4244.13 4
-3 -7 -8 17228.1 2829.55 4
-3 -8 14 43334.3 4368.73 4
-3 -8 13 595.727 477.441 4
3 8 -12 1554.69 863.839 8
-3 -8 12 999.094 368.375 4
3 8 -11 19111.2 2862.72 8
-3 -8 11 24626.5 3489.81 4
3 8 -10 58276.4 5200.04 8
-3 -8 10 62367.1 5989.19 4
3 8 -9 12566.8 2275.15 8
-3 -8 9 13644.3 3630.53 3
-3 -8 9 14335.1 2948.15 4
-3 -8 8 185088 14038.5 3
-3 -8 8 174131 11830.8 4
3 8 -7 2252.99 967.554 8
-3 -8 7 1748.82 1286.49 4
-3 -8 7 1872.81 1257.18 3
-3 -8 6 21162.9 4273.81 4
3 8 -6 14317.5 2363.93 8
-3 -8 6 23097.1 4507.02 3
3 8 -5 119.335 276.96 8
-3 -8 5 959.671 1008.9 3
3 8 -4 10385.6 1945.72 8
-3 -8 4 19610.5 4124.38 3
3 8 -3 8033.36 1729.87 8
-3 -8 3 10066.8 3110.92 3
3 8 -2 18582.9 2690.83 8
-3 -8 2 34669.7 5437.14 3
3 8 -1 2443.24 981.528 2
-3 -8 1 381.125 492.774 3
-3 -8 0 6964.58 3332.66 4
3 8 0 8618.71 1839.97 2
-3 -8 -1 76869 9953.9 4
3 8 1 51490.1 4877.82 2
-3 -8 -2 7163.75 1141.45 7
-3 -8 -2 6963.1 2679.62 4
3 8 2 6159.19 1589.54 2
-3 -8 -3 47120.7 6744.09 4
3 8 3 35313.8 4133.63 2
-3 -8 -4 22003.8 4320.9 4
3 8 4 17803.1 2957.55 2
-3 -8 -5 3369.72 1446.07 4
-3 -8 -6 838.245 683.703 4
-3 -8 -7 59372.3 6126.7 4
-3 -9 9 20663.4 4592.25 3
-3 -9 8 18839.7 3831.59 4
3 9 -8 16182.9 2712.5 8
-3 -9 8 20874.6 4613.65 3
-3 -9 7 175029 13185.2 4
-3 -9 7 192881 14927.6 3
3 9 -6 1066.24 938.913 8
-3 -9 6 2839.51 1809.36 4
-3 -9 6 3347.22 1929.52 3
3 9 -5 59685 5527.89 8
-3 -9 5 86406 10290.1 4
-3 -9 5 90204.1 9953.84 3
3 9 -4 6826.61 1678.66 8
-3 -9 4 11379.6 3894.1 4
-3 -9 4 10272.5 3542.19 3
-3 -9 3 3410.8 2298.27 4
3 9 -3 925.433 547.614 8
-3 -9 2 3394.83 2335.98 4
3 9 -2 34.7521 417.263 8
3 9 -1 27333.6 3523.95 8
-3 -9 1 57845.7 9698.9 4
-3 -9 0 815.9 957.042 4
3 9 0 623.65 343.552 2
3 9 1 11429.8 2315.81 2
-4 12 1 3028.35 951.089 6
-4 12 0 56689 4925.83 6
-4 12 -1 3985.15 1124.46 6
-4 12 -2 7815.02 1580.47 6
-4 12 -3 5072.5 1231.39 6
-4 12 -4 33650 3281.65 6
-4 12 -5 191.61 347.123 6
4 -11 -5 898.737 543.88 3
4 -11 -4 8402.32 1908.04 3
-4 11 3 -127.011 488.292 6
4 -11 -3 631.304 588.167 3
-4 11 2 -529.005 640.108 6
4 -11 -2 -184.183 487.59 3
-4 11 1 18529.6 2598.62 6
4 -11 -1 15111 2449.56 3
-4 11 0 4815.78 1346.07 6
4 -11 0 5639.11 1487.35 3
-4 11 -1 79962 5800.05 6
4 -11 1 98818 6932.86 3
-4 11 -2 -107.17 281.58 6
4 -11 2 109.136 502.717 3
-4 11 -3 42066.7 3666.71 6
4 -11 3 41138.8 4317.51 3
-4 11 -4 18742.4 2045.84 8
4 -11 4 17111.1 2689.93 3
-4 11 -4 16305.1 2120.01 6
-4 11 -5 14003.8 1932.43 6
4 -11 5 14781.5 2597.97 3
-4 11 -6 4753.71 1148.21 6
4 -11 6 3486.61 1281.15 3
-4 11 -7 78642.8 5090.78 6
4 -11 7 79159.7 6660.77 3
-4 11 -8 4167.49 1002.66 6
4 -11 8 3732.2 1401.69 3
4 -10 -8 60284.7 5610.03 3
4 -10 -7 54767.2 5153.59 3
4 -10 -6 12951.6 2037.43 7
-4 10 6 9141.51 2103.8 6
4 -10 -6 13160.4 2345.98 3
4 -10 -5 18785.3 2434.29 7
4 -10 -5 16753.8 2585.8 3
-4 10 5 13427.8 2457.14 6
-4 10 4 554.287 473.764 6
4 -10 -4 -156.006 383.331 3
-4 10 3 1552.31 735.87 6
4 -10 -3 3032.51 1041.19 3
-4 10 2 -74.901 276.07 6
4 -10 -2 483.436 459.069 3
-4 10 1 6754.94 1451.44 6
4 -10 -1 9420.93 1787.81 3
-4 10 0 6015.3 1324.59 6
4 -10 0 4775.72 1320.6 3
-4 10 -1 2740.95 846.055 6
4 -10 1 3116.47 996.948 3
4 -10 2 80660.8 5827.67 3
-4 10 -2 72247.9 5036.56 6
-4 10 -3 5510.3 1179.94 6
4 -10 3 4894.1 1282.52 3
-4 10 -4 83531.9 5302.56 6
4 -10 4 93368.6 6484.12 3
-4 10 -4 85609.9 4859.12 8
-4 10 -5 9930.4 1332.17 8
-4 10 -5 9145.63 1471.07 6
4 -10 5 9908.16 1928.88 3
-4 10 -6 166.529 142.208 8
-4 10 -6 637.068 417.911 6
4 -10 6 -354.536 567.163 3
-4 10 -6 684.978 403.467 5
-4 10 -7 16570.3 1970.86 6
4 -10 7 16962.2 2716.13 3
-4 10 -7 14894.3 1877.64 5
-4 10 -8 62577.5 4158.4 6
4 -10 8 67195.9 5761.75 3
4 -10 9 213.706 605.99 3
-4 10 -9 2275.66 891.062 5
4 -10 10 73521.1 6399.59 3
-4 10 -10 57216.8 5434.71 5
-4 10 -11 8137.26 2024.27 5
-4 10 -12 4525.92 1550.2 5
-4 10 -13 -650.488 1208.79 5
-4 10 -14 -5609.29 2071.58 5
4 -9 -10 8464.76 1920.38 3
4 -9 -9 3262.24 1022.77 3
4 -9 -8 2438.03 946.356 7
-4 9 8 1734.92 776.354 6
4 -9 -8 3155.03 1103.84 3
4 -9 -7 59198.2 4667.4 7
-4 9 7 56109.7 5608.91 6
4 -9 -7 63172.3 5253.53 3
4 -9 -6 54645.7 4361.98 7
-4 9 6 54169.7 5173.05 6
4 -9 -6 56631.8 4842.06 3
4 -9 -5 37186 3416.11 7
-4 9 5 36351.6 3941.48 6
4 -9 -5 41813.4 3936.4 3
-4 9 4 77507.8 5914.18 6
4 -9 -4 89225.3 5997.54 3
-4 9 3 129.317 382.228 6
4 -9 -3 -180.412 388.645 3
-4 9 2 215.085 329.598 6
4 -9 -2 209.87 303.076 3
-4 9 1 6123.55 1298.83 6
4 -9 -1 4884.11 1208.99 3
-4 9 0 28057.1 2827.62 6
4 -9 0 29097 3019.21 3
-4 9 -1 4420.46 1046.22 6
4 -9 1 3541.6 970.814 3
-4 9 -2 9255.99 1461.58 6
4 -9 2 9254.23 1643.26 3
-4 9 -3 39347.7 3178.99 6
4 -9 3 42837.3 3751.78 3
-4 9 -3 35743.5 1854.29 5
-4 9 -4 1177.37 412.368 8
-4 9 -4 2173.66 667.417 6
4 -9 4 1359.51 688.079 3
-4 9 -4 1926.78 428.109 5
-4 9 -5 97157.5 4804.49 8
-4 9 -5 89708.7 5273.58 6
4 -9 5 93243.6 6286.79 3
-4 9 -5 85280.1 4636.66 5
-4 9 -6 281.578 206.531 8
-4 9 -6 -107.073 271.074 6
4 -9 6 -183.22 680.715 3
-4 9 -6 -19.5766 172.144 5
-4 9 -7 24715.7 2040.31 8
-4 9 -7 25784.6 2416.19 6
4 -9 7 26860.5 3205.1 3
-4 9 -7 23501.6 2508.73 5
-4 9 -8 18269.3 1770.52 8
-4 9 -8 17897.1 1962.66 6
4 -9 8 19654.1 2831.3 3
-4 9 -8 15574.2 2253.07 5
4 -9 9 56809.7 5011 3
-4 9 -9 31739.5 3692.04 5
4 -9 10 3848.67 1350.68 3
-4 9 -10 2610.45 970.624 5
4 -9 11 122304 8460.33 3
-4 9 -11 92824.4 8056.46 5
4 -9 12 16520.9 2931.37 3
-4 9 -12 9419.43 2526.07 5
4 -9 13 40809.3 4918.59 3
-4 9 -13 35312.5 5175.6 5
-4 9 -14 2479.26 724.083 5
-4 8 12 -3771.45 1824.6 2
4 -8 -10 15625.3 2296.13 7
-4 8 10 12790.8 2901.29 6
4 -8 -9 2186.57 841.426 7
-4 8 9 760.39 611.1 6
4 -8 -8 5065.2 1176.56 7
-4 8 8 3094.92 1269.49 6
4 -8 -7 -34.5951 223.846 7
-4 8 7 963.041 631.721 6
4 -8 -7 646.265 448.099 3
4 -8 -6 43707 3602.44 7
-4 8 6 36818.4 4058.68 6
4 -8 -6 44904.4 3936.04 3
4 -8 -5 46569.9 3664.52 7
-4 8 5 39993.3 4058 6
4 -8 -5 50156.7 4085.42 3
4 -8 -4 111925 6624.52 3
-4 8 4 100300 6665.74 6
-4 8 3 111632 6928.96 6
4 -8 -3 124372 6970.6 3
-4 8 2 2231.66 737.626 8
-4 8 2 1405.17 595.99 6
4 -8 -2 1699.19 680.659 3
-4 8 1 20075.2 2305.56 6
4 -8 -1 25189.3 2546.12 3
-4 8 1 18369.8 2197.73 8
-4 8 0 6548.45 1202.66 8
-4 8 0 7506.09 1319.66 6
4 -8 0 7281.29 1326.3 3
-4 8 -1 30316.8 2735.24 6
4 -8 1 31876.1 2920.45 3
-4 8 -2 11698 1526.48 6
-4 8 -2 9272.25 670.419 5
4 -8 2 9574.16 1505.31 3
-4 8 -3 62792.9 4057.92 6
4 -8 3 68539.5 4634.71 3
-4 8 -3 62046.1 3034.85 5
-4 8 -4 21634.5 1660.25 8
-4 8 -4 21693.1 2089.42 6
4 -8 4 25767 2665.66 3
-4 8 -4 19278.6 1608.02 5
-4 8 -5 89.4697 119.039 8
-4 8 -5 229.425 164.191 6
4 -8 5 105.822 204.747 3
-4 8 -5 88.4689 169.781 5
-4 8 -6 52407 3590.52 6
4 -8 6 54311.7 4400.46 3
-4 8 -6 57881.6 3099.39 8
-4 8 -6 49079.7 3583.41 5
-4 8 -7 3573.54 784.036 6
-4 8 -7 4111.02 704.971 8
4 -8 7 4690.07 1226.63 3
-4 8 -7 2545.72 756.459 5
-4 8 -8 65629.2 3619.16 8
-4 8 -8 58754 3866.07 6
4 -8 8 63758.5 5071.41 3
-4 8 -9 6478.12 1051.68 8
4 -8 9 7318.33 1648.81 3
-4 8 -9 5160.82 1339.99 5
-4 8 -10 5408.33 985.366 8
4 -8 10 6164.81 1560.53 3
-4 8 -10 3150.52 1149.99 5
4 -8 11 20208.6 3013.96 3
-4 8 -11 11534.4 2567.43 5
4 -8 12 104805 7641.03 3
-4 8 -12 76053 7694.84 5
4 -8 13 6356.03 1768.86 3
-4 8 -13 2356.72 1079.61 5
4 -8 14 75479.4 7005.74 3
-4 8 -14 88436.1 8853.8 5
-4 8 -15 9369.25 2697.26 5
-4 7 14 40288 5978.12 2
-4 7 13 191.421 855.859 2
4 -7 -12 56946.8 4857.34 7
-4 7 12 56944.1 6925.46 2
4 -7 -11 3215.04 1029.4 7
-4 7 11 899.382 906.319 2
4 -7 -10 14717.3 2138.03 7
-4 7 10 13769.9 2908.72 6
-4 7 10 13925.5 3097.43 2
4 -7 -9 11775.2 1820.78 7
-4 7 9 12765.6 2817.65 2
-4 7 9 12988.1 2551.3 6
4 -7 -8 -651.46 576.419 7
-4 7 8 -100.092 456.929 6
-4 7 7 21884.5 3059.87 6
4 -7 -7 23158.3 2437.57 7
4 -7 -6 1777.84 604.841 7
-4 7 6 2424.77 942.571 6
-4 7 5 3896.27 1121.12 6
4 -7 -5 4860.72 1037.25 7
-4 7 4 7688.71 1530.24 8
-4 7 4 9735.62 1650.79 6
4 -7 -4 10482.1 1558.27 3
-4 7 3 93202.7 5619.58 6
4 -7 -3 99572.1 5504.2 3
-4 7 2 123237 6574.41 6
4 -7 -2 124096 6433.46 3
-4 7 1 33741.1 2803.1 6
4 -7 -1 32052.8 2690.35 3
-4 7 0 107661 5855.89 6
4 -7 0 103214 5791.1 3
-4 7 -1 7439.71 1194.95 6
4 -7 1 6446.25 1171.53 3
-4 7 -2 17910.1 1858.68 6
4 -7 2 18033.6 1985.86 3
-4 7 -2 18318.2 1175.76 5
-4 7 -3 54611.6 3571.86 6
4 -7 3 58020.3 3970.05 3
4 -7 3 57999.9 3622.63 6
-4 7 -3 55436.4 2895.77 5
-4 7 -4 133420 5426.45 8
-4 7 -4 119684 6224.83 6
4 -7 4 133306 6993.92 3
4 -7 4 119754 6272.61 6
-4 7 -4 124900 5791.47 5
-4 7 -5 10348.6 1323.83 6
4 -7 5 13861.4 1854.25 3
4 -7 5 10866.4 1410.86 6
-4 7 -5 11290.8 1006.02 8
-4 7 -5 11845.9 1378.3 5
-4 7 -6 37527.3 2181 8
-4 7 -6 38026.8 2785.76 6
4 -7 6 35831.4 3261.53 3
4 -7 6 34379.9 2771.08 6
-4 7 -6 34324.4 2862.47 5
-4 7 -7 12170.4 1472.45 6
4 -7 7 10571.4 1770.52 3
4 -7 7 13424.8 1618.96 6
-4 7 -7 10607.9 1639.96 5
-4 7 -7 12380.4 1182.75 8
-4 7 -8 1287.65 371.925 8
4 -7 8 959.476 444.325 6
4 -7 8 1737.23 747.267 3
-4 7 -8 657.534 244.328 5
4 -7 9 39375.2 3832.79 3
-4 7 -9 49105.9 3054.94 8
-4 7 -10 1095.67 427.439 8
4 -7 10 637.731 397.971 3
-4 7 -11 8257.8 1319.9 8
4 -7 11 6804.39 1614.45 3
4 -7 12 5922.8 1607 3
-4 7 -12 3101.7 1416.99 5
-4 7 -12 5806.37 1190.39 8
4 -7 13 46450.7 4929.63 3
-4 7 -13 51377.4 6325.02 5
4 -7 14 -111.324 346.17 3
-4 7 -14 -1119.59 1587.36 5
4 -7 15 129238 9616.47 1
-4 7 -15 135658 11430.5 5
4 -7 15 106216 8945.44 3
-4 6 14 12303.7 2959.53 2
4 -6 -13 18375.8 2644.92 7
-4 6 13 21749.6 3886.07 2
4 -6 -12 1407.72 732.604 7
-4 6 12 1170.93 619.962 2
4 -6 -11 129980 7667.39 7
-4 6 11 128720 9955.68 2
4 -6 -10 13361.9 1978.31 7
-4 6 10 17487.3 3119.3 2
4 -6 -10 14918.2 1603.08 5
-4 6 9 51659 5527.94 2
4 -6 -9 55276.1 4171.31 7
4 -6 -9 55867.1 3305.86 5
4 -6 -8 400.116 208.426 7
-4 6 8 -303.349 746.989 2
-4 6 8 -156.724 505.016 6
4 -6 -8 122.315 77.1966 5
4 -6 -7 1921.93 621.601 7
-4 6 7 1928.87 799.626 6
4 -6 -7 1394.56 348.494 5
4 -6 -6 13334.9 1627.39 7
4 -6 -6 11744.8 1586.84 2
-4 6 6 10792.4 1887.59 6
4 -6 -6 10855.9 889.227 5
-4 6 5 2774.29 948.33 8
4 -6 -5 2140.14 621.13 7
-4 6 5 2441.39 821.083 6
4 -6 -5 1703.24 237.269 5
4 -6 -5 1681.97 628.553 1
4 -6 -5 3154.07 814.099 2
-4 6 4 639.442 440.972 8
4 -6 -4 993.98 475.543 1
4 -6 -4 2768.41 716.418 2
-4 6 4 2314.9 765.038 6
-4 6 3 3104.7 914.455 8
-4 6 3 5864.8 1135.76 6
4 -6 -3 4346.65 891.21 2
4 -6 -2 52312.7 3702.66 2
-4 6 2 60873.7 4009.54 6
4 -6 -2 59785 3786.22 3
-4 6 1 117249 5858.14 6
4 -6 -1 115285 5671.58 3
-4 6 0 126754 6233.15 6
4 -6 0 134388 6332.35 3
-4 6 0 107873 6072.67 8
4 -6 0 114603 6325.52 2
-4 6 -1 219589 10410.8 8
-4 6 -1 261539 10769.9 6
4 -6 1 250272 10522.8 6
4 -6 1 262982 10866 3
-4 6 -1 251879 9278.98 5
4 -6 1 233583 11097 2
-4 6 -2 1174.56 400.039 8
-4 6 -2 1025.22 399.303 6
4 -6 2 858.371 422.395 6
-4 6 -2 1207.31 272.136 5
4 -6 2 595.809 277.554 3
4 -6 3 7864.17 1118.97 6
-4 6 -3 9877.23 1237.66 6
4 -6 3 9225.67 1293.39 3
-4 6 -3 8945.52 956.532 5
-4 6 -4 73144 3249.09 8
-4 6 -4 76119.6 4266.63 6
4 -6 4 84511.9 4805.18 3
-4 6 -4 78158.9 4686.97 3
-4 6 -4 75464.3 3956.1 5
4 -6 4 78443.6 4363.97 6
-4 6 -5 124304 6123.15 6
4 -6 5 128334 6673.71 3
4 -6 5 118145 6146.28 6
-4 6 -5 121098 6674.29 3
-4 6 -5 118620 6018.44 5
-4 6 -5 127601 5037.3 8
-4 6 -6 44356.5 2182.87 8
-4 6 -6 39434 2811.77 6
4 -6 6 41471.1 3284.64 3
4 -6 6 35183.5 2783.88 6
-4 6 -6 37094.6 3297.81 3
-4 6 -6 36404.3 2947.86 5
-4 6 -7 153403 7304.88 6
4 -6 7 156384 8082.52 3
4 -6 7 131328 7205.59 6
-4 6 -7 176826 6654.73 8
-4 6 -7 129546 7744.37 5
-4 6 -8 6822.18 932.776 8
4 -6 8 5722.73 1081.21 6
4 -6 8 5865.09 1238.78 3
-4 6 -8 3909.13 1085.74 5
-4 6 -9 10155.4 1253.89 8
4 -6 9 6487.07 1198.26 6
4 -6 9 7838.27 1547.06 3
-4 6 -9 5866.48 1490.51 5
4 -6 10 8484.15 1682.48 3
-4 6 -10 10597.2 1412.86 8
4 -6 11 2743.18 961.798 3
-4 6 -11 4240.33 883.161 8
4 -6 12 15578.4 2514.65 3
-4 6 -12 11522.6 2696.64 5
4 -6 13 2907.12 1141.49 3
-4 6 -13 2696.44 1070.72 5
4 -6 14 8816.7 2088.89 3
-4 6 -14 8543.82 2615.56 5
4 -6 15 1131.18 1063.25 1
4 -6 15 573.694 383.785 3
-4 6 -15 1162.04 864.706 5
4 -6 16 96936.5 8558.73 3
4 -5 -14 56153.6 5034.33 7
-4 5 14 53954.1 6056.49 2
4 -5 -13 19063.3 2632.52 7
-4 5 13 20485.8 3535.69 2
4 -5 -13 18807.5 2184.78 5
4 -5 -12 -332.63 537.052 7
-4 5 12 67.0423 495.922 2
4 -5 -12 134.051 216.765 5
4 -5 -11 2553.15 870.697 7
-4 5 11 3885.9 1481.24 2
4 -5 -11 3253.27 796.06 5
4 -5 -10 157266 8194.29 7
4 -5 -10 134120 7421.06 2
4 -5 -10 152139 7365.55 5
4 -5 -10 156277 7321.27 4
-4 5 10 148746 9912.68 2
4 -5 -9 4516.17 960.972 2
4 -5 -9 4627.19 927.149 4
4 -5 -9 7146.49 1304.65 7
-4 5 9 7211.55 1710.07 2
4 -5 -9 4052.75 811.764 5
4 -5 -8 176684 8293.64 7
4 -5 -8 159099 7851.55 2
-4 5 8 152112 9463.89 6
-4 5 8 166730 9841.02 2
4 -5 -7 25323.5 2294.93 7
4 -5 -7 19267.8 1975.51 2
-4 5 7 21359.8 2727.77 6
4 -5 -7 18489.2 2160.02 1
4 -5 -6 13101.5 1556.46 2
4 -5 -6 14138.9 1618.63 7
-4 5 6 16656.7 2168.59 6
4 -5 -6 13541.1 1726.77 1
-4 5 6 12673.6 2217.19 8
4 -5 -5 490.087 236.459 7
-4 5 5 1115.04 587.316 8
-4 5 5 1768.33 632.188 6
4 -5 -5 1711.73 496.57 2
4 -5 -5 1065.45 444.949 1
4 -5 -4 10287.7 1334.73 2
4 -5 -4 11606.8 1514.09 1
-4 5 4 13613.8 1731.4 6
4 -5 -4 12933 856.376 5
4 -5 -4 13201.7 1442.58 7
-4 5 4 11649 1987.86 8
4 -5 -3 13223.4 1503.54 2
-4 5 3 14728.4 1742.55 6
4 -5 -3 14605.4 902.399 5
-4 5 2 8627.74 1553.38 8
-4 5 2 11510.7 1457.75 6
4 -5 -2 12324.3 1449.73 2
4 -5 -2 13356.4 866.705 5
-4 5 1 5104.81 883.025 6
4 -5 -1 3595.79 775.291 2
4 -5 -1 4468.28 505.307 5
4 -5 -1 4031.39 754.068 3
-4 5 1 3446.47 845.062 8
-4 5 0 49772.4 3142.89 6
4 -5 0 50774.4 3118.81 3
4 -5 0 47249.9 2384.91 5
-4 5 0 41094.8 3243.27 8
-4 5 -1 136241 6244.6 6
4 -5 1 136242 6236.94 3
-4 5 -1 129931 5224.96 5
4 -5 1 130576 5555.29 5
-4 5 -1 112800 6059.41 8
4 -5 2 228179 9930.78 6
-4 5 -2 240690 10034.5 6
4 -5 2 260895 10263.7 3
-4 5 -2 242602 9286.98 5
4 -5 2 230384 9576.73 5
-4 5 -2 224848 9615.28 8
-4 5 -3 27399.8 1270.36 8
-4 5 -3 27620 2145 6
4 -5 3 29995.4 2263.67 6
4 -5 3 31030.8 2368.88 3
-4 5 -3 26186.2 1852.95 5
4 -5 3 28895.8 2127.48 5
-4 5 -3 32589.4 1666.88 8
-4 5 -4 62467 3602.93 6
4 -5 4 56968.7 3537.34 6
4 -5 4 64224.4 3827.96 3
-4 5 -4 60359.8 3795.46 3
-4 5 -4 54844.9 3258.41 5
-4 5 -5 67493.2 3814.23 6
4 -5 5 61814.5 3824.65 6
4 -5 5 66213.8 4061.99 3
-4 5 -5 64870.1 4138.74 3
-4 5 -5 63651 3783.76 5
-4 5 -6 47081.2 3086.85 6
4 -5 6 44682.6 3301.7 3
4 -5 6 44180.9 3141.85 6
-4 5 -6 45727 3487.27 3
-4 5 -6 47313.3 3349.6 5
4 -5 7 68758 4294.62 6
-4 5 -7 63814.2 4599.69 3
4 -5 7 69999.1 4519.31 3
-4 5 -7 71841.9 4739.31 5
4 -5 8 183622 9178.24 3
4 -5 8 187051 8858.91 6
-4 5 -8 178826 9538.56 3
-4 5 -8 183258 9785.2 5
4 -5 9 8883.09 894 8
4 -5 9 8140.33 1384.74 6
4 -5 9 8471.45 1517.24 3
-4 5 -9 7731.78 1686.68 5
4 -5 10 72884.2 3660.34 8
4 -5 10 65841.5 5047.54 3
-4 5 -10 57459.1 5597.23 5
4 -5 10 66563.8 4407.45 4
4 -5 11 785.808 456.184 4
4 -5 11 222.882 219.37 8
4 -5 11 391.531 461.414 3
-4 5 -11 -220.899 1069.21 5
4 -5 12 4700.32 1044.2 4
4 -5 12 4840.18 1603.07 1
4 -5 12 5251.1 1457.38 3
-4 5 -12 2635.52 1074.21 5
4 -5 13 9542.56 2319.66 1
4 -5 13 8692.64 1998.85 3
-4 5 -13 11937.6 2901.16 5
4 -5 14 7667.75 2060.98 3
4 -5 14 12405.7 2693.4 1
-4 5 -14 11711.3 2959.08 5
4 -5 15 268.367 671.162 1
4 -5 15 -829.159 850.393 2
4 -5 15 -687.098 920.122 3
-4 5 -15 -163.548 822.748 5
4 -5 16 2898.84 1356.1 2
4 -5 16 713.528 849.941 3
-4 5 -16 521.408 745.294 5
4 -5 16 2121.71 1245.09 1
4 -4 -15 12968.6 1967.4 5
4 -4 -14 -228.783 375.623 7
-4 4 14 262.937 310.86 2
4 -4 -14 -204.288 410.338 5
4 -4 -13 71309.5 5491.33 7
-4 4 13 70831.5 6440.95 2
4 -4 -13 65973.9 4732.84 5
-4 4 12 1296.86 917.859 2
4 -4 -12 82.1283 217.324 7
4 -4 -11 9084.48 1608.53 7
4 -4 -11 7612.98 1235.87 2
-4 4 11 7561.49 1814.05 2
4 -4 -10 5487.98 990.076 2
4 -4 -10 5633.54 1171.26 7
-4 4 10 2883.67 1076.04 2
4 -4 -9 102547 5712.26 7
4 -4 -9 85524.4 4882.94 2
4 -4 -9 88490.5 5680.27 1
-4 4 9 96594.8 6620.49 2
4 -4 -8 664.503 404.169 7
-4 4 8 1108.04 516.424 2
4 -4 -8 616.828 326.331 1
4 -4 -8 911.405 391.784 2
4 -4 -7 257372 11049.8 7
4 -4 -7 244241 10553.7 2
-4 4 7 264183 12336.2 6
4 -4 -7 243921 11262.2 1
-4 4 7 263186 13691.9 8
4 -4 -6 103708 5287.54 2
4 -4 -6 110851 5585.5 7
-4 4 6 107776 7506.2 8
-4 4 6 118454 6534.39 6
4 -4 -6 102926 5704.18 1
4 -4 -5 70507.7 3958.97 2
4 -4 -5 74560.3 4141.1 7
-4 4 5 69550.4 5707.95 8
4 -4 -5 77267 4346.13 1
-4 4 5 82818 4898.3 6
4 -4 -4 22296.6 1838.93 2
4 -4 -4 24663.8 1939.48 7
4 -4 -4 21619.3 1942.56 1
-4 4 4 27001.6 2347.67 6
4 -4 -3 16099.5 1510.59 2
-4 4 3 18938.3 1825.78 6
4 -4 -3 16771.7 1111.14 5
-4 4 3 14902.6 2123.09 8
-4 4 2 21991.9 2392.62 8
-4 4 2 26243.5 2110.53 6
4 -4 -2 20166.3 1773.84 2
4 -4 -2 23125.6 1345.54 5
-4 4 1 67156 3676.44 6
4 -4 -1 60249.8 2825.1 5
-4 4 1 58510.4 3839.67 8
-4 4 0 16555.3 1515.1 8
-4 4 0 17595.1 1591.19 6
4 -4 0 18009.1 1534.31 3
4 -4 0 16390.8 1184.64 5
-4 4 -1 75160.2 3905.58 6
4 -4 1 69723.1 3766.78 3
-4 4 -1 71294.8 3219.56 5
4 -4 1 67848.7 3324.04 5
-4 4 -1 67863.7 3207.64 8
-4 4 -2 74954.5 3894.42 6
4 -4 2 68698.9 3749.75 3
-4 4 -2 68723.1 3362.83 5
4 -4 2 69302.7 3489.79 5
4 -4 3 69620.4 3707.24 3
-4 4 -3 66889.4 3668.98 6
-4 4 -3 61802.8 3292.65 5
4 -4 3 60831.9 3354.02 5
-4 4 -4 92562.1 4771.62 6
4 -4 4 89567.8 4921.89 6
4 -4 4 99997.3 4977.2 3
-4 4 -4 86584.4 4584.09 5
4 -4 4 101994 4824.81 5
-4 4 -5 143271 6697.41 6
4 -4 5 134100 6734.85 6
4 -4 5 144039 6766.37 3
-4 4 -5 140505 6856.49 3
-4 4 -5 141665 6691.26 5
4 -4 5 145801 6730.11 5
4 -4 6 1841.01 603.028 4
4 -4 6 2252.26 616.476 6
4 -4 6 2758.82 705.995 3
-4 4 -6 4085.81 813.332 5
4 -4 6 2069.32 573.658 5
-4 4 -6 1437.67 512.595 3
4 -4 7 1565.43 542.222 4
4 -4 7 1466.26 514.294 6
4 -4 7 2076.69 630.929 3
-4 4 -7 2169.44 666.327 5
-4 4 -7 1476.95 546.488 3
4 -4 7 1402.02 272.332 8
4 -4 8 66492.9 4501.24 3
4 -4 8 72028.1 4557.25 6
-4 4 -8 62995.1 4610.55 3
4 -4 8 73132.1 3383.3 8
-4 4 -8 68285.2 4961.89 5
4 -4 8 55457.3 4043.74 4
4 -4 9 160163 6546.58 8
4 -4 9 137675 7758 3
4 -4 9 138081 7536.37 6
-4 4 -9 128087 7850.95 3
-4 4 -9 133283 8383.74 5
4 -4 9 129275 7025.39 4
4 -4 10 17552.9 1728.97 8
4 -4 10 15410.1 2208.93 3
-4 4 -10 12832.1 2194.06 3
4 -4 10 19645.1 2786.95 1
-4 4 -10 15569.7 2614.61 5
4 -4 10 13699.8 1737.25 4
4 -4 11 126623 8287.12 3
4 -4 11 165319 9895.7 1
-4 4 -11 118548 9124.28 5
4 -4 11 146090 7246.01 4
4 -4 11 148638 7213.37 8
4 -4 12 651.625 349.142 4
4 -4 12 1240.64 494.451 8
4 -4 12 -245.416 434.472 3
4 -4 12 17.5948 555.23 1
-4 4 -12 -463.35 1097.94 5
4 -4 13 48.8786 629.746 2
4 -4 13 2668.03 1234.36 1
4 -4 13 1271.68 554.059 3
-4 4 -13 3791.13 1588.03 5
4 -4 14 -618.862 783.66 2
4 -4 14 1427.16 879.61 3
-4 4 -14 -8.49153 310.018 5
4 -4 14 -426.292 909.745 1
4 -4 15 18721.8 3157.62 2
4 -4 15 24972.6 3896.03 1
-4 4 -15 16867.2 3555.53 5
4 -4 16 817.009 826.584 2
4 -4 16 1816.14 1176.77 1
-4 4 -16 1542.28 1335.9 5
4 -4 17 6650.9 1863.04 2
4 -3 -17 22961.6 2957.94 5
-4 3 16 4079.42 1714.15 1
4 -3 -16 4586.24 1260.61 5
-4 3 15 38586 5143.58 1
4 -3 -15 48860.8 4202.43 5
-4 3 14 9625.02 2348.09 1
-4 3 14 8322.73 1880.53 2
4 -3 -13 5854.49 1544.85 8
-4 3 13 5811.06 1576.11 1
-4 3 13 7556.45 1756.92 2
4 -3 -12 40574.6 3731.65 7
-4 3 12 43909.2 4640.12 1
-4 3 12 36856.4 3982.45 2
4 -3 -12 32574.2 2774.15 2
4 -3 -12 42909 4257.47 8
4 -3 -11 2584 1009.98 8
4 -3 -11 2978.77 674.109 2
4 -3 -11 2413.61 544.749 4
4 -3 -11 1878.27 731.075 7
-4 3 11 2543.93 987.429 1
-4 3 11 3372.27 1137.26 2
4 -3 -10 33925.4 3290.85 1
4 -3 -10 38101.8 3341.49 7
4 -3 -10 38719.3 2698.41 2
-4 3 10 30025.4 3356.28 2
4 -3 -10 40970.5 2669.23 4
4 -3 -9 8861.19 1421.25 7
4 -3 -9 8005.66 1395.52 1
4 -3 -9 8705.87 1105.22 2
-4 3 9 6123.18 1297.13 2
4 -3 -8 22512.9 2214.2 7
4 -3 -8 23619.7 1832.57 2
-4 3 8 21609.2 2396.57 2
-4 3 8 23771.2 2744.04 6
4 -3 -8 24106.5 2372.2 1
4 -3 -8 27935.6 2962.04 8
-4 3 8 21102.5 3183.08 8
4 -3 -7 160.208 377.121 8
-4 3 7 478.041 458.877 8
-4 3 7 283.407 143.955 6
4 -3 -7 113.275 173.545 1
4 -3 -7 251.463 128.911 2
4 -3 -7 507.546 334.637 7
4 -3 -6 317346 13773.9 7
-4 3 6 362418 14698.3 6
4 -3 -6 328920 13244.8 2
4 -3 -6 342141 14001.9 1
-4 3 6 331247 16325.1 8
4 -3 -5 42327.6 2551.26 2
4 -3 -5 47896.7 2937.11 7
-4 3 5 49758.2 3349.42 6
4 -3 -5 40573.7 2798.82 1
4 -3 -5 55601.8 3822.46 8
4 -3 -4 186119 7913.22 2
4 -3 -4 196394 8248.25 7
4 -3 -4 187194 8198.59 1
-4 3 4 213286 8835.5 6
4 -3 -4 208330 9335.39 8
-4 3 4 185066 9721.06 8
4 -3 -3 109753 4850.21 7
4 -3 -3 97723.8 4742.87 1
-4 3 3 107788 5224.63 6
4 -3 -3 98899.4 4673.44 2
4 -3 -3 109434 5591.07 8
-4 3 3 91339 5590.06 8
4 -3 -2 94.032 85.6654 8
-4 3 2 63.2283 96.602 6
4 -3 -2 249.955 132.054 5
-4 3 1 5338.93 766.523 8
4 -3 -1 4211.09 715.344 8
-4 3 1 4943.2 802.619 6
4 -3 -1 5941.88 630.754 5
-4 3 0 98090.2 4310.44 8
4 -3 0 95647.6 4436.65 8
-4 3 0 105332 4901.2 6
4 -3 0 101095 4339.28 5
-4 3 -1 74186.3 3102.28 8
-4 3 -1 81010.6 4024.73 6
4 -3 1 84835.6 3878.56 3
-4 3 -1 81807.6 3592.13 5
4 -3 1 77287.5 3641.11 5
4 -3 1 72045.8 3234.69 8
-4 3 -2 130402 6203.01 6
4 -3 2 146071 6107.32 3
-4 3 -2 139005 5896.23 5
4 -3 2 136910 5937.05 5
-4 3 -3 745.74 324.872 6
-4 3 -3 977.804 322.085 5
4 -3 3 1986.39 446.144 5
4 -3 3 1512.51 414.139 3
-4 3 -4 34853.4 2440.6 6
4 -3 4 35787.7 2325.07 3
-4 3 -4 32112.3 2289.28 3
-4 3 -4 33788.6 2322.43 5
4 -3 4 32765.9 2324.4 5
4 -3 4 35413.9 2845.41 4
4 -3 5 84499.3 4180.44 3
4 -3 5 74707.1 3095.5 8
-4 3 -5 70653.5 4038.6 3
-4 3 -5 84997.2 4345.22 5
4 -3 5 74451.2 4152.78 5
4 -3 5 60309.9 4280.06 4
4 -3 6 104401 5609.29 6
4 -3 6 110023 5381.05 3
4 -3 6 98986.7 4439.92 8
-4 3 -6 108093 5576.49 5
4 -3 6 105902 5296.73 5
4 -3 7 19758.5 1989 3
-4 3 -7 19504.6 2167.49 5
4 -3 7 17958.8 1842.79 5
4 -3 7 21764.8 2219.04 6
4 -3 7 19613.6 2027.1 4
4 -3 7 18826 1563.8 8
4 -3 8 17475.2 2015.36 3
4 -3 8 16320.5 2000.44 6
4 -3 8 18743.2 2511.75 1
-4 3 -8 12242.5 1754.12 3
-4 3 -8 18428.8 2265.61 5
4 -3 8 15493.7 1812.73 5
4 -3 8 15433.2 1784.3 4
4 -3 8 14728.8 1511.56 8
4 -3 9 75733.5 5172.09 3
4 -3 9 86694.1 6199.32 1
4 -3 9 75562.6 5095.53 6
-4 3 -9 66593.3 4967.74 3
4 -3 9 72720.6 4308.95 8
-4 3 -9 78563.3 5671.13 5
4 -3 9 75594.1 4514.67 4
4 -3 10 52840.9 4451.25 3
-4 3 -10 44896.5 4263.05 3
4 -3 10 56984.8 5144.82 1
-4 3 -10 50389.8 4808.76 5
4 -3 10 53711.7 3544.62 4
4 -3 10 54665 3688.51 8
4 -3 11 28538.7 2719.9 8
4 -3 11 32639.4 3677.1 3
4 -3 11 35847.2 4104.25 1
-4 3 -11 23741.5 3289.84 3
4 -3 11 37805.4 4023.78 2
-4 3 -11 29910.6 3843.42 5
4 -3 11 31565 2481.65 4
4 -3 12 194540 8324.23 4
4 -3 12 186983 11156.3 3
4 -3 12 165946 9042.93 8
4 -3 12 186029 10943.5 2
4 -3 12 209899 11980 1
-4 3 -12 167197 11434.1 5
4 -3 13 5725.67 1633.11 2
4 -3 13 2635.96 1026.16 1
4 -3 13 4302.89 1552.56 3
-4 3 -13 1276.14 750.326 5
4 -3 14 59150.4 5699.15 2
-4 3 -14 58352.4 6473.33 5
4 -3 14 62154.4 6216.67 1
4 -3 15 4372.33 1691.91 1
-4 3 -15 2889.92 1531.53 5
4 -3 15 554.795 586.367 2
4 -3 16 6218.06 1787.17 2
-4 3 -16 7564.53 2255.42 5
4 -3 16 10385.2 2588.3 1
4 -2 -18 30868.5 3581.6 5
-4 2 17 4367.92 1693.44 1
4 -2 -17 5029.44 1368.57 5
4 -2 -16 7348.05 1834.73 8
-4 2 16 7685.07 2131.67 1
-4 2 15 15588.4 3101.16 1
4 -2 -15 22874.9 3247.54 8
-4 2 14 100112 8147.15 1
-4 2 14 100922 6936.96 2
4 -2 -14 109830 7631.33 8
4 -2 -13 2003.63 883.313 8
-4 2 13 1827.42 786.783 2
-4 2 13 2194.57 964.051 1
4 -2 -12 46411.3 2738.41 4
-4 2 12 50678.7 4954.92 1
4 -2 -12 54375.2 4724.8 8
-4 2 12 47703.1 4077.76 2
4 -2 -11 14476.7 1371.3 4
4 -2 -11 12507.1 1962.47 7
4 -2 -11 14950.3 2111.47 1
-4 2 11 13103.1 2302.64 1
-4 2 11 12827.4 1908.32 2
4 -2 -11 15584.9 2346.64 8
4 -2 -10 1436.62 641.471 1
4 -2 -10 3165.82 1019.01 8
4 -2 -10 2511.64 564.108 4
4 -2 -10 1797.36 459.19 2
4 -2 -10 1327.29 543.959 7
-4 2 10 1267.48 572.486 2
-4 2 10 1231.17 693.18 1
4 -2 -9 39514.7 3356.07 1
4 -2 -9 43343.7 3419.22 7
-4 2 9 51826.6 4028.35 1
4 -2 -9 42426.8 2517.98 2
-4 2 9 41995.9 3544.79 7
-4 2 9 41853.1 3171.2 2
4 -2 -9 44824.6 3896.95 8
4 -2 -9 37314.3 2634.77 4
4 -2 -8 2645.32 477.844 2
4 -2 -8 2789.26 860.002 8
4 -2 -8 2311.77 659.835 7
-4 2 8 1785.49 771.344 8
-4 2 8 3334.05 882.869 7
4 -2 -8 1990.68 491.712 4
4 -2 -8 2059.16 673.397 1
-4 2 8 1223.8 545.758 6
-4 2 8 2235.82 749.104 1
4 -2 -7 129.355 309.453 8
4 -2 -7 299.47 232.896 4
4 -2 -7 600.631 194.411 2
-4 2 7 780.055 514.457 8
-4 2 7 801.424 362.208 7
4 -2 -7 1128.83 445.309 7
4 -2 -7 173.808 266.852 1
-4 2 7 1021.56 443.028 1
-4 2 7 515.436 350.18 6
-4 2 6 5955.65 1347.66 8
4 -2 -6 6447.93 663.56 2
4 -2 -6 7040.63 1029.29 7
4 -2 -6 6661.69 1008.46 4
-4 2 6 6156.35 1007.66 6
4 -2 -6 6275.56 1184.28 8
4 -2 -6 5356.31 886.598 1
4 -2 -5 200240 9639.44 8
4 -2 -5 217854 8827.58 7
4 -2 -5 203999 9059.27 4
-4 2 5 213886 8998.05 6
4 -2 -5 202129 7963.52 2
4 -2 -5 195824 8570.99 1
4 -2 -4 5205.02 583.945 2
4 -2 -4 5704.04 1019.83 8
4 -2 -4 5881.76 786.289 7
-4 2 4 5297.09 1009.77 8
-4 2 4 7120.77 948.852 6
4 -2 -4 5285.64 707.74 1
4 -2 -4 4657.73 889.223 4
4 -2 -3 325327 12228.9 7
-4 2 3 335925 12578 6
4 -2 -3 319789 12172.3 6
4 -2 -3 303576 11917.6 1
4 -2 -3 310480 13106 4
-4 2 3 298448 12876 8
4 -2 -3 307207 12989.5 8
-4 2 2 152155 7150.37 8
4 -2 -2 169960 6775.94 7
-4 2 2 172894 7163.87 6
4 -2 -2 164145 6904.2 6
4 -2 -2 169122 7450.48 8
4 -2 -1 53123.5 2961.49 8
-4 2 1 48178.4 2691.8 8
-4 2 1 54041.1 2944.22 6
4 -2 -1 50978.6 2814.09 6
4 -2 -1 53036.6 2658.04 5
4 -2 0 40882.6 2327.16 8
-4 2 0 41349.3 2121.98 8
-4 2 0 43927 2577.91 6
4 -2 0 44958.7 2331.78 5
4 -2 1 85535 3946.25 8
-4 2 -1 92248.7 4516.1 6
-4 2 -1 94617.5 4219.88 5
4 -2 1 99435.6 4260.31 3
4 -2 1 96461 4280.55 5
4 -2 2 47090.6 2350.23 8
-4 2 -2 49135.7 2932.34 6
4 -2 2 54366.8 3647.73 4
4 -2 2 51230.3 2650.75 3
-4 2 -2 54501.4 2796.74 5
4 -2 2 52387.3 2776.17 5
4 -2 3 222819 8436.97 8
4 -2 3 215136 8933.76 3
-4 2 -3 241497 9284.18 5
4 -2 3 226276 9170.22 5
4 -2 3 220107 10234.3 4
4 -2 4 58769 3039.33 3
-4 2 -4 53943.8 2936.99 3
-4 2 -4 57547.9 3277.76 5
4 -2 4 54415.6 3784.19 4
4 -2 5 71163 3739.07 3
4 -2 5 70862 4753.3 1
-4 2 -5 67471.2 3595 3
-4 2 -5 70683.5 4014.04 5
4 -2 5 73273.6 3278.72 8
4 -2 5 64311.1 4244.92 4
4 -2 6 19433.9 2378.37 1
4 -2 6 21566.5 1908.8 3
-4 2 -6 22940.8 1835.78 3
-4 2 -6 24790.9 2169.16 5
4 -2 6 20865.3 1560.59 8
4 -2 6 19433.3 2046.06 4
4 -2 7 28417.4 3082.91 1
4 -2 7 30170.9 2552.9 3
4 -2 7 27994.1 2621.95 6
-4 2 -7 22607.4 2105.91 3
-4 2 -7 32100.1 2770.94 5
4 -2 7 31592.3 2439.07 5
4 -2 7 27906.5 2083.77 8
4 -2 7 28749.5 2466.19 4
4 -2 8 15632.9 1978.13 3
4 -2 8 14102.5 2272.38 1
4 -2 8 16101.2 2416.66 2
-4 2 -8 19905.9 2292.81 5
4 -2 8 16225.2 1797.6 5
4 -2 8 16397.2 2048.75 6
4 -2 8 17452.5 1696.66 8
4 -2 8 15729.6 1729.5 4
4 -2 9 32826.2 3643.54 1
4 -2 9 32535.4 3206.76 3
4 -2 9 33903.5 3630.56 2
-4 2 -9 29586.4 3196.29 5
4 -2 9 27512.5 2469.31 8
4 -2 9 32448 2517.07 4
4 -2 10 6145.64 963.684 4
4 -2 10 4963.73 1356.72 2
4 -2 10 6027.87 1284.36 7
4 -2 10 5658.75 1532.69 1
4 -2 10 6474.3 1154.47 8
4 -2 10 5093.2 1327.37 3
-4 2 -10 5669.1 1441.21 5
-4 2 -10 3876.69 1115.88 3
4 -2 11 4952.16 1087.87 8
4 -2 11 6059.08 931.099 4
4 -2 11 4573.59 1331.31 2
4 -2 11 6878.42 1792.36 1
4 -2 11 5799.74 1311.06 7
4 -2 11 4669.73 1456.23 3
-4 2 -11 4003.13 1229.52 3
-4 2 -11 5468.86 1491.95 5
4 -2 12 58192.5 5163.02 2
-4 2 -12 46845.9 5002.86 5
4 -2 12 54258.2 5304.73 1
4 -2 12 45239.1 3772.78 8
4 -2 13 141405 9368.68 2
-4 2 -13 132823 9782.02 5
4 -2 13 148566 10080.5 1
4 -2 14 13138.2 2532.59 2
4 -2 14 7072.41 2006.89 1
-4 2 -14 12382.6 2664.41 5
4 -2 15 95796.5 7676.79 2
-4 2 -15 97959.7 8588.5 5
4 -2 15 99557.3 8448.24 1
4 -2 16 757.503 505.654 2
4 -2 16 1760.61 1055.28 1
-4 2 -16 257.577 566.376 5
-4 1 18 9575.29 2501.47 1
-4 1 17 62833.8 6537.27 1
4 -1 -16 149.982 440.142 8
-4 1 16 417.471 367.524 1
4 -1 -15 333.486 298.62 8
-4 1 15 -211.279 452.363 1
-4 1 14 31052.3 4086.57 1
4 -1 -14 35065.1 3876.18 8
-4 1 13 111073 6422.3 2
-4 1 13 112926 8142.4 1
4 -1 -13 113848 7648.75 8
4 -1 -12 13129.7 2173.19 8
-4 1 12 11280.2 2128.39 1
-4 1 12 10027.4 1492.53 2
4 -1 -11 159833 6955.8 4
-4 1 11 175967 9681.76 1
4 -1 -11 174272 9374.45 8
-4 1 10 1774.39 679.581 1
4 -1 -10 2001.81 501.211 4
-4 1 10 958.009 368.74 2
4 -1 -9 4812.35 1178.61 8
4 -1 -9 4582.79 829.696 4
-4 1 9 6182.94 1290.09 7
-4 1 9 5147.34 1147.81 1
-4 1 9 5877.12 1185.52 6
-4 1 9 6738.37 1680.83 8
-4 1 8 23372.4 2953.09 8
-4 1 8 20073.7 2273.56 7
4 -1 -8 21934.1 2262.73 7
-4 1 8 21686.1 2133.66 6
-4 1 8 22528 2356.09 1
4 -1 -8 21354.4 1878.32 4
4 -1 -8 21286.3 2446.33 8
4 -1 -7 11496.5 1308.07 4
4 -1 -7 10690.2 1607.17 8
-4 1 7 10559.8 1824.61 8
-4 1 7 9243.7 1367.31 7
4 -1 -7 9000.76 1321.79 7
-4 1 7 9166.21 1328.85 1
-4 1 7 10385.8 1295.25 6
-4 1 7 12096.6 1579.24 4
-4 1 6 38002.2 3354.51 8
-4 1 6 37639.4 2706.58 7
4 -1 -6 36359.5 2682.24 7
-4 1 6 37777.7 2563.36 1
4 -1 -6 35478.4 2557.16 1
-4 1 6 37715 2515.17 6
-4 1 6 41795.3 3142.83 4
4 -1 -6 38106.5 3091.39 8
4 -1 -6 33263.4 2538.37 4
4 -1 -5 1026.6 456.35 8
-4 1 5 817.867 432.323 4
4 -1 -5 1236.75 436.071 4
4 -1 -5 1807.64 214.056 2
-4 1 5 1884.08 490.629 7
4 -1 -5 1731.75 469.192 7
4 -1 -5 1105.73 334.867 1
-4 1 5 1760.19 440.761 6
-4 1 5 1283.06 347.871 1
-4 1 4 27919.7 1899.5 7
-4 1 4 28848 2370.2 8
4 -1 -4 29579.7 2368.26 8
4 -1 -4 29615.7 2013.12 7
4 -1 -4 27484.4 1779.22 1
-4 1 4 30247.7 1966.07 6
-4 1 4 29048.6 2589.19 4
4 -1 -4 27689.1 1368.49 2
4 -1 -4 28306.2 2324.6 4
-4 1 3 204.615 123.481 4
4 -1 -3 65.1063 129.525 8
4 -1 -3 523.154 333.25 4
-4 1 3 166.094 173.613 8
4 -1 -3 367.313 215.833 7
4 -1 -3 511.241 167.562 1
-4 1 3 272.047 166.051 6
4 -1 -3 228.474 152.742 6
4 -1 -2 371765 14317.8 8
-4 1 2 352661 14122.4 8
4 -1 -2 372989 13654.7 7
-4 1 2 374144 13997.7 6
4 -1 -2 359424 13798.7 6
-4 1 2 345459 15124.7 4
4 -1 -1 62214.5 3344.79 8
-4 1 1 63493.4 3172.8 8
4 -1 -1 67096.3 2892.68 7
-4 1 1 63117 3281.97 6
4 -1 -1 60968.6 3183.04 6
4 -1 -1 68552.9 3263.83 5
-4 1 1 59847.4 4058.51 4
4 -1 0 162883 6804.16 8
4 -1 0 157740 6359.09 1
-4 1 0 169324 6940.73 6
4 -1 0 167301 6947.67 6
-4 1 0 149368 7691.08 4
4 -1 1 98581.9 4466.22 8
4 -1 1 99531.4 4626.85 1
-4 1 -1 101213 4757.7 6
4 -1 1 103710 4894.67 6
-4 1 -1 100986 4533.18 5
-4 1 -1 96616.7 5511.4 4
4 -1 2 48359.1 2948.85 1
4 -1 2 49230 2988.44 6
4 -1 2 45139.1 2408.45 8
4 -1 2 45785.5 2270.4 3
-4 1 -2 47732.9 2642.33 5
-4 1 -2 44277.7 3203.73 4
4 -1 2 41578.7 3232.16 4
4 -1 3 8788.07 1215.16 1
4 -1 3 7198.69 1185.19 4
4 -1 3 7222.39 705.607 3
-4 1 -3 7925.04 952.091 5
-4 1 -3 8439.04 1196.64 4
4 -1 4 207514 9420.29 1
4 -1 4 193336 7927.3 3
4 -1 4 187915 9847.21 2
-4 1 -4 214120 8596.07 5
4 -1 4 177794 9025.49 4
-4 1 -4 209451 8975.97 4
4 -1 5 101992 5833.94 4
4 -1 5 116224 6914.84 2
4 -1 5 114082 5264.65 3
-4 1 -5 104692 4808.85 3
-4 1 -5 117728 5651.02 5
-4 1 -5 121913 5783.42 4
4 -1 5 119484 6514.08 1
4 -1 6 104514 5820.19 4
4 -1 6 113265 5624.89 3
4 -1 6 111486 6982.81 2
-4 1 -6 104363 4967.46 3
-4 1 -6 116411 5892.14 5
-4 1 -6 122348 5767.47 4
4 -1 6 114068 6708.38 1
4 -1 7 34464 2786.65 4
4 -1 7 40608.7 3080.35 3
4 -1 7 35963.8 2882.4 7
4 -1 7 39386.1 3812.45 2
-4 1 -7 36665.2 2478.3 3
-4 1 -7 40538.6 3144.47 5
4 -1 7 41467.9 2886.97 5
-4 1 -7 44615.5 2843.65 4
4 -1 7 35179.4 3538.32 1
4 -1 7 35982.1 2427.63 8
4 -1 8 9033.61 1247.39 4
4 -1 8 8349.77 1321.02 7
4 -1 8 7818.29 1646.62 2
-4 1 -8 8451.61 1193.75 3
4 -1 8 8086.22 1444.88 3
4 -1 8 7701.37 1189.51 5
-4 1 -8 8693.41 1470.91 5
4 -1 8 8779.67 1749 1
4 -1 8 6515.43 1012.58 8
4 -1 9 7221.18 1065.87 4
4 -1 9 5542.37 966.609 8
4 -1 9 11647 2054.92 2
4 -1 9 11416.8 1602.32 7
4 -1 9 5639.73 1336.78 3
-4 1 -9 6053.33 1320.25 5
-4 1 -9 6017.47 1131.19 3
4 -1 9 7422.74 1665.33 1
4 -1 10 11361.1 1333.28 4
4 -1 10 12731.8 2235.93 2
4 -1 10 11715.3 1753.67 7
4 -1 10 11356 2165.55 1
-4 1 -10 12058.4 2070.64 5
4 -1 10 9476.09 1422.05 8
4 -1 11 4502.57 1011.24 8
4 -1 11 7552.74 1490.26 7
4 -1 11 7097.21 1785.65 1
4 -1 11 7200.25 1684.53 2
-4 1 -11 7201.21 1719.26 5
-4 1 -11 4871.86 1250.72 3
4 -1 12 803.536 650.284 2
4 -1 12 1302.37 847.047 1
-4 1 -12 1922.65 826.185 3
-4 1 -12 1581.37 768.062 5
4 -1 13 22707.5 3289.51 2
4 -1 13 17114.1 3161.32 1
-4 1 -13 19989.5 3231.46 5
4 -1 14 60686.6 5861.26 2
-4 1 -14 64795.9 6317.86 5
4 -1 14 58814.8 6233.25 1
4 -1 15 16173.3 2904.22 2
4 -1 15 14224.3 2996.5 1
-4 1 -15 13122.5 2809.56 5
4 -1 16 93614 7706.47 2
-4 0 18 19581.1 3480.77 1
-4 0 17 25073.2 3787.01 1
-4 0 16 62509.8 6202.66 1
4 0 -16 76487.1 6270.24 8
-4 0 15 1620.7 805.574 1
4 0 -15 2077.57 960.687 8
-4 0 14 24711.9 3477.54 1
4 0 -14 23695.5 3162.35 8
4 0 -13 12171.7 2151.53 8
-4 0 13 12304.9 2303.12 1
-4 0 13 9389.6 1219.99 2
-4 0 12 53063.8 4818.97 1
4 0 -12 58788.8 4761.06 8
-4 0 12 43362.5 2695.87 2
-4 0 11 46873 3852.73 6
-4 0 11 50351.5 4511.36 1
4 0 -11 55020.4 4511.35 8
4 0 -10 266615 13255.2 8
-4 0 10 260718 12276.9 6
-4 0 10 258835 13404.7 1
-4 0 9 1600.9 530.414 4
4 0 -9 1279.76 653.57 8
-4 0 9 2850.81 1014.08 8
-4 0 9 1070.84 497.608 7
-4 0 9 941.873 564.855 1
-4 0 9 786.542 391.926 6
4 0 -9 1021.88 780.33 3
-4 0 8 90588.5 5917.37 8
-4 0 8 69098.9 4997.93 7
-4 0 8 73774.4 4138.82 6
-4 0 8 78360.2 5060.04 1
-4 0 8 91450.6 5006.21 4
4 0 -8 80956 5253.33 8
-4 0 7 1279.92 531.78 8
-4 0 7 1118.08 488.452 4
4 0 -7 821.618 425.713 8
-4 0 7 1444.5 564.069 7
-4 0 7 1878.46 662.407 1
-4 0 7 1941.15 461.855 6
-4 0 6 23806.2 2205.22 7
-4 0 6 26371.4 1776.68 6
-4 0 6 24834.3 2066.22 1
-4 0 6 27809.7 2518.88 4
-4 0 6 25189.2 2515.48 8
4 0 -6 24084 2353.38 8
4 0 -5 7374.06 1163.63 8
-4 0 5 8492.06 1092.8 7
-4 0 5 8363.24 873.848 6
-4 0 5 9137.17 952.214 1
-4 0 5 9393.19 1436.62 4
4 0 -4 33514.5 2623.26 8
-4 0 4 34810.8 2190.68 7
-4 0 4 36114 2076.89 6
4 0 -4 36941 1934.64 6
-4 0 4 34049.7 1752.42 1
-4 0 4 33774.3 2971.62 4
-4 0 3 547.11 357.663 4
4 0 -3 204.026 202.029 8
-4 0 3 354.505 187.131 7
-4 0 3 157.624 127.613 6
4 0 -3 598.213 205.452 6
-4 0 3 223.993 210.944 8
4 0 -3 151.157 91.3233 2
-4 0 2 6048.32 819.243 8
-4 0 2 5575.44 1116.64 4
4 0 -2 4843.64 820.614 8
-4 0 2 4428.03 622.586 6
4 0 -2 4409.15 596.537 2
4 0 -2 5364.79 633.338 6
4 0 -1 191993 8193.68 8
-4 0 1 187315 7747.69 6
4 0 -1 192110 7755.38 6
4 0 -1 194203 8014.5 2
-4 0 1 176928 9050.37 4
4 0 0 46872.4 2675.94 6
4 0 0 45125.2 2898.95 2
4 0 0 43196.2 2643.43 8
-4 0 0 41611.9 3330.48 4
4 0 1 381737 14685.9 8
4 0 1 378950 14930.5 6
-4 0 -1 337154 15624.1 4
4 0 1 392215 14216.7 1
4 0 1 396462 15544.1 2
4 0 2 68639.6 4597.74 4
4 0 2 75806.6 4185.32 6
4 0 2 81467.7 4768.98 2
4 0 2 75629.9 3165.76 3
4 0 2 80358.6 3838.72 1
-4 0 -2 77960.8 3859.49 5
-4 0 -2 79528.3 4676.26 4
-4 0 -3 160.752 235.022 4
4 0 3 432.383 313.336 4
4 0 3 157.529 148.266 1
4 0 3 217.218 119.994 7
4 0 3 -10.7503 244.788 2
4 0 3 673.778 316.902 6
-4 0 -3 -80.0885 175.303 5
4 0 3 317.956 106.192 3
4 0 4 16616 1920.16 4
4 0 4 14080.4 1112.16 7
4 0 4 15253.9 1130.1 3
4 0 4 15090.4 2029.47 2
-4 0 -4 14673.3 1439.14 5
4 0 4 15554.8 1706.07 1
-4 0 -4 15572.2 1688.77 4
4 0 5 146625 7763.78 4
4 0 5 158430 6805.87 7
4 0 5 159855 6909.97 3
4 0 5 166743 8816.93 2
-4 0 -5 162980 7385.08 5
4 0 5 174529 8205.2 1
-4 0 -5 158983 7522.78 4
4 0 6 45476.2 3344.36 4
4 0 6 45995.9 2849.14 7
4 0 6 47027.9 4136.3 2
-4 0 -6 45172.2 2263.69 3
-4 0 -6 48296 3276.83 5
4 0 6 51881 3957.12 1
4 0 6 46316.3 3061.84 5
-4 0 -6 46650.6 3110.65 4
4 0 7 148146 7508.98 4
4 0 7 147164 7128.41 7
4 0 7 167372 9186.7 2
-4 0 -7 149920 6405.39 3
-4 0 -7 158963 7790.5 5
4 0 7 165110 8814.38 1
4 0 7 157342 7378.06 5
-4 0 -7 164944 7319.85 4
4 0 8 74290.7 4508.98 7
4 0 8 83711.5 6122.27 2
-4 0 -8 76194.3 4025.67 3
4 0 8 74439.3 4303.94 8
-4 0 -8 78383.1 5082.25 5
4 0 8 83775.6 5969.07 1
-4 0 -8 84326.5 4418.59 4
4 0 9 10507.2 1513.8 7
4 0 9 12131.7 2128.98 1
-4 0 -9 12085.3 1434.87 3
4 0 9 10770.6 2055.3 2
-4 0 -9 10589.5 1764.78 5
-4 0 -9 10429.6 1284.34 4
4 0 9 10599.4 1398.86 8
4 0 10 532.025 335.87 8
4 0 10 1051.77 732.709 2
4 0 10 302.914 241.919 7
4 0 10 76.9109 360.022 1
-4 0 -10 -117.865 404.812 5
-4 0 -10 159.258 205.522 3
4 0 11 3724.02 1335.57 2
4 0 11 2209.35 1034.14 1
4 0 11 2161.58 736.852 7
-4 0 -11 2503.79 1037.65 5
4 0 12 22588.7 3236.99 2
4 0 12 25712.6 3713.19 1
-4 0 -12 23798.1 3277.25 5
4 0 13 502.423 388.763 1
4 0 13 439.37 648.947 2
-4 0 -13 97.4956 437.871 5
4 0 14 58.8467 670.482 1
-4 0 -14 1255.25 859.956 5
4 0 14 955.839 741.589 2
4 0 15 17227.9 3485.39 1
-4 0 -15 16997.4 3131.72 5
4 0 15 19506.4 3287.03 2
-4 -1 18 4559.29 1617.2 1
-4 -1 17 15197.8 2860.81 1
4 1 -16 5394.08 1496.61 8
-4 -1 16 2240.56 1100.27 1
-4 -1 15 58556.9 4728.9 6
-4 -1 15 45767.5 4918.85 1
4 1 -15 46421 4728.77 8
4 1 -14 14068.7 2409.2 8
-4 -1 14 13237.3 2419.05 1
-4 -1 14 15236.3 2196.52 6
4 1 -13 70144 5802.23 8
-4 -1 13 78657.2 5271.13 6
-4 -1 13 68571.9 5920.75 1
-4 -1 12 3967.61 878.159 4
4 1 -12 2493.91 935.996 8
-4 -1 12 3241.01 860.771 6
-4 -1 12 3644.31 1135.79 1
-4 -1 11 13552.5 1557.38 6
-4 -1 11 14013.8 2180.31 1
-4 -1 11 15425.5 1761.86 4
4 1 -11 16294.2 2299.58 8
-4 -1 10 63096.4 4972.44 7
4 1 -10 64298.8 4906.66 8
-4 -1 10 59125.2 3518.36 6
-4 -1 10 63322.2 4861.2 1
-4 -1 10 73762.9 4385.05 4
-4 -1 9 211168 11234.5 7
4 1 -9 233195 11259.5 8
-4 -1 9 216782 9322.23 6
-4 -1 9 250607 11306.5 1
-4 -1 9 258331 10814.1 4
-4 -1 8 23425.5 2700.68 8
-4 -1 8 22159.3 2555.78 7
4 1 -8 18138.6 3046.18 3
-4 -1 8 23151.7 1607.85 6
-4 -1 8 30253.4 2646.63 4
-4 -1 8 24855.7 2481.28 1
4 1 -8 21497.8 2460.43 8
-4 -1 7 265536 11783.7 8
4 1 -7 230301 13267 3
-4 -1 7 240291 11554.4 7
-4 -1 7 295066 11466.8 1
-4 -1 7 235307 9670.76 6
4 1 -7 241993 11411 8
-4 -1 7 280161 11766.3 4
-4 -1 6 17342.6 1740.17 1
4 1 -6 17626.5 1951.96 8
4 1 -6 16995.1 2672.12 3
-4 -1 6 16846.1 1938.97 7
-4 -1 6 15911.8 1151.68 6
-4 -1 6 18593.2 2152.61 4
4 1 -5 191.457 158.685 8
-4 -1 5 17.475 279.438 4
-4 -1 5 75.3443 96.1612 6
4 1 -5 102.386 329.896 3
-4 -1 5 -14.1222 148.565 7
4 1 -4 4432.46 437.112 2
-4 -1 4 5026.52 1141.26 4
4 1 -4 4349.97 890.375 8
-4 -1 4 3197.06 693.855 8
-4 -1 4 4403.25 767.267 7
-4 -1 4 3518.62 477.954 6
-4 -1 4 3582.81 549.613 1
4 1 -4 4442.99 488.207 6
4 1 -4 5131.79 1299.35 3
4 1 -3 46519.2 3172.17 8
-4 -1 3 41161.6 3641.69 4
4 1 -3 48230 2334.05 2
4 1 -3 40415.5 3825.66 3
-4 -1 3 44100.2 2500.99 7
4 1 -3 47555.3 2284.12 6
4 1 -2 13332.9 1442.6 8
-4 -1 2 12748.5 872.669 7
4 1 -2 11381.6 1754.59 3
4 1 -2 13156.3 1104.47 2
4 1 -2 13707.5 1069.68 6
-4 -1 2 11399 780.189 1
-4 -1 2 11305.4 1825.74 4
4 1 -1 74014.7 3995.36 8
4 1 -1 63842.8 4463.12 3
4 1 -1 72708.4 3644.99 2
4 1 -1 77903.4 3607.63 6
-4 -1 1 67647.8 3150.52 1
-4 -1 1 59632 4686.32 4
4 1 0 39196.2 2995.74 3
4 1 0 46027.2 2877.65 8
4 1 0 48588.7 2899.7 2
4 1 0 44546.6 2703.29 6
-4 -1 0 43513.3 2471.96 1
-4 -1 0 41525.5 3642.75 4
-4 -1 -1 6156.22 1255.77 4
4 1 1 5574.46 785.996 3
-4 -1 -1 5915.22 869.301 1
4 1 1 6230.67 911.553 6
4 1 1 6350.04 993.529 2
-4 -1 -2 200319 9298.14 1
4 1 2 206070 10144.7 4
4 1 2 233324 9891.88 2
-4 -1 -2 217544 10299.1 4
-4 -1 -3 15600.6 1852.6 1
4 1 3 20623.9 1795.65 1
-4 -1 -3 22619.3 1764.12 5
4 1 3 20394.5 1699.73 5
-4 -1 -3 21440.6 2260.89 4
4 1 3 20670.8 2198.13 2
4 1 3 20128.7 2259.84 4
-4 -1 -4 50498.9 3850.91 1
4 1 4 58523.9 4190.1 2
4 1 4 56125.2 3568.84 1
-4 -1 -4 50308.5 3147.56 5
4 1 4 53239.5 3174.95 5
-4 -1 -4 50728.4 3658.26 4
4 1 5 33937.8 3252.49 2
4 1 5 36394 2922.87 1
-4 -1 -5 30455.3 2392.68 5
4 1 5 32386.2 2392.53 5
4 1 5 31165.6 1819.24 7
-4 -1 -5 31706 2671.54 4
-4 -1 -6 64693 4860.36 1
4 1 6 68402.5 5090.97 2
4 1 6 71663.3 4714.14 1
-4 -1 -6 63384.6 3959.35 5
4 1 6 66378.7 3878.21 5
4 1 6 59704 3255.46 7
-4 -1 -6 63693.4 4064.74 4
4 1 7 7776.03 1607 2
4 1 7 7362.1 1461.26 1
4 1 7 5735.56 860.671 7
4 1 7 7238.45 1113.03 5
-4 -1 -7 7049.46 1500.68 1
-4 -1 -7 6206.75 1129.87 5
-4 -1 -7 7522.52 1162.03 4
4 1 8 98828.9 5233.19 7
4 1 8 108626 7256.72 2
-4 -1 -8 112443 7107.23 1
4 1 8 108756 6971.65 1
-4 -1 -8 97486.8 4287.42 3
-4 -1 -8 106647 6063.95 5
-4 -1 -8 107567 5476.57 4
4 1 9 71165.4 4468.53 7
4 1 9 88818.2 6547.22 2
4 1 9 80129.6 6118.08 1
-4 -1 -9 77215.2 3868.24 3
-4 -1 -9 77893.1 5301.72 5
-4 -1 -9 80938.9 4484.86 4
4 1 10 36499.5 4134.84 2
-4 -1 -10 37602.1 2700.27 3
4 1 10 35009.9 4089.59 1
-4 -1 -10 34140.6 3483.49 5
4 1 10 33562.2 2910.31 7
-4 -1 -10 38432.3 2739.77 4
4 1 11 19272.6 2294.12 7
4 1 11 21160.8 3239.25 2
4 1 11 23944.7 3444.66 1
-4 -1 -11 23976 3050.11 5
-4 -1 -11 24766.2 2004.25 4
-4 -1 -12 -407.525 422.241 5
4 1 12 -365.568 425.605 1
4 1 12 -316.669 518.88 2
-4 -1 -13 14415.2 2598.75 5
4 1 13 16223.8 3134.45 1
4 1 13 19107.5 3141.56 2
4 1 14 6.47721 550.632 2
-4 -1 -14 -117.393 395.849 5
4 1 14 1171.84 885.189 1
-4 -1 -15 10463 2368.44 5
-4 -2 18 24826.2 3714.55 1
-4 -2 17 26782.1 3799.93 1
-4 -2 16 19877.8 3157.79 1
4 2 -16 26923.9 3543.16 8
4 2 -15 3896.4 1289.63 8
-4 -2 15 5410.62 1581.17 1
-4 -2 14 28352.1 2486.65 6
-4 -2 14 28282.5 3527.94 1
-4 -2 14 33511.2 2688.05 4
4 2 -14 26509.1 3422.57 8
4 2 -13 14107.8 2358.3 8
-4 -2 13 13561.2 1487.95 6
-4 -2 13 17109.7 2548.97 1
-4 -2 13 19614.3 2054.97 4
-4 -2 12 43674.4 2767.21 6
4 2 -12 49291.1 4468.32 8
-4 -2 12 53725.7 3750.96 4
-4 -2 12 54606.4 4518.46 1
-4 -2 11 1594.35 661.628 4
4 2 -11 1399.53 623.175 8
-4 -2 11 1667.03 720.272 1
-4 -2 11 1566.04 382.188 6
4 2 -10 2188.11 776.287 8
-4 -2 10 1695.85 622.634 4
-4 -2 10 2022.44 793.236 7
-4 -2 10 2134.44 381.343 6
-4 -2 10 1467.64 620.17 1
4 2 -9 23486.9 2624.13 8
-4 -2 9 23412.7 2475.09 1
-4 -2 9 21806.9 2655.71 7
-4 -2 9 19439 1240.55 6
-4 -2 9 24455.7 2466.04 4
4 2 -8 151582 7884.47 8
-4 -2 8 152716 8236.61 7
-4 -2 8 159015 7558.1 1
-4 -2 8 135335 5514.59 6
-4 -2 8 161608 7947.65 4
4 2 -7 26376.8 2613.29 8
-4 -2 7 25865.7 2533.87 8
-4 -2 7 28529.6 2840.19 7
4 2 -7 21447.5 3274.01 3
-4 -2 7 29447.9 2865.46 4
-4 -2 7 24053.3 1268.47 6
-4 -2 6 415424 17327.1 4
4 2 -6 411479 16606.4 8
-4 -2 6 387117 16766.1 7
-4 -2 6 393469 14653.4 2
-4 -2 6 382815 16198.2 8
-4 -2 5 24656.3 2761.5 4
4 2 -5 20160.3 2159.54 8
-4 -2 5 24207.2 2375.81 7
4 2 -5 20290.2 2915 3
-4 -2 5 21644.1 1720.99 2
-4 -2 5 19534.6 2001.81 8
-4 -2 4 107572 6746.09 4
4 2 -4 89644 5316.39 8
-4 -2 4 93655.1 5329.96 7
4 2 -4 86922.5 6433.41 3
4 2 -4 98649.5 3936.61 6
-4 -2 4 92171.5 5048.37 2
4 2 -4 102430 4314.31 2
-4 -2 3 36039.9 3705.99 4
4 2 -3 34572.4 2071.81 2
-4 -2 3 32513.8 2473.51 7
4 2 -3 30659.8 3161.5 3
4 2 -3 33646.1 1790.57 6
-4 -2 3 30594.8 2663 2
4 2 -3 34362.8 2693.05 8
-4 -2 2 94174.7 6665.74 4
4 2 -2 104140 5342.03 8
-4 -2 2 87038.3 4534.56 7
4 2 -2 81049.6 5376.64 3
4 2 -2 104795 4416.52 6
-4 -2 2 94166.7 5629.12 2
4 2 -2 102935 4690.38 2
-4 -2 1 717.445 478.372 2
-4 -2 1 4.35926 292.962 4
4 2 -1 634.787 371.393 8
-4 -2 1 422.386 175.777 7
4 2 -1 99.2209 73.0798 6
4 2 -1 193.791 211.392 3
4 2 -1 1034.54 315.323 5
-4 -2 1 348.938 163.006 1
4 2 -1 201.549 211.482 2
-4 -2 0 162533 9547.24 4
4 2 0 175137 7560.31 2
4 2 0 168194 7235.42 6
4 2 0 155047 6737.29 3
-4 -2 0 152777 7011.82 1
4 2 0 169957 7241.62 5
-4 -2 -1 2045.38 858.815 4
-4 -2 -1 1419.62 424.579 1
4 2 1 1401.55 191.719 3
4 2 1 1502.62 431.819 5
4 2 1 1271.01 468.549 2
-4 -2 -2 35861.6 3528.93 4
4 2 2 35935.1 2849.66 2
-4 -2 -2 32035.8 3395.34 2
4 2 2 35095.7 2367.63 5
-4 -2 -2 29646.1 2475.58 1
-4 -2 -3 55348.4 4335.05 4
4 2 3 48977 3722.98 2
-4 -2 -3 52010.8 4491.1 2
4 2 3 49372.1 3077.12 5
4 2 4 26280.7 2707.06 2
-4 -2 -4 29387.4 3297.53 2
-4 -2 -4 24982.1 2070.82 5
4 2 4 27099.2 2130.18 5
-4 -2 -4 27695.4 2851.83 4
-4 -2 -5 85848.1 5867.7 1
-4 -2 -5 103195 6048.13 4
4 2 5 102412 5852.42 1
4 2 5 104326 6470.02 2
-4 -2 -5 104968 7090.18 2
-4 -2 -5 102266 5259.17 5
4 2 5 101906 5211.84 5
4 2 6 21368.2 2711.55 2
4 2 6 23264.4 2541.07 1
-4 -2 -6 21455.8 2574.11 1
-4 -2 -6 21696.9 2077.72 5
4 2 6 20931.1 1972.67 5
-4 -2 -6 23285.5 2352.9 4
-4 -2 -7 4308.93 950.869 4
-4 -2 -7 3601.16 1062.53 1
4 2 7 4550.4 1110.32 1
-4 -2 -7 5076.44 996.975 5
4 2 7 4874.07 1288.66 2
-4 -2 -8 1717.1 602.173 4
4 2 8 903.152 615.418 1
-4 -2 -8 1165.62 541.261 5
4 2 8 2047.57 727.584 2
4 2 9 101649 7440.48 2
4 2 9 106690 7311.57 1
-4 -2 -9 96667.7 6111.12 5
-4 -2 -9 101609 5551.19 4
4 2 10 58076.5 5572.46 2
-4 -2 -10 62102.1 3874.06 4
4 2 10 63356.1 5660.5 1
-4 -2 -10 53068.9 4489 5
4 2 11 83962.7 6969.2 2
4 2 11 75693.4 6730.98 1
-4 -2 -11 68462.3 5556.61 5
-4 -2 -11 85796.5 4638.17 4
4 2 12 40220.5 4774.13 2
4 2 12 48121 5319.1 1
-4 -2 -12 36131.6 3957.34 5
4 2 13 3254.52 1396.77 1
-4 -2 -13 1003.58 553.732 5
4 2 13 1774.22 1027.51 2
4 2 14 321.686 593.987 1
-4 -2 -14 1272.95 880.319 5
-4 -3 18 2284.46 1168.04 1
-4 -3 17 31146.8 3989.62 1
-4 -3 16 31661.7 3916.11 1
4 3 -16 26165.9 3615.95 8
4 3 -15 47448.1 4828.93 8
-4 -3 15 51269.7 4894.26 1
-4 -3 14 48540.8 3549.43 4
4 3 -14 42433.7 4372.25 8
-4 -3 14 37666.3 4065.88 1
-4 -3 13 30686.1 3453.15 1
-4 -3 13 30722.5 2815.53 4
4 3 -13 30439.4 3572.89 8
-4 -3 12 1799.64 776.095 1
4 3 -12 3274.58 1122.89 8
-4 -3 12 2007.38 739.948 4
-4 -3 11 18624.7 2387.22 1
-4 -3 11 17861.2 2153.43 4
4 3 -11 15322.5 2355.27 8
4 3 -10 17006.9 2371.04 8
-4 -3 10 21751.4 2445.79 1
-4 -3 10 21252 2390.36 4
-4 -3 9 13948.5 1996.26 4
-4 -3 9 14327.8 2131.96 7
-4 -3 9 12343.1 1007.47 2
4 3 -9 12359.7 1915.41 8
4 3 -8 4108.46 1044.63 8
-4 -3 8 2650.87 908.749 4
-4 -3 8 3386.09 993.628 7
4 3 -8 2594.11 1169.59 3
-4 -3 8 3559.36 617.198 2
-4 -3 7 43717.6 3930.61 4
4 3 -7 42650.5 3490.49 8
-4 -3 7 42507.5 3621.01 7
4 3 -7 37287.2 4429.04 3
-4 -3 7 37228.5 2593.77 2
-4 -3 6 48122.5 4301.19 4
4 3 -6 42897 3441.11 8
4 3 -6 36971.8 4187.68 3
-4 -3 6 38965.9 2868.12 2
4 3 -5 310385 12758.7 8
-4 -3 5 323273 14720.6 4
4 3 -5 253514 13664.3 3
-4 -3 5 255653 12048.5 2
-4 -3 4 4251.23 997.883 2
4 3 -4 4410.06 1002.4 8
4 3 -4 4500.33 434.027 6
4 3 -4 3752.53 622.549 2
4 3 -4 4717.86 1163.09 3
4 3 -3 245478 9874.93 2
4 3 -3 254101 10891.5 8
-4 -3 3 241018 13242.9 4
4 3 -3 207590 10691 3
4 3 -3 240716 9122.43 6
-4 -3 3 219776 11005.3 2
-4 -3 2 22722.4 3348.86 4
4 3 -2 25376.4 2312.46 8
4 3 -2 23351.6 1926.44 2
4 3 -2 22643.6 1644.41 6
4 3 -2 21726.4 2032.03 3
-4 -3 2 21486.1 2513.91 2
4 3 -1 7183.04 1074.92 2
4 3 -1 7635.36 1226.92 8
-4 -3 1 8013.32 1897.43 4
4 3 -1 6466.96 872.596 3
4 3 -1 8095.92 1061.92 5
-4 -3 1 4874.4 830.984 1
-4 -3 0 5102.81 1275.67 2
-4 -3 0 5372.92 1664.34 4
4 3 0 4462.62 544.538 3
4 3 0 4921.46 817.473 5
4 3 0 5538.25 994.245 2
-4 -3 0 4159.73 782.74 1
-4 -3 -1 194542 11093 4
4 3 1 181022 8357.93 2
-4 -3 -1 166705 6510.87 7
-4 -3 -1 170163 9524.11 2
-4 -3 -1 158526 7871.99 1
4 3 1 187783 7785 5
-4 -3 -2 964.77 567.896 2
-4 -3 -2 1318.23 867.769 4
-4 -3 -2 1406.06 305.01 7
4 3 2 1099 399.81 5
4 3 2 1246.2 635.593 2
-4 -3 -3 106257 7079.53 4
4 3 3 95212.7 5696.97 2
-4 -3 -3 88866.6 4259.15 7
-4 -3 -3 94187 6561.91 2
4 3 3 89460.7 4724.67 5
-4 -3 -3 77135.6 5147.06 1
-4 -3 -4 9335.59 1797.83 4
4 3 4 9179.85 1192.71 5
-4 -3 -4 6905.95 1344.09 1
4 3 4 7960.81 1491.62 2
-4 -3 -5 6344.47 1366.57 4
-4 -3 -5 5915.92 972.214 5
4 3 5 5337.71 920.32 5
4 3 5 5724.96 1371.07 2
-4 -3 -5 4730.22 1154.27 1
-4 -3 -6 54135.3 4209.6 4
4 3 6 50207.4 4461.55 2
-4 -3 -6 48082.1 3385.95 5
-4 -3 -6 42401.2 3953.87 1
-4 -3 -7 7270.79 1354.34 4
-4 -3 -7 5564.97 1055.77 5
4 3 7 7632.79 1733.17 2
-4 -3 -8 5511.47 1118.67 4
-4 -3 -8 6135.59 1193.58 5
4 3 8 6371.47 1689.25 2
-4 -3 -9 2066.68 701.95 4
-4 -3 -9 2114.43 742.812 5
4 3 9 3291.91 1336.06 2
4 3 10 56563.3 5647.43 2
-4 -3 -10 44324.8 3987.23 5
-4 -3 -10 53792.5 3799.07 4
4 3 11 23244.4 3625.92 2
-4 -3 -11 17512.8 2485.7 5
-4 -3 -11 19101.6 2028.35 4
4 3 12 76777.9 7049.9 2
-4 -3 -12 66776.6 5554.73 5
-4 -3 -13 47523.6 4701.47 5
-4 -3 -14 12182.8 2382.8 5
-4 -4 17 14676.2 2686.72 1
-4 -4 16 7166.11 1751.49 1
4 4 -15 4826.47 1517.11 8
-4 -4 15 5091.31 1402.06 1
-4 -4 14 80826.6 6197.02 1
4 4 -14 69117 5987.63 8
-4 -4 14 82503.6 5289.53 4
-4 -4 13 78737.9 6002.08 1
-4 -4 13 85454.9 5488.91 4
4 4 -13 77835.9 6174.81 8
4 4 -12 32296.7 3571.41 8
-4 -4 12 32208.7 3399.47 1
-4 -4 12 33405 3186.3 4
4 4 -11 7274.01 1564.08 8
-4 -4 11 8190.53 1570.36 4
-4 -4 11 7759.37 1506.1 1
4 4 -10 1666.96 645.654 8
-4 -4 10 2318.21 930.331 4
-4 -4 10 1527.81 500.722 2
4 4 -9 20219.3 2528.01 8
-4 -4 9 23318.7 2827.13 4
-4 -4 9 17874.4 1862.15 2
4 4 -8 7275.23 1402.99 8
-4 -4 8 7253.76 1594.33 4
-4 -4 8 3583.52 859.914 2
-4 -4 7 7290.35 1713.29 4
4 4 -7 8991.56 1537.84 8
4 4 -7 6563.06 1702.64 3
-4 -4 7 4636.76 1052.57 2
4 4 -6 322.962 284.902 8
-4 -4 6 741.968 608.677 4
4 4 -6 889.438 409.316 3
-4 -4 6 185.058 205.247 2
4 4 -5 11290.2 1676.77 8
-4 -4 5 14095.9 2603.25 4
-4 -4 5 9950.29 1662.29 2
4 4 -5 11708.3 1922.51 3
-4 -4 4 103000 8073.41 4
4 4 -4 106376 6030.49 8
4 4 -4 103753 5114.77 2
4 4 -4 89830.6 5849.68 3
4 4 -4 97442.2 3944.44 6
4 4 -3 15184.3 1928.84 8
-4 -4 3 16204.9 3102.01 4
4 4 -3 16752.2 1232.55 6
4 4 -3 12579.9 1672.21 3
4 4 -3 15549.7 1638.28 2
4 4 -2 237037 10336.1 2
4 4 -2 243113 11100.6 8
-4 -4 2 223536 14289.4 4
4 4 -2 249745 9626.34 6
-4 -4 2 208706 11590 2
4 4 -2 223032 9988.41 3
-4 -4 1 4033.89 1185.1 2
4 4 -1 5715.25 1329.69 8
-4 -4 1 4637.51 1518.41 4
4 4 -1 3868.27 897.289 2
4 4 -1 3462.31 744.486 5
4 4 -1 4203 667.287 3
-4 -4 0 23980.3 3889.03 4
4 4 0 18968.1 2048.27 2
-4 -4 0 16218.7 2472.52 2
4 4 0 18685.1 1239.35 3
4 4 0 19593.1 1808.41 5
-4 -4 -1 25680.6 3992.14 4
4 4 1 24430.1 2451.69 2
-4 -4 -1 21272.9 2922.15 2
-4 -4 -1 18489 2116.48 1
4 4 1 24375.3 2020.74 5
-4 -4 -1 21654.5 1393.28 7
-4 -4 -2 136415 9425.15 4
4 4 2 116113 6646.18 2
-4 -4 -2 117559 4899.1 7
-4 -4 -2 94244.2 6074.4 1
4 4 2 108440 5597.95 5
-4 -4 -3 130.051 293.119 4
-4 -4 -3 431.628 246.89 7
-4 -4 -3 -156.438 243.489 1
4 4 3 -285.334 479.692 2
4 4 3 614.118 362.615 5
4 4 4 137995 8007.05 2
-4 -4 -4 143334 6355.72 7
4 4 4 127095 6557.02 5
-4 -4 -4 121159 7531.36 1
-4 -4 -5 2768.36 1118.06 4
-4 -4 -5 1957.5 611.716 7
4 4 5 2201.79 943.159 2
-4 -4 -6 13493.2 2241.26 4
4 4 6 13348.8 2347.44 2
-4 -4 -7 5690.7 1328.32 4
4 4 7 7354.46 1854.99 2
-4 -4 -8 2833.16 896.56 4
-4 -4 -8 2511.97 807.777 5
4 4 8 4585.69 1547.86 2
-4 -4 -9 10003.7 1650.56 5
4 4 9 11468.8 2437.12 2
-4 -4 -9 13576.6 1925.11 4
-4 -4 -10 269.91 245.306 4
-4 -4 -10 817.81 554.598 5
4 4 10 328.55 541.138 2
-4 -4 -11 4104.41 1168.14 5
4 4 11 1292.8 1060.84 2
-4 -4 -12 3442.12 1150.97 5
-4 -4 -13 40761.9 4211.73 5
-4 -5 16 29781.5 3787.37 1
4 5 -15 -43.6147 561.509 8
-4 -5 15 1029.91 680.384 1
4 5 -14 445.18 306.727 8
-4 -5 14 -298.857 485.59 4
-4 -5 14 -184.386 369.51 1
4 5 -13 71330.6 5896.04 8
-4 -5 13 78420.3 5511.21 4
-4 -5 13 76265.2 5733.53 1
-4 -5 12 59443.8 4849.11 4
4 5 -12 61709.1 5194.3 8
-4 -5 11 61572.7 5058.22 4
4 5 -11 56510.7 4874.05 8
-4 -5 10 97516.2 6794.25 4
4 5 -10 86425.3 6230.98 8
4 5 -9 10289.6 1818.13 8
-4 -5 9 10939.8 2083.6 4
-4 -5 9 5132.54 1243.28 2
4 5 -8 158.565 315.705 8
-4 -5 8 891.081 573.275 4
-4 -5 8 1447.39 685.652 2
4 5 -7 1546.57 746.051 8
-4 -5 7 1016.17 665.933 4
-4 -5 6 27633.8 3932.62 4
4 5 -6 24081.3 2720.45 8
4 5 -6 16342.7 2442.78 3
-4 -5 5 689.392 732.981 4
4 5 -5 73.485 185.484 8
4 5 -5 684.69 454.19 3
-4 -5 5 761.138 598.484 2
4 5 -4 456.65 285.644 8
-4 -5 4 -242.344 676.806 4
4 5 -4 412.638 148.407 6
4 5 -4 181.197 219.854 2
4 5 -4 257.95 259.415 3
-4 -5 4 1325.9 755.213 2
4 5 -3 32087.5 3126.01 8
-4 -5 3 31233.5 4867.83 4
4 5 -3 35097.6 2053 6
-4 -5 3 27304.6 3335.43 2
4 5 -3 27155.2 2504.04 3
4 5 -3 31950.3 2713.22 2
-4 -5 2 12155.1 2171.33 2
4 5 -2 11743.3 1686.84 2
4 5 -2 14513.9 2033.98 8
-4 -5 2 17789.3 3814.63 4
4 5 -2 11893.3 1364.63 3
4 5 -1 177810 8576.97 2
4 5 -1 176019 9006.69 8
-4 -5 1 142398 8095.07 1
-4 -5 1 151141 9673.04 2
4 5 -1 167828 7125.9 3
4 5 -1 173667 7927.87 5
4 5 0 1603.06 1872.2 2
-4 -5 0 -270.491 583.36 4
-4 -5 0 432.587 601.756 1
4 5 0 1444.86 518.143 5
4 5 0 561.931 234.685 3
-4 -5 -1 94132.5 8895.83 4
4 5 1 84885.3 5512.06 2
-4 -5 -1 88589.3 4003.3 7
4 5 1 84523.4 4694.42 5
-4 -5 -2 37261.7 5123.14 4
-4 -5 -2 26855.9 1870.1 7
-4 -5 -2 24149.4 2754.9 1
4 5 2 32528.7 3196.19 2
4 5 3 20755.5 2648.47 2
-4 -5 -3 20994.4 3656.19 4
-4 -5 -3 18858.3 1598.4 7
-4 -5 -4 1450.65 1066.6 4
-4 -5 -4 1240.18 411.224 7
4 5 4 786.024 567.164 2
-4 -5 -5 176458 10828 4
4 5 5 158429 9664.99 2
-4 -5 -6 2684.5 1166.47 4
4 5 6 2169.51 1035.36 2
4 5 7 53857.8 5313.1 2
-4 -5 -7 52128.6 4808.26 4
-4 -5 -8 2096.06 736.435 4
4 5 8 850.663 510.169 2
-4 -5 -9 643.367 556.715 4
4 5 9 1695.87 1175.43 2
-4 -6 15 17177.7 2746.13 1
-4 -6 14 8424.88 1724.28 4
-4 -6 14 8871.7 1820.17 1
4 6 -13 5692.39 1403.02 8
-4 -6 13 4698.37 1362.51 4
-4 -6 12 26901.9 3336.86 4
4 6 -12 29457.6 3521.87 8
4 6 -11 19239.8 2757.5 8
-4 -6 11 20959.1 2936.41 4
4 6 -10 99549.9 6840.76 8
-4 -6 10 96209.9 7338.61 4
4 6 -9 100305 7017.39 8
-4 -6 9 113486 8198.54 4
-4 -6 8 29025.1 4036.62 4
4 6 -8 27353.2 3178.23 8
4 6 -7 20114.2 2666.31 8
-4 -6 7 25423.7 3817.74 4
-4 -6 7 13764.5 2443.08 2
4 6 -6 3880.68 1147.36 8
-4 -6 6 3504.66 1603.47 4
-4 -6 6 2140.6 943.096 2
4 6 -5 21033.5 2678.39 8
-4 -6 5 23721 4294.49 4
-4 -6 5 13623.5 2427.82 2
4 6 -5 17687.8 2295.18 3
4 6 -4 1636.43 655.618 8
-4 -6 4 2697.62 1512.13 4
4 6 -4 1410.87 284.972 6
4 6 -4 1862.24 675.261 3
-4 -6 4 1727.12 938.755 2
4 6 -3 33215.5 3430.82 8
-4 -6 3 31571.8 5509.69 4
4 6 -3 32119.6 2964.15 2
4 6 -3 33295.1 2738 3
4 6 -2 19833.2 2568.55 8
4 6 -2 16218.4 2121.83 2
-4 -6 2 15536.8 3994.41 4
4 6 -2 14173.7 1562.87 3
4 6 -1 412.003 354.275 8
-4 -6 1 -674.15 1232.6 4
-4 -6 1 6.54307 364.934 1
4 6 -1 291.15 421.353 2
4 6 0 85724.7 5814.06 2
-4 -6 0 103992 10690.1 4
-4 -6 -1 3592.16 1926.09 4
4 6 1 2125.48 815.621 2
4 6 2 87548.8 6259.86 2
-4 -6 -2 112078 10265.7 4
-4 -6 -3 3968.89 1608.81 4
4 6 3 3899.81 1173.11 2
-4 -6 -4 -15.8261 780.604 4
4 6 4 -240.45 387.055 2
-4 -6 -5 19832.3 3433.06 4
4 6 5 20945.4 3108.81 2
-4 -6 -6 84415.4 7196.47 4
4 6 6 84228 6936.76 2
-4 -6 -7 1099.55 783.955 4
4 6 7 -87.5132 611.552 2
-4 -6 -8 86757.9 6689.76 4
-4 -6 -9 6394.25 1601.56 4
-4 -7 14 5546.87 1441.11 4
-4 -7 13 23496.5 3195.97 4
4 7 -12 4831.69 1452.83 8
-4 -7 12 3211.06 1105.41 4
-4 -7 11 4398.88 1462.09 4
4 7 -11 3569.31 1242.49 8
4 7 -10 3473.44 1156.3 8
-4 -7 10 3442.13 1379.64 4
4 7 -9 79815.8 6210.67 8
-4 -7 9 89458.5 7659.3 4
-4 -7 8 78033.6 7330.9 4
4 7 -8 61936 5382.62 8
4 7 -7 37976.9 4035.71 8
-4 -7 7 43668.6 5608.72 4
-4 -7 6 112191 10055.6 4
4 7 -6 94574 6911.07 8
-4 -7 5 1559.65 1406.74 4
4 7 -5 4737.53 1393.2 8
4 7 -4 2221.49 936.768 8
-4 -7 4 -884.135 1163.14 4
-4 -7 3 11793.2 3795 4
4 7 -3 7291.72 1615.29 8
4 7 -3 7039.08 1465.07 2
4 7 -2 51566.3 4676.06 8
4 7 -2 48965.6 4245.14 2
4 7 -1 11231.3 2078 8
-4 -7 1 13714.8 4242.73 4
4 7 -1 13335.1 2137.99 2
-4 -7 0 20884.5 5183.15 4
4 7 0 13372.3 2146.56 2
-4 -7 -1 27456.9 5564.93 4
4 7 1 23446 3027.7 2
-4 -7 -2 671.904 930.726 4
4 7 2 3245.07 1156.34 2
4 7 3 41745.7 4346.53 2
-4 -7 -3 37958.7 5994.06 4
-4 -7 -4 343.567 675.037 4
4 7 4 138.413 321.847 2
-4 -7 -5 7073.1 2145.61 4
4 7 5 6319.32 1716.52 2
-4 -7 -6 16675.1 3260.44 4
-4 -7 -7 23696.2 3585.61 4
-4 -7 -8 587.898 508.896 4
-4 -8 11 2440.73 1161.59 4
-4 -8 10 6061.08 1904.66 4
-4 -8 9 1634.58 870.487 4
4 8 -8 33530.1 3990.29 8
-4 -8 8 37202.6 5308.78 4
4 8 -7 31978.9 3904.56 8
-4 -8 7 41490.7 6012.88 4
-4 -8 6 63214.8 8000.53 4
4 8 -6 55575.1 5272.21 8
-4 -8 5 124973 12234.5 4
4 8 -5 95467.9 7309.95 8
4 8 -4 2383.46 1041.47 8
-4 -8 4 3783.66 2301.45 4
4 8 -3 16891.3 2750.15 8
-4 -8 3 27068.4 6212.96 4
4 8 -2 12167.8 2244.51 8
-4 -8 2 11982.3 4441.55 4
4 8 -2 9781.13 1900.22 2
4 8 -1 30729.1 3640.39 8
4 8 -1 23364.9 3132.33 2
-4 -8 0 19468.3 5264.35 4
4 8 0 8295.3 1808.77 2
-4 -8 -1 64487.4 9294.42 4
4 8 1 44839.7 4676.11 2
-4 -8 -2 9849.62 3317.81 4
4 8 2 8041.11 1930.18 2
-4 -8 -3 866.236 1002.53 4
4 9 -1 5739.98 1606.41 2
-5 12 0 3992.63 1253.56 6
-5 12 -1 17473.4 2548.32 6
-5 12 -2 22490.4 2876.58 6
-5 12 -3 35748.3 3626.98 6
-5 12 -4 895.095 668.568 6
-5 12 -5 5810.77 1367.76 6
-5 12 -6 19997.7 2515.64 6
5 -11 -4 2859.47 1199.55 3
-5 11 3 677.36 377.487 6
5 -11 -3 918.936 653.839 3
-5 11 2 6599.2 1610.96 6
5 -11 -2 9857.69 2024.6 3
-5 11 1 8348.32 1741.18 6
5 -11 -1 9971.38 2026.66 3
-5 11 0 16644.1 2475.52 6
5 -11 0 20274.4 2904.49 3
-5 11 -1 655.456 455.121 6
5 -11 1 1140.1 705.833 3
-5 11 -2 11453.3 1925.09 6
5 -11 2 10688.6 2064.19 3
-5 11 -3 26720.9 2959.26 6
5 -11 3 26848.6 3360.51 3
-5 11 -4 27475.6 2981.81 6
5 -11 4 31081.5 3639.64 3
-5 11 -5 7532.89 1489.68 6
5 -11 5 6302.2 1624.8 3
-5 11 -6 20552.9 2453.27 6
5 -11 6 25553.3 3420.93 3
-5 11 -7 6261.2 1336.95 6
5 -11 7 9939.95 2136.46 3
-5 11 -8 3676.18 909.664 6
-5 11 -9 30704.8 2971.75 6
5 -10 -7 18960.1 2956.83 3
5 -10 -6 29.9094 322.596 3
5 -10 -5 104363 6759.61 7
-5 10 5 101058 7713.75 6
5 -10 -5 112411 7642.47 3
-5 10 4 19919.8 2928.74 6
5 -10 -4 22207.5 3010.65 3
-5 10 3 36946.9 3964.03 6
5 -10 -3 41027.2 4090.83 3
-5 10 2 19276.7 2680.32 6
5 -10 -2 19284.2 2683.3 3
-5 10 1 8043.64 1622.47 6
5 -10 -1 8588.35 1734.53 3
-5 10 0 6010.61 1340.06 6
5 -10 0 5426.29 1403.27 3
-5 10 -1 41259.8 3759.36 6
5 -10 1 43570.9 4027.22 3
-5 10 -2 12701.7 1923.9 6
5 -10 2 17235.1 2396.6 3
5 -10 3 17599.3 2491.74 3
-5 10 -3 17289.5 2221.71 6
-5 10 -4 166.809 247.632 8
-5 10 -4 346.024 419.879 6
5 -10 4 539.395 380.844 3
-5 10 -5 21286.7 2426.61 6
5 -10 5 22450.5 2895.98 3
-5 10 -6 12081.7 1780.38 6
5 -10 6 10375.6 2023.7 3
-5 10 -7 21367.3 2391.32 6
5 -10 7 21254 2985.42 3
-5 10 -7 18674.5 2052.72 5
-5 10 -8 5.73512 187.704 6
5 -10 8 249.386 480.13 3
-5 10 -8 540.869 403.149 5
5 -10 9 1028.66 761.463 3
-5 10 -9 108.204 229.149 5
5 -10 10 31753 4006.35 3
-5 10 -10 22441.4 3092.13 5
-5 10 -11 50305.5 5212.38 5
-5 10 -12 13370.8 2840.03 5
-5 10 -13 66161.5 7080.53 5
5 -9 -9 1612.39 827.624 3
5 -9 -8 9106.04 1725.42 7
-5 9 8 11260.2 2587.1 6
5 -9 -8 11915.9 2190.51 3
5 -9 -7 -238.346 294.373 7
-5 9 7 547.421 566.303 6
5 -9 -7 -217.999 464.185 3
5 -9 -6 1866.18 716.954 7
-5 9 6 1893.16 899.042 6
5 -9 -6 2284.88 930.6 3
5 -9 -5 -47.1833 137.672 7
5 -9 -5 202.604 208.788 3
-5 9 4 104568 7250.1 6
5 -9 -4 112718 7203.93 3
5 -9 -3 17538.3 2369.13 3
-5 9 3 13539.1 2201.29 6
-5 9 2 125030 7681.08 6
5 -9 -2 128362 7625.8 3
-5 9 1 41208.2 4143.17 8
-5 9 1 53879.8 4302.94 6
5 -9 -1 53723.1 4335.43 3
-5 9 0 664.945 431.561 6
5 -9 0 466.816 473.048 3
-5 9 0 1021.25 718.587 8
-5 9 -1 2077.08 817.373 8
-5 9 -1 1939.6 671.939 6
5 -9 1 2958.02 923.398 3
-5 9 -2 58665.2 4290.4 6
5 -9 2 57619.7 4476.78 3
-5 9 -3 18028.6 2147.57 6
5 -9 3 19315.3 2436.69 3
-5 9 -3 18859.6 1232.47 5
-5 9 -4 75058.2 3799.62 8
-5 9 -4 76413.1 4880.46 6
5 -9 4 74119.3 5315.47 3
-5 9 -4 71833.7 3629.23 5
-5 9 -5 19466.8 1523.83 8
-5 9 -5 20420.2 2225.74 6
5 -9 5 21078.6 2654.12 3
-5 9 -5 18027.6 1674 5
-5 9 -6 23061.3 1673.4 8
-5 9 -6 23781.7 2413 6
5 -9 6 22744.9 2874.64 3
-5 9 -6 20737.5 2049.58 5
-5 9 -7 10396.2 1558.08 6
-5 9 -7 10051.5 1510.29 5
5 -9 7 12231.3 2071.59 3
-5 9 -8 14168.6 1841.04 6
5 -9 8 16410.5 2509.58 3
-5 9 -8 13916.9 2019.02 5
5 -9 9 4987.3 1478.54 3
-5 9 -9 4315.26 1227.76 5
5 -9 10 3537.02 1309.16 3
-5 9 -10 2552.93 843.187 5
5 -9 11 5851.88 1695.23 3
-5 9 -11 5237.23 1571.1 5
5 -9 12 30079.1 3926.27 3
-5 9 -12 18811.4 3468.58 5
-5 9 -13 19824.1 3759.02 5
-5 9 -14 61142.9 7351.57 5
5 -8 -10 27545.7 3157.91 7
-5 8 10 23786.6 4217.79 6
5 -8 -9 482.112 440.21 7
-5 8 9 2015.09 1179.89 6
5 -8 -8 257.582 346.064 7
-5 8 8 -324.455 416.691 6
5 -8 -7 8425.13 1514.17 7
-5 8 7 7694.21 1885.83 6
5 -8 -6 6039.29 1273.82 7
-5 8 6 4624.63 1431.85 6
5 -8 -6 2993.6 919.365 3
5 -8 -5 3074.65 880.322 7
-5 8 5 3262.7 1146.37 6
5 -8 -5 3604.51 1034.63 3
-5 8 4 205.766 265.005 6
5 -8 -4 235.155 308.315 3
-5 8 3 47041 4649.78 8
-5 8 3 56507.9 4500.3 6
5 -8 -3 55591.3 4294.36 3
-5 8 2 3389.66 1222.71 8
-5 8 2 2730.76 876.846 6
5 -8 -2 3419.41 952.664 3
-5 8 1 163712 8304.91 6
5 -8 -1 160223 8160.96 3
-5 8 0 32874.6 3040.95 6
5 -8 0 35542.9 3158.21 3
-5 8 -1 33267.3 3007.18 6
5 -8 1 37222.8 3228.86 3
-5 8 -2 24919.8 2451.14 6
5 -8 2 24092.9 2524.02 3
-5 8 -2 21852.1 2524.44 8
-5 8 -3 57770.6 3996.77 6
5 -8 3 61774.3 4354.78 3
-5 8 -3 55904.8 2871.91 5
-5 8 -3 51967.8 3934.94 8
-5 8 -4 10101.3 920.704 8
-5 8 -4 10517.7 1501.98 6
5 -8 4 12385.1 1823.12 3
-5 8 -4 10063.1 1108.32 5
-5 8 -4 9776.48 1402.72 8
-5 8 -5 88163.7 3862.79 8
-5 8 -5 90885.4 5246.29 6
-5 8 -5 84120.8 4616.23 5
-5 8 -5 76223.8 4553.09 8
-5 8 -6 43450.3 3305.98 6
5 -8 6 41231.2 3723.36 3
-5 8 -6 38744.2 2567.33 8
-5 8 -6 38687.5 3018.98 5
-5 8 -6 46101.3 2214.73 8
-5 8 -7 26325.9 2494.23 6
5 -8 7 25898.4 2942.91 3
-5 8 -7 27987.1 2672.89 5
-5 8 -8 756.941 330.592 6
5 -8 8 239.809 335.675 3
-5 8 -8 811.298 513.967 5
5 -8 9 4493.59 1262.87 3
-5 8 -9 3793.53 1032.78 5
5 -8 10 23014.9 3058.92 3
-5 8 -10 16695.3 2751.33 5
5 -8 11 3431.38 1168.17 3
-5 8 -11 1904.71 618.181 5
5 -8 12 477.363 546.493 3
-5 8 -12 -68.9593 354.548 5
5 -8 13 7361.51 1822.08 3
-5 8 -13 4480.97 1879.03 5
5 -8 14 17739.8 3067.13 3
-5 8 -14 13638 3355.49 5
5 -7 -11 52040.9 4429.6 7
-5 7 11 47026.3 5996.44 6
5 -7 -10 12480.3 1973.26 7
-5 7 10 11138.6 2715.09 6
5 -7 -9 107509 6470.53 7
-5 7 9 89012 7924.74 6
5 -7 -8 2692.12 826.819 7
-5 7 8 2117.17 1012.55 6
5 -7 -7 12271.4 1770.68 7
-5 7 7 11212.6 2188.14 6
5 -7 -6 -287.452 379.543 7
-5 7 6 451.92 686.259 6
5 -7 -5 22628.7 2322.28 7
-5 7 5 18778.4 2610.39 6
-5 7 4 486.695 398.689 8
-5 7 4 598.208 488.953 6
5 -7 -4 238.096 199.24 3
-5 7 3 13538.2 2385.1 8
-5 7 3 20328.9 2420.95 6
5 -7 -3 21662.9 2335.02 3
-5 7 2 4705.34 1374.99 8
-5 7 2 4305.74 1076.5 6
5 -7 -2 5262.2 1082.76 3
-5 7 1 3935.61 927.129 6
5 -7 -1 4266.39 935.177 3
-5 7 0 114249 6367.76 6
-5 7 0 102983 7072.83 8
-5 7 -1 20694.9 2557.17 8
-5 7 -1 25754.4 2429.67 6
5 -7 1 26524 2472.39 3
-5 7 -2 105428 5616.71 6
5 -7 2 104099 5721.79 3
-5 7 -2 94289.5 4243.89 5
-5 7 -2 92589.5 5799.9 8
-5 7 -3 58285.2 2697.97 8
-5 7 -3 66509.3 4080.83 6
5 -7 3 60480.9 4113.87 3
-5 7 -3 56926.3 3093.96 5
-5 7 -3 61969.9 3944.85 8
-5 7 -4 11815.2 768.152 8
-5 7 -4 10979.2 1462.55 6
5 -7 4 12448.9 1690.69 3
-5 7 -4 11073.5 1220.54 5
-5 7 -5 -9.08017 275.703 6
-5 7 -5 3.55233 100.376 5
5 -7 5 461.962 477.351 3
-5 7 -6 130618 6479.26 6
5 -7 6 118950 6864.68 3
-5 7 -6 111447 6147.53 5
-5 7 -7 48102.5 3451.46 6
5 -7 7 47160.5 3901.4 3
-5 7 -7 48180.6 3683.13 5
5 -7 8 66821.9 4920.08 3
-5 7 -8 59679.7 4650.21 5
5 -7 9 22902.3 2799.18 3
-5 7 -9 24568.8 3012.9 5
5 -7 10 8721.69 1752.87 3
-5 7 -10 4831.82 1428.77 5
5 -7 11 4029.78 1268.75 3
-5 7 -11 4140.35 1390.87 5
5 -7 12 -5.01514 242.727 3
-5 7 -12 -1072.63 1035.8 5
5 -7 13 12291.5 2421.98 3
-5 7 -13 12679.9 3040.38 5
5 -7 14 1968.02 1254.18 1
5 -7 14 552.849 248.687 3
5 -7 15 2389.46 1068.36 3
-5 6 13 -817.877 740.101 6
5 -6 -12 15341.9 2304.99 7
-5 6 12 12957.1 3118.33 6
5 -6 -11 9715.31 1743.04 7
-5 6 11 11266.6 2651.95 6
5 -6 -10 31966.9 3148.25 7
-5 6 10 25334.6 3994.26 6
5 -6 -10 29961.9 2443.15 5
5 -6 -9 32355.2 3026.07 7
-5 6 9 27250.3 3848.57 6
5 -6 -9 27689.6 2251.92 5
5 -6 -8 223003 10511.1 7
-5 6 8 216865 12492.2 6
5 -6 -7 999.022 486.642 7
-5 6 7 412.67 438.917 6
5 -6 -7 1204.75 471.557 2
5 -6 -6 82852.5 4982.35 2
5 -6 -6 86820.2 5138.47 7
-5 6 6 90362 6215.17 6
5 -6 -6 86240.1 3750.24 5
5 -6 -5 7551 1233.72 2
-5 6 5 8295.26 1966.41 8
5 -6 -5 11001.8 1492.92 7
-5 6 5 10419.3 1788.63 6
5 -6 -5 9455.01 775.273 5
5 -6 -5 7498.53 1363.88 1
-5 6 4 1435.5 729.714 8
5 -6 -4 2192.42 601.558 7
-5 6 4 1622.75 673.378 6
5 -6 -4 1924.12 675.974 1
5 -6 -4 1672.37 555.021 2
5 -6 -4 1771.81 307.27 5
-5 6 3 299.634 270.664 8
-5 6 3 664.846 441.503 6
5 -6 -3 207.485 144.446 2
5 -6 -3 379.765 151.191 5
-5 6 2 71699.7 4611.23 6
5 -6 -2 75774.8 4529.3 3
5 -6 -2 72927.2 3246.11 5
5 -6 -2 61808.1 4212.83 2
-5 6 1 1389.76 683.588 8
-5 6 1 2500.32 713.511 6
5 -6 -1 2265.62 681.434 2
5 -6 -1 2614.72 440.999 5
5 -6 -1 1664.68 560.994 3
-5 6 0 20918.6 2109.94 6
5 -6 0 21470.5 1979.71 6
5 -6 0 20965.1 2054.86 3
5 -6 0 21098.4 1534.09 5
-5 6 0 21488.1 2456.28 8
-5 6 -1 55718.3 3693.33 6
5 -6 1 54719.9 3529.56 6
5 -6 1 50520.9 3523.23 3
5 -6 1 56003.8 3067.75 5
-5 6 -1 59072.9 3796.7 8
-5 6 -2 12456.1 1493.4 6
5 -6 2 10603.6 1372.45 6
5 -6 2 12197.6 1511.6 3
-5 6 -2 9243.06 933.175 5
5 -6 2 10843.5 1214.15 5
-5 6 -2 11376.9 1137.63 8
-5 6 -3 136476 6898.64 6
5 -6 3 138491 6943.85 6
5 -6 3 147186 7140.68 3
-5 6 -3 139281 6194.44 5
5 -6 3 146405 6739.54 5
-5 6 -4 40248.4 2958.61 6
5 -6 4 38797.4 2950.27 6
5 -6 4 41396.6 3100.7 3
-5 6 -4 37674.7 2549.91 5
-5 6 -5 12366.8 1535.64 6
5 -6 5 14038.4 1671.99 6
5 -6 5 14122.5 1742.86 3
-5 6 -5 13923.1 1784.9 3
-5 6 -5 12630.7 1438.66 5
-5 6 -6 7286.97 1143.45 6
5 -6 6 6031.34 1132.31 3
-5 6 -6 7418.63 1180.42 5
5 -6 7 104463 6036.39 3
-5 6 -7 93882 5753.52 5
5 -6 8 28878 2913.93 3
-5 6 -8 29447.6 3032.04 5
5 -6 9 101874 6257.32 3
-5 6 -9 96347.3 6631.66 5
5 -6 9 83090.6 5595.56 4
5 -6 10 84472.2 5899.29 3
-5 6 -10 83156.7 6622.28 5
5 -6 10 82434.7 5400.98 4
5 -6 11 24310.6 3065.42 3
-5 6 -11 23050.3 3568.07 5
5 -6 12 1957.03 806.117 3
-5 6 -12 2272.1 1101.26 5
5 -6 13 1217.57 749.152 1
5 -6 13 1295.16 584.738 3
-5 6 -13 -53.0213 858.605 5
5 -6 14 13624.4 2656.34 3
-5 6 -14 10132.9 2895.68 5
5 -6 15 1613.21 1006.86 1
5 -6 15 1492.32 1133.01 3
-5 6 -15 2967.92 1846.78 5
5 -6 16 1199.02 817.558 3
-5 5 14 -294.088 923.469 6
5 -5 -13 13206.3 2182.4 7
-5 5 13 12275.6 2984.89 6
5 -5 -12 16068.3 2296.74 7
-5 5 12 9591.04 2729.38 6
5 -5 -11 17393 2301.02 7
-5 5 11 16990.1 3293.95 6
5 -5 -10 570.637 405.471 4
5 -5 -10 -166.584 335.203 7
-5 5 10 464.677 575.105 6
5 -5 -10 300.145 319.954 2
5 -5 -9 4987.55 982.609 4
5 -5 -9 3739.14 967.305 7
5 -5 -9 4214.81 872.615 2
-5 5 9 3565.64 1307.23 6
5 -5 -8 29513.2 2721.96 7
5 -5 -8 27988.9 2400.61 2
-5 5 8 29701.4 3551.41 6
5 -5 -8 33208.1 2800.08 4
5 -5 -7 148725 7220.68 2
5 -5 -7 164691 7747.64 7
-5 5 7 168094 9190.38 6
5 -5 -7 140384 7678.87 1
5 -5 -7 147037 7672.39 4
5 -5 -6 11913.2 1450.59 2
-5 5 6 16395.8 2224.99 6
5 -5 -6 11480.3 1576.34 1
5 -5 -6 11298.2 1481.1 7
-5 5 6 15843.7 2789.82 8
5 -5 -6 13399.7 1718.95 4
5 -5 -5 233428 10186.2 2
5 -5 -5 236716 10366.9 7
5 -5 -5 226778 10510.7 1
-5 5 5 269944 11692 6
5 -5 -5 236745 10955.7 4
-5 5 5 220113 12944.9 8
5 -5 -4 10936.4 1337.27 2
-5 5 4 9858.02 2065.86 8
5 -5 -4 13142.3 1486.28 7
5 -5 -4 12529.2 1555.9 1
-5 5 4 14190.1 1856.15 6
5 -5 -4 12314 1016.38 5
5 -5 -4 13216.7 1762.88 4
5 -5 -3 3644.75 521.417 5
5 -5 -3 2492.92 614.287 2
-5 5 2 1640.44 743.432 8
-5 5 2 999.037 457.426 6
5 -5 -2 967.353 439.593 2
5 -5 -2 1243.32 311.385 5
-5 5 1 135320 6683.65 6
5 -5 -1 133068 6324.88 6
5 -5 -1 132157 6472.23 3
5 -5 -1 128475 5570.81 5
-5 5 1 132752 6930.73 8
-5 5 0 2012.16 519.083 8
-5 5 0 1767.36 536.396 6
5 -5 0 1670.98 370.886 5
5 -5 0 1964 564.957 3
-5 5 -1 125049 5374.09 8
-5 5 -1 130759 6373.24 6
5 -5 1 124089 6173.81 6
5 -5 1 136104 6296.44 3
-5 5 -1 127192 5382.67 5
5 -5 1 121537 5582.59 5
-5 5 -2 3535.01 764.574 6
5 -5 2 2689.38 680.64 6
-5 5 -2 2857.03 507.667 5
5 -5 2 3588.15 643.532 5
5 -5 2 2686.26 641.826 3
-5 5 -3 5982.56 1000.65 6
5 -5 3 4057.36 833.79 6
-5 5 -3 6377.86 843.677 5
5 -5 3 5501.22 840.522 5
5 -5 3 5098.68 917.912 3
-5 5 -4 85432.8 4939.19 6
5 -5 4 87846.6 5042.69 6
5 -5 4 90819 4963.46 3
-5 5 -4 91159.6 4640.35 5
5 -5 4 95964.6 4844.78 5
-5 5 -5 17721.8 1804.91 6
5 -5 5 17379.2 1889.23 6
5 -5 5 16300.3 1765 3
-5 5 -5 18003.5 1930.24 3
-5 5 -5 16005.1 1643.94 5
5 -5 5 17078.6 1757.57 5
5 -5 5 11242.8 1766.37 4
5 -5 6 37093 2967.9 6
5 -5 6 37735.2 2920.38 3
-5 5 -6 34465.3 2931.55 3
-5 5 -6 34102.3 2754.72 5
5 -5 6 36425.7 2814.43 5
5 -5 6 27303.9 2775.63 4
5 -5 7 18573 2028.47 3
-5 5 -7 18207.4 2130.64 3
-5 5 -7 17613.7 2057.06 5
5 -5 7 11259.7 1681.83 4
5 -5 8 25285.3 2560.01 3
-5 5 -8 25531.2 2729.15 3
-5 5 -8 22721.1 2617.05 5
5 -5 8 21014.7 2361.36 4
5 -5 9 12598.6 1844.93 3
-5 5 -9 14571.5 2262.17 5
5 -5 9 11155.9 1708.94 4
5 -5 10 166199 6688.16 8
5 -5 10 169508 9205.5 3
-5 5 -10 165273 10158.5 5
5 -5 10 168444 8678.24 4
5 -5 11 75426.8 6005.16 3
-5 5 -11 87631.3 7407.51 5
5 -5 11 98636.5 5903.42 4
5 -5 12 48290.7 4718.35 3
-5 5 -12 47707.8 5679.89 5
5 -5 13 26078.8 3548.48 3
5 -5 13 33806 4475.51 1
-5 5 -13 22313.5 4068.88 5
5 -5 14 2766.12 1176.09 2
5 -5 14 392.348 816.321 1
5 -5 14 572.732 300.999 3
-5 5 -14 1411.09 1067.78 5
5 -5 15 2639.16 1194.65 2
5 -5 15 849.227 888.033 3
-5 5 -15 4222.58 1860.74 5
5 -5 15 2970.63 1319.28 1
5 -5 16 10017.6 2584.22 3
-5 4 16 45568.3 5921.39 6
-5 4 15 26061.6 4436.45 6
5 -4 -15 22424.9 2712.21 5
5 -4 -14 32803.6 3701.47 7
-5 4 14 28164 4572.67 6
5 -4 -13 21471.9 2817.84 7
-5 4 13 17984.2 3426.4 6
5 -4 -12 9538.02 1770.65 7
-5 4 12 6008.59 1993.54 6
5 -4 -11 8959.58 1834.99 8
5 -4 -11 7085.35 1106.63 4
5 -4 -11 8484.19 1550.21 7
-5 4 11 4937.69 1647.56 6
5 -4 -10 11213.5 2014.94 8
5 -4 -10 9023.99 1532.91 7
-5 4 10 4854.26 1647.76 6
5 -4 -10 7558.87 1099.24 2
5 -4 -10 9178.32 1301.56 4
5 -4 -9 5555.13 1399.08 8
5 -4 -9 5884.87 1051.68 4
5 -4 -9 6254.5 1220.64 7
-5 4 9 4669.49 1408.17 6
5 -4 -9 5134.03 867.299 2
5 -4 -9 5696.56 1213.74 1
5 -4 -8 3230.57 1017.27 8
5 -4 -8 2729.14 745.685 4
5 -4 -8 2548.74 746.962 7
-5 4 8 2234.08 877.457 6
5 -4 -8 1811.53 586.95 1
5 -4 -8 2716.06 593.231 2
-5 4 7 15052.6 2764.11 8
5 -4 -7 16059.7 1548.86 2
5 -4 -7 19565.6 1977.9 7
-5 4 7 17061 2332.33 6
5 -4 -7 15763.5 1827.04 1
5 -4 -7 16884.2 1919.38 4
5 -4 -7 23115.4 2666.06 8
5 -4 -6 73654.3 4234.56 7
5 -4 -6 66038.9 3747.23 2
-5 4 6 76272.9 4993.18 6
5 -4 -6 66412.7 4163 1
5 -4 -6 68558 4439.6 4
5 -4 -6 79407 5185.58 8
-5 4 6 65976 5893.33 8
5 -4 -5 35745.8 2441.7 2
5 -4 -5 38423 2718.08 7
-5 4 5 42293.8 3318.02 6
5 -4 -5 35597.6 2661.93 1
5 -4 -5 37552.7 3089.42 4
5 -4 -5 42427.1 3419.72 8
-5 4 5 37016.3 3911.84 8
5 -4 -4 309761 13051 2
5 -4 -4 355309 13423.4 7
5 -4 -4 307084 13253.1 1
-5 4 4 356061 14230.9 6
5 -4 -4 374817 14513.2 8
5 -4 -4 303224 14058.4 4
5 -4 -3 654.368 349.598 4
5 -4 -3 415.706 363.523 8
-5 4 3 138.791 182.539 8
5 -4 -3 -100.428 201.885 7
-5 4 3 42.5042 238.599 6
5 -4 -3 487.56 262.047 2
5 -4 -3 245.923 173.741 5
-5 4 2 95526 5389.48 8
-5 4 2 103206 5377.18 6
5 -4 -2 104033 5030.26 6
5 -4 -2 101376 4492.25 5
5 -4 -2 85979.8 5580.84 4
5 -4 -2 107139 5288.72 8
-5 4 1 35249.5 2615.03 6
5 -4 -1 35514.5 2328.48 8
5 -4 -1 35279.5 2083.95 5
-5 4 1 33702.1 2383.54 8
-5 4 0 45195.6 2534.06 8
5 -4 0 49331.8 2549.55 8
-5 4 0 49253.8 3170.48 6
5 -4 0 50524.1 3035.09 3
5 -4 0 45960.4 2602.38 5
-5 4 -1 4683.99 486.517 8
-5 4 -1 4904.92 873.317 6
5 -4 1 6532.05 916.222 3
-5 4 -1 4663.05 642.419 5
5 -4 1 4408.92 673.965 5
-5 4 -2 197514 8679.22 6
5 -4 2 200548 8506.17 3
-5 4 -2 197894 8116.72 5
5 -4 2 186381 8194.35 5
5 -4 2 182001 9293.42 4
5 -4 3 184.667 245.359 4
-5 4 -3 1.84258 159.425 6
-5 4 -3 247.568 154.937 5
5 -4 3 106.367 80.7696 5
5 -4 3 324.612 219.621 3
-5 4 -4 56849.8 3679.95 6
5 -4 4 59522.4 3877.86 6
5 -4 4 64226.8 3680.95 3
-5 4 -4 63072.3 3555.11 5
5 -4 4 66172 3644 5
5 -4 4 55949.5 4188.11 4
5 -4 5 10146.2 1486.28 6
5 -4 5 11571 1382.43 3
-5 4 -5 11261.4 1417.22 3
-5 4 -5 10649.1 1357.14 5
5 -4 5 14822.5 1521.55 5
5 -4 5 11595.2 1676.94 4
5 -4 6 1481.02 629.908 4
5 -4 6 1468.34 472.829 6
5 -4 6 2256.55 627.776 3
-5 4 -6 2079.95 650.774 5
5 -4 6 1433.56 476.097 5
-5 4 -6 1860.78 579.134 3
5 -4 7 50691.6 3568.31 3
5 -4 7 51697.7 3807.65 6
-5 4 -7 47486.6 3552.73 3
-5 4 -7 53742.6 3825.73 5
5 -4 7 54871.2 3628.04 5
5 -4 7 42674.9 3593.68 4
5 -4 8 13732.7 1005.51 8
5 -4 8 11184.4 1604.58 3
-5 4 -8 12526.5 1758.88 3
-5 4 -8 12887.6 1884.2 5
5 -4 8 13327.6 1842.14 4
5 -4 9 596.737 251.561 4
5 -4 9 334.542 211.401 8
5 -4 9 145.876 178.754 3
-5 4 -9 -106.687 474.918 5
5 -4 9 1034.43 636.568 1
-5 4 -9 913.141 451.094 3
5 -4 10 1658.03 643.25 4
5 -4 10 634.368 298.152 8
5 -4 10 2402.36 1128.08 1
5 -4 10 1572.78 739.377 3
-5 4 -10 1479.46 657.882 5
-5 4 -10 1127.72 462.06 3
5 -4 11 104085 7322.34 3
-5 4 -11 108204 8325.55 5
5 -4 11 123812 6780.44 4
5 -4 12 50533.1 5285.75 1
5 -4 12 36356.7 4143.74 3
5 -4 12 45716.1 4841.13 2
-5 4 -12 34108.7 4583.65 5
5 -4 13 73095.2 6866.96 1
5 -4 13 76909.8 6615.14 3
5 -4 13 80405.2 6884.58 2
-5 4 -13 65850.2 7034.59 5
5 -4 14 88725.4 7773.56 1
5 -4 14 80478.2 7254.51 3
5 -4 14 79777.3 7118.8 2
-5 4 -14 75966.6 7919.77 5
5 -4 15 824.52 481.241 2
5 -4 15 864.943 717.71 1
-5 4 -15 -58.1705 365.396 5
-5 3 17 4275.35 1684.27 6
5 -3 -17 4249.8 1254.05 5
-5 3 16 14695.9 3196.2 6
5 -3 -15 38044.1 4298.21 8
-5 3 15 29941.8 4621.37 6
-5 3 14 14943.7 3071.71 6
5 -3 -14 21935.6 3155.92 8
-5 3 13 63674.8 6774.45 6
5 -3 -13 95857.7 6817.45 8
5 -3 -12 59818.1 4857.48 7
-5 3 12 54455.4 5822.39 6
5 -3 -12 68139.6 5581.13 8
5 -3 -11 22428.6 2962.94 8
5 -3 -11 24788.8 2753.84 7
-5 3 11 18202 3042.53 6
5 -3 -11 21518 1839.06 2
5 -3 -11 21695.3 1978.29 4
5 -3 -10 1956.68 569.476 4
5 -3 -10 1839.46 482.117 2
5 -3 -10 2312.75 962.235 8
5 -3 -10 2895.37 910.768 1
5 -3 -10 1999.79 736.894 7
-5 3 10 2429.61 994.684 6
5 -3 -9 3882.85 660.896 2
5 -3 -9 5157.31 1294.72 8
5 -3 -9 6522.52 1077.11 4
5 -3 -9 7078.95 1289.47 7
-5 3 9 5760.79 1369.35 6
5 -3 -9 3721.94 948.812 1
5 -3 -8 29926.7 2622.02 7
5 -3 -8 29082.4 3126.69 8
5 -3 -8 27735.3 1895.24 2
-5 3 8 28569.6 3009.66 6
5 -3 -8 26402.4 2496.21 1
5 -3 -8 29140.3 2494.41 4
5 -3 -7 10951.3 1717.17 8
-5 3 7 7310.66 1728.9 8
5 -3 -7 7975.35 885.655 2
5 -3 -7 9912.43 1357.8 7
-5 3 7 9403.97 1530.12 6
5 -3 -7 8823.19 1265.66 1
5 -3 -7 7451.36 1221.43 4
5 -3 -6 1653.49 543.094 4
5 -3 -6 1054.58 468.888 8
-5 3 6 2594.05 1030.76 8
5 -3 -6 1793.57 518.304 7
-5 3 6 1616.37 548.15 6
5 -3 -6 1586.57 472.357 1
5 -3 -6 1429.48 369.895 2
-5 3 5 10043.8 1715.66 8
5 -3 -5 10194.8 1008.02 2
5 -3 -5 13047.9 1401.09 7
-5 3 5 11125 1458.19 6
5 -3 -5 10961.6 1224.49 1
5 -3 -5 9678.4 1450.65 4
5 -3 -5 10877.9 1640.78 8
5 -3 -4 22193.7 1766.65 7
-5 3 4 20601.9 1945.64 6
5 -3 -4 19366.6 1577.59 1
5 -3 -4 20246.9 2142.43 4
5 -3 -4 20369.7 2190.25 8
5 -3 -4 18132.7 1470.49 2
5 -3 -3 239824 9541.44 7
5 -3 -3 224838 9246.48 1
-5 3 3 251929 10163.7 6
5 -3 -3 241293 9623.69 6
5 -3 -3 226226 10630.1 4
5 -3 -3 234230 10449.2 8
5 -3 -2 2985.55 786.978 4
5 -3 -2 4482.57 844.395 8
-5 3 2 2371.24 569.758 8
-5 3 2 2750.86 618.322 6
5 -3 -2 2682.9 556.5 6
5 -3 -2 2660.23 484.234 5
-5 3 1 319845 12725.5 8
-5 3 1 328515 13246.6 6
5 -3 -1 320779 13019.8 6
5 -3 -1 336055 12667.4 5
5 -3 -1 327362 13218.9 8
-5 3 0 37581.9 2088.92 8
-5 3 0 41448.6 2738.67 6
5 -3 0 37325.1 2409.71 8
5 -3 0 40516.9 2352.47 5
5 -3 1 2694.21 470.907 8
-5 3 -1 2654.53 634.838 6
-5 3 -1 3211.43 544.849 5
5 -3 1 2886.61 541.684 5
5 -3 1 2935.7 565.288 3
-5 3 -2 22716.8 1968.51 6
5 -3 2 25429.8 1838.38 3
-5 3 -2 24530.9 1775.16 5
5 -3 2 23849.4 1802.89 5
5 -3 2 21564.9 1385.11 8
5 -3 2 22283.6 2396 4
-5 3 -3 212725 10008.3 6
5 -3 3 244095 9789.74 3
-5 3 -3 230285 9782.67 5
5 -3 3 247732 9877.48 5
5 -3 3 231540 11079.2 4
5 -3 3 241201 8812.93 8
5 -3 4 466.341 119.15 8
5 -3 4 455.452 338.69 4
5 -3 4 365.019 118.67 8
-5 3 -4 225.184 247.28 5
5 -3 4 709.584 336.398 3
5 -3 4 1092.43 417.745 5
5 -3 5 246795 8576.18 8
5 -3 5 203822 10660.4 4
5 -3 5 240606 10571.9 6
5 -3 5 250837 9894.16 3
-5 3 -5 239572 10188.8 5
5 -3 5 243355 10139.1 5
5 -3 5 203412 8675.28 8
5 -3 6 189.323 298.206 4
5 -3 6 752.706 235.39 8
5 -3 6 1752.28 604.246 6
5 -3 6 1844.18 534.281 3
-5 3 -6 1486.37 547.677 5
5 -3 6 703.495 280.412 5
5 -3 7 12314.1 1763.53 4
5 -3 7 13536.2 1621.13 3
5 -3 7 13932.8 1848.89 6
-5 3 -7 12236.6 1684.8 5
5 -3 7 12849.9 1543.86 5
5 -3 7 12419.7 2007.69 1
5 -3 7 10994.6 1110.2 8
5 -3 8 31809.5 3510.02 1
5 -3 8 31770.4 2814.14 3
5 -3 8 28205.7 2118.33 8
-5 3 -8 27729 2531.21 3
-5 3 -8 30755.6 2982.87 5
5 -3 8 29047.3 2783.23 4
5 -3 9 964.841 410.456 8
5 -3 9 476.356 309.278 4
5 -3 9 550.977 258.38 1
5 -3 9 624.499 494.22 3
-5 3 -9 1757.48 740.399 5
5 -3 10 16661.2 2753.72 1
5 -3 10 14672.8 2164.52 3
-5 3 -10 13965.8 2059.83 3
5 -3 10 20475.4 3001.5 2
-5 3 -10 15986.1 2505.82 5
5 -3 10 15775.2 1896.23 4
5 -3 10 15233.1 1716.09 8
5 -3 11 176.889 238.069 8
5 -3 11 -384.213 411.549 4
5 -3 11 489.417 322.056 2
5 -3 11 424.589 702.951 1
5 -3 11 493.046 340.377 3
-5 3 -11 321.988 704.245 5
-5 3 -11 -935.748 574.1 3
5 -3 12 27073.5 3821.36 1
5 -3 12 26472.3 3556.09 3
5 -3 12 30982.1 3920.04 2
-5 3 -12 27217.7 3897.67 5
5 -3 13 14281.9 2731.2 1
5 -3 13 14214.7 2731.09 2
5 -3 13 16454.4 2914.43 3
-5 3 -13 14028 2947.72 5
5 -3 14 92760.8 7650.16 2
-5 3 -14 89812.8 8357.76 5
5 -3 14 91047.6 7974.32 1
5 -3 15 58607.3 5860.9 2
-5 3 -15 49543 6275.62 5
5 -3 15 48868.7 5822.93 1
-5 2 17 22821.4 3792.49 6
-5 2 17 16202.2 3338.05 1
-5 2 16 32281.6 4497.8 6
-5 2 16 22791.4 3840.17 1
5 -2 -15 16136.4 2743.45 8
-5 2 15 17959.2 3281.63 6
-5 2 15 13614 2769.63 1
5 -2 -14 14902.3 2527.04 8
-5 2 14 11803.5 2643.9 6
-5 2 14 9570.93 2278.16 1
5 -2 -13 3856.07 1217.13 8
-5 2 13 3440.19 1335.23 6
-5 2 13 4382.87 1442.91 1
-5 2 12 129301 8695.91 1
-5 2 12 124414 8853.03 6
5 -2 -12 148307 8769.08 8
-5 2 11 83492.3 6189.83 1
-5 2 11 75832.6 6178.74 6
5 -2 -11 88260.9 6224.47 8
5 -2 -10 61677.1 3803.9 4
5 -2 -10 64167.9 4667.89 7
-5 2 10 66707.8 5015.48 1
-5 2 10 63286.2 5056.49 6
5 -2 -10 62892.3 4527.85 1
5 -2 -10 60967.8 4966.61 8
-5 2 9 71457.7 4914.75 1
5 -2 -9 79021.2 4983.43 7
5 -2 -9 67410.2 4612.59 1
-5 2 9 69701.5 5018.67 6
5 -2 -9 70177.6 3287.68 2
5 -2 -9 70082.6 5249.82 8
5 -2 -9 75149.7 4319.75 4
5 -2 -8 2422.75 378.139 2
5 -2 -8 2552.66 823.862 8
5 -2 -8 2889.59 701.145 4
5 -2 -8 2871.93 792.56 7
-5 2 8 2467.45 757.9 6
-5 2 8 2765.06 1059.77 8
5 -2 -8 2260.31 664.013 1
5 -2 -7 10245.4 1673.93 8
-5 2 7 10102.6 1873.05 8
5 -2 -7 10545.8 1383.23 1
5 -2 -7 7790.43 1226.86 7
5 -2 -7 9595.11 760.621 2
-5 2 7 9699.23 1416.23 6
5 -2 -7 9310.67 1351.23 4
5 -2 -6 437.068 202.11 8
5 -2 -6 1154.79 441.927 4
-5 2 6 1512.26 712.469 8
5 -2 -6 2061.41 582.404 7
-5 2 6 1265.17 503.625 6
5 -2 -6 771.528 342.844 1
5 -2 -6 879.282 223.667 2
-5 2 5 55730.2 4023.7 8
5 -2 -5 51615.2 2506.91 2
-5 2 5 51888.1 3320.12 6
5 -2 -5 55113.7 3281.59 7
5 -2 -5 60922.1 3874.82 4
5 -2 -5 54792.1 3880.66 8
5 -2 -5 49584.1 2937.18 1
5 -2 -4 10660.5 1154.05 7
-5 2 4 10144.1 1206.8 6
5 -2 -4 10706.1 1087.62 6
5 -2 -4 9448.25 927.785 1
5 -2 -4 9618.45 857.153 2
5 -2 -4 9621.75 1435.8 4
5 -2 -4 8913.19 1357.99 8
-5 2 3 809.109 530.191 4
5 -2 -3 683.961 339.614 8
5 -2 -3 468.97 274.689 4
-5 2 3 490.346 363.453 8
5 -2 -3 940.37 231.942 1
5 -2 -3 271.952 162.164 7
-5 2 3 273.755 158.589 6
5 -2 -3 723.393 276.16 6
-5 2 2 203311 8626.21 8
5 -2 -2 215280 8219.41 7
5 -2 -2 196421 7682.85 1
-5 2 2 213230 8757.14 6
5 -2 -2 198520 8433.53 6
5 -2 -2 202744 8398.36 5
-5 2 2 215583 10223.7 4
5 -2 -2 190166 8812.98 8
5 -2 -1 19051.7 1672.71 8
-5 2 1 18045.7 1454.8 8
5 -2 -1 19768.4 1356.46 7
-5 2 1 20019 1722.67 6
5 -2 -1 20085.6 1662.17 6
5 -2 -1 21095.9 1605.61 5
-5 2 1 22651.5 2456.34 4
5 -2 0 237112 9928.41 8
-5 2 0 260656 10365.3 6
5 -2 0 247333 10252.7 6
5 -2 0 252345 9992.9 5
-5 2 0 232364 11390.6 4
5 -2 1 7308.58 821.625 8
-5 2 -1 7204.12 1353.09 4
-5 2 -1 7202.84 991.868 6
5 -2 1 5414.95 883.419 6
5 -2 1 6775.07 788.933 3
5 -2 1 5910.96 817.204 5
5 -2 2 38605.9 2354.93 8
-5 2 -2 45277.9 2930.65 6
5 -2 2 45278.9 3047.1 6
5 -2 2 45797.7 2503.85 3
-5 2 -2 44566.7 2674.72 5
5 -2 2 44992.4 2703.19 5
-5 2 -2 48563.7 3595.7 4
5 -2 2 43072.2 3601.91 4
5 -2 3 55903 2839.17 8
5 -2 3 55167.4 4177.06 4
5 -2 3 60466.1 3940.86 1
5 -2 3 58710.5 3071.28 3
-5 2 -3 59191.5 3369.91 5
5 -2 3 54438.9 3243.54 5
-5 2 -3 70234.1 4380.44 4
5 -2 4 157342 8170.35 1
5 -2 4 157188 6762.17 3
-5 2 -4 157941 7222.3 5
5 -2 4 163438 7176.52 5
5 -2 4 150089 8179.83 4
5 -2 5 725.798 436.726 4
5 -2 5 1603.97 695.615 1
5 -2 5 874.801 432.019 6
5 -2 5 701.99 288.821 3
-5 2 -5 1069.87 374.029 5
5 -2 5 2127.76 569.665 5
5 -2 6 259650 12764.1 1
5 -2 6 264720 12035.4 6
5 -2 6 276478 11206.2 3
-5 2 -6 252986 10654.5 3
-5 2 -6 276602 11617.3 5
5 -2 6 284786 11379.1 5
5 -2 6 265784 10405.2 8
5 -2 6 235237 11857.7 4
5 -2 7 5141.16 1303.28 2
5 -2 7 5860.18 1153.1 4
-5 2 -7 5318.83 868.322 3
5 -2 7 4510.24 1202.31 1
5 -2 7 6504.44 1129.21 3
-5 2 -7 7512.8 1273.4 5
5 -2 7 5920.58 813.327 8
5 -2 8 54016 3949.66 4
5 -2 8 59900.1 4984.52 1
5 -2 8 58752 4087.22 3
5 -2 8 51412 3258.07 8
5 -2 8 57799.6 5067.48 2
-5 2 -8 55239.6 4171.32 5
5 -2 9 1328.69 438.017 8
5 -2 9 1607.94 593.125 4
5 -2 9 1586.09 731.57 2
5 -2 9 1198.74 785.907 1
5 -2 9 1983.69 732.573 3
-5 2 -9 2640.96 895.234 5
5 -2 10 7524.15 1823.8 1
5 -2 10 6746.95 1184.64 4
5 -2 10 6893.29 1367.01 7
5 -2 10 7826.22 1630.4 3
5 -2 10 7888.41 1842.94 2
-5 2 -10 7065.34 1689.24 5
-5 2 -10 6771.56 1295.63 3
5 -2 10 7113.07 1207.6 8
5 -2 11 27241.5 2368.04 4
5 -2 11 26284.2 3273.21 3
5 -2 11 20777.4 2594.86 7
5 -2 11 24800.3 3464.62 2
-5 2 -11 21046.3 2664.58 3
-5 2 -11 23439.7 3225.42 5
5 -2 11 22800.9 3322.09 1
5 -2 11 24488.7 2451.22 8
5 -2 12 5099.05 1606.42 2
-5 2 -12 4053.94 1430.92 5
5 -2 12 3307.26 1352.4 1
5 -2 13 2076.59 1111.37 2
5 -2 13 1279.19 1058.78 1
-5 2 -13 2293.54 1238.81 5
5 -2 14 8641.02 2106.19 2
5 -2 14 6653.01 2056.86 1
-5 2 -14 6240.97 1993.87 5
5 -2 15 46661.3 5337.46 2
-5 2 -15 46828.5 5782.8 5
5 -2 15 52637.4 6024.91 1
-5 1 18 13185.3 2974.3 1
-5 1 17 13524.8 2901.78 1
-5 1 16 8326.46 2184.94 6
-5 1 16 5543.19 1717.6 1
-5 1 15 36169.3 4616.1 1
-5 1 15 49822.1 5261.05 6
5 -1 -15 42210.6 4504.26 8
-5 1 14 22960.9 3355.82 6
-5 1 14 17982 3063.8 1
5 -1 -14 17822.2 2769.97 8
5 -1 -13 -28.2536 353.432 8
-5 1 13 275.381 516.738 6
-5 1 13 220.744 384.353 1
5 -1 -12 2824.71 1000.7 8
-5 1 12 1367.59 652.01 6
-5 1 12 2497.52 1122.43 1
5 -1 -11 90407.4 4958.78 4
-5 1 11 100605 6733.5 1
-5 1 11 90234.2 6103.53 6
5 -1 -11 99899.5 6679.41 8
5 -1 -10 63949.7 3980.94 4
-5 1 10 68040.7 5052.35 1
-5 1 10 66650.1 4650.08 6
5 -1 -10 69786.3 5228.43 8
5 -1 -9 153351 7393.88 4
-5 1 9 148450 8270.44 7
-5 1 9 154441 8097.21 1
-5 1 9 151131 7738.93 6
5 -1 -9 161725 8700.28 8
5 -1 -8 158309 7727.91 4
-5 1 8 151390 8094.94 7
-5 1 8 160190 9236.67 8
-5 1 8 164726 7887.84 1
-5 1 8 158653 7680.64 6
5 -1 -8 146377 8426.22 8
-5 1 7 1817.49 660.149 4
5 -1 -7 1863.98 713.225 8
-5 1 7 4410.29 1157.66 8
5 -1 -7 2204.84 633.593 4
-5 1 7 3074.95 768.056 7
5 -1 -7 2215.16 652.384 7
-5 1 7 2821.28 668.777 6
-5 1 7 2275.9 633.657 1
-5 1 6 9387.29 1531.95 8
-5 1 6 7969.69 1451.33 4
5 -1 -6 6617.5 1268.78 8
5 -1 -6 6817.66 1156.61 4
-5 1 6 7241.55 1063.27 7
5 -1 -6 6453.74 1059.18 7
-5 1 6 7747.9 1046.63 6
5 -1 -5 13115 1628.95 4
-5 1 5 11200.6 1577.62 8
5 -1 -5 10365 632.051 2
5 -1 -5 11786 1352.03 7
-5 1 5 11729.7 1250.05 6
5 -1 -5 10570.3 680.213 2
-5 1 5 12057.9 1793.96 4
5 -1 -5 12258.7 1665.24 8
5 -1 -4 62824.8 4023.58 8
5 -1 -4 62668.9 3497.66 7
-5 1 4 64878.2 3531.52 6
5 -1 -4 62347.5 3208.56 6
5 -1 -4 61120.3 2987.28 2
-5 1 4 69760.8 4796.86 4
5 -1 -4 64236.4 4184.87 4
5 -1 -3 29293.6 2387.79 8
5 -1 -3 30319.1 1984.27 7
-5 1 3 28647.4 2055.86 6
5 -1 -3 27070.9 1879.03 6
-5 1 3 29465.4 2890.48 4
5 -1 -3 29768.9 2655.54 4
5 -1 -2 30869.3 2383.73 8
-5 1 2 26970.2 2089.07 8
5 -1 -2 34702.6 1951.67 7
-5 1 2 34083.1 2269.59 6
5 -1 -2 30147.4 2062.37 6
5 -1 -2 35439.7 2284.77 5
-5 1 2 30818.5 3037.6 4
5 -1 -1 34660 2472.73 8
5 -1 -1 36606.1 1892.65 7
-5 1 1 33708.4 2340.06 6
5 -1 -1 37712.8 2381.7 6
5 -1 -1 36373.5 2356.02 5
-5 1 1 30462.8 3015.04 4
5 -1 0 6762.04 932.488 8
-5 1 0 5405.42 1166.32 4
5 -1 0 5915.36 542.627 7
5 -1 0 5651.63 1024.78 2
-5 1 0 6297.33 882.684 6
5 -1 0 6972.7 970.427 6
5 -1 0 6205.38 518.339 1
5 -1 1 168977 7486.9 8
5 -1 1 172854 7834.44 6
5 -1 1 171388 8622.01 2
5 -1 1 179562 7075.82 1
-5 1 -1 165536 8650.67 4
-5 1 -2 167.35 158.536 4
5 -1 2 461.59 440.361 4
5 -1 2 62.2343 109.816 8
5 -1 2 195.748 237.59 2
5 -1 2 750.311 375.255 6
-5 1 -2 102.24 159.632 5
5 -1 2 228.884 216.677 1
5 -1 2 190.997 142.017 3
5 -1 3 115544 6081.15 6
5 -1 3 118859 4983.55 3
5 -1 3 114376 6914.67 2
-5 1 -3 120050 5648.09 5
5 -1 3 125645 5977.66 1
-5 1 -3 122895 6491.69 4
5 -1 4 23049.3 2540.14 4
5 -1 4 24012.5 2339.12 6
5 -1 4 26372.4 1703.65 3
5 -1 4 28932 3049.73 2
-5 1 -4 26206.9 2123.9 5
5 -1 4 28092 2481.1 1
-5 1 -4 27698.6 2501.93 4
5 -1 5 39550.8 3478.09 4
5 -1 5 45712.5 3465.13 6
5 -1 5 44347.3 2643 3
5 -1 5 43892.1 4056.98 2
-5 1 -5 42658.9 3022.03 5
5 -1 5 44690.7 2978.8 5
5 -1 5 43215.7 3522.24 1
-5 1 -5 46916.9 3387.78 4
5 -1 6 16814.9 2142.61 4
5 -1 6 19175.8 1838.96 7
5 -1 6 20206.7 1812.58 3
5 -1 6 19586.9 2264.09 6
5 -1 6 22294.5 2854.91 2
-5 1 -6 20579.1 2054.86 5
5 -1 6 22832.3 2040.17 5
5 -1 6 23856.8 2653.98 1
-5 1 -6 21447.8 2120.5 4
5 -1 7 208267 10198.7 4
5 -1 7 198654 9550.27 7
5 -1 7 224351 9848.88 3
5 -1 7 211922 11655.1 2
-5 1 -7 208091 8719.97 3
-5 1 -7 221291 10148.5 5
5 -1 7 236228 11487.4 1
-5 1 -7 241526 10080.2 4
5 -1 8 11072.3 1593.89 4
5 -1 8 13973.6 2355.02 2
5 -1 8 13288.9 1794.87 3
5 -1 8 10877.7 1495.2 7
-5 1 -8 11804.7 1221.05 3
-5 1 -8 13037.1 1830.04 5
5 -1 8 10760 1996.62 1
5 -1 8 11272.6 1304.87 8
5 -1 9 122932 6447.57 4
5 -1 9 113510 6441.38 7
5 -1 9 132902 8466.63 2
-5 1 -9 114263 5777.78 3
-5 1 -9 119865 7178.88 5
5 -1 9 132496 8338.43 1
5 -1 9 109590 5872.9 8
5 -1 10 3237.51 780.343 8
5 -1 10 4462.79 952.605 4
5 -1 10 4426.78 1046.18 7
5 -1 10 4592.35 1342.18 1
-5 1 -10 4475.56 1242.91 5
-5 1 -10 5095.86 971.717 3
5 -1 10 6923.47 1677.92 2
5 -1 11 -224.347 430.718 2
5 -1 11 -146.364 285.937 8
5 -1 11 -249.123 174.488 7
5 -1 11 -23.5403 300.27 1
-5 1 -11 278.83 360.313 5
5 -1 12 1594.87 786.97 2
5 -1 12 766.604 485.64 1
-5 1 -12 653.445 515.761 5
5 -1 13 12060.3 2679.06 1
5 -1 13 15641.6 2870.65 2
-5 1 -13 13711.9 2686.84 5
5 -1 14 7632.17 1998.07 2
5 -1 14 5162.9 1776.37 1
-5 1 -14 3189.08 1339.88 5
5 -1 15 5737.12 1960.29 1
-5 0 18 1830.14 1130.82 1
-5 0 17 27524.1 4019.79 1
5 0 -16 -229.658 451.299 8
-5 0 16 -163.921 370.72 1
5 0 -15 7094.14 1763.14 8
-5 0 15 3514.08 1276.79 6
-5 0 15 6292.37 1761.17 1
-5 0 14 33698.3 3592.19 6
-5 0 14 27243.1 3706.35 1
5 0 -14 30068.4 3680.34 8
-5 0 13 12153.4 2276.8 1
5 0 -13 10349.1 2006 8
-5 0 13 9503.68 1717.46 6
-5 0 12 15687.4 2058.07 6
-5 0 12 19393.1 2780.73 1
5 0 -12 16819.3 2539.01 8
-5 0 11 2977.74 900.946 1
-5 0 11 4553.25 1044.33 4
5 0 -11 2252.8 787.04 8
-5 0 11 3600.96 874.364 6
-5 0 10 32439.7 2668.15 6
-5 0 10 35811.9 3493.08 1
-5 0 10 42790.5 3406.72 4
5 0 -10 36448.3 3635.82 8
5 0 -9 29355.4 2493.65 4
-5 0 9 23984.9 2842.14 7
-5 0 9 27691.2 2243.51 6
-5 0 9 31262.7 2980.06 1
5 0 -9 30743 3156.56 8
5 0 -8 159003 7820.67 4
-5 0 8 153191 8350.4 7
-5 0 8 155044 7182.21 6
-5 0 8 162165 8009.12 1
5 0 -8 170023 8885.65 8
5 0 -7 188718 8808.45 4
-5 0 7 173284 9334.81 8
-5 0 7 175343 8787.54 7
-5 0 7 178601 7854.63 6
-5 0 7 187605 8258.14 1
-5 0 7 207079 9710.71 4
5 0 -7 192020 9499.22 8
5 0 -6 43252.7 3432.26 8
5 0 -6 44597.6 3305.03 4
-5 0 6 40461.2 3353.04 8
-5 0 6 41279 2976.59 7
-5 0 6 43367.3 2607.57 6
-5 0 6 41237.3 2417.9 1
-5 0 6 41057.8 3607.86 4
5 0 -5 110483 6245.4 8
5 0 -5 117838 6321.88 4
-5 0 5 111437 6118.31 8
-5 0 5 108926 5409.01 7
-5 0 5 114651 5248.41 6
-5 0 5 123367 6999.13 4
5 0 -4 8928.49 1425.17 4
5 0 -4 9880.75 1405.86 8
-5 0 4 11336.8 1421.03 8
-5 0 4 8901 1624.81 4
-5 0 4 7412.57 871.519 7
5 0 -4 9926.57 711.513 2
-5 0 4 9465.28 1027.42 6
5 0 -4 7826.21 846.871 6
5 0 -3 10366.6 1381.59 8
5 0 -3 12222.4 1703.26 4
-5 0 3 9934.93 1709.72 4
5 0 -3 10346.9 923.675 2
-5 0 3 9785.43 1062.7 6
5 0 -3 9818.34 976.1 6
5 0 -2 16277.2 1730.6 8
-5 0 2 15253.9 1388.6 6
5 0 -2 16411.7 1406.46 2
5 0 -2 16774.4 1376.82 6
-5 0 2 16790.2 2249.98 4
5 0 -1 125341 5974.22 8
5 0 -1 113660 5427.76 6
5 0 -1 119272 5659.82 2
-5 0 1 108453 6860.91 4
5 0 0 12113.4 1360 8
5 0 0 12300.6 1333.24 6
5 0 0 13140 1515.17 2
-5 0 0 10189.1 1726.43 4
5 0 1 1940.4 599.617 2
-5 0 -1 2157.07 763.324 4
5 0 1 1425.76 633.58 4
5 0 1 1935.65 508.156 8
5 0 1 1303.84 473.012 6
5 0 1 1793.77 353.682 1
5 0 2 99326.8 6333.16 4
5 0 2 106084 5648.16 6
5 0 2 113234 5049.98 1
5 0 2 112983 6289.05 2
5 0 2 109590 4436.33 3
-5 0 -2 101452 6261.27 4
5 0 3 16493.2 2148.72 4
5 0 3 21089.5 2069.43 6
5 0 3 16407.2 1079.83 3
5 0 3 20456.8 2349.56 2
5 0 3 19554.6 1722.12 1
-5 0 -3 19796.1 1731.99 5
5 0 3 18784.9 1703.18 5
-5 0 -3 20962.5 2278.92 4
5 0 4 126351 7259.12 4
5 0 4 129627 5104.75 7
5 0 4 126941 5342.79 3
5 0 4 118740 6680.29 6
5 0 4 139565 7765.43 2
5 0 4 146560 6721.93 1
-5 0 -4 127657 6275.82 5
5 0 4 133735 6311.54 5
-5 0 -4 131213 7001.83 4
5 0 5 3549.49 1095.15 2
-5 0 -5 2721.2 797.485 4
5 0 5 2673.76 792.481 1
5 0 5 2724.27 835.453 4
5 0 5 2317.94 404.315 7
5 0 5 1455.09 589.917 6
5 0 5 1805.49 397.489 3
-5 0 -5 1607.5 514.953 5
5 0 5 2886.69 680.27 5
5 0 6 6432.18 1476.51 2
-5 0 -6 7307.18 1244.64 4
5 0 6 8315.49 1470.09 1
5 0 6 7694.61 1386.27 4
5 0 6 8021.7 920.511 7
-5 0 -6 7108.47 1174.63 5
5 0 7 13784.6 1846.68 4
5 0 7 16180.3 1534.55 7
5 0 7 17686.7 2626.87 2
5 0 7 17969.9 2367.97 1
-5 0 -7 16616.2 1968.76 5
-5 0 -7 16238.4 1828.74 4
5 0 8 99935.8 5289.42 7
5 0 8 107770 7508.17 2
5 0 8 104369 6972.93 1
-5 0 -8 103870 6161.42 5
-5 0 -8 102851 5656.62 4
5 0 9 774.658 778.745 2
-5 0 -9 994.438 454.608 4
5 0 9 797.509 375.559 8
5 0 9 1376.29 848.13 1
5 0 9 1069.9 384.616 7
-5 0 -9 1150.17 523.619 5
-5 0 -9 1206.79 337.512 3
5 0 10 162722 8599.83 7
5 0 10 181882 11072.8 2
5 0 10 184023 10993.1 1
-5 0 -10 170587 9762.97 5
-5 0 -10 203180 8677.34 4
5 0 11 11734.6 2443.23 2
5 0 11 16698.7 2875.75 1
-5 0 -11 13297.9 2266.03 5
5 0 12 17401.1 3084.83 1
5 0 12 21366.5 3290.5 2
-5 0 -12 17579.3 2812.75 5
5 0 13 -335.066 815.974 1
-5 0 -13 693.217 380.043 5
5 0 13 51.366 455.329 2
5 0 14 13636.3 2987.87 1
-5 0 -14 13039.7 2661.86 5
5 0 14 14272 2865.81 2
-5 -1 17 1699.18 1049.89 1
-5 -1 16 71895.7 6423.89 1
5 1 -16 71070.9 6316.95 8
5 1 -15 9343.03 2039.28 8
-5 -1 15 10151.4 2210.1 1
5 1 -14 20818 3078.86 8
-5 -1 14 19399.8 2211.23 6
-5 -1 14 23233.1 3215.37 1
-5 -1 13 5541.26 1135.24 4
5 1 -13 4423.72 1308.77 8
-5 -1 13 3973.09 1315.55 1
-5 -1 13 2899.98 772.271 6
-5 -1 12 1808.47 637.31 4
5 1 -12 1182.42 715.445 8
-5 -1 12 1894.92 812.738 1
-5 -1 12 806.762 337.738 6
-5 -1 11 25760.9 2071.8 6
-5 -1 11 32950 3398.75 1
-5 -1 11 33743.4 2987.69 4
5 1 -11 27467.3 3257.84 8
-5 -1 10 1872.33 695.836 4
5 1 -10 1690.87 696.743 8
-5 -1 10 2390.05 856.413 1
-5 -1 10 1053.35 351.358 6
-5 -1 9 433.775 352.614 4
5 1 -9 358.517 388.111 8
-5 -1 9 -66.659 335.765 7
-5 -1 9 65.145 136.415 6
-5 -1 9 329.143 409.171 1
-5 -1 8 10264.8 1717.26 7
5 1 -8 16867.1 2191.23 8
-5 -1 8 11052.4 1087.97 6
5 1 -8 12647.3 2521.02 3
-5 -1 8 14938.4 1800.08 1
-5 -1 8 12578 1878.55 4
5 1 -7 98852.5 5928.51 8
-5 -1 7 86235.8 5591.88 8
-5 -1 7 82816.3 5394.39 7
5 1 -7 82430 7009.37 3
-5 -1 7 92846.2 4242.24 6
-5 -1 7 89416.2 5001.6 1
-5 -1 7 105067 6283.38 4
5 1 -6 118905 6584.63 8
-5 -1 6 104931 6154.9 8
5 1 -6 106364 6193.04 4
-5 -1 6 107041 5940.61 7
5 1 -6 99679.9 7684.01 3
-5 -1 6 113325 4984.36 6
-5 -1 6 117972 5455.64 1
-5 -1 6 118244 7084.46 4
5 1 -5 162987 8039.42 8
5 1 -5 160042 8054.61 4
-5 -1 5 151506 7588.91 8
-5 -1 5 157130 7118 7
5 1 -5 137713 9215.01 3
-5 -1 5 148287 6385.83 6
5 1 -5 160647 6202.75 6
-5 -1 5 142522 6321.46 1
5 1 -5 150963 5724.51 2
-5 -1 5 177850 9135.85 4
5 1 -4 205673 9385.9 8
5 1 -4 195465 9638.73 4
-5 -1 4 184071 8811.39 8
5 1 -4 211783 7646.27 2
-5 -1 4 186263 8048.55 7
5 1 -4 162949 10402.8 3
5 1 -4 194071 7727.67 6
-5 -1 4 180583 10245 4
-5 -1 3 2417.23 927.875 4
5 1 -3 2960.64 781.558 8
-5 -1 3 3049.7 448.485 7
5 1 -3 3046.37 875.916 4
5 1 -3 2869.4 486.196 6
5 1 -3 2540.39 920.304 3
5 1 -3 2303.43 479.903 2
-5 -1 2 437.45 203.823 4
5 1 -2 1000.31 453.079 8
5 1 -2 1167.79 330.473 6
5 1 -2 1297.2 558.53 3
5 1 -2 803.639 295.114 2
5 1 -1 42637.1 2990.73 8
-5 -1 1 33230 2097.63 1
5 1 -1 32160.6 3132.28 3
5 1 -1 39317.4 2543.8 2
5 1 -1 37561.8 2445.5 6
-5 -1 1 34684.9 3659.29 4
5 1 0 129656 7500.65 4
5 1 0 133058 6513.48 8
-5 -1 0 115240 5945.03 1
5 1 0 116585 6678.84 3
5 1 0 133712 6378.07 2
5 1 0 138392 6286.73 6
5 1 0 142166 6276.41 5
-5 -1 0 123719 7772.77 4
5 1 1 43961.1 2958.47 8
-5 -1 -1 35150.8 2784.71 1
5 1 1 32375.5 2464.86 3
5 1 1 33657.8 3347.01 4
5 1 1 40693.4 2993.95 2
5 1 1 38932 2801.9 6
5 1 1 37672.4 2596.6 5
-5 -1 -1 36543 3618 4
5 1 2 69313 5236.81 4
-5 -1 -2 71598 4751.71 1
5 1 2 77860.3 4562.4 6
5 1 2 84237.1 4982.17 2
5 1 2 83068.4 4314.82 5
-5 -1 -2 73172.4 5374.41 4
5 1 3 18948.6 2403.98 4
-5 -1 -3 19031 2276.09 1
5 1 3 16411.6 1905.1 6
5 1 3 21843.3 2388.55 2
5 1 3 20270.4 1835.29 5
-5 -1 -3 18470.9 2339.9 4
-5 -1 -4 325.194 387.259 4
5 1 4 396.148 287.097 1
-5 -1 -4 159.576 168.79 5
5 1 4 304.649 132.926 5
5 1 4 592.532 196.496 2
5 1 5 78451.9 5598.34 2
5 1 5 79806.8 4901.71 1
-5 -1 -5 73758.1 5488.18 1
-5 -1 -5 71991.1 4411.62 5
-5 -1 -5 79592.9 5070.37 4
-5 -1 -6 2977.2 840.883 4
-5 -1 -6 3672.3 1151.67 1
5 1 6 2583.6 827.019 1
-5 -1 -6 2763.88 747.502 5
5 1 6 1647.73 736.595 2
5 1 7 26387 3276.29 2
5 1 7 28142.6 3025.56 1
-5 -1 -7 25919.1 2503.51 5
-5 -1 -7 25818 2531.5 4
-5 -1 -8 1429.47 571.575 4
5 1 8 1025.72 354.556 7
-5 -1 -8 408.496 185.742 5
5 1 8 1408.09 766.353 1
5 1 8 1340.5 637.733 2
5 1 9 43642.6 3113.03 7
5 1 9 52983.6 5161.09 2
5 1 9 49627.3 4712.21 1
-5 -1 -9 48730.7 4061.38 5
-5 -1 -9 54647.1 3709.56 4
5 1 10 7346.56 1913.9 2
-5 -1 -10 6441.67 1135.52 4
-5 -1 -10 5060.87 1291.7 5
5 1 10 5746.56 1674.21 1
5 1 11 184794 11496.5 2
5 1 11 170779 11095.8 1
-5 -1 -11 166425 9962.67 5
-5 -1 -11 185226 8487.09 4
-5 -1 -12 7635.86 1811.63 5
5 1 12 11090.6 2465.93 1
5 1 12 8697.29 2157.34 2
5 1 13 46507.5 5359.17 2
5 1 13 50682 5762.65 1
-5 -1 -13 42368.7 4673.2 5
5 1 14 7444.23 2292.68 1
-5 -1 -14 4314.97 1421.1 5
-5 -2 16 5447.37 1593.36 1
-5 -2 15 116340 8010.45 1
5 2 -15 104873 7895.36 8
-5 -2 14 6229.11 1282.03 4
5 2 -14 6649.58 1708.39 8
-5 -2 14 5889.54 1550.01 1
-5 -2 13 92311.4 6559.57 1
-5 -2 13 98148.4 5799.26 4
-5 -2 12 4931.16 1172.1 4
5 2 -12 5475.44 1521.22 8
-5 -2 12 6075.67 746.447 6
-5 -2 12 7062.04 1545.25 1
-5 -2 11 2743.25 948.046 1
-5 -2 11 3166.04 935.028 4
5 2 -11 2537.68 940.539 8
-5 -2 11 2627.41 435.743 6
5 2 -10 11208.5 1963.12 8
-5 -2 10 10585.2 880.168 6
-5 -2 10 12462.1 1879.83 4
-5 -2 10 11854.3 1783.19 1
5 2 -9 1796.46 702.496 8
-5 -2 9 1562.88 758.015 4
-5 -2 9 794.667 533.299 7
-5 -2 9 2343.81 787.92 1
-5 -2 9 1949.64 320.119 6
-5 -2 8 10362.6 1484.68 1
5 2 -8 7567.32 1505.31 8
-5 -2 8 10904.6 1834.63 4
-5 -2 8 7227.67 1498.96 7
5 2 -7 1137.53 546.204 8
-5 -2 7 1151.95 636.823 4
-5 -2 7 1462.32 635.526 7
-5 -2 7 1358.21 464.235 1
5 2 -7 282.154 359.891 3
5 2 -6 40044.8 3423.65 8
-5 -2 6 33541.9 3050.65 7
5 2 -6 29853.4 3947.64 3
-5 -2 6 38944.6 2531.9 1
-5 -2 6 42166.6 3979.75 4
5 2 -5 63533.2 2927.31 2
5 2 -5 61419.1 4340.37 8
-5 -2 5 55037.2 3833.21 7
5 2 -5 50872.1 5110.68 3
5 2 -5 62703.5 2758.74 6
-5 -2 5 64210.8 5274.96 4
5 2 -4 134877 5578.02 2
5 2 -4 131785 7035.18 8
-5 -2 4 117621 6023.61 7
5 2 -4 112449 7891.24 3
5 2 -4 128088 5265.81 6
-5 -2 4 138933 8593.33 4
5 2 -3 214104 9547.61 8
5 2 -3 208237 8148.66 2
-5 -2 3 192548 7783.41 7
5 2 -3 157912 9677.99 3
-5 -2 3 177525 7576.47 1
5 2 -3 196263 7745.77 6
-5 -2 3 198485 9490.64 2
-5 -2 3 182569 10897.9 4
5 2 -2 18276.3 2019.61 8
5 2 -2 20088 1683.85 2
-5 -2 2 16850.5 985.85 7
5 2 -2 15869.5 2045.01 3
5 2 -2 18423.6 1497.02 6
-5 -2 2 15682.4 1297.56 1
-5 -2 2 19247.8 2427.03 2
5 2 -2 20408.6 1860.15 5
-5 -2 2 15866 2699.97 4
5 2 -1 44818.2 3377.34 8
5 2 -1 48037.9 3051.8 2
5 2 -1 37075.1 2958.95 3
5 2 -1 45988 2852.95 6
5 2 -1 49518.5 3124.13 5
-5 -2 1 42727.5 2642.05 1
-5 -2 1 38007.9 4315.63 4
5 2 0 77675.3 4622.98 8
5 2 0 73924.5 4326.84 2
5 2 0 66572.4 3627.59 3
5 2 0 72883.8 4152.11 6
-5 -2 0 70460.9 5709.03 2
5 2 0 77300.9 4245.39 5
-5 -2 0 69394.9 3976.18 1
-5 -2 0 76081.7 6136.78 4
5 2 1 54529.7 3633.78 2
5 2 1 47723.7 3276.97 6
5 2 1 44829 2037.61 3
-5 -2 -1 54677.9 5020.29 2
5 2 1 54228.7 3289.48 5
-5 -2 -1 48735.7 3323.12 1
-5 -2 -1 49876.9 4732.63 4
5 2 2 68679.6 4501.43 2
-5 -2 -2 71914.8 5957.62 2
5 2 2 69679.8 3996.71 5
-5 -2 -2 57495.9 4119.43 1
-5 -2 -2 65240.2 5377.72 4
5 2 3 159996 8428.56 2
5 2 3 157276 7496.44 5
-5 -2 -3 169523 9422.07 4
-5 -2 -4 14715.8 2105.02 1
5 2 4 20388.8 2468.85 2
-5 -2 -4 18550.8 2465.95 4
-5 -2 -5 20486 2634.17 1
5 2 5 28250.8 3082 2
-5 -2 -5 23357.1 2211.64 5
-5 -2 -5 25757.2 2828.26 4
-5 -2 -6 6842.51 1404.08 4
-5 -2 -6 8399.32 1700.56 1
-5 -2 -6 6957.04 1203.01 5
5 2 6 7977.83 1692.2 2
-5 -2 -7 4787.97 1103.87 4
5 2 7 6086.71 1379.06 1
-5 -2 -7 4396.41 1062.37 5
5 2 7 4743.62 1415.52 2
5 2 8 25026.7 3473.39 2
5 2 8 24001.3 3036.07 1
-5 -2 -8 23612.2 2539.03 5
-5 -2 -8 22817.6 2480.64 4
-5 -2 -9 62.8875 192.673 4
5 2 9 -437.866 540.082 1
-5 -2 -9 -153.585 164.251 5
-5 -2 -10 8208.05 1340.86 4
5 2 10 5736.34 1597.26 1
-5 -2 -10 9096.59 1701.63 5
5 2 10 6744.39 1930.86 2
-5 -2 -11 1955.4 670.054 4
5 2 11 1014.59 733.674 1
-5 -2 -11 753.19 469.964 5
5 2 11 2614.58 1397.7 2
5 2 12 77831.8 7175.81 2
5 2 12 75372.8 7036.75 1
-5 -2 -12 70800.4 5916.31 5
5 2 13 1195.71 753.388 1
-5 -2 -13 -96.9858 224.82 5
5 3 -15 11192 2293.13 8
-5 -3 15 8568.56 1902.23 1
-5 -3 14 78283.6 6134.94 1
-5 -3 14 87457.4 5557.64 4
5 3 -14 77534.3 6489.93 8
5 3 -13 101.101 488.954 8
-5 -3 13 -357.477 406.064 1
-5 -3 13 928.61 544.186 4
-5 -3 12 189080 9893.66 1
-5 -3 12 174591 9404.22 4
5 3 -12 170095 10256.3 8
5 3 -11 14892.9 2385.48 8
-5 -3 11 14272.8 2106.48 1
-5 -3 11 15433.6 2186.11 4
5 3 -10 17069.6 2464.19 8
-5 -3 10 19489.1 2303.77 1
-5 -3 10 15987.2 2287.61 4
5 3 -9 227.786 413.372 8
-5 -3 9 802.309 594.751 4
-5 -3 9 72.6698 251.555 1
-5 -3 9 -338.155 387.065 7
-5 -3 8 2525.54 934.35 4
5 3 -8 4132.8 1131.22 8
-5 -3 8 4294.04 1146.37 7
-5 -3 7 21277.8 2928.05 4
5 3 -7 21024.9 2561.82 8
-5 -3 7 18600.8 2479.9 7
5 3 -7 19567 3197.01 3
-5 -3 7 22197.3 1703.37 2
-5 -3 6 815.345 428.584 2
5 3 -6 1609.82 656.513 8
-5 -3 6 238.096 399.902 4
-5 -3 6 859.419 546.767 7
5 3 -6 5.39283 366.189 3
-5 -3 5 334.553 269.585 2
-5 -3 5 -146.591 420.918 4
-5 -3 5 832.006 480.193 7
5 3 -5 253.421 94.4142 6
5 3 -5 112.02 126.077 2
5 3 -5 306.248 322.979 3
-5 -3 4 29597 3901.94 4
5 3 -4 26267.9 2691.79 8
-5 -3 4 22665.9 2335.87 7
5 3 -4 21683.9 2762.27 3
5 3 -4 27546 1554.49 6
-5 -3 4 27405.6 2956.23 2
5 3 -4 28220.5 2027.37 2
-5 -3 3 48432 5290.62 4
5 3 -3 52713.2 3109.17 2
5 3 -3 50981.6 3865.21 8
-5 -3 3 44859.8 3142.05 7
-5 -3 3 44176.1 2823.93 1
5 3 -3 44533.5 3665.32 3
5 3 -3 47895.4 2574.45 6
-5 -3 2 85285.2 7512.93 4
5 3 -2 105424 5927.75 8
5 3 -2 103554 5106.26 2
-5 -3 2 88850.1 4368.73 7
5 3 -2 82998.5 5022.69 3
5 3 -2 99556.8 4631.29 6
-5 -3 2 81682.1 4562.18 1
-5 -3 1 68557.2 6571.02 4
5 3 -1 72102.6 4631.58 8
5 3 -1 63164.4 3951 2
5 3 -1 65606.2 3688.8 6
5 3 -1 62137.8 3474.03 3
-5 -3 1 56343.7 5260.45 2
-5 -3 1 52201.5 3506.56 1
-5 -3 0 88305.7 7604.95 4
5 3 0 102127 5814.38 8
5 3 0 98493.4 5415.87 2
5 3 0 89491.3 4964.11 6
5 3 0 91667.7 3987.73 3
-5 -3 0 97184.7 7226.5 2
-5 -3 0 84526.2 4957.72 1
-5 -3 -1 14662.4 2822.1 4
5 3 1 17214.3 2012.58 2
-5 -3 -1 17023.1 2859.82 2
-5 -3 -2 6046.19 1773.62 4
-5 -3 -2 6656.92 1805.61 2
5 3 2 4530.78 1063.69 2
-5 -3 -3 83788 6477.49 4
5 3 3 75209.7 5164.83 2
-5 -3 -3 63970.2 4719.07 1
5 3 4 172130 9182.84 2
-5 -3 -4 183117 10094 4
-5 -3 -5 13595.8 2193.76 4
-5 -3 -5 9537.1 1807.67 1
5 3 5 10799.8 1983.06 2
5 3 6 99423.5 7067.29 2
-5 -3 -6 96951.6 6510.67 4
-5 -3 -7 622.462 530.05 4
-5 -3 -7 808.657 539.261 5
5 3 7 898.947 835.195 2
-5 -3 -8 296.609 406.539 4
-5 -3 -8 -177.091 391.073 5
5 3 8 932.527 824.288 2
-5 -3 -9 5954.63 1269.45 4
-5 -3 -9 4570.73 1157.97 5
5 3 9 5571.69 1741.78 2
-5 -3 -10 8872.23 1810.51 5
5 3 10 11488.7 2499.79 2
-5 -3 -10 13516.7 1879.87 4
-5 -3 -11 -69.007 417.186 5
5 3 11 678.214 991.868 2
-5 -3 -12 525.849 239.885 5
5 4 -14 10345.4 2186.94 8
-5 -4 14 13281.6 2015.53 4
-5 -4 14 9989.06 1989.1 1
-5 -4 13 20533.4 2795.11 1
-5 -4 13 24366.3 2852.37 4
5 4 -13 21806.5 3143.59 8
5 4 -12 1591.33 815.291 8
-5 -4 12 2145.84 782.662 4
-5 -4 12 3133.21 1009.65 1
5 4 -11 188962 10649.9 8
-5 -4 11 194324 9862.1 1
-5 -4 11 181703 10250.2 4
5 4 -10 19610.3 2716.3 8
-5 -4 10 20543.3 2776.91 4
-5 -4 9 92728.4 6728.9 4
5 4 -9 88841.4 6307.21 8
-5 -4 9 85838.7 6298.67 7
-5 -4 8 18571.2 2850.9 4
5 4 -8 16313.9 2346.8 8
-5 -4 8 18099 2547.44 7
-5 -4 8 18731.5 1882.32 2
-5 -4 7 150.944 190.642 2
5 4 -7 235.701 165.077 8
-5 -4 7 118.683 226.237 7
-5 -4 6 6050.6 1333.87 2
5 4 -6 6813.9 1467.01 8
-5 -4 6 7014.95 1885.41 4
-5 -4 6 7109.12 1495.64 7
5 4 -6 5236.86 1495.45 3
-5 -4 5 38936 4761.36 4
5 4 -5 34769.7 3289.62 8
5 4 -5 25529.6 3066.92 3
5 4 -4 8957.3 1641.52 8
-5 -4 4 10541.4 2627.53 4
5 4 -4 10077.6 816.344 6
5 4 -4 8540.43 1554.58 3
5 4 -4 9868.55 1259.1 2
-5 -4 3 23407.2 3995.9 4
5 4 -3 23269.8 2108.75 2
5 4 -3 23002.5 2620.5 8
-5 -4 3 16207.1 2685.39 2
-5 -4 3 17644.5 1846.64 1
5 4 -3 22936.2 1594.58 6
5 4 -3 17607.6 2020.73 3
5 4 -2 13429.3 1648.09 2
-5 -4 2 13031 2424.41 2
5 4 -2 11455.6 1823.26 8
-5 -4 2 14745.6 3240.26 4
5 4 -2 13738.2 1385.44 6
5 4 -2 12553.7 1464.77 3
-5 -4 1 51547.1 6249.92 4
5 4 -1 49358 4009.75 8
5 4 -1 47780.1 3528.64 2
5 4 -1 45921.8 3112.46 6
-5 -4 1 43905.7 4847.7 2
5 4 -1 47491.1 2706.75 3
-5 -4 0 60335.4 6656.6 4
5 4 0 49849.9 3981.88 8
5 4 0 50529.2 3740.92 2
-5 -4 0 39755.7 1990.39 7
-5 -4 0 52772.8 5295.82 2
5 4 0 46728.6 2141.33 3
-5 -4 -1 106267 8925.61 4
5 4 1 101880 5964.15 2
-5 -4 -2 3998.24 1829.09 4
-5 -4 -2 1848.42 749.509 1
5 4 2 4889.62 1184.32 2
-5 -4 -3 9244.13 1659.37 1
5 4 3 8561.1 1626.46 2
-5 -4 -4 46403.8 5024.75 4
5 4 4 44347.4 4158.18 2
-5 -4 -5 86833.9 6867.04 4
5 4 5 84933.6 6379.27 2
5 4 6 27833.1 3519.95 2
-5 -4 -6 25636.4 3281.82 4
5 4 7 125236 8754.79 2
-5 -4 -7 128455 8055.58 4
-5 -4 -8 7994.45 1645.58 4
5 4 8 4618.88 1631.13 2
-5 -4 -9 9781.88 1756.49 4
5 4 9 6182.54 1853.68 2
-5 -4 -11 11801.2 2113.24 5
-5 -4 -12 1147.85 597.215 5
-5 -5 14 32524.1 3470 4
5 5 -13 803.471 673.619 8
-5 -5 13 2901.51 1016.72 4
5 5 -12 753.164 751.406 8
-5 -5 12 -1320.16 643.901 1
-5 -5 12 840.94 639.793 4
5 5 -11 3055.07 1135.15 8
-5 -5 11 3716.54 1310.56 4
-5 -5 10 118505 8138.41 4
5 5 -10 105238 7366.62 8
5 5 -9 4439.92 1225.71 8
-5 -5 9 5380.63 1641.36 4
-5 -5 8 189470 11738.5 4
5 5 -8 179633 10157.1 8
-5 -5 7 48578.3 5445.49 4
5 5 -7 42885.6 4101.72 8
-5 -5 6 3053.24 1089.29 2
5 5 -6 5098.23 1420.77 8
-5 -5 6 6945.5 2070.98 4
5 5 -6 4828.07 1273.38 3
-5 -5 5 1324.79 774.776 2
5 5 -5 3720.13 1134.38 8
-5 -5 5 2710.38 1240.35 4
5 5 -5 2687.07 883.547 3
-5 -5 4 41502.7 5757.82 4
5 5 -4 41084.1 3852.21 8
-5 -5 4 27117 3802.28 2
5 5 -4 31639.1 3002.58 3
5 5 -4 37801.8 2901.81 2
-5 -5 3 10279.5 2277.07 2
5 5 -3 16523.6 2378.07 8
-5 -5 3 14106.6 3437.56 4
-5 -5 3 9458.1 1511.67 1
5 5 -3 14030.5 1678.08 3
5 5 -3 18228.7 2004.01 2
5 5 -2 35205.2 3040.02 2
-5 -5 2 32641.6 5520.69 4
5 5 -2 33895.9 3506.97 8
5 5 -2 35054.2 2443.6 6
-5 -5 2 28421.3 2773.8 1
-5 -5 2 28349.7 4012.47 2
5 5 -1 488.218 452.092 8
-5 -5 1 1344.71 1405.74 4
5 5 -1 525.699 303.029 6
5 5 -1 1520.57 776.837 2
-5 -5 1 898.635 369.021 1
5 5 0 18462.3 2320.23 2
5 5 0 22199.8 2715.22 8
-5 -5 0 26075.5 4803.33 4
-5 -5 0 19337.3 1287.69 7
-5 -5 0 18297 2296.66 1
5 5 1 29307.1 3052.53 2
-5 -5 -1 26463.3 1643.61 7
-5 -5 -1 23025.7 2700.58 1
-5 -5 -2 60015 6867.03 4
5 5 2 48084 4316.05 2
-5 -5 -3 24053.5 4100.43 4
5 5 3 19327.3 2649.96 2
5 5 4 22616.8 3061.72 2
-5 -5 -4 28268.3 4137.97 4
-5 -5 -5 6256.93 1920.79 4
5 5 5 6116.59 1604.78 2
-5 -5 -6 8013.28 1882.98 4
5 5 6 5407.25 1640.06 2
5 5 7 52663.1 5392.81 2
-5 -5 -7 46231.3 4700.96 4
-5 -5 -8 83164.8 6436.58 4
5 5 8 97226.3 8031.51 2
-5 -5 -9 5847.2 1445.81 4
-5 -6 14 -133.88 326.418 4
-5 -6 13 11726.8 2168.42 4
-5 -6 12 3001.48 1180.83 4
5 6 -11 2881.47 1077.65 8
-5 -6 11 3330.39 1237.01 4
5 6 -10 597.919 389.106 8
-5 -6 10 -499.904 847.245 4
-5 -6 9 31996 4375.94 4
5 6 -9 31530.1 3763.52 8
5 6 -8 1709.64 861.667 8
-5 -6 8 249.715 762.715 4
-5 -6 7 152581 11386.9 4
5 6 -7 147472 9116 8
-5 -6 6 44788.4 6024.22 4
5 6 -6 42360.5 4352.6 8
-5 -6 5 36621.8 5755.69 4
5 6 -5 38778 4092.4 8
5 6 -4 30976 3530.66 8
-5 -6 4 23321.6 4866.55 4
5 6 -4 25285.8 2603.08 2
5 6 -3 20316 2847.83 8
-5 -6 3 19935.2 4630.09 4
5 6 -3 17462.3 2185.23 2
5 6 -2 8813.23 1799.59 8
-5 -6 2 6160.68 3069.96 4
5 6 -2 8533.62 1581.87 2
5 6 -1 58604.2 4655.8 2
5 6 -1 63682.9 5309.83 8
5 6 0 15834.6 2448.43 8
-5 -6 0 16588.8 4340.48 4
5 6 0 11051.1 1915.59 2
5 6 1 28322.7 3209.96 2
-5 -6 -1 30607.3 5595.67 4
-5 -6 -2 273.462 859.679 4
5 6 2 523.416 430.294 2
-5 -6 -3 15289.1 3486.76 4
5 6 3 10211.1 2048.95 2
-5 -6 -4 17288.2 3574.16 4
5 6 4 14407.2 2500.55 2
-5 -6 -5 26015.8 4076.59 4
5 6 5 19504.3 3155.69 2
-5 -6 -6 1124.68 920.592 4
5 6 6 -1031.45 729.998 2
-5 -6 -7 551.789 649.85 4
-5 -6 -8 19141.8 2939.16 4
-5 -7 13 10092.2 2209.16 4
-5 -7 12 1192.59 300.146 4
-5 -7 11 5388.4 1849.6 4
-5 -7 10 6832.13 2119.74 4
-5 -7 9 -826.011 1184.57 4
5 7 -8 4123.19 1389.86 8
-5 -7 8 3170.24 1593.54 4
5 7 -7 721.833 694.476 8
-5 -7 7 304.052 901.733 4
-5 -7 6 78975.9 9053.9 4
5 7 -6 83961.5 6711.27 8
5 7 -5 12405 2359.03 8
-5 -7 5 9701.64 3180.86 4
5 7 -4 91071.5 7077.16 8
-5 -7 4 98970.2 11188.4 4
5 7 -3 35649.3 4100.18 8
-5 -7 3 35119.9 6759.79 4
5 7 -3 31714.4 3296.21 2
5 7 -2 925.48 739.005 8
-5 -7 2 149.245 1175.3 4
5 7 -2 231.496 408.817 2
5 7 -1 -177.234 616.779 8
-5 -7 1 585.796 883.794 4
5 7 -1 838.477 558.741 2
5 7 0 44409.9 4602.06 8
5 7 0 51200.3 4685.82 2
5 7 1 24236 3245.49 2
-5 -7 -1 30412.6 6220.44 4
5 7 2 47557 4789.58 2
-5 -7 -2 58929.7 8099.77 4
-5 -7 -3 21269.2 4429.4 4
5 7 3 14662.9 2634.98 2
-5 -7 -4 12066.5 3253.98 4
5 8 -2 15594.9 2487.34 2
5 8 -1 12671.8 2310.81 2
5 8 0 8552.56 1926.6 2
5 8 1 31713.3 3958.06 2
-6 12 -2 18454.2 2719.64 6
-6 12 -3 5554.52 1462.6 6
-6 12 -4 682.27 507.472 6
-6 12 -5 21617.5 2775.64 6
-6 12 -6 6285.16 1446.4 6
-6 12 -7 945.721 581.163 6
-6 11 2 2403.86 986.306 6
6 -11 -2 3258.7 1225.42 3
-6 11 1 4321.88 1278.76 6
6 -11 -1 4399.28 1354.73 3
-6 11 0 7918.15 1746.43 6
6 -11 0 10191.9 2042.24 3
-6 11 -1 48988.9 4468.72 6
6 -11 1 49015.2 4737.67 3
-6 11 -2 578.434 455.576 6
6 -11 2 177.785 574.813 3
-6 11 -3 47565 4282.69 6
6 -11 3 55137.2 4947.26 3
-6 11 -4 -108.637 219.295 6
6 -11 4 -391.604 468.776 3
-6 11 -5 8055.01 1586.37 6
6 -11 5 8133.06 1834.7 3
-6 11 -6 10725.9 1810.14 6
-6 11 -7 101.844 333.055 6
-6 11 -8 12254.4 1907.7 6
6 -10 -6 -134.981 543.566 3
6 -10 -5 99.4655 402.849 7
-6 10 5 372.946 366.982 6
6 -10 -5 713.977 528.95 3
6 -10 -4 27870.5 3125.13 7
-6 10 4 27239.3 3583.81 6
6 -10 -4 28434.5 3518.47 3
-6 10 3 12438.7 2244.58 6
6 -10 -3 10482.9 2057.66 3
-6 10 2 106805 7446.6 6
6 -10 -2 118229 7684.64 3
-6 10 1 -4.22568 261.722 6
6 -10 -1 -21.3163 305.942 3
-6 10 0 35390.2 3659.85 6
6 -10 0 42817.5 4043.98 3
6 -10 1 15054 2300.9 3
-6 10 -1 12890.2 2062.53 6
-6 10 -2 32094.3 3316.61 6
6 -10 2 30182.7 3366.41 3
-6 10 -3 5399.02 1314.97 6
6 -10 3 7078.96 1595.46 3
-6 10 -4 113363 6887.97 6
6 -10 4 109778 7265.23 3
-6 10 -5 1445.29 748.427 6
6 -10 5 1958.73 880.351 3
-6 10 -6 40070 3601.78 6
6 -10 6 44105.6 4239.88 3
-6 10 -7 612.128 301.335 6
6 -10 7 -474.601 613.752 3
-6 10 -8 421.049 465.512 6
6 -10 8 59.8714 548.724 3
-6 10 -8 716.078 471.376 5
6 -10 9 9410.18 2078.18 3
-6 10 -9 9424.4 1724.94 5
-6 10 -10 58.105 322.867 5
-6 10 -11 185.733 375.835 5
-6 10 -12 -26.4904 347.459 5
-6 10 -13 23896.9 4032.73 5
6 -9 -8 8537.98 1925.1 3
6 -9 -7 289.782 395.526 7
-6 9 7 603.826 673.599 6
6 -9 -7 275.136 288.304 3
6 -9 -6 1753.63 711.941 7
-6 9 6 3536.63 1348.05 6
6 -9 -6 1768.7 854.671 3
6 -9 -5 2704.24 859.838 7
-6 9 5 1388.55 918.742 6
6 -9 -5 2047.12 878.769 3
6 -9 -4 10144.5 1725.77 7
-6 9 4 10283.5 2041.32 6
6 -9 -4 10269.9 1901.21 3
-6 9 3 11188.4 2035.78 6
6 -9 -3 13398.8 2106.82 3
-6 9 2 5104.46 1334.82 6
6 -9 -2 7512.3 1553.26 3
-6 9 1 95768 6438.44 6
6 -9 -1 98813.1 6461.7 3
-6 9 0 8530.35 1588.49 6
6 -9 0 9194.34 1644.09 3
-6 9 -1 93364.9 6024.91 6
6 -9 1 87635 5962.01 3
-6 9 -2 10077.8 1650.72 6
6 -9 2 8857.63 1639.04 3
-6 9 -3 178.048 158.086 8
-6 9 -3 279.531 181.208 6
6 -9 3 515.479 329.368 3
-6 9 -4 18612.2 2263.53 6
6 -9 4 19057.7 2452.93 3
-6 9 -4 16911.5 1460.07 5
-6 9 -5 95877 5996.14 6
6 -9 5 106060 6681.05 3
-6 9 -5 98984.4 5019.45 5
-6 9 -6 45.3127 180.414 6
-6 9 -6 432.293 371.667 5
6 -9 6 941.96 641.269 3
-6 9 -7 78854.9 5221.8 6
6 -9 7 85105.9 6082.44 3
-6 9 -7 75850.5 4851.98 5
-6 9 -8 4181.7 1036.86 6
6 -9 8 3742.26 1155.3 3
-6 9 -8 3441.56 974.54 5
6 -9 9 2181.55 866.118 3
-6 9 -9 2949.1 992.532 5
6 -9 10 2245.53 986.238 3
-6 9 -10 1773.57 690.65 5
6 -9 11 6702.74 1747.99 3
-6 9 -11 5684.03 1594.04 5
6 -9 12 4449.14 1490.22 3
-6 9 -12 2100.97 1144.05 5
-6 9 -13 1184.89 309.527 5
6 -8 -9 45463.9 4150.96 7
-6 8 9 45082 5608.19 6
6 -8 -8 42937.1 3873.16 7
-6 8 8 38055.3 4903.04 6
6 -8 -7 60256.7 4659.89 7
-6 8 7 62510.5 6006.42 6
6 -8 -6 159.079 266.432 7
-6 8 6 -124.471 502.218 6
6 -8 -5 601.412 359.841 7
-6 8 5 1597.39 933.416 6
6 -8 -5 890.135 475.483 3
6 -8 -4 4327.49 1105.6 7
-6 8 4 4295.68 1213.07 6
6 -8 -4 3887.64 1072.21 3
-6 8 3 33016.5 3423.65 6
6 -8 -3 34054.3 3354.06 3
-6 8 3 29142.1 4413.46 8
-6 8 2 8158.07 2174.39 8
-6 8 2 9666.21 1703.33 6
6 -8 -2 11953.6 1865.84 3
-6 8 1 5661.09 1807.16 8
-6 8 1 3869.68 1037.48 6
6 -8 -1 3373.89 989.582 3
-6 8 0 31319.7 3092.74 6
6 -8 0 32754.7 3089.99 3
-6 8 -1 12358.2 2160.82 8
-6 8 -1 10824.9 1715.44 6
6 -8 1 10741.6 1715.71 3
-6 8 -2 124458 7178.67 6
6 -8 2 121775 7189.26 3
-6 8 -3 714.585 291.699 8
-6 8 -3 490.274 150.497 8
-6 8 -3 400.156 374.846 6
-6 8 -3 580.702 257.176 5
6 -8 3 365.426 376.837 3
-6 8 -4 24661.5 2548.42 6
6 -8 4 27833.1 2833.85 3
-6 8 -4 25606.6 1956.71 5
-6 8 -5 13905.7 1870.08 6
6 -8 5 19977.6 2406.5 3
-6 8 -5 15404 1611.36 5
-6 8 -6 63447.3 4340.62 6
6 -8 6 60765.6 4639.91 3
-6 8 -6 55982.5 3807.42 5
-6 8 -7 5300.34 1118.62 6
6 -8 7 3657.13 1055.28 3
-6 8 -7 4267.91 1009.59 5
6 -8 8 164243 9036.56 3
-6 8 -8 139996 8049.92 5
6 -8 9 5791.18 1445.07 3
-6 8 -9 4347.29 1232.77 5
6 -8 10 35364.3 3857.98 3
-6 8 -10 29630.1 3630.07 5
6 -8 11 3778.05 1220.78 3
-6 8 -11 4455.52 1528.91 5
6 -8 12 2539.87 1081.77 3
-6 8 -12 2464.43 1175.8 5
6 -8 13 583.752 419.742 3
-6 8 -13 1024.83 674.601 5
6 -7 -11 2030.06 840.698 7
-6 7 11 1044.33 592.873 6
6 -7 -10 957.135 623.874 7
-6 7 10 90.8507 611.314 6
6 -7 -9 41245.5 3767.55 7
-6 7 9 48164.4 5561.78 6
6 -7 -8 38053.7 3477.87 7
-6 7 8 39371.4 4715.54 6
6 -7 -7 96462 5989.12 7
-6 7 7 96704.5 7462.52 6
6 -7 -6 101901 6089.33 7
-6 7 6 100153 7287.55 6
6 -7 -5 10582.3 1619.2 7
-6 7 5 8562.6 1761.88 6
-6 7 4 8072.65 2193.16 8
6 -7 -4 8593.1 1392.78 7
-6 7 4 7608.67 1595.78 6
6 -7 -4 7990.69 752.893 5
-6 7 3 22031.8 2627.03 6
6 -7 -3 21284.6 2441.79 3
6 -7 -3 20178.8 1370.93 5
-6 7 3 20275.4 3454.1 8
-6 7 2 28148 2900.93 6
6 -7 -2 28602.3 2805.34 3
6 -7 -2 29075 1799.88 5
-6 7 1 20817.7 2371.48 6
6 -7 -1 21011.6 2319.49 3
6 -7 -1 19963.7 1526.92 5
-6 7 1 23278.8 3133.94 8
-6 7 0 55083.4 4069.5 6
6 -7 0 55680.4 3981.6 3
6 -7 0 52198.7 3069.72 5
-6 7 0 60535.4 4519.48 8
-6 7 -1 31036.2 2901.91 6
6 -7 1 36753 3012.86 3
6 -7 1 29373.5 2260.96 5
-6 7 -1 36023.8 2707.42 8
-6 7 -2 290.028 213.897 6
6 -7 2 57.7444 290.634 3
6 -7 2 68.4579 146.42 5
-6 7 -3 78323.3 4940.23 6
6 -7 3 84062.7 5070.85 3
-6 7 -3 75518.1 3933.42 5
6 -7 3 77652.4 4547.59 5
-6 7 -4 8771.21 1388.46 6
-6 7 -4 7733.46 1043.3 5
6 -7 4 8075.41 1378.68 3
-6 7 -5 68897.9 4439.54 6
6 -7 5 70534 4643.4 3
-6 7 -5 59305.1 3819.59 5
-6 7 -6 11939.9 1649.78 6
6 -7 6 11333.1 1790.51 3
-6 7 -6 9976.62 1415.67 5
-6 7 -7 12595.5 1724.81 6
6 -7 7 14296.8 2001.52 3
-6 7 -7 13787.7 1828.58 5
6 -7 8 19442.7 2442.21 3
-6 7 -8 18307 2326.75 5
6 -7 9 164475 9071.59 3
-6 7 -9 150935 8911.68 5
6 -7 10 280.005 234.04 3
-6 7 -10 352.815 570.143 5
6 -7 11 102194 7076.91 3
-6 7 -11 92148.9 7496.42 5
6 -7 12 11341.7 2212.69 3
-6 7 -12 11752 2674.32 5
6 -7 13 1009.05 277.771 3
-6 7 -13 1451.64 1090.75 5
6 -7 14 -115.944 489.332 3
-6 7 -14 -2885.95 1551.41 5
6 -7 15 19506.8 3351.24 3
-6 6 13 6979.03 2588.4 6
6 -6 -12 7790.18 1621.67 7
-6 6 12 5801.5 2276.67 6
6 -6 -11 245.84 376.637 7
-6 6 11 -102.864 468.28 6
6 -6 -10 18552.1 2397.48 7
-6 6 10 19351.1 3555.19 6
6 -6 -9 1896.46 765.9 7
-6 6 9 1085.08 823.452 6
6 -6 -8 11067.9 1679.66 7
-6 6 8 9025.26 2087.02 6
6 -6 -7 13761.3 1687.28 2
6 -6 -7 15072.5 1908.03 7
-6 6 7 17327.3 2712.14 6
6 -6 -7 12963.6 1181.82 5
6 -6 -6 84216.8 5105.65 2
6 -6 -6 101548 5655.69 7
-6 6 6 104431 6896.83 6
6 -6 -6 88695.1 5610.17 1
6 -6 -6 93582 4296.99 5
6 -6 -5 76694.5 4841.71 2
6 -6 -5 94570.9 5324.47 7
6 -6 -5 86460.4 5327.47 1
6 -6 -5 87872.1 4078.22 5
-6 6 5 85051 7567.61 8
6 -6 -4 41024.5 3161.76 2
6 -6 -4 52567.4 3546.21 7
6 -6 -4 41156.5 3342.58 1
-6 6 4 48789.2 4024.38 6
6 -6 -4 48756.7 2566.96 5
-6 6 4 42039 4827.55 8
-6 6 3 65359.3 4645.94 6
6 -6 -3 65519.8 3232.91 5
-6 6 3 58444 5335.54 8
6 -6 -3 58698 3968.11 2
-6 6 2 9801.88 1557.08 6
6 -6 -2 11338.7 1569.13 3
6 -6 -2 9374.53 975.094 5
6 -6 -2 9155.24 1359.62 2
-6 6 1 26091.7 2572.41 8
-6 6 1 25481.5 2556.46 6
6 -6 -1 28126.4 2544.06 3
6 -6 -1 28396.7 1904.94 5
6 -6 -1 24683.3 2446.4 2
-6 6 0 59609.8 3616.27 8
-6 6 0 63722 4222.57 6
6 -6 0 60313.8 4009.17 3
6 -6 0 61114.6 3340.82 5
-6 6 -1 112878 5011 8
-6 6 -1 111301 6217.12 6
6 -6 1 125506 6278.39 3
6 -6 1 114424 5445.68 5
-6 6 -2 25669.8 2396.84 6
6 -6 2 25003.6 2287.41 3
-6 6 -2 21504.2 1691.82 5
6 -6 2 22194.8 1888.09 5
-6 6 -3 32113.2 2768.66 6
6 -6 3 36382.6 2854.75 3
-6 6 -3 31502.6 2231.42 5
6 -6 3 30898.9 2404.7 5
-6 6 -4 9709.77 1429.23 6
6 -6 4 10671.5 1476.43 3
-6 6 -4 8882.82 1140.55 5
6 -6 4 8522.23 1268.26 5
-6 6 -5 4550.68 974.243 6
-6 6 -5 5928.08 987.468 5
6 -6 5 6729.82 1185.84 3
6 -6 5 6241.53 1097.83 5
-6 6 -6 38291.1 3139.87 6
6 -6 6 40033 3297.29 3
-6 6 -6 34462.4 2863.39 5
6 -6 6 39982.8 3148.82 5
6 -6 7 168.675 207.757 3
-6 6 -7 205.414 267.428 5
6 -6 8 105.051 352.231 3
-6 6 -8 1057.5 537.864 5
6 -6 9 10189.9 1720.3 3
-6 6 -9 9814.95 1831.1 5
6 -6 10 79770.4 5745.56 3
-6 6 -10 81912.2 6381.92 5
6 -6 11 886.584 654.59 3
-6 6 -11 902.006 639.859 5
6 -6 12 118567 8195.76 3
-6 6 -12 112814 9322.7 5
6 -6 13 11935.7 2746.1 1
6 -6 13 6729.37 1688.62 3
-6 6 -13 6829.42 2162.78 5
6 -6 14 12810.4 2595.05 3
-6 6 -14 11079.8 2987.71 5
6 -6 15 8065.88 2157.93 3
6 -6 16 13950.3 3018.05 3
-6 5 14 77927.9 8567.64 6
6 -5 -13 4765.39 1388.39 7
-6 5 13 5673.75 2081.95 6
6 -5 -12 27684.6 3174.78 7
-6 5 12 25955.6 4441.55 6
6 -5 -11 814.644 523.966 7
-6 5 11 -371.959 409.979 6
6 -5 -10 792.544 525.862 7
-6 5 10 1075.33 920.858 6
6 -5 -9 16314.5 2061.69 7
6 -5 -9 11992.1 1431.23 2
-6 5 9 12127.3 2448.84 6
6 -5 -8 3197.96 835.952 7
6 -5 -8 3004.39 873.014 1
-6 5 8 1959.31 820.609 6
6 -5 -8 1773.94 527.82 2
6 -5 -7 1893.66 819.425 8
6 -5 -7 1242.05 481.12 7
6 -5 -7 1810.79 644.708 1
-6 5 7 1581.53 739.361 6
6 -5 -7 1791.64 522.053 2
6 -5 -6 5149.3 1200.26 8
6 -5 -6 5024.32 1019.23 1
-6 5 6 5456.02 1640.23 8
6 -5 -6 6029.51 1088.35 7
-6 5 6 5512.26 1292.94 6
6 -5 -6 5302.27 923.393 2
-6 5 5 58546.7 5369.53 8
6 -5 -5 50744.3 3386.81 2
6 -5 -5 64615.2 3902.94 7
-6 5 5 63647.1 4609.89 6
6 -5 -5 49560.1 3598.45 1
6 -5 -5 56061.6 3073.4 5
6 -5 -5 60610.4 4363.05 4
6 -5 -5 62392.7 4320.74 8
-6 5 4 103726 6899.88 8
6 -5 -4 90134.4 5063.48 2
6 -5 -4 106585 5445.66 7
6 -5 -4 91268.8 5217.41 1
-6 5 4 109833 6205.46 6
6 -5 -4 100895 4651.48 5
6 -5 -4 100403 6126.31 4
6 -5 -3 95040.4 4965.74 7
-6 5 3 93880.5 5539.04 6
6 -5 -3 88556.6 4286.76 5
6 -5 -3 85674.5 5648.2 4
6 -5 -3 84020.7 4799.97 2
-6 5 2 133337 7349.85 8
-6 5 2 154397 7761.66 6
6 -5 -2 158582 7266.79 6
6 -5 -2 158420 6596.83 5
6 -5 -2 142672 8126.58 4
6 -5 -1 -26.2803 315.015 4
-6 5 1 -39.6946 151.918 8
-6 5 1 -93.8428 241.367 6
6 -5 -1 62.6713 129.017 6
6 -5 -1 354.144 197.582 5
6 -5 -1 141.363 159.138 3
6 -5 0 1568.6 649.284 4
-6 5 0 1940.05 437.115 8
-6 5 0 1644.4 568.937 6
6 -5 0 2071.35 562.98 6
6 -5 0 1647.76 435.476 5
6 -5 0 1319.45 446.064 3
-6 5 -1 94263.1 3986.04 8
-6 5 -1 103600 5561.02 6
6 -5 1 102370 5430.2 6
6 -5 1 107845 5387.6 3
6 -5 1 100258 4812.26 5
-6 5 -2 143539 7125.93 6
6 -5 2 140233 7063.07 6
6 -5 2 146083 6974.85 3
-6 5 -2 147372 6386.62 5
6 -5 2 142937 6528.68 5
-6 5 -3 44451.2 3277.69 6
6 -5 3 53888.1 3388.42 3
-6 5 -3 41770.2 2792.72 5
6 -5 3 47851 3076.6 5
6 -5 3 37993.6 3600.36 4
-6 5 -4 140630 7247.22 6
6 -5 4 153256 7210.2 3
-6 5 -4 148017 6839.41 5
6 -5 4 154520 7045.92 5
6 -5 5 5536.06 1286.86 4
6 -5 5 8717.3 1300.9 3
-6 5 -5 7528.15 1218.83 6
-6 5 -5 7448.28 1135.78 5
6 -5 5 6676.4 1090.61 5
6 -5 6 1472.81 686.673 4
-6 5 -6 2023.65 642.704 5
6 -5 6 2308.83 648.69 3
6 -5 6 2637.76 733.08 5
6 -5 7 5673.37 1120.21 3
-6 5 -7 4570.31 1012.76 5
-6 5 -7 6405.04 1192.53 3
6 -5 8 13111.7 1810.35 3
-6 5 -8 12457.2 1849.58 5
6 -5 9 8635.76 1552.14 3
-6 5 -9 10654.7 1876.92 5
6 -5 10 -62.8706 268.67 3
-6 5 -10 242.249 197.267 5
6 -5 11 14462.8 2305.57 3
6 -5 11 20417 3281.54 1
-6 5 -11 18934.1 3032.88 5
6 -5 12 1265.65 806.049 1
6 -5 12 938.066 468.037 3
-6 5 -12 2174.77 1175.15 5
6 -5 13 142423 10005.5 1
6 -5 13 91428.9 7560.32 3
6 -5 13 146371 9940.2 2
-6 5 -13 91538.2 8771.14 5
6 -5 14 7227.04 2071.17 2
6 -5 14 6255.27 1851.31 3
6 -5 14 8359.98 2314.84 1
-6 5 -14 5388.33 2108.25 5
6 -5 15 42126.5 5280.33 3
-6 4 15 975.166 879.945 6
-6 4 14 5207.42 2059.94 6
6 -4 -13 102101 7243.69 7
-6 4 13 106418 9595.61 6
6 -4 -12 3422.12 1259.39 8
6 -4 -12 3211.26 1062.97 7
-6 4 12 1405.74 850.963 6
6 -4 -11 119488 7440.69 7
-6 4 11 110788 9060.5 6
6 -4 -10 9557.53 1637.11 7
6 -4 -10 11638 2129.74 8
-6 4 10 10143.6 2246.39 6
6 -4 -10 10999.4 1538.87 4
6 -4 -9 5477.64 1353.6 8
6 -4 -9 5887.93 1160.12 4
6 -4 -9 4825.15 1081.15 1
6 -4 -9 3832.12 970.951 7
6 -4 -9 6038.97 859.425 2
-6 4 9 3828.13 1288.24 6
6 -4 -8 229.437 333.182 8
6 -4 -8 1089.43 499.133 4
6 -4 -8 207.013 173.098 7
-6 4 8 800.543 610.384 6
6 -4 -8 532.875 282.584 2
6 -4 -8 -206.333 374.316 1
6 -4 -7 9457.09 1732.39 8
6 -4 -7 8340.49 1006.95 2
6 -4 -7 7700.08 1256.93 7
-6 4 7 8532.38 1594.82 6
6 -4 -7 5177.91 997.781 1
6 -4 -7 9417.23 1494.01 4
6 -4 -6 12962.6 1312.12 2
-6 4 6 11548.9 2138.67 8
6 -4 -6 11719.8 1518.89 7
-6 4 6 13924.9 1946.22 6
6 -4 -6 13124.7 1531 1
6 -4 -6 16688.2 2180.2 8
6 -4 -6 15052.1 1939.23 4
-6 4 5 12019.2 1997.23 8
6 -4 -5 11653.7 1249.35 2
6 -4 -5 11498.6 1408.16 7
-6 4 5 11515 1671.9 6
6 -4 -5 13303.4 1428.55 1
6 -4 -5 11528.3 1732.92 4
6 -4 -5 14001.1 1915.13 8
6 -4 -4 8664.88 1438.01 8
-6 4 4 7796.05 1441.23 8
6 -4 -4 9358.76 1204.07 7
-6 4 4 10553.7 1504.2 6
6 -4 -4 8677.27 1122.72 1
6 -4 -4 9887.32 1079.02 5
6 -4 -4 10727.5 1655.01 4
6 -4 -4 8787.13 1088.77 2
6 -4 -3 47748.9 2961.88 7
6 -4 -3 42413.4 2734.37 1
6 -4 -3 44276.5 3336.74 8
-6 4 3 46455.9 3394.06 6
6 -4 -3 45321.9 2961.05 6
6 -4 -3 44157.9 2670.86 5
6 -4 -3 43098.5 3647.74 4
6 -4 -3 40801.3 2789.19 2
-6 4 2 129042 6441.39 8
-6 4 2 135927 6883.52 6
6 -4 -2 138140 6500.64 6
6 -4 -2 132743 6058.52 5
6 -4 -2 138018 7597.96 4
6 -4 -2 136575 6743.12 8
-6 4 1 186155 8009.1 8
-6 4 1 188612 8764.49 6
6 -4 -1 198395 8531.68 6
6 -4 -1 193132 8012.83 5
6 -4 -1 163093 9297.21 4
6 -4 -1 187353 8329.79 8
-6 4 0 36458.9 2085 8
-6 4 0 36272.2 2828.07 6
6 -4 0 36830.8 2743.41 6
6 -4 0 39642.1 2693.5 3
6 -4 0 38423.7 2449.87 5
6 -4 0 32920.6 3236.17 4
6 -4 0 33287.9 2269.31 8
-6 4 -1 39134.6 3049.83 6
6 -4 1 42190.6 3053.23 6
6 -4 1 47520.4 2984.25 3
6 -4 1 43781.1 2737.5 5
6 -4 1 37320 3703.77 4
6 -4 1 42776.4 2272.74 8
-6 4 -2 40205.3 2959.12 6
6 -4 2 38227.9 2952.43 6
6 -4 2 41579 2735.78 3
-6 4 -2 40553.6 2537.62 5
6 -4 2 40484 2629.9 5
6 -4 2 41420.4 3558.66 4
6 -4 2 33727.1 1625.85 8
-6 4 -3 66700 4229.08 6
6 -4 3 66093.2 4347.06 6
6 -4 3 77201.7 4121.81 3
-6 4 -3 67222.2 3840.56 5
6 -4 3 74658.2 4053.47 5
6 -4 3 65162.2 4874.91 4
-6 4 -4 119719 6422.88 6
6 -4 4 122608 6716.07 6
6 -4 4 125240 6149.52 3
-6 4 -4 128655 6175.49 5
6 -4 4 134890 6265.68 5
6 -4 4 122037 7256.43 4
6 -4 5 195769 8596.22 3
-6 4 -5 189343 8579.53 5
6 -4 5 184094 8600.61 5
6 -4 5 173245 9587.57 4
6 -4 6 16665 1797.52 3
-6 4 -6 18637.9 2008.13 5
6 -4 6 17366.9 2294.95 4
6 -4 7 49565.4 3510.35 3
-6 4 -7 46242.7 3578.25 5
6 -4 7 45270 4104.77 4
6 -4 8 560.068 353.968 4
6 -4 8 298.944 467.181 1
6 -4 8 527.511 401.11 3
-6 4 -8 955.736 605.366 5
-6 4 -8 1499.79 602.126 3
6 -4 9 18119.4 1303.77 8
6 -4 9 18845.3 2952.33 1
6 -4 9 14143.6 2016.84 3
-6 4 -9 15245.9 2015.46 3
-6 4 -9 15850.5 2279.61 5
6 -4 9 19123.6 2404.19 4
6 -4 10 5203.13 1257.22 4
6 -4 10 3892.53 1297.13 1
6 -4 10 5068.05 1291.5 3
-6 4 -10 4733.53 1378.35 5
-6 4 -10 4633.82 1166.12 3
6 -4 11 15819.8 2852.8 1
6 -4 11 15709.5 2909.57 2
6 -4 11 13270.9 2230.18 3
-6 4 -11 12395.3 2417.57 5
6 -4 12 1058.04 854.661 2
6 -4 12 328.779 272.303 3
6 -4 12 -218.166 670.211 1
-6 4 -12 2131.89 1042.81 5
6 -4 13 -102.428 499.544 2
6 -4 13 -119.596 847.569 1
6 -4 13 -249.246 760.912 3
-6 4 -13 1116.15 752.524 5
6 -4 14 66676.2 6421.31 3
6 -4 14 59684.1 6184 2
6 -4 14 64733.7 6612.63 1
6 -4 15 2307.9 1234.26 1
-6 3 16 56035.8 6756.46 6
-6 3 15 1455.39 802.726 6
6 -3 -14 4625.34 1470.91 8
-6 3 14 3271.19 1562.35 6
6 -3 -13 2516.93 1005.31 8
-6 3 13 2999.95 1308.89 6
6 -3 -12 72402.7 5556.32 7
-6 3 12 66961.2 6522.29 6
6 -3 -12 77068 6058.87 8
6 -3 -11 899.311 728.444 8
6 -3 -11 1038.99 436.431 4
6 -3 -11 -268.672 489.356 7
-6 3 11 -150.978 285.134 6
6 -3 -10 199645 9980.59 7
6 -3 -10 192213 9742.52 1
-6 3 10 188144 10904.2 6
6 -3 -10 211332 10989.3 8
6 -3 -10 186049 9119.79 4
6 -3 -9 38272.2 3357.56 1
6 -3 -9 48431.1 3759.91 7
6 -3 -9 43032.1 2392.13 2
-6 3 9 49881.3 4388.62 6
6 -3 -9 48204.7 4292.3 8
6 -3 -9 49313.1 3541.79 4
6 -3 -8 35735 2942.49 1
6 -3 -8 38671.2 3118.01 7
6 -3 -8 33261.2 1999.54 2
-6 3 8 38798.5 3597.48 6
6 -3 -8 35961.8 3559.21 8
6 -3 -8 39774.5 3198.93 4
-6 3 7 15445 2410.17 8
6 -3 -7 13752.4 1590.68 1
6 -3 -7 13226.2 1107.62 2
6 -3 -7 14394.4 1705.78 7
-6 3 7 13481.9 1916.17 6
6 -3 -7 12748.8 1994.97 8
6 -3 -7 14008.1 1822.8 4
-6 3 6 16604.5 2374.47 8
6 -3 -6 17510.1 1357.16 2
6 -3 -6 20714.9 1962.05 7
-6 3 6 21043.1 2224.36 6
6 -3 -6 16700.4 1668.17 1
6 -3 -6 21323 2304.3 4
6 -3 -6 18183.8 2294.26 8
6 -3 -5 18358.5 1437.76 2
-6 3 5 20601.2 2377.72 8
6 -3 -5 21230.9 1911.12 7
6 -3 -5 20988.4 2360.36 4
-6 3 5 17688.3 1986.15 6
6 -3 -5 18887.4 1634.04 1
6 -3 -5 25096.5 2617 8
-6 3 4 52291.5 3923.16 8
6 -3 -4 60641.5 3494.2 7
-6 3 4 62733.8 3949.6 6
6 -3 -4 58909.9 3117.57 1
6 -3 -4 55343.7 3107.82 2
6 -3 -4 62965.2 4435.42 4
6 -3 -4 61145.1 4257.17 8
6 -3 -3 4972.58 1002.8 8
6 -3 -3 5181.34 1140.78 4
6 -3 -3 3794.85 665.215 7
6 -3 -3 4126.51 592.634 1
-6 3 3 3478.67 770.503 6
6 -3 -3 4374 778.138 6
6 -3 -3 4273.77 733.33 5
-6 3 2 40123.1 2792.29 8
6 -3 -2 43243.7 2619.62 7
-6 3 2 43155 3072.47 6
6 -3 -2 47082.9 2948.4 6
6 -3 -2 47888.9 2834.92 5
6 -3 -2 43837.6 3738.14 4
6 -3 -2 42210.5 3154.95 8
-6 3 1 67237.3 3619.79 8
-6 3 1 75461.6 4326.91 6
6 -3 -1 73617.4 4096.65 6
6 -3 -1 74932 3896.87 5
6 -3 -1 66274.1 4895.8 4
6 -3 -1 72085.7 4217.53 8
-6 3 0 90559.4 4925.78 6
6 -3 0 85906.4 4754.1 6
6 -3 0 89758.9 4511.18 5
6 -3 0 77578.1 5538.57 4
6 -3 0 92448.2 4665.15 8
-6 3 -1 74306.3 4373.53 6
6 -3 1 73906.5 4422.4 6
6 -3 1 76702.1 4009.34 3
6 -3 1 72819.1 4002.71 5
6 -3 1 68695.7 5184.19 4
6 -3 1 77229.1 3905.51 8
6 -3 2 108147 4885.54 8
-6 3 -2 104898 5690.4 6
6 -3 2 106776 5833.45 6
6 -3 2 111761 5264.94 3
-6 3 -2 110103 5317.36 5
6 -3 2 108119 5342.09 5
6 -3 2 102849 6617.2 4
6 -3 3 4243.89 574.646 8
6 -3 3 4884.24 1240.38 4
6 -3 3 3798.4 888.559 6
-6 3 -3 3781.81 731.435 5
6 -3 3 3874.42 770.415 5
6 -3 3 4298.33 750.78 3
6 -3 4 1728.99 743.364 4
6 -3 4 1347.64 303.332 8
6 -3 4 809.035 395.898 6
6 -3 4 779.341 353.477 3
6 -3 4 2479.67 627.288 5
6 -3 5 89231.4 4079.09 8
6 -3 5 100836 6189.21 1
6 -3 5 94806.1 4915.36 3
-6 3 -5 98032.5 5249.51 5
6 -3 5 108360 5299.65 5
6 -3 5 91512.2 3938.61 8
6 -3 5 100646 6363.47 4
6 -3 6 162484 6224.53 8
6 -3 6 154888 8793.22 1
6 -3 6 153438 7263.67 3
-6 3 -6 154372 7641.27 5
6 -3 6 144031 6220.82 8
6 -3 6 149895 8491.6 4
6 -3 7 48584.5 4529.33 1
6 -3 7 54669.9 3663.76 3
-6 3 -7 50871.9 3871.69 5
6 -3 7 53629.5 2879.48 8
6 -3 7 53359.3 4306.95 4
6 -3 8 113702 7711.71 1
6 -3 8 110661 6315.71 3
-6 3 -8 106056 5813.46 3
-6 3 -8 112085 6635.72 5
6 -3 8 115604 5327.73 8
6 -3 8 113051 6845.97 4
6 -3 9 1886.25 558.156 8
6 -3 9 1392.66 531.321 4
6 -3 9 50.3006 724.989 2
6 -3 9 652.7 540.884 1
6 -3 9 845.112 477.469 3
-6 3 -9 1052.99 624.976 5
-6 3 -9 1227.05 599.713 3
6 -3 10 225.327 240.027 4
6 -3 10 -247.775 764.827 2
6 -3 10 776.27 489.219 1
6 -3 10 783.998 528.25 3
-6 3 -10 1861.03 871.389 5
-6 3 -10 1230.22 607.959 3
6 -3 11 -5.89089 552.371 1
6 -3 11 -24.6626 328.428 2
-6 3 -11 152.538 412.262 5
6 -3 12 15127.6 2970.97 1
6 -3 12 20098.1 3286.52 2
6 -3 12 19910.5 3069.5 3
-6 3 -12 19721.7 3221.14 5
6 -3 13 561.537 534.71 2
6 -3 13 -763.484 698.119 3
-6 3 -13 223.368 480.657 5
6 -3 13 -6.96778 719.092 1
6 -3 14 3288.87 1461.75 2
6 -3 14 2232.57 1032.2 1
-6 3 -14 3092.48 1285.55 5
6 -3 15 10743.7 2717.14 1
-6 2 16 4851.57 1795.53 6
-6 2 15 28945.7 4350.92 6
6 -2 -15 31907.1 3936.59 8
6 -2 -14 3112.95 1132.99 8
-6 2 14 1650.97 1047.84 6
-6 2 13 18779.2 3114.4 6
6 -2 -13 16946.5 2687.06 8
6 -2 -12 2706.73 1010.06 8
-6 2 12 2762.21 1132.53 6
6 -2 -11 21893.3 2175.46 4
-6 2 11 18762.2 2659.78 6
6 -2 -11 16743.2 2576.91 8
6 -2 -10 1458.25 649.698 8
6 -2 -10 583.972 312.858 4
6 -2 -10 606.498 236.976 7
-6 2 10 1261.2 752.871 6
6 -2 -9 197345 9572.53 4
6 -2 -9 212523 10197.8 7
-6 2 9 201456 10099.8 6
6 -2 -9 202822 10755.6 8
6 -2 -8 25430 2517.91 4
6 -2 -8 28623 2689.54 7
-6 2 8 25936.8 2573.35 6
6 -2 -8 28735.3 3100.69 8
-6 2 7 148776 8727.12 8
6 -2 -7 168082 7884.16 7
6 -2 -7 148977 5755.07 2
-6 2 7 157768 7731.4 6
6 -2 -7 169845 8730.96 8
6 -2 -7 172765 8162.85 4
-6 2 6 48154.6 3994.5 8
6 -2 -6 48584.1 2260.12 2
6 -2 -6 55440.8 3526.73 7
-6 2 6 46058.9 3355.81 6
6 -2 -6 49953.5 3963.23 8
6 -2 -6 52802.4 3858.08 4
-6 2 5 8666.75 1667.57 4
6 -2 -5 8493.03 1433.68 8
6 -2 -5 7597.9 1353.53 4
-6 2 5 6050.34 1189.57 8
6 -2 -5 6329.83 1005.98 7
6 -2 -5 6592.63 825.319 1
-6 2 5 7094.68 1131.31 6
6 -2 -5 6387.87 658.356 2
-6 2 4 2007.51 816.696 4
6 -2 -4 3219.21 808.719 8
6 -2 -4 2578.45 775.52 4
-6 2 4 3027.35 776.985 8
6 -2 -4 3911.88 701.556 7
-6 2 4 3244.38 712.64 6
6 -2 -4 3156.52 618.532 6
6 -2 -4 2643.04 428.736 1
6 -2 -3 77501.5 3857.98 7
-6 2 3 73456.1 4219.48 6
6 -2 -3 70961.6 3885.95 6
6 -2 -3 73607.1 4042.29 5
-6 2 3 73424.2 5479.48 4
6 -2 -3 70931.2 4957.58 4
6 -2 -3 73659.7 4546.03 8
6 -2 -2 36173.4 2765.84 8
6 -2 -2 36204.9 2194.98 7
-6 2 2 35670.2 2647.38 6
6 -2 -2 36414.3 2489.41 6
6 -2 -2 35863.2 2479.01 5
-6 2 2 31750 3392.7 4
6 -2 -2 33102.6 3176.37 4
6 -2 -1 90037.8 4900.24 8
6 -2 -1 96009.3 4234.78 7
6 -2 -1 85848 3809.09 1
-6 2 1 92452 4963.21 6
6 -2 -1 96134.9 4857.73 6
6 -2 -1 101948 4839.54 5
-6 2 1 93902.3 6251.62 4
6 -2 -1 98211.7 6089.77 4
-6 2 0 85.7302 299.166 4
6 -2 0 233.097 207.314 8
6 -2 0 95.283 220.85 4
6 -2 0 164.76 139.27 7
6 -2 0 846.11 297.06 1
-6 2 0 234.572 282.713 6
6 -2 0 206.905 200.993 6
6 -2 0 -22.1019 136.128 5
6 -2 1 18974.9 1661.19 8
6 -2 1 19506 1665.11 1
-6 2 -1 20917.8 1942.21 6
6 -2 1 21052.5 1994.31 6
6 -2 1 20069 1607.34 3
6 -2 1 20494.7 1786.87 5
-6 2 -1 18816.3 2392.58 4
6 -2 1 20032.1 2488.17 4
6 -2 2 63798.4 3532.33 8
6 -2 2 68265.6 4021.72 1
6 -2 2 66038 4183.32 6
6 -2 2 66196.6 3470.1 3
6 -2 2 69254.5 3850.8 5
-6 2 -2 70262.4 4915.81 4
6 -2 2 62817.5 4836.6 4
6 -2 3 93857 4557.56 8
6 -2 3 100640 5506.01 1
6 -2 3 92476.9 5430.04 6
6 -2 3 94006.8 4525.51 3
-6 2 -3 96008.2 4973.86 5
6 -2 3 93837.4 4951.57 5
-6 2 -3 94665.6 5930.71 4
6 -2 3 85752.1 5962.35 4
6 -2 4 8856.45 1457.61 1
6 -2 4 9000.02 986.521 8
-6 2 -4 9749.1 1573.18 4
6 -2 4 6145.68 1342 4
6 -2 4 10279 1516.95 6
6 -2 4 8441.35 993.42 3
-6 2 -4 7407.49 1123.45 5
6 -2 4 9174.42 1236.44 5
6 -2 5 9551.94 1682.98 4
6 -2 5 8641.83 1802.28 2
6 -2 5 7842.67 1451.34 1
6 -2 5 9681.66 1135.36 3
-6 2 -5 9008.6 1313.65 5
6 -2 6 52771.1 3357.27 3
6 -2 6 49025.4 4741.65 2
-6 2 -6 56510.2 3821.09 5
6 -2 6 54602.1 4410.79 1
6 -2 6 52952.7 4291.62 4
6 -2 7 79805.4 5612.07 4
6 -2 7 94206.5 5129.85 3
6 -2 7 86576.6 6672.92 2
-6 2 -7 86567.8 5320.46 5
6 -2 7 83387.9 4252.06 8
6 -2 7 86173.5 6166.72 1
6 -2 8 64056.5 4767.27 4
6 -2 8 58612.3 4249.68 7
6 -2 8 72278.3 4605.29 3
6 -2 8 71467.9 6005.76 2
-6 2 -8 66912.6 4749.43 5
6 -2 8 70965.5 5645.42 1
6 -2 8 63663.8 3656.57 8
6 -2 9 156876 8508.91 4
6 -2 9 175034 8892.52 3
6 -2 9 149149 8139.35 7
6 -2 9 171959 10500.8 2
-6 2 -9 165327 8937.73 5
6 -2 9 158600 9816.86 1
6 -2 9 151827 7363.4 8
6 -2 10 3174.03 1260.81 2
6 -2 10 2655.09 808.106 4
6 -2 10 3335.23 903.966 7
6 -2 10 2000.54 846.993 3
6 -2 10 1572.77 702.645 1
-6 2 -10 3322.02 1112.99 5
6 -2 11 47003.8 5102.17 2
-6 2 -11 41290.9 4434.03 5
6 -2 11 40940.4 4771.78 1
6 -2 12 4931.36 1589.68 2
6 -2 12 938.577 523.318 1
-6 2 -12 5770.8 1751.5 5
6 -2 13 12942.2 2749.55 2
6 -2 13 10824.2 2536.87 1
-6 2 -13 9042.37 2207.64 5
6 -2 14 1545.04 915.855 1
-6 1 16 1766.99 879.392 1
-6 1 15 23888 3444.78 6
-6 1 15 21672 3488.65 1
6 -1 -15 21451.5 3233.68 8
6 -1 -14 7725.1 1820.53 8
-6 1 14 7136.36 1795.27 6
-6 1 14 8609.36 2068.38 1
6 -1 -13 3785.22 1244.68 8
-6 1 13 2808.2 944.942 6
-6 1 13 2361.85 1060.2 1
-6 1 12 32327.2 3626.56 1
-6 1 12 26481.2 3029.37 6
6 -1 -12 28549.9 3551.14 8
6 -1 -11 383.961 408.23 8
6 -1 -11 825.696 306.87 4
-6 1 11 961.328 569.182 6
-6 1 11 1244.77 673.267 1
6 -1 -10 -229.122 441.617 8
6 -1 -10 4.96542 176.303 4
-6 1 10 -13.3233 255.357 6
-6 1 10 -292.289 421.961 1
-6 1 9 2580.33 890.792 4
6 -1 -9 1782.25 795.553 8
6 -1 -9 1430.56 561.421 4
-6 1 9 1381.4 530.031 6
6 -1 -8 131102 6923.8 4
6 -1 -8 128793 7544.88 8
-6 1 8 119864 6774.54 7
-6 1 8 111959 6209.85 6
-6 1 7 2891.64 994.211 4
6 -1 -7 3041.65 952.234 8
6 -1 -7 2733.48 777.537 4
-6 1 7 2303.22 637.202 6
6 -1 -6 225156 11010.6 4
-6 1 6 227461 11153.6 8
6 -1 -6 233419 10616.8 7
-6 1 6 227130 10092.5 6
6 -1 -6 247747 11418.2 8
6 -1 -5 51767.9 3961.28 4
-6 1 5 52808.1 3818.2 8
6 -1 -5 51839.8 3441.04 7
6 -1 -5 49965 2251.85 2
-6 1 5 49328.2 3198.32 6
6 -1 -5 55738.3 2962.21 6
-6 1 5 53241.6 4519.36 4
6 -1 -5 48242.5 2191.19 2
6 -1 -5 56389 4011.57 8
6 -1 -4 32227 2836.16 8
6 -1 -4 32271.1 3052.55 4
-6 1 4 31995.5 2671.63 8
6 -1 -4 33292.7 2445.49 7
-6 1 4 33115.5 2456.46 6
6 -1 -4 33921.1 1977.28 2
6 -1 -4 31481.9 2150 6
-6 1 4 36359.2 3632.4 4
6 -1 -3 14175.3 1990.11 4
6 -1 -3 11699.2 1565.63 8
-6 1 3 13055.7 1514.61 8
6 -1 -3 15190.3 1403.45 7
-6 1 3 14004 1493.64 6
6 -1 -3 13610.8 1328.1 6
6 -1 -3 15575.8 1409.06 2
-6 1 3 13620.5 2132.6 4
6 -1 -2 109322 6634.57 4
6 -1 -2 116879 5993.29 8
6 -1 -2 108370 4963.27 7
-6 1 2 109918 5505.29 6
6 -1 -2 108554 5286.76 6
6 -1 -2 105810 5511.27 2
6 -1 -2 116083 5576.8 5
-6 1 2 103207 6941.24 4
6 -1 -1 43423.1 3757.56 4
6 -1 -1 43252.1 3081.81 8
6 -1 -1 41887.6 2228.61 7
-6 1 1 39766.2 2792.62 6
6 -1 -1 42282.2 2809.45 6
6 -1 -1 41132.1 3092.3 2
6 -1 -1 46210.3 2928.26 5
-6 1 1 39068.9 3820.53 4
6 -1 0 134619 7857.91 4
6 -1 0 143841 6774.37 8
6 -1 0 138025 5475.26 7
6 -1 0 138970 6675.09 6
6 -1 0 141283 7322.98 2
6 -1 0 144050 6619.6 5
-6 1 0 118258 7714.42 4
6 -1 1 26121.7 2961.66 4
6 -1 1 30423 2334.78 8
6 -1 1 27795.8 1405.75 7
6 -1 1 29581.8 2467.64 6
6 -1 1 31005.4 1735.02 1
6 -1 1 26529.5 2760.67 2
6 -1 1 31058.7 1930.73 3
6 -1 1 30916.6 2331.81 5
-6 1 -1 31830.2 3200.27 4
6 -1 2 41287.6 3889.66 4
6 -1 2 53684.6 3199.12 8
6 -1 2 45851.2 1999.05 7
6 -1 2 50606 3498.68 6
6 -1 2 53786.4 4195.04 2
6 -1 2 48374.6 2595.7 3
6 -1 2 48888.1 2790.9 1
6 -1 2 51595 3220.17 5
-6 1 -2 39419.4 3698.4 4
6 -1 3 15512 2238.14 4
6 -1 3 17849.2 1678.25 8
6 -1 3 18341.5 2046.41 6
6 -1 3 19154 1388.08 3
6 -1 3 17206.5 2387.03 2
-6 1 -3 16344.8 1695.36 5
6 -1 3 17109.2 1705.48 1
6 -1 3 19656.6 1839.38 5
-6 1 -3 19414.2 2311.06 4
6 -1 4 19364.4 2542.29 4
6 -1 4 22331.1 1573.57 7
6 -1 4 23785.7 2435.64 6
6 -1 4 21950.5 1615.33 3
6 -1 4 26952.9 3122.36 2
-6 1 -4 26116.5 2214.36 5
6 -1 4 25794.8 2329.32 1
-6 1 -4 26450 2685.69 4
6 -1 5 20817.1 2619.38 4
6 -1 5 25067.6 1825.88 7
6 -1 5 26731.1 1918.39 3
6 -1 5 26944.3 3236.88 2
-6 1 -5 25975.9 2345.92 5
6 -1 5 25502.3 2575.49 1
-6 1 -5 29771.3 2808.32 4
6 -1 6 11331.7 1865.07 4
6 -1 6 10553.2 2050.59 2
6 -1 6 13437.5 1356.37 7
6 -1 6 14295.9 1470.87 3
-6 1 -6 12188.2 1609.14 5
6 -1 6 13473.4 1965.43 1
-6 1 -6 13214.8 1813.43 4
-6 1 -7 9032.85 1481.88 4
6 -1 7 9180.9 1982.45 2
6 -1 7 7032.11 1424.58 4
6 -1 7 9106.21 1184.34 7
6 -1 7 8677.63 1265.79 3
6 -1 7 10151.2 1838.65 1
-6 1 -7 8399.36 1432.07 5
6 -1 8 14915.2 2065.31 4
6 -1 8 17990.4 2856.06 2
6 -1 8 15496.2 1901.94 3
6 -1 8 14105.5 1639.94 7
-6 1 -8 14906 2031.6 5
6 -1 8 17144 2504.01 1
-6 1 -8 17532.7 2084.29 4
6 -1 8 16472.4 1621.36 8
6 -1 9 46004.1 3734.05 4
6 -1 9 42779.3 3286.6 7
6 -1 9 51726.1 5186.62 2
-6 1 -9 46194.3 4013.82 5
6 -1 9 50411.1 4781.76 1
6 -1 9 40708.7 3005.16 8
6 -1 10 138662 9536.78 2
-6 1 -10 129674 8169.46 5
6 -1 10 139774 9270.82 1
6 -1 11 18716.7 3094.26 1
6 -1 11 21955.9 3467.25 2
-6 1 -11 17685.2 2728.26 5
6 -1 12 86073.7 7430.62 2
6 -1 12 85805.2 7448.33 1
-6 1 -12 83283.2 6802.66 5
6 -1 13 1348.65 709.573 1
-6 1 -13 1135.78 452.403 5
6 -1 14 -186.765 593.946 1
6 0 -15 9160.91 2149.03 8
-6 0 15 11274.3 2378.88 1
-6 0 14 83635.3 6785.35 1
6 0 -14 75267.8 6390.52 8
6 0 -13 1161.53 673.564 8
-6 0 13 797.943 441.763 6
-6 0 13 312.303 412.97 1
-6 0 12 3066 921.815 4
6 0 -12 2334.84 966.427 8
-6 0 12 1782.58 630.629 6
-6 0 12 1227.68 645.167 1
6 0 -11 11672.5 2138 8
-6 0 11 10965.4 1480.69 6
-6 0 11 12964.5 2052.5 1
-6 0 11 16487.6 2221.7 4
-6 0 10 6043.98 1322.12 4
6 0 -10 4593.6 1291.47 8
6 0 -10 4615.48 1011.57 4
-6 0 10 4384.78 852.41 6
-6 0 10 3977.5 1066.78 1
6 0 -9 12766.4 1729.95 4
-6 0 9 9436.96 1706.32 7
-6 0 9 12083.1 1577.43 1
-6 0 9 9461.85 1252.52 6
-6 0 9 15262.8 2185.59 4
6 0 -9 13623.9 2161.18 8
-6 0 8 234.911 425.289 4
6 0 -8 920.344 587.896 8
6 0 -8 869.487 428.482 4
-6 0 8 237.915 188.516 7
-6 0 8 580.935 280.04 6
-6 0 8 532.743 338.892 1
6 0 -7 36180.9 3473.46 8
6 0 -7 33246.9 3053.22 4
-6 0 7 37609.7 2956.38 7
-6 0 7 34442 2451.3 6
-6 0 7 38988.4 3753.59 4
-6 0 6 16.0039 337.184 4
6 0 -6 79.8159 235.092 8
-6 0 6 479.522 435.757 8
6 0 -6 -156.508 379.541 4
-6 0 6 336.911 266.006 7
-6 0 6 424.293 265.725 6
6 0 -5 268719 11949.3 8
6 0 -5 244552 11758.1 4
-6 0 5 260180 11380.5 8
6 0 -5 243362 9093.71 2
-6 0 5 258423 10421.9 6
6 0 -5 254594 9969.37 6
-6 0 5 260340 12871 4
6 0 -4 21485.5 2294.74 8
6 0 -4 18248.1 2260.47 4
-6 0 4 16697.1 1845.61 8
6 0 -4 16963.2 1189.49 2
-6 0 4 17805.6 1617.98 6
6 0 -4 16182.7 1387.85 6
-6 0 4 18320.1 2628.91 4
6 0 -3 146987 7516.03 8
6 0 -3 134793 7847.85 4
6 0 -3 149927 6208.35 2
-6 0 3 139637 6533.03 6
6 0 -3 137891 6269.35 6
-6 0 3 138475 8615.2 4
6 0 -2 45149 4019.2 4
6 0 -2 53603.2 3130.4 2
6 0 -2 49015.8 3625.94 8
6 0 -2 53458.2 3112.9 6
6 0 -2 54219 3404.95 5
-6 0 2 51652.5 4623.29 4
6 0 -1 43967.1 3942.54 4
6 0 -1 46387.7 3375.42 8
6 0 -1 48337.8 3141.46 2
6 0 -1 42810.1 2910.25 6
6 0 -1 49185.7 3171.19 5
-6 0 1 39982.1 4094.05 4
6 0 0 4240.05 912.309 2
-6 0 0 4692.08 1290.35 4
6 0 0 3872.51 862.908 8
6 0 0 4447.51 1183.71 4
6 0 0 5032.86 898.61 6
6 0 0 5559.67 942.411 5
6 0 1 143090 8593.49 4
6 0 1 159963 7552.61 8
6 0 1 158237 7592.2 6
6 0 1 162684 8045.42 2
6 0 1 158190 7349.5 5
-6 0 -1 138285 8644.99 4
6 0 2 61324.2 4963.45 4
6 0 2 68291.3 4134.24 8
6 0 2 68285.6 4398.6 6
6 0 2 70422 4841.44 2
6 0 2 68518 3110.99 3
-6 0 -2 68743.2 5128.79 4
6 0 3 76774.6 5670.99 4
6 0 3 84507.5 4693.51 8
6 0 3 85031.2 4385.45 1
6 0 3 77540.4 4978.64 6
6 0 3 84586.8 5666.75 2
6 0 3 80353.1 3516.31 3
-6 0 -3 76129.4 5441.12 4
6 0 4 7636.35 1616.26 2
-6 0 -4 6453.98 1281.04 4
6 0 4 5559.99 1339.45 4
6 0 4 5990.18 633.781 3
-6 0 -4 6237.94 1066.88 5
6 0 4 6023.03 1018.14 1
6 0 5 5909.93 1473.02 2
-6 0 -5 6294.66 1266.05 4
6 0 5 5004.56 1238.86 4
-6 0 -5 6270.47 1121.97 5
6 0 5 4606.94 1020.77 1
6 0 6 16436.3 2277.78 4
6 0 6 17511 1216.41 7
6 0 6 17303.2 2657.23 2
6 0 6 18059 2203 1
-6 0 -6 18016 2019.48 5
-6 0 -6 19299.3 2262.49 4
6 0 7 2754.53 1149.41 2
-6 0 -7 1708.54 606.88 4
6 0 7 1558.05 746.408 4
6 0 7 2051.54 439.17 7
-6 0 -7 1735.32 656.17 5
6 0 7 2150.46 932.412 1
6 0 8 6092.14 1455.3 1
6 0 8 5376.16 1586.14 2
-6 0 -8 6767.13 1305.96 4
6 0 8 6211.81 889.862 7
-6 0 -8 5156.34 1180.59 5
6 0 9 1592.08 778.362 1
6 0 9 1396.16 780.26 2
-6 0 -9 2424.75 750.969 4
-6 0 -9 1069.14 377.678 5
6 0 10 21750.5 3391.48 2
6 0 10 20168.6 3090.11 1
-6 0 -10 19697.3 2683.2 5
-6 0 -10 23116.8 2410.85 4
6 0 11 60024 6014.84 2
6 0 11 62974 5987.36 1
-6 0 -11 54340.6 5014.85 5
-6 0 -12 16397.2 2738.63 5
6 0 12 23439 3613.84 1
6 0 12 18193.5 3305.61 2
6 0 13 77463.4 7298.34 1
-6 0 -13 65730 6195.17 5
6 0 14 256.899 676.534 1
6 1 -15 40413.6 4662.05 8
-6 -1 14 33559.1 3967.96 1
6 1 -14 45097.6 4707.4 8
-6 -1 13 152609 9552.48 1
-6 -1 13 181480 9194.3 4
6 1 -13 155667 10036.5 8
-6 -1 12 1108.33 558.887 4
-6 -1 12 2963.25 1079.43 1
6 1 -12 2331.48 1012.1 8
-6 -1 12 1347.17 459.855 6
-6 -1 11 31853.3 2354.3 6
-6 -1 11 36815.7 3570.11 1
-6 -1 11 41497.1 3724.97 4
6 1 -11 36862.2 3995.17 8
-6 -1 10 -106.024 356.979 4
6 1 -10 324.144 282.687 8
-6 -1 10 293.681 364.049 1
-6 -1 10 417.925 196.604 6
-6 -1 9 6072.54 1399.77 4
-6 -1 9 6791.29 1228.69 1
6 1 -9 6366.48 1445.26 8
-6 -1 9 6245.54 1388.08 7
-6 -1 9 5833.4 844.883 6
-6 -1 8 5990.88 1467.18 4
6 1 -8 6608.51 1423.84 8
-6 -1 8 5176.64 1185.28 7
-6 -1 8 7078.15 890.395 6
-6 -1 8 6818.26 1061.37 1
6 1 -7 31709.4 3237.89 8
-6 -1 7 30785.2 2781.67 7
-6 -1 7 31660.6 2123.52 6
-6 -1 7 29309.9 1928.5 1
-6 -1 7 33721.9 3553.28 4
-6 -1 6 2934.96 1107.82 4
6 1 -6 1467.14 635.586 8
-6 -1 6 2220.72 608.967 7
6 1 -6 1628.99 896.333 3
-6 -1 5 1724.47 897.251 4
6 1 -5 3075.74 935.057 8
-6 -1 5 2434.08 557.887 7
6 1 -5 2314.68 444.002 6
6 1 -5 1779.15 959.423 3
6 1 -5 2234.11 322.059 2
6 1 -4 138306 7554.9 8
6 1 -4 142402 5810.46 2
6 1 -4 115416 8448.56 3
6 1 -4 135242 5919.69 6
-6 -1 4 140380 8883.33 4
6 1 -3 28530.1 2725.07 8
6 1 -3 27352.1 1868.83 2
6 1 -3 21163.9 2938.13 3
6 1 -3 22972.1 1756.39 6
-6 -1 3 21969.9 3163.47 4
6 1 -2 200646 9192.06 8
6 1 -2 147133 9502.3 3
6 1 -2 199349 8059.09 2
6 1 -2 175124 7819.19 6
-6 -1 2 161327 10352.1 4
6 1 -1 47345.3 3536.85 8
6 1 -1 40377.5 3770.46 3
6 1 -1 43999.5 3019.27 2
6 1 -1 47645.9 3023.41 6
-6 -1 1 38392 4283.32 4
-6 -1 0 372.243 480.294 4
6 1 0 456.062 294.473 8
6 1 0 1088.61 463.522 6
6 1 0 361.664 361.278 3
6 1 0 420.495 352.968 2
-6 -1 -1 6368.05 1553.2 4
6 1 1 7279.13 1226.97 8
6 1 1 6585.83 1004.11 3
6 1 1 9944.07 1400.19 6
6 1 1 8138.91 690.057 3
6 1 1 7935.59 1294.49 2
6 1 2 189072 8886.23 8
6 1 2 192684 9320.66 2
6 1 2 172739 8762.8 6
-6 -1 -2 176835 10269.1 4
6 1 3 38515.4 3465.99 2
6 1 3 31135.7 2910.94 6
-6 -1 -3 34057 3610.97 4
6 1 4 139348 8112.28 2
-6 -1 -4 134243 8053.82 4
6 1 5 48592.6 3672.66 1
6 1 5 50970.4 4563.72 2
-6 -1 -5 49142.6 3560.09 5
-6 -1 -5 47469.4 4107.76 4
6 1 6 14404.6 1989.01 1
-6 -1 -6 14335.7 1874.05 5
-6 -1 -6 16523.4 2178.69 4
6 1 6 15988.2 2506.07 2
-6 -1 -7 1306.99 581.235 4
6 1 7 2427.82 901.243 1
-6 -1 -7 2190.83 683.135 5
6 1 7 3298.41 1134.32 2
-6 -1 -8 3.04516 152.656 4
6 1 8 230.513 396.361 1
-6 -1 -8 65.7625 308.415 5
6 1 8 -33.4456 667.874 2
-6 -1 -9 15125.5 2221.37 5
6 1 9 15393.3 2553.93 1
-6 -1 -9 15987.9 2052.61 4
6 1 9 15616.3 2966.05 2
-6 -1 -10 339.133 367.038 4
6 1 10 -366.635 379.272 1
-6 -1 -10 454.215 435.195 5
6 1 10 -243.471 352.171 2
-6 -1 -11 922.429 569.978 4
-6 -1 -11 797.263 654.88 5
6 1 11 312.232 431.865 2
6 1 12 19414.4 3333.69 1
-6 -1 -12 14900.1 2596.8 5
6 1 13 13823.9 2951.18 1
6 2 -14 11652.5 2413.13 8
-6 -2 13 44182.4 4322.3 1
-6 -2 13 46707.1 4084.92 4
6 2 -13 49581.3 5017.57 8
-6 -2 12 158117 8847.45 1
-6 -2 12 147197 8458.88 4
6 2 -12 134157 9181.61 8
-6 -2 11 12808.1 2077.32 4
6 2 -11 13070.8 2361.96 8
-6 -2 11 16435.7 2266.05 1
6 2 -10 117520 8007.86 8
-6 -2 10 131727 7308.91 1
-6 -2 10 125696 7816.24 4
-6 -2 9 10206.3 1907.11 4
6 2 -9 10444.2 1944.36 8
-6 -2 9 7071.3 1540.53 7
-6 -2 9 10068.3 1534.69 1
-6 -2 8 2319.78 967.8 4
6 2 -8 719.79 460.013 8
-6 -2 8 1492.32 682.822 7
-6 -2 8 1218.12 509.186 1
-6 -2 7 122.902 462.477 4
-6 -2 7 292.288 243.359 7
-6 -2 7 114.973 175.606 1
6 2 -6 37107.9 3529.79 8
-6 -2 6 34224.8 2814.75 7
6 2 -6 29049.7 3977.83 3
-6 -2 6 36061.1 2250.58 1
-6 -2 6 37821.2 4171.81 4
-6 -2 5 -221.13 550.943 4
6 2 -5 2293.25 834.924 8
-6 -2 5 1245.06 440.694 7
-6 -2 5 1439.91 311.3 1
6 2 -5 1053.71 279.474 6
6 2 -5 716.452 266.233 2
6 2 -5 1218.37 727.625 3
6 2 -4 41343.5 3613.32 8
6 2 -4 41072.3 2444.91 2
-6 -2 4 37906.8 2251.66 7
6 2 -4 33650.1 3933.8 3
6 2 -4 41311.2 2305.83 6
-6 -2 4 40695.4 4529.64 4
6 2 -3 28866.5 2870.2 8
6 2 -3 28831.5 2122.16 2
6 2 -3 22913.6 2934.64 3
6 2 -3 28475.5 1957.63 6
-6 -2 3 25732.1 3693.18 4
-6 -2 2 8316.07 2184.75 4
6 2 -2 7773.2 1104.65 2
6 2 -2 7943 1458.81 8
6 2 -2 10355.1 1164.75 6
6 2 -2 8203.68 1487.12 3
-6 -2 2 6631.45 923.701 1
-6 -2 1 131273 6802.49 1
6 2 -1 167212 8170.33 8
6 2 -1 157563 7291.32 2
6 2 -1 126585 7054.93 3
6 2 -1 161219 7074.37 6
-6 -2 1 141447 9941.57 4
6 2 0 10981.6 1691.85 8
-6 -2 0 9364.64 2186.78 4
6 2 0 9820.45 1440.15 2
6 2 0 9561.98 1093.96 3
6 2 0 9928.7 1387.94 6
-6 -2 0 8842.99 1362.34 1
6 2 1 35553.3 3127.2 8
-6 -2 -1 31563.3 2995.76 1
6 2 1 33889.6 2970.95 2
6 2 1 30704.3 2725.17 6
-6 -2 -1 31116.9 3981.73 4
-6 -2 -2 18158.9 2378.76 1
6 2 2 17941.7 2194.73 2
6 2 2 17822.6 2056.21 6
-6 -2 -2 18427.6 2875.1 4
6 2 3 61508.5 4713.99 2
-6 -2 -3 66926.5 5631.77 4
-6 -2 -4 4950.97 1371.6 4
6 2 4 5940.48 1404.86 2
-6 -2 -4 5662.59 1454.21 1
6 2 5 141706 8606.78 2
-6 -2 -5 135635 8805.17 1
-6 -2 -5 140398 8504.19 4
6 2 6 62783.3 5458.14 2
-6 -2 -6 66319.9 5764.81 1
-6 -2 -6 59651.7 4877.59 4
6 2 7 31573.6 3900.04 2
-6 -2 -7 28360.5 2905.12 5
-6 -2 -7 33337 3348.41 4
-6 -2 -8 6027.31 1320.1 4
-6 -2 -8 5820.29 1305.71 5
6 2 8 9309.5 2076.03 2
-6 -2 -9 558.134 419.187 4
-6 -2 -9 435.88 419.894 5
6 2 9 566.238 545.811 2
-6 -2 -10 11753 2096.94 5
-6 -2 -10 14729.3 2029.24 4
6 2 11 4424.38 1565.1 1
-6 -2 -11 1082.41 646.874 5
6 2 12 8174.76 2210.82 1
-6 -3 13 1340.27 757.509 4
6 3 -13 73.1039 374.148 8
6 3 -12 16650.6 2761.56 8
-6 -3 12 21597.1 2770.55 4
6 3 -11 70974 6000.07 8
-6 -3 11 78230.7 5328.27 1
-6 -3 11 77397.8 5885.93 4
6 3 -10 19763.3 2858 8
-6 -3 10 26670 2713.25 1
-6 -3 10 23532.8 3090 4
6 3 -9 197130 10803 8
-6 -3 9 218798 9596.3 1
-6 -3 9 191432 10989.7 4
6 3 -8 935.28 623.493 8
-6 -3 8 3588.83 1235.4 4
-6 -3 8 1038.02 551.513 7
-6 -3 8 3584.91 830.675 1
6 3 -7 19463 2593.08 8
-6 -3 7 16179 2249.43 7
-6 -3 7 19924.9 1818.71 1
-6 -3 7 21819.1 3187.38 4
6 3 -6 13807.1 2101.99 8
-6 -3 6 13056.7 2530.25 4
-6 -3 6 8358.56 1448.4 7
6 3 -6 10810.7 2282.81 3
6 3 -5 50073.3 4217.73 8
-6 -3 5 42631.7 3095.38 7
-6 -3 5 37659.4 2508.22 1
6 3 -5 36114.3 4108.89 3
6 3 -5 45616.5 2183.86 6
6 3 -5 47943.6 2707.77 2
-6 -3 5 43181 5001.54 4
-6 -3 4 841.529 707.647 4
6 3 -4 189.642 360.43 8
-6 -3 4 453.352 234.628 7
6 3 -4 721.672 236.665 6
6 3 -4 371.005 243.03 2
6 3 -4 510.223 412.496 3
-6 -3 4 511.105 214.902 1
6 3 -3 99695.4 6390.22 8
6 3 -3 102041 5089.65 2
-6 -3 3 92472.3 3838.69 7
6 3 -3 83746.6 5671.3 3
6 3 -3 99745.6 4592.76 6
-6 -3 3 87487.7 4681.95 1
-6 -3 3 83624.7 7834.77 4
-6 -3 2 1246.12 758.012 4
6 3 -2 2351.15 855.872 8
-6 -3 2 2969.05 1181.93 2
-6 -3 2 1869.29 519.363 1
6 3 -2 1395.75 458.227 6
6 3 -2 2358.01 677.975 2
6 3 -2 2568.33 812.495 3
6 3 -1 12273.7 1881.72 8
6 3 -1 13154.2 1684.18 2
-6 -3 1 10611.7 2623.69 4
-6 -3 1 11386 2400.46 2
6 3 -1 12510.9 1499.22 6
6 3 -1 11725.7 1260.07 3
-6 -3 1 9933.72 1411.64 1
6 3 0 33164.5 3275.13 8
6 3 0 37027.6 3112.49 2
6 3 0 33037.4 2763.23 6
6 3 0 34752.3 1787.16 3
-6 -3 0 31300.9 4379.95 2
-6 -3 0 32000.2 2914.68 1
-6 -3 0 37259.6 4952.08 4
-6 -3 -1 6402.22 1938.48 4
6 3 1 6988.49 1448.93 8
6 3 1 5996.45 1144.63 6
6 3 1 7596.61 1393.41 2
6 3 2 72544.6 5014.86 2
-6 -3 -2 78466.9 6892.24 4
-6 -3 -3 9776.8 2184.26 4
-6 -3 -3 10262.6 1914.31 1
6 3 3 11997.4 1955.48 2
-6 -3 -4 3502.57 1237.7 4
6 3 4 2638.99 1010.67 2
-6 -3 -4 3076.45 1067.13 1
-6 -3 -5 921.169 536.005 4
6 3 5 1001.12 707.303 2
6 3 6 116037 8102.01 2
-6 -3 -6 115057 7710.99 4
6 3 7 43174.8 4693.88 2
-6 -3 -7 35370.9 3752.51 4
6 3 8 75388.2 6639.75 2
-6 -3 -8 64464.8 5212.35 4
6 3 9 29562.4 4213.86 2
-6 -3 -9 27858.1 3132.96 4
-6 -3 -10 451.054 705.028 5
-6 -3 -11 692.65 620.366 5
-6 -4 13 10980.4 2031.47 4
6 4 -12 5418.79 1501.71 8
-6 -4 12 4228.26 1284.16 4
6 4 -11 2053.54 962.247 8
-6 -4 11 4702.48 1389.68 4
6 4 -10 25998.5 3394.32 8
-6 -4 10 29535.3 3665.37 4
6 4 -9 24190.1 3224.14 8
-6 -4 9 26541.4 2515.15 1
-6 -4 9 25507.5 3495.97 4
6 4 -8 165064 9921.81 8
-6 -4 8 190598 11443.2 4
6 4 -7 4507.73 1215.18 8
-6 -4 7 10271.2 2383.82 4
-6 -4 6 144147 10518.1 4
6 4 -6 136211 8445.91 8
6 4 -5 12925.9 2167.17 8
-6 -4 5 14919.2 3197.85 4
6 4 -5 13398.1 2230.15 3
6 4 -5 13122.3 1456.11 2
-6 -4 4 8590.49 2525.31 4
6 4 -4 10557.7 1908.2 8
-6 -4 4 10803 2221.71 2
6 4 -4 8080.43 1514.93 3
6 4 -4 10305.2 1347.65 2
-6 -4 3 5465.1 2212.81 4
6 4 -3 4735.1 1315.21 8
-6 -4 3 4090.64 1522.59 2
6 4 -3 3584.85 804.948 2
-6 -4 3 4051.3 864.26 1
-6 -4 2 92617.6 9130.08 4
6 4 -2 85202 5083.52 2
6 4 -2 104379 6537.1 8
-6 -4 2 81264.7 7544.88 2
-6 -4 2 71233.6 4759.51 1
6 4 -1 850.562 597.304 8
6 4 -1 143.208 262.826 6
-6 -4 0 43690.1 6049.99 4
6 4 0 44393.1 4026.94 8
6 4 0 43704.9 3634.61 2
6 4 0 42432 3223.46 6
-6 -4 0 36434.5 3352.31 1
-6 -4 -1 10894.5 2823.71 4
6 4 1 8883.37 1715.19 8
-6 -4 -1 6880.29 1442.73 1
6 4 1 8755.89 1639.95 2
-6 -4 -2 3194.24 1612.4 4
6 4 2 3444.13 1013.04 2
6 4 3 42356.8 4096.09 2
-6 -4 -3 46805.5 5483 4
-6 -4 -4 3028.8 1350.42 4
6 4 4 2548.89 1080.13 2
-6 -4 -5 4042.17 1361.71 4
6 4 5 4776.41 1452.56 2
-6 -4 -6 1312.58 885.931 4
6 4 6 -723.305 779.099 2
6 4 7 48610.4 5187.2 2
-6 -4 -7 42749.6 4454.08 4
-6 -4 -8 12632 2228.8 4
6 4 8 15618.4 3004.7 2
-6 -4 -9 77233.9 5923.54 4
-6 -5 13 2342.02 936.071 4
-6 -5 12 6992.19 1805.64 4
6 5 -11 1287.97 817.072 8
-6 -5 11 1779.19 954.848 4
6 5 -10 4152.33 1333.31 8
-6 -5 10 3622 1215.42 4
6 5 -9 784.028 411.271 8
-6 -5 9 568.054 326.305 4
6 5 -8 11205.8 2274.51 8
-6 -5 8 10441.5 2495.97 4
-6 -5 7 86870.6 8015.61 4
6 5 -7 78403.7 6302.18 8
6 5 -6 15438.1 2580.62 8
-6 -5 6 13936.3 3177.49 4
-6 -5 5 172737 13047.5 4
6 5 -5 160779 9787.27 8
6 5 -4 944.8 575.116 8
-6 -5 4 1500.99 1387.17 4
6 5 -4 1210.8 775.348 2
-6 -5 3 4792.46 2183.14 4
6 5 -3 5355.89 1433.51 8
6 5 -3 4415.19 1029.78 2
6 5 -2 21999.5 2461.9 2
6 5 -2 20866.5 2884.21 8
-6 -5 2 25092.8 5173.48 4
-6 -5 1 84012.6 9615.22 4
6 5 -1 78063 5399.43 2
6 5 -1 83354.3 6237.44 8
-6 -5 0 968.333 1406.86 4
6 5 0 609.621 452.874 8
6 5 0 1053.69 796.789 2
6 5 1 79141.7 5859.14 2
6 5 1 79607.4 6082.61 8
-6 -5 -2 531.005 771.148 4
6 5 2 -102.319 306.655 2
-6 -5 -3 12178.2 2976.83 4
6 5 3 9896.18 1990.96 2
-6 -5 -4 6317.31 1974.73 4
6 5 4 5137.55 1509.3 2
-6 -5 -5 265.657 334.027 4
6 5 5 167.182 440.091 2
-6 -5 -6 13462.2 2666.64 4
6 5 6 10302.1 2336.17 2
-6 -5 -7 -553.495 681.179 4
-6 -5 -8 5055.47 1445.1 4
-6 -6 13 34513.3 4170.24 4
-6 -6 12 1339.87 829.63 4
-6 -6 11 -653.37 550.415 4
-6 -6 10 -166.722 654.104 4
-6 -6 9 20247 3642.54 4
6 6 -8 743.736 638.231 8
-6 -6 8 2598.18 1218.5 4
6 6 -7 1346.42 929.42 8
-6 -6 7 -658.878 1252.63 4
6 6 -6 29956.8 3807.9 8
-6 -6 6 29288.2 5094.6 4
6 6 -5 10603.5 2171.94 8
-6 -6 5 7885.72 2844.43 4
-6 -6 4 112638 11570.8 4
6 6 -4 120593 8144.94 8
6 6 -4 95223.6 6012.54 2
6 6 -3 1787.53 1060.59 8
-6 -6 3 28.4469 883.852 4
6 6 -3 335.74 395.713 2
-6 -6 2 47153.8 7690.39 4
6 6 -2 45591.7 4669.61 8
6 6 -2 38357.3 3638.95 2
6 6 -1 17288.5 2395 2
-6 -6 1 15339.3 4366.28 4
6 6 -1 14931.6 2520.81 8
6 6 0 22481 2904.87 2
6 6 0 28460.3 3539.95 8
-6 -6 -1 4107.91 2392.06 4
6 6 1 3825.56 1282.53 8
6 6 1 2631.87 1024.05 2
6 6 2 105367 7541.8 2
6 6 2 105831 7535.61 8
-6 -6 -3 2629.36 1605.37 4
6 6 3 758.41 696.865 2
-6 -6 -4 44932.1 5905.56 4
6 6 4 33967.4 4178.51 2
-6 -6 -5 -383.532 534.519 4
6 7 -3 41147.8 3848.93 2
6 7 -2 3647.98 1096.79 2
6 7 -1 44303.6 4348.99 2
6 7 0 1125.59 700.308 2
6 7 1 1135.79 691.204 2
-7 11 0 35846.8 3972.54 6
-7 11 -1 375.813 423.577 6
-7 11 -2 5482.69 1414.19 6
-7 11 -3 33254 3631.67 6
-7 11 -4 38661.6 3888.61 6
-7 11 -5 23955.5 2957.24 6
-7 11 -6 46782.9 4247.13 6
-7 11 -7 1098.86 459.071 6
-7 11 -8 6305.69 1416.48 6
7 -10 -4 4222.28 1206.04 7
-7 10 4 6085.26 1704.15 6
7 -10 -4 4154.09 1295.92 3
-7 10 3 16108.5 2709.57 6
7 -10 -3 21978.4 3033.51 3
-7 10 2 215.224 358.514 6
7 -10 -2 343.975 222.268 3
7 -10 -1 16216.7 2505.83 3
-7 10 1 13102.7 2296.03 6
-7 10 0 36782.4 3869.77 6
7 -10 0 36798.5 3887.56 3
-7 10 -1 23889.5 2992.47 6
7 -10 1 24705.2 3081.77 3
-7 10 -2 8598.66 1691.27 6
7 -10 2 7003.3 1627.13 3
-7 10 -3 20874.3 2731.65 6
7 -10 3 27277.4 3144.6 3
-7 10 -4 16557 2330.56 6
7 -10 4 14942.3 2324.67 3
-7 10 -5 11099 1865.38 6
7 -10 5 9180.06 1841.96 3
-7 10 -6 42084.9 3879.44 6
7 -10 6 43704.7 4299.94 3
-7 10 -7 86167.2 5885.45 6
7 -10 7 83764.9 6399.86 3
-7 10 -8 8679.77 1639.94 6
7 -10 8 11289.8 2170.69 3
-7 10 -10 817.952 546.322 5
-7 10 -11 2315.19 968.852 5
7 -9 -7 11998.5 2048.95 7
7 -9 -7 11577.7 2251.54 3
7 -9 -6 31250.1 3396.78 7
-7 9 6 30758.5 4149.77 6
7 -9 -6 30831.7 3688.07 3
7 -9 -5 11563.4 1938.14 7
-7 9 5 9390.24 2089.8 6
7 -9 -5 13761.2 2330.55 3
7 -9 -4 12289.7 2012.84 7
-7 9 4 15502.8 2588.61 6
7 -9 -4 13469.4 2275.04 3
-7 9 3 4619.07 1312.93 6
7 -9 -3 4420.25 1269.71 3
-7 9 2 47836.9 4527.83 6
7 -9 -2 52183.7 4540.7 3
-7 9 1 6586.86 1528.72 6
7 -9 -1 8690.88 1741.37 3
-7 9 0 13935.9 2204.73 6
7 -9 0 15764.4 2285.19 3
-7 9 -1 2755.98 883.112 6
7 -9 1 5755.57 1316.56 3
-7 9 -2 11497.7 1907.89 6
7 -9 2 12450.1 1976.58 3
-7 9 -3 18843.8 2413.29 6
7 -9 3 18710.4 2461.56 3
-7 9 -4 20951.6 2525.48 6
7 -9 4 22820.2 2755.55 3
-7 9 -4 18656.8 1688.95 5
-7 9 -5 664.933 419.564 6
-7 9 -5 118.95 126.904 5
7 -9 5 246.12 372.712 3
-7 9 -6 923.057 477.67 6
-7 9 -6 421.858 389.175 5
7 -9 6 715.886 637.35 3
-7 9 -7 37906.3 3472.46 6
7 -9 7 38837 3868.91 3
-7 9 -7 33164.6 2972.37 5
7 -9 8 77739.7 5946.59 3
-7 9 -8 68071.1 4881.7 5
7 -9 9 22763.1 3111.82 3
-7 9 -9 18924.5 2537.54 5
7 -9 10 73695.2 6144.98 3
-7 9 -10 67651.4 5554.77 5
7 -9 11 32.9589 235.976 3
-7 9 -11 -59.5483 266.725 5
-7 9 -12 333.73 470.3 5
7 -8 -9 3859.85 1156.74 7
7 -8 -8 1780.37 761.46 7
-7 8 8 337.653 396.862 6
7 -8 -7 107202 6823.98 7
-7 8 7 108620 8505.07 6
7 -8 -6 7465.2 1491.29 7
-7 8 6 4731.99 1485.44 6
7 -8 -5 98744.6 6369.55 7
-7 8 5 104170 7509.5 6
7 -8 -5 103350 6884.73 3
7 -8 -4 33479.2 3249.75 7
-7 8 4 31747.6 3672.96 6
7 -8 -4 36238 3605.05 3
-7 8 3 1390.3 617.327 6
7 -8 -3 2829.48 956.307 3
-7 8 2 1602.42 724.393 6
7 -8 -2 1306.2 644.454 3
-7 8 1 85151.5 5974.6 6
7 -8 -1 90580.3 5923.62 3
-7 8 0 7251.07 1451.98 6
7 -8 0 7574.26 1451.33 3
-7 8 -1 61905.6 4686.49 6
7 -8 1 63791.8 4688.09 3
-7 8 -2 16380.1 2164.25 6
7 -8 2 17363.9 2229.92 3
-7 8 -3 16704.5 2203.96 6
7 -8 3 21330.4 2472.92 3
-7 8 -4 13071.9 1897.74 6
7 -8 4 14219.4 1994.11 3
-7 8 -4 13522.9 1435.68 5
-7 8 -5 13163.8 1896.37 6
7 -8 5 14898.1 2086.83 3
-7 8 -5 10984.9 1406.41 5
-7 8 -6 4145.33 1082.51 6
-7 8 -6 6229.67 1092.49 5
7 -8 6 4993 1192.14 3
-7 8 -7 2363.85 774.138 6
-7 8 -7 3121.98 830.979 5
7 -8 7 4697.95 1203.69 3
7 -8 8 14855.9 2270.4 3
-7 8 -8 13882.3 1990.82 5
7 -8 9 30317.3 3480.54 3
-7 8 -9 29550.8 3210.17 5
7 -8 10 40986.2 4186.83 3
-7 8 -10 31093.7 3675.58 5
7 -8 11 87070.6 6696.15 3
-7 8 -11 80209.7 6710.98 5
7 -8 12 203.876 470.959 3
-7 8 -12 1423.17 937.029 5
7 -8 13 17694.7 3004.24 3
-7 8 -13 16187.2 3320.06 5
7 -7 -10 4142.09 1205.16 7
-7 7 10 3270.12 1507.78 6
7 -7 -9 4869.72 1234.72 7
-7 7 9 6800.22 2107.02 6
7 -7 -8 1064.23 579.452 7
-7 7 8 406.792 701.868 6
7 -7 -7 441.03 277.598 7
-7 7 7 596.442 488.01 6
7 -7 -6 79253.5 5303.26 7
-7 7 6 78801.7 6413.45 6
7 -7 -5 1755.86 678.958 7
-7 7 5 1511.79 772.295 6
-7 7 4 167142 11371.6 8
7 -7 -4 163794 8507.29 7
-7 7 4 164310 9471.09 6
-7 7 3 17786.7 2826.43 8
-7 7 3 20717.2 2666.01 6
7 -7 -3 18894.8 2401.55 3
-7 7 2 17156.7 2322.88 6
7 -7 -2 15825.7 2099.96 3
7 -7 -2 16611.8 1485.62 5
-7 7 1 21928.9 2319.85 8
-7 7 1 19644.5 2420.81 6
7 -7 -1 22469 2498.16 3
7 -7 -1 20338.9 1726.75 5
-7 7 0 73029.1 4107.49 8
-7 7 0 80360.1 5240.95 6
7 -7 0 73072.6 4936.88 3
7 -7 0 71484.8 3985.62 5
-7 7 -1 2559.02 430.647 8
-7 7 -1 2608 856.065 6
7 -7 1 1996.4 568.092 5
7 -7 1 2134.18 678.649 3
-7 7 -2 110040 6630.02 6
7 -7 2 124811 6787.38 3
7 -7 2 115612 5901.48 5
-7 7 -3 35953.8 3196.25 6
7 -7 3 34212.9 3048.63 3
-7 7 -3 32620.1 2360.64 5
7 -7 3 33925.3 2708.7 5
-7 7 -4 28407.3 2819.53 6
7 -7 4 32524 2949.41 3
-7 7 -4 26653.4 2239.76 5
7 -7 4 27598.1 2493.02 5
-7 7 -5 132.617 175.034 5
7 -7 5 30.1444 175.123 3
-7 7 -6 5362.08 1184.59 6
-7 7 -6 4225.67 932.509 5
7 -7 6 5271.86 1203.04 3
7 -7 7 24924.3 2775.91 3
-7 7 -7 22868 2426.31 5
7 -7 8 3664.79 975.359 3
-7 7 -8 3201.09 932.738 5
7 -7 9 546.897 508.365 3
-7 7 -9 1594.6 760.863 5
7 -7 10 9611.77 1867.99 3
-7 7 -10 8939.39 1901.09 5
7 -7 11 27007.3 3341.54 3
-7 7 -11 24896.4 3505.91 5
7 -7 12 51395.3 5124.33 3
-7 7 -12 54668.2 5927.69 5
7 -7 13 12061.2 2427.25 3
-7 7 -13 10765.1 2677.2 5
7 -7 13 19330.2 3513.05 1
7 -7 14 60206.9 5932.87 3
-7 6 12 57109 7291.13 6
7 -6 -11 783.354 515.641 7
-7 6 11 1589.67 646.112 6
7 -6 -10 5050.94 1265.38 7
-7 6 10 3625.02 1595.87 6
7 -6 -9 397.853 258.507 7
-7 6 9 1186.24 978.2 6
7 -6 -8 22203.2 2499.77 7
-7 6 8 20519.1 3276.91 6
7 -6 -7 1208.88 543.713 7
-7 6 7 1595.2 914.716 6
7 -6 -6 17439.6 1904.85 2
7 -6 -6 23908.5 2403.27 7
-7 6 6 20783.2 2878.99 6
7 -6 -6 18726.2 2190.2 1
7 -6 -5 11633.3 1504.22 2
-7 6 5 12171.2 2458.15 8
7 -6 -5 15326.2 1862.33 7
7 -6 -5 10864.9 1585.78 1
-7 6 5 12464.9 2073.01 6
7 -6 -5 12273.6 1265.94 5
-7 6 4 654.88 453.507 8
7 -6 -4 1262.09 519.109 7
-7 6 4 3.70403 237.224 6
7 -6 -4 388.491 302.083 2
7 -6 -4 629.283 311.94 1
7 -6 -4 476.882 227.123 5
-7 6 3 107495 6716.54 8
7 -6 -3 112118 5997.86 7
-7 6 3 115052 6796.82 6
7 -6 -3 108348 5169.58 5
7 -6 -3 94887.3 5689.65 2
-7 6 2 8892.7 1506.2 6
7 -6 -2 5780.82 1099.99 2
7 -6 -2 5982.67 889.587 5
7 -6 -2 6779.03 1290.18 3
-7 6 1 65004.4 3902.99 8
-7 6 1 69046.4 4743.26 6
7 -6 -1 68856.2 4497.86 3
7 -6 -1 64058.3 3702.57 5
-7 6 0 34834.7 2237.88 8
-7 6 0 35839.2 3186.95 6
7 -6 0 40331.3 3176.91 3
7 -6 0 35027.7 2511.96 5
-7 6 -1 26834.6 2641.01 6
7 -6 1 29226.4 2628.06 3
7 -6 1 24828.2 2094.81 5
-7 6 -2 39.4566 356.171 6
7 -6 2 200.178 138.706 5
7 -6 2 154.928 220.782 3
-7 6 -3 156653 8169.66 6
7 -6 3 172085 8157.54 3
-7 6 -3 152888 7234.44 5
7 -6 3 156560 7570.94 5
-7 6 -4 42681.7 3485.09 6
7 -6 4 43338.8 3363.99 3
-7 6 -4 41774.1 2972.02 5
7 -6 4 44935.9 3199.61 5
-7 6 -5 76249.2 4904.85 6
7 -6 5 74839 4820.53 3
-7 6 -5 69409.6 4374.85 5
7 -6 6 19498.2 2272.84 3
-7 6 -6 17859.4 2023.69 5
7 -6 7 1991.77 676.243 3
-7 6 -7 1248.04 514.736 5
7 -6 8 8634.29 1524.83 3
-7 6 -8 6166.5 1294.17 5
7 -6 9 3.61531 169.118 3
-7 6 -9 983.746 575.007 5
7 -6 10 8521.84 1702.14 3
-7 6 -10 9811.87 1982.35 5
7 -6 11 982.747 931.151 1
7 -6 11 1707.87 796.407 3
-7 6 -11 1116.09 801.462 5
7 -6 12 10014.5 2540.19 1
7 -6 12 4498.61 1385.97 3
-7 6 -12 7566.7 2133.16 5
7 -6 13 25402 3558.03 3
-7 6 -13 28815.1 4493.55 5
7 -6 14 13376.4 2683.43 3
-7 5 14 14208.1 3665.19 6
-7 5 13 23028 4563.22 6
7 -5 -12 22192.1 2968.73 7
-7 5 12 23185.4 4330.87 6
7 -5 -11 122965 7787.25 7
-7 5 11 124997 10263.6 6
7 -5 -10 2122.12 986.501 8
7 -5 -10 2567.61 899.574 7
-7 5 10 2153.83 1180.82 6
7 -5 -9 61269.6 4653.72 7
-7 5 9 66734.1 6208.77 6
7 -5 -9 74707.6 5780.67 8
7 -5 -8 5118 1368.24 8
7 -5 -8 4355.06 1054.85 7
-7 5 8 5239.02 1536.23 6
7 -5 -7 10783.4 1313.23 2
7 -5 -7 12489.7 1720.01 7
7 -5 -7 9138.35 1424.39 1
-7 5 7 11005.3 1980.23 6
7 -5 -7 14838.8 2225 8
7 -5 -6 2385.37 851.93 8
-7 5 6 2065.13 994.945 8
7 -5 -6 1367.04 535.1 1
7 -5 -6 2880.78 791.063 7
-7 5 6 1402.94 597.988 6
7 -5 -6 1766.74 548.178 2
7 -5 -6 1599.5 463.42 5
-7 5 5 40988.8 4123.82 8
7 -5 -5 40516.3 2860.52 2
7 -5 -5 42083.2 3169.73 7
-7 5 5 44073.2 3858.72 6
7 -5 -5 38851.5 3000.95 1
7 -5 -5 43214.1 2756.84 5
7 -5 -5 44802.1 3759.28 8
7 -5 -4 -207.073 320.347 8
-7 5 4 308.802 339.977 8
7 -5 -4 -77.9471 254.51 7
-7 5 4 1757.86 701.226 6
7 -5 -4 337.831 202.02 2
7 -5 -4 278.56 180.065 5
7 -5 -4 1286.62 536.886 1
7 -5 -3 11958.6 1508.85 7
7 -5 -3 12920.8 1499.02 1
-7 5 3 13428.6 1875.63 6
7 -5 -3 14380.1 1428.58 5
7 -5 -3 14630.7 1741.39 8
7 -5 -3 12915 1550.35 2
-7 5 2 65593.9 4136.08 8
-7 5 2 68579.9 4716.43 6
7 -5 -2 71156.1 3892.44 5
7 -5 -2 71526.8 4161.31 8
7 -5 -1 1349.22 467.927 8
-7 5 1 978.191 358.928 8
-7 5 1 1533.05 595.797 6
7 -5 -1 797.013 352.929 5
7 -5 -1 1467.03 569.876 3
-7 5 0 115033 5232.64 8
-7 5 0 123599 6769.78 6
7 -5 0 134905 6572.13 3
7 -5 0 124685 5965.72 5
-7 5 -1 31417.8 2787.1 6
7 -5 1 27412.6 2432.65 3
7 -5 1 26097.9 2169.34 5
-7 5 -2 6253.29 1194.51 6
7 -5 2 5753.3 962.598 5
7 -5 2 6198.74 1063.04 3
-7 5 -3 4112.25 1001.87 6
-7 5 -3 4153.81 807.356 5
7 -5 3 4910.96 893.702 5
7 -5 3 3654.3 823.573 3
-7 5 -4 117327 6707.56 6
7 -5 4 132395 6641.82 3
-7 5 -4 125221 6293.66 5
7 -5 5 23144.7 2275.74 3
-7 5 -5 20554.6 2069.31 5
7 -5 6 125965 6807.78 3
-7 5 -6 124385 6693.51 5
7 -5 7 56565.1 4022.88 3
-7 5 -7 48921.5 3879 5
7 -5 8 11890.7 2219.88 1
7 -5 8 13050.3 1850.88 3
-7 5 -8 9822.4 1697.72 5
7 -5 9 3433.13 1005.17 3
-7 5 -9 5110.49 1314.41 5
7 -5 9 3813.34 1354.59 1
7 -5 10 3962.93 1125.49 3
-7 5 -10 3270.68 1132.45 5
7 -5 10 7113.28 1884.18 1
7 -5 11 23163.4 3607.65 1
7 -5 11 20442.6 2792.58 3
-7 5 -11 21461.7 3238.89 5
7 -5 12 6661.38 2100.24 2
7 -5 12 2689.84 1107.05 3
-7 5 -12 3606.49 1404.87 5
7 -5 12 3487.67 1456.03 1
7 -5 13 1482.94 909.448 2
7 -5 13 925.11 945.474 1
7 -5 13 818.584 734.684 3
-7 5 -13 1059.79 831.647 5
7 -5 14 16707.7 3298.8 1
-7 4 15 12013.9 3237.52 6
-7 4 14 5663.68 2058.32 6
7 -4 -13 361.235 726.444 8
7 -4 -13 769.993 424.399 7
-7 4 13 796.644 907.907 6
7 -4 -12 5734.49 1595.3 8
7 -4 -12 4180.5 1191.89 7
-7 4 12 6261.32 2011.79 6
7 -4 -11 24943.1 2950.45 7
-7 4 11 24963.8 3837.81 6
7 -4 -11 31499.8 3698.55 8
7 -4 -10 105817 6780.46 7
-7 4 10 107126 8172.11 6
7 -4 -9 22723 2577.42 7
-7 4 9 22010.6 3086.67 6
7 -4 -9 26487.2 3197.78 8
7 -4 -8 145355 7654.41 1
7 -4 -8 156015 8069.31 7
-7 4 8 154635 9155.09 6
7 -4 -8 168597 9298.67 8
7 -4 -7 3098.43 721.128 1
7 -4 -7 4021.09 1154.29 8
7 -4 -7 3762.92 890.411 7
-7 4 7 2679.51 910.312 6
7 -4 -7 4621.69 724.719 2
7 -4 -6 218.299 222.305 8
-7 4 6 1266.2 616.743 8
7 -4 -6 890.444 399.23 7
-7 4 6 1336.32 560.239 6
7 -4 -6 918.859 397.378 1
7 -4 -6 455.708 208.455 2
7 -4 -5 5687.49 846.388 2
7 -4 -5 5266.29 1230.53 8
-7 4 5 6015.29 1339.5 8
7 -4 -5 5833.32 995.487 7
7 -4 -5 5036.6 854.32 1
-7 4 5 5440.43 1176.27 6
7 -4 -5 5737.24 913.448 5
-7 4 4 89357.7 5602.53 8
7 -4 -4 94046.6 5040.5 7
-7 4 4 98736.5 5800.21 6
7 -4 -4 94209.5 4659.99 1
7 -4 -4 94068.4 4867.73 5
7 -4 -4 89306.2 4736.75 2
7 -4 -4 98631.9 5978.52 8
7 -4 -3 745.439 402.246 8
7 -4 -3 902.398 384.332 7
-7 4 3 1794.25 672.955 6
7 -4 -3 832.308 278.557 1
7 -4 -3 1547.58 478.18 5
7 -4 -2 60143.4 3520.03 7
-7 4 2 58068.3 4062.03 6
7 -4 -2 58750.4 3533.83 5
7 -4 -2 60906.5 4064.43 8
-7 4 1 14958.5 1399.9 8
-7 4 1 15532.4 1870.08 6
7 -4 -1 15454.9 1567.35 5
7 -4 -1 13443.8 1590.23 8
7 -4 0 3720.35 742.405 8
-7 4 0 4625.89 1000.84 6
7 -4 0 3244.25 695.444 5
7 -4 0 2930.22 717.355 3
-7 4 -1 81289.9 4941.19 6
7 -4 1 86564.8 4658.01 3
7 -4 1 81768.3 4464.93 5
7 -4 1 72786.8 3915.94 8
-7 4 -2 10171.9 1504.09 6
7 -4 2 11819.4 1414.91 3
7 -4 2 10753.2 1347.08 5
7 -4 2 9848.78 914.553 8
-7 4 -3 41362.2 3224.73 6
7 -4 3 43205.6 2925.16 3
-7 4 -3 39864.3 2851.1 5
7 -4 3 41804.8 2924.31 5
7 -4 3 35261.9 1651.91 8
7 -4 4 13471 1553.84 3
-7 4 -4 10308.6 1396.63 5
7 -4 5 42868 3076.51 3
-7 4 -5 38296.4 3033.92 5
7 -4 6 6537.52 1565.22 1
-7 4 -6 6414.87 1217.7 5
7 -4 6 6607.3 1153.89 3
7 -4 7 190555 10591.4 1
7 -4 7 177487 8790.49 3
-7 4 -7 177003 9038.88 5
7 -4 8 81577.7 6338.95 1
7 -4 8 71054.3 4876.39 3
-7 4 -8 74239.9 5170.89 5
7 -4 9 61945.3 5627.86 1
7 -4 9 53314.4 4237.42 3
-7 4 -9 48554.5 4346.89 5
7 -4 10 18331 3236.97 2
7 -4 10 16916.7 2362.98 3
7 -4 10 18379.8 3043.57 1
-7 4 -10 15537 2428.25 5
7 -4 11 5465.08 1815.07 2
7 -4 11 5205.43 1597.68 1
7 -4 11 4937.19 1423.72 3
-7 4 -11 3209.31 1118.23 5
7 -4 12 3009.85 1409.71 2
7 -4 12 5386.07 1759.21 1
7 -4 12 3175.33 1228.63 3
-7 4 -12 2408.25 1102.87 5
7 -4 13 11062 2556.97 1
7 -4 13 11465.6 2653.88 2
-7 4 -13 11709.1 2725.71 5
7 -4 14 15292.5 3158.18 1
-7 3 15 8620.32 2553.44 6
7 -3 -14 8595.54 2043.5 8
-7 3 14 3938.56 1604.55 6
7 -3 -13 2443.75 1109.25 8
-7 3 13 1583.23 990.341 6
7 -3 -12 7324.88 1773.19 8
-7 3 12 4873.01 1490.86 6
7 -3 -11 347.283 313.253 8
7 -3 -11 -526.648 555.835 7
-7 3 11 -649.114 679.33 6
7 -3 -10 10150.9 1978.29 8
7 -3 -10 11629 1894.27 7
-7 3 10 13763.9 2290.96 6
7 -3 -9 69774.9 4925.65 7
-7 3 9 67954.6 5260.59 6
7 -3 -9 71982.5 5624.77 8
7 -3 -8 38066.4 3259.92 7
7 -3 -8 34322.5 1810.14 2
7 -3 -8 37684.8 2905.39 1
-7 3 8 38223.7 3506.64 6
7 -3 -8 38165.2 3774.42 8
7 -3 -7 199540 7954.74 2
7 -3 -7 216613 9805.53 7
7 -3 -7 210025 9152 1
-7 3 7 193802 9987.91 6
7 -3 -7 208192 10797.7 8
7 -3 -6 293.493 138.606 1
7 -3 -6 709.195 332.225 8
-7 3 6 151.178 467.923 8
7 -3 -6 -341.263 320.276 7
-7 3 6 429.132 383.256 6
7 -3 -6 177.007 61.8246 2
-7 3 5 44213.7 3700.02 8
7 -3 -5 45996.2 2688.06 1
7 -3 -5 47655.2 3210.97 7
-7 3 5 47740.5 3595.47 6
7 -3 -5 51137.3 4046.99 8
7 -3 -5 43235 2556.1 2
-7 3 4 29589 2708.36 8
7 -3 -4 29772.1 2317.54 7
-7 3 4 30939.5 2724.63 6
7 -3 -4 31129.4 2379.51 6
7 -3 -4 32005.3 2420.14 5
7 -3 -4 28548.2 1813.5 1
7 -3 -4 34873 3143.01 8
-7 3 3 69775.5 4351.32 8
7 -3 -3 73542.4 4007.5 7
-7 3 3 75153.1 4630.57 6
7 -3 -3 77702.8 4285.71 6
7 -3 -3 75245.8 4242.76 5
7 -3 -3 71192.8 3298.9 1
7 -3 -3 77122.3 4924.93 8
7 -3 -2 22411.9 1789.24 7
-7 3 2 23407.4 2267.28 6
7 -3 -2 20817.5 1311.62 1
7 -3 -2 24539.8 2126.02 6
7 -3 -2 24421 2051.77 5
7 -3 -2 24108.1 2362.86 8
7 -3 -1 135799 6049.18 7
-7 3 1 131190 6949.7 6
7 -3 -1 133045 6729.42 6
7 -3 -1 143395 6646.11 5
7 -3 -1 136157 6951.55 8
7 -3 0 77.0728 176.905 8
-7 3 0 -97.693 274.004 6
7 -3 0 483.89 347.817 6
-7 3 -1 41159.3 3202.49 6
7 -3 1 43355.5 2896.27 3
7 -3 1 43059.6 2991.69 5
7 -3 1 42415.6 2854.74 8
7 -3 2 17259 1544.06 8
-7 3 -2 16102 1871.09 6
7 -3 2 15888.2 1789.84 1
7 -3 2 17410.7 1668.66 3
7 -3 2 18121.5 1803.66 5
7 -3 3 1425.65 364.741 8
7 -3 3 1373.29 638.496 1
-7 3 -3 1350.66 478.073 5
7 -3 3 1078.76 386.042 3
7 -3 4 39840.5 2375.34 8
7 -3 4 39172.9 3502.38 1
7 -3 4 39293 2732.12 3
-7 3 -4 38488.5 2962.67 5
7 -3 5 9504.22 959.005 8
7 -3 5 9313.86 1203.25 3
-7 3 -5 7914.5 1284.45 5
7 -3 5 7062.95 1516.66 1
7 -3 6 2545.18 447.544 8
7 -3 6 1645.1 392.194 8
7 -3 6 2562.57 931.383 1
7 -3 6 1657.64 524.998 3
7 -3 7 1985.33 438.973 8
7 -3 7 2065.46 445.533 8
7 -3 7 987.15 780.51 2
7 -3 7 403.528 365.735 1
7 -3 7 1970.99 701.831 3
-7 3 -7 2168.5 718.226 5
7 -3 8 138796 7350.6 3
7 -3 8 143354 9679.07 2
-7 3 -8 129171 7544.11 5
7 -3 8 128631 8554.59 1
7 -3 9 38582.8 3501.15 3
7 -3 9 38498.3 4666.26 2
-7 3 -9 36141.6 3649.33 5
7 -3 9 32178.4 3934.33 1
7 -3 10 87398.2 6046.36 3
7 -3 10 82078.5 7330.85 2
-7 3 -10 82299.4 6220.71 5
7 -3 10 77395.1 6703.39 1
7 -3 11 40483.8 4994.07 2
-7 3 -11 42011.7 4467.26 5
7 -3 11 42852.1 4873.1 1
7 -3 12 -605.161 756.124 2
-7 3 -12 -401.046 578.204 5
7 -3 13 1357.35 535.739 1
7 -3 14 16033.7 3335.48 1
7 -2 -14 11285.1 2300.01 8
-7 2 14 10745 2348.08 6
7 -2 -13 -417.93 366.545 8
-7 2 13 -502.068 702.203 6
7 -2 -12 5153.47 1443.67 8
-7 2 12 3358.79 1108.2 6
7 -2 -11 12809.3 2271.98 8
-7 2 11 14033.9 2189.22 6
7 -2 -10 1606.14 747.724 8
-7 2 10 2062.24 709.402 6
7 -2 -9 627.094 480.952 8
-7 2 9 316.74 259.094 6
7 -2 -8 21476.6 2391.59 7
-7 2 8 19726.7 2229.38 6
7 -2 -8 18115.1 2541.66 8
7 -2 -7 25705 2558.85 7
-7 2 7 24980.8 2464.13 6
7 -2 -7 26686.2 2995.01 8
-7 2 6 141575 7940.88 8
7 -2 -6 138940 5499.16 2
7 -2 -6 152860 7392.22 7
-7 2 6 141265 7267.14 6
7 -2 -6 142569 5683.87 2
7 -2 -6 148461 8180.95 8
-7 2 5 9816.41 1559.15 8
-7 2 5 9780.59 1992.28 4
7 -2 -5 9862.14 1342.24 7
-7 2 5 9528.96 1407.93 6
7 -2 -5 9673.99 1014.02 2
7 -2 -5 9927.1 885.764 2
7 -2 -5 12182.9 1820.52 8
-7 2 4 134677 7301.65 8
7 -2 -4 148341 6919.7 7
-7 2 4 147046 7317.51 6
7 -2 -4 146000 6775.41 6
7 -2 -4 145961 6785.48 2
-7 2 4 156358 9395.46 4
7 -2 -4 151769 7993.15 8
-7 2 3 17096.7 1833.19 8
7 -2 -3 16743.1 1550.47 7
-7 2 3 16608.6 1845.07 6
7 -2 -3 16881.5 1662.97 6
7 -2 -3 19476.5 1863.05 5
-7 2 3 17372.2 2671.76 4
7 -2 -3 16176.8 1966.21 8
7 -2 -2 12147.3 1644.38 8
-7 2 2 10931.8 2156.92 4
7 -2 -2 12567.3 1231.48 7
-7 2 2 11901.1 1538.61 6
7 -2 -2 14294.3 1539.73 6
7 -2 -2 13707.1 1534.82 5
7 -2 -1 35262.8 2856.2 8
7 -2 -1 33421.1 2076.27 7
-7 2 1 32705.5 2709.08 6
7 -2 -1 34214.1 2653.65 6
7 -2 -1 36163.9 2705.59 5
-7 2 1 35498 3837.74 4
7 -2 0 199385 8767.19 8
7 -2 0 199848 7552.75 7
-7 2 0 185108 8762.13 6
7 -2 0 198789 8857.44 6
7 -2 0 176327 6894.12 1
7 -2 0 202614 9904.49 2
-7 2 0 195107 10611.3 4
-7 2 -1 316.397 451.71 4
7 -2 1 183.388 116.976 8
7 -2 1 129.144 216.206 2
7 -2 1 -34.826 95.6701 7
7 -2 1 275.979 136.981 1
7 -2 1 -72.8978 251.996 6
7 -2 1 81.1236 97.5658 3
7 -2 2 123141 6219.57 8
7 -2 2 132550 6003.84 3
7 -2 2 127522 7960.4 2
7 -2 2 131181 6059.4 1
-7 2 -2 131305 8005.82 4
-7 2 -3 1694.3 816.416 4
7 -2 3 1444.09 436.719 8
7 -2 3 2180.95 841.066 2
7 -2 3 768.541 331.849 1
7 -2 3 653.734 271.111 3
-7 2 -4 7529.24 1539.29 4
7 -2 4 4388.53 794.425 8
7 -2 4 3982.66 1117.6 2
7 -2 4 5232.13 823.266 3
7 -2 4 5760.53 1147.43 1
-7 2 -4 6353.67 1100.56 5
7 -2 5 19452.2 1754.43 8
7 -2 5 17053.9 2735.9 2
7 -2 5 21634.5 1815.33 3
-7 2 -5 19490.1 2095.89 5
7 -2 5 20979.6 2455.2 1
7 -2 6 -448.73 575.406 2
7 -2 6 456.339 209.946 8
7 -2 6 155.696 491.726 1
-7 2 -6 67.1542 156.121 5
7 -2 7 3374.91 1216.02 2
7 -2 7 2725.98 711.299 7
7 -2 7 5093.92 1362.82 1
7 -2 7 4624.83 962.024 3
-7 2 -7 5110.88 1138.39 5
7 -2 8 796.507 337.896 1
7 -2 8 -112.113 270.85 3
-7 2 -8 -302.692 521.369 5
7 -2 9 34186.7 3251.71 3
7 -2 9 39494.1 4637.74 2
-7 2 -9 34330.6 3494.82 5
7 -2 9 32885.6 3962.23 1
7 -2 10 8963.22 2242.42 2
7 -2 10 12547.8 2456.31 1
-7 2 -10 8636.16 1817.95 5
7 -2 11 93035.9 7873.11 2
-7 2 -11 88196.6 6770.79 5
7 -2 11 82880.2 7224.52 1
7 -2 12 54465.6 5938.47 2
-7 2 -12 46329 4992.73 5
7 -2 12 45716 5359.8 1
7 -2 13 11604.1 2688.47 1
7 -2 14 13644.8 3064.96 1
7 -1 -14 41915.4 4641.05 8
-7 1 13 31798.9 3320.09 6
7 -1 -13 34106.6 4048.45 8
-7 1 12 25144.4 2740.58 6
7 -1 -12 25711.1 3420.69 8
7 -1 -11 976.037 624.079 8
-7 1 11 948.284 495.313 6
7 -1 -10 10701.3 2048.8 8
-7 1 10 10547.3 1544.09 6
-7 1 9 603.32 428.724 4
7 -1 -9 273.615 328.498 8
-7 1 9 485.337 174.954 6
-7 1 8 27231.1 2491.76 6
-7 1 8 36394.8 3828.07 4
7 -1 -8 31942.2 3451.54 8
-7 1 7 13014.1 2293.71 4
7 -1 -7 12509.9 2008.73 8
-7 1 7 13010.8 1587.77 6
-7 1 6 635.198 409.702 4
7 -1 -6 1703.9 763.876 8
-7 1 6 1597.19 530.7 6
7 -1 -5 105459 6454.76 8
-7 1 5 95536.6 5875.2 8
7 -1 -5 106391 4285.32 2
-7 1 5 104395 5564.06 6
7 -1 -5 95572.9 4940.69 6
-7 1 5 117495 7756.24 4
7 -1 -4 35625.3 3263.58 8
-7 1 4 36261.6 2981.09 8
-7 1 4 37424.5 2856.28 6
7 -1 -4 39608.8 2293.05 2
7 -1 -4 37167.9 2534.96 6
-7 1 4 34903.1 3978.09 4
7 -1 -3 159215 8132.99 8
-7 1 3 141710 7256.67 6
7 -1 -3 162488 7025.7 2
7 -1 -3 149596 7020.85 6
-7 1 3 157475 9637.69 4
7 -1 -2 900.72 455.033 2
-7 1 2 -54.5474 447.724 4
7 -1 -2 875.495 453.314 8
-7 1 2 187.146 146.207 6
7 -1 -2 318.83 180.369 6
7 -1 -1 11689.8 1609.65 8
-7 1 1 11485.9 2169.58 4
7 -1 -1 11587.5 1420.38 6
7 -1 -1 12763.5 1636.79 2
7 -1 0 44839.8 3358.44 8
7 -1 0 46525 3301.69 6
7 -1 0 45351 3599.84 2
-7 1 0 39124.4 4167.87 4
7 -1 1 125358 6480.11 8
7 -1 1 115923 6460.56 6
7 -1 1 119757 7116.94 2
7 -1 1 126112 5586.91 3
-7 1 -1 119879 7861.76 4
-7 1 -2 633.852 594.158 4
7 -1 2 477.586 517.319 2
7 -1 2 767.37 321.608 8
7 -1 2 691.724 263.7 1
7 -1 2 581.712 220.36 3
7 -1 3 196217 9167.87 8
7 -1 3 193779 10712.8 2
7 -1 3 205567 8745.81 1
7 -1 3 204473 8258.36 3
-7 1 -3 197539 10686.7 4
7 -1 4 1773.94 524.406 1
-7 1 -4 2839.39 951.855 4
7 -1 4 2206.4 912.924 2
7 -1 4 2603.72 666.232 8
7 -1 4 2441.87 488.411 3
7 -1 5 27531.2 2372.05 8
7 -1 5 26423 1454.06 7
7 -1 5 30465.1 2102.29 3
7 -1 5 27187.9 3463.25 2
7 -1 5 32488.9 2846.07 1
-7 1 -5 26919.6 2571.94 5
-7 1 -5 30972.6 3194.44 4
-7 1 -6 3379.09 997.95 4
7 -1 6 4887.29 1531.22 2
7 -1 6 4712.73 1136.3 1
7 -1 6 3582.34 521.799 7
7 -1 6 2895.08 629.221 3
-7 1 -6 2380.69 760.549 5
-7 1 -7 9485.71 1671.67 4
7 -1 7 11119.2 2277.8 2
7 -1 7 8848.1 1705.39 1
7 -1 7 10248.1 1279.36 3
-7 1 -7 8856.14 1529.4 5
7 -1 8 22001.1 3315.2 2
7 -1 8 19507.4 2710.81 1
-7 1 -8 16863 2255.01 5
-7 1 -8 20535 2490.7 4
7 -1 9 3763.13 1474.7 2
7 -1 9 4259.99 1363.23 1
-7 1 -9 3634.65 1025.49 5
7 -1 10 1988.49 920.16 2
7 -1 10 -654.796 880.175 1
-7 1 -10 1828.35 832.754 5
7 -1 11 3601.51 1447.5 2
7 -1 11 2692.24 985.899 1
-7 1 -11 4019.93 1334.38 5
7 -1 12 42394.5 5074.95 1
-7 1 -12 40114.6 4570.75 5
7 -1 13 23145.6 3863.56 1
7 0 -14 79010.5 6829.49 8
7 0 -13 28435.6 3777.98 8
-7 0 12 102942 6834.04 4
7 0 -12 92192.6 7215.69 8
-7 0 11 81445.4 4988.36 6
7 0 -11 95085.7 7051.65 8
-7 0 10 4979.2 1342.09 4
7 0 -10 4534.21 1413.65 8
-7 0 10 3665.66 824.638 6
-7 0 9 101.831 388.955 4
7 0 -9 434.064 209.673 8
-7 0 9 1069.87 408.205 6
-7 0 8 8467.38 1823.9 4
7 0 -8 9219.36 1812.67 8
-7 0 8 9630 1501.08 7
-7 0 8 8461.96 1216.69 6
7 0 -7 40385 3860.32 8
-7 0 7 35003.7 2706.24 6
-7 0 7 43481.6 4316.66 4
7 0 -6 17101.4 2323.68 8
-7 0 6 15237.5 2506.08 4
-7 0 6 13831.9 1546.37 6
-7 0 5 10471.2 2141.8 4
7 0 -5 11550.4 815.307 2
7 0 -5 10651.8 1778.67 8
-7 0 5 11401.3 1379.28 6
7 0 -5 10767.8 1159.54 6
7 0 -4 57995.3 4405.23 8
7 0 -4 54380.1 2854.46 2
7 0 -4 53763.5 3163.11 6
-7 0 4 55277.8 5268.42 4
7 0 -3 24842.6 2649.76 8
7 0 -3 22174.1 1757.63 2
7 0 -3 21859.5 1851.46 6
-7 0 3 21127.4 3166.62 4
7 0 -2 92363.4 5677.06 8
7 0 -2 91431.3 4798.87 2
7 0 -2 87040.5 4726.1 6
-7 0 2 82822.6 6829.13 4
-7 0 1 2275.58 1080.1 4
7 0 -1 1722.55 695.586 8
7 0 -1 2019.07 557.228 6
7 0 -1 2029.52 604.831 2
7 0 0 78380.4 5029.88 8
7 0 0 74357.5 4807.9 2
7 0 0 83669.1 4806.92 6
-7 0 0 72434.3 6137.58 4
7 0 1 16073.7 1996.71 8
7 0 1 18569 2182.32 2
7 0 1 18977.3 2088.45 6
7 0 1 18883.6 1394.18 3
-7 0 -1 17624.9 2699.69 4
7 0 2 40726.9 3230.28 8
7 0 2 35445.5 3415.33 2
7 0 2 37368.3 2088.44 3
-7 0 -2 37054.9 3950.56 4
7 0 3 21529.7 2244.83 8
7 0 3 23687.3 2861.84 2
7 0 3 21607.7 1382.31 3
-7 0 -3 24615.4 3023.2 4
7 0 4 190631 9464.2 8
7 0 4 205025 9161.66 1
7 0 4 216698 11229.3 2
-7 0 -4 201210 10779.9 4
7 0 5 2033.41 1015.65 2
-7 0 -5 1498.34 719.937 4
7 0 5 148.734 283.691 1
7 0 6 81334.3 5375.75 1
7 0 6 83708.1 6675.24 2
-7 0 -6 80838.7 5220.89 5
-7 0 -6 77549 5635.88 4
7 0 7 2908.93 1172.6 2
-7 0 -7 5693.38 1312.89 4
-7 0 -7 3601.77 997.851 5
7 0 7 5594.29 1370.63 1
7 0 8 -746.351 1216.95 2
-7 0 -8 792.534 473.403 4
-7 0 -8 1265.05 766.603 5
7 0 8 2045.49 946.089 1
7 0 9 934.556 672.572 2
-7 0 -9 2295.09 786.62 4
-7 0 -9 2828.29 980.424 5
7 0 9 3964.55 1364.14 1
-7 0 -10 12598.5 2186.69 5
7 0 10 13982.4 2587.55 1
-7 0 -10 13381.8 1978.29 4
7 0 10 12116.7 2609.13 2
-7 0 -11 1352.13 708.505 5
7 0 11 768.795 727.982 1
7 0 11 -496.653 909.51 2
7 0 12 4007.29 1611.49 1
7 0 13 11013.2 2852.85 1
-7 -1 13 36090.6 3679.31 4
7 1 -13 27319.3 3802.72 8
-7 -1 12 18175.3 2583.15 4
7 1 -12 18556.1 2991.38 8
-7 -1 11 119960 7682.9 4
7 1 -11 107628 7955.5 8
-7 -1 10 108417 7156.68 4
7 1 -10 88890.9 7005.58 8
7 1 -9 21356.2 2997.51 8
-7 -1 9 19557.2 2542.72 7
-7 -1 9 25477.6 1988.42 6
-7 -1 9 25226.2 3209.58 4
7 1 -8 47122.4 4417.07 8
-7 -1 8 38655 3391.9 7
-7 -1 8 47981.4 4610.57 4
7 1 -7 15828.6 2388.44 8
-7 -1 7 14975.5 1747.78 7
-7 -1 7 17441.8 2811.79 4
7 1 -6 16547.6 2375.44 8
-7 -1 6 16165.9 2739.1 4
7 1 -5 29876.2 3153.52 8
7 1 -5 25094.5 1499.74 2
7 1 -5 23186.6 3579.93 3
7 1 -5 23783.2 1761.37 6
-7 -1 5 29122 3796.2 4
7 1 -4 43883.1 3972.05 8
7 1 -4 43852 2532.3 2
7 1 -4 36105.1 4439.68 3
7 1 -4 44187.3 2700.66 6
-7 -1 4 42716.2 4870.62 4
7 1 -3 28260.7 2946.5 8
7 1 -3 23433.8 1902.57 2
7 1 -3 21023.1 3149.98 3
7 1 -3 24662.4 1964.22 6
-7 -1 3 22626.5 3490.65 4
-7 -1 2 138.258 306.591 4
7 1 -2 337.22 437.541 8
7 1 -2 391.696 290.609 6
7 1 -2 1306.57 620.27 3
7 1 -2 634.75 279.324 2
7 1 -1 64696.8 4642.02 8
7 1 -1 53784.5 4617.07 3
7 1 -1 60438.5 3899.12 2
7 1 -1 61741.3 3883.54 6
-7 -1 1 54061 5665.45 4
-7 -1 0 8552.77 2108.33 4
7 1 0 10772.3 1702.42 8
7 1 0 9400.04 1552.55 3
7 1 0 9825.64 1416.72 6
7 1 0 9386.61 1438.56 2
7 1 1 86461.4 5505.86 8
7 1 1 70647 4300 3
7 1 1 84807 5364.86 2
7 1 1 86463.6 5262.18 6
7 1 1 90130.8 3707.38 3
-7 -1 -1 84942.4 6972.83 4
-7 -1 -2 2200.74 1006.89 4
7 1 2 1275.34 614.245 8
7 1 2 777.275 440.255 2
-7 -1 -3 1582.75 775.523 4
7 1 3 774.085 443.394 8
7 1 3 888.915 451.287 2
7 1 4 31112.4 3464.1 2
-7 -1 -4 33988.4 3777.52 4
7 1 5 112025 7660.73 2
-7 -1 -5 111899 7425.23 4
-7 -1 -6 262.117 306.98 4
7 1 6 240.231 362.878 2
7 1 7 132962 9230.32 2
-7 -1 -7 135666 8102.16 4
-7 -1 -8 7531.39 1556.68 4
7 1 8 6060.8 1472.79 1
-7 -1 -8 5593.41 1325.48 5
7 1 8 4588.35 1570.24 2
-7 -1 -9 7424.91 1530.24 4
7 1 9 5688.91 1549.53 1
-7 -1 -9 7929.92 1681.98 5
7 1 9 9676.54 2302.01 2
-7 -1 -10 1217.13 570.817 4
7 1 10 2449.39 970.498 1
-7 -1 -10 2032.41 953.762 5
7 1 10 1939 1092.33 2
7 1 11 12582.2 2609.54 1
7 1 12 1920.91 1108.61 1
-7 -2 13 -520.057 531.575 4
7 2 -13 -294.343 731.635 8
-7 -2 12 66.0328 279.931 4
7 2 -12 268.289 418.932 8
-7 -2 11 5979.75 1501.35 4
7 2 -11 6485.03 1794.67 8
7 2 -10 84052.5 6591.97 8
-7 -2 10 77710 6234.6 4
7 2 -9 61250 5462.6 8
-7 -2 9 69822.2 5834.24 4
7 2 -8 78856.6 6163.76 8
-7 -2 8 80717.1 6665.36 4
7 2 -7 78906.3 5885.54 8
-7 -2 7 87636.4 6887.59 4
-7 -2 6 1536.21 978.59 4
7 2 -6 908.397 463.902 8
-7 -2 6 1305.29 421.7 7
-7 -2 5 1621.32 915.98 4
7 2 -5 2919.5 1026.72 8
7 2 -5 1862.04 427.133 2
7 2 -5 1834.41 947.667 3
7 2 -4 48814.3 4245.81 8
7 2 -4 43027 2681.22 2
7 2 -4 34196 4094.2 3
7 2 -4 43114.5 2609.04 6
-7 -2 4 45783.2 5381.64 4
7 2 -3 63901.6 5064.88 8
7 2 -3 66870.7 3794.17 2
7 2 -3 48864.9 4679.64 3
7 2 -3 62941.5 3558.28 6
-7 -2 3 62398.6 6504.27 4
7 2 -2 20952.3 2606.9 8
-7 -2 2 17028.4 3290.57 4
7 2 -2 17134.4 1815.77 2
7 2 -2 12907.6 1973.75 3
7 2 -2 18985.2 1804.77 6
7 2 -1 41720.8 3817.87 8
7 2 -1 42286.2 3216.45 2
7 2 -1 33557.6 2882.88 3
7 2 -1 44279.4 3128.84 6
-7 -2 1 37127.2 4999.15 4
7 2 0 22344.4 2662.5 8
-7 -2 0 22139.2 3679.28 4
7 2 0 19464.5 2229.96 2
7 2 0 21492.1 2217.34 6
-7 -2 -1 903.061 933.19 4
7 2 1 692.654 344.326 8
7 2 1 571.329 443.265 2
7 2 2 34520.1 3340.46 8
7 2 2 33289.8 3333.47 2
-7 -2 -2 42083.2 4887.72 4
-7 -2 -3 6632 1776.86 4
7 2 3 3812.35 1016.7 8
7 2 3 4119.01 1158.29 2
-7 -2 -4 14725.2 2645.86 4
7 2 4 10974.4 2046.68 2
-7 -2 -5 1896.61 917.228 4
7 2 5 1006.75 661.717 2
7 2 6 42645.3 4572.68 2
-7 -2 -6 46615.8 4454.39 4
-7 -2 -7 4733.96 1298.69 4
7 2 7 5768.75 1636.35 2
7 2 8 134367 9751.69 2
-7 -2 -8 140863 8440.35 4
-7 -2 -9 3943.58 1168.97 4
7 2 9 7214.65 2001.88 2
-7 -3 13 9621.34 1949.45 4
-7 -3 12 1391.62 873.447 4
7 3 -12 950.74 709.153 8
-7 -3 11 9298.77 1967.97 4
7 3 -11 9082.62 2001.02 8
-7 -3 10 3253.84 1092.01 4
7 3 -10 3449.32 1127.41 8
7 3 -9 33482.5 3998.15 8
-7 -3 9 35239.6 4256.27 4
7 3 -8 23209.1 3132.62 8
-7 -3 8 25596.6 3726.34 4
7 3 -7 100403 7218.04 8
-7 -3 7 109386 8523.32 4
7 3 -6 76410.6 6018.72 8
-7 -3 6 81854.3 7448.81 4
-7 -3 5 13323.7 2939.71 4
7 3 -5 11185.4 2068.39 8
7 3 -5 8692.02 1060.47 2
7 3 -4 8923.16 1200.75 2
-7 -3 4 9379.34 2623.09 4
7 3 -4 10044.8 1893.49 8
7 3 -3 53587.1 4722.77 8
7 3 -3 53132.9 3506 2
-7 -3 3 52805.6 6372.67 4
7 3 -2 37332.2 3833.36 8
7 3 -2 36549.1 2968.73 2
-7 -3 2 34286.6 5154.34 4
7 3 -1 52147.8 4584.07 8
7 3 -1 48997.7 3772.92 2
-7 -3 1 40909.5 5744.89 4
7 3 0 84310.4 6005.9 8
7 3 0 78242.1 5292.82 2
-7 -3 0 77819.6 8017.62 4
-7 -3 -1 16492.7 3480.94 4
7 3 1 16030.1 2379.62 2
7 3 1 11876.2 2062.48 8
-7 -3 -2 10230.4 2527.08 4
7 3 2 9991.13 1817.85 8
7 3 2 11204.1 1900.89 2
7 3 3 3964.33 1111.04 8
7 3 3 5474.73 1355.67 2
-7 -3 -4 7795.12 2069.99 4
7 3 4 6467.54 1581.73 2
-7 -3 -5 7582.52 1993.74 4
7 3 5 9712.12 2058.19 2
-7 -3 -6 53.7547 347.03 4
7 3 6 1262.45 670.051 2
-7 -3 -7 5298.3 1491.09 4
7 3 7 7260.73 1940.63 2
-7 -3 -8 4180.83 1291.8 4
-7 -3 -9 73253.2 5785.13 4
-7 -4 13 13763.5 2421.92 4
-7 -4 12 140.783 381.167 4
-7 -4 11 1338.28 787.251 4
-7 -4 10 10015.6 2173.44 4
7 4 -10 7146.36 1808.29 8
-7 -4 9 4048.92 1571.97 4
7 4 -9 2834.27 1023.68 8
-7 -4 8 113.035 762.18 4
7 4 -8 1584.27 858.216 8
-7 -4 7 16717.7 3263.45 4
7 4 -7 14016.7 2509.49 8
7 4 -6 64684.4 5644.03 8
-7 -4 6 63082.9 7035.89 4
7 4 -5 47446.4 4742.81 8
-7 -4 5 54632.2 6666.61 4
7 4 -4 53409.3 4934.44 8
7 4 -4 45231 3274.67 2
-7 -4 4 44433.6 6298.76 4
7 4 -3 35149.5 2982.96 2
7 4 -3 37942.5 4198.77 8
-7 -4 3 35692.5 5694.71 4
7 4 -2 14932.8 1953.82 2
-7 -4 2 14597 3674.98 4
7 4 -2 15955.2 2585.29 8
-7 -4 1 3818.27 2156.64 4
7 4 -1 3820.01 1128.88 8
7 4 -1 3950.18 1070.68 2
7 4 0 60616.9 5194.97 8
7 4 0 54414.2 4450.84 2
-7 -4 0 64643.8 7775.99 4
7 4 1 75825.3 5959.3 8
7 4 1 75339.3 5588.55 2
-7 -4 -2 13220.4 3322.6 4
7 4 2 11726.8 2071.01 8
7 4 2 11637.8 2091.68 2
7 4 3 34395.9 3733.71 8
7 4 3 42617.9 4300.67 2
-7 -4 -3 47018.6 5860.91 4
-7 -4 -4 669.275 741.669 4
7 4 4 -548.649 530.672 2
-7 -4 -5 1141.43 826.771 4
7 4 5 -1446.19 1084.04 2
-7 -4 -6 5279.9 1636.9 4
7 4 6 3150.61 1341.66 2
-7 -4 -7 8957.48 2189.4 4
-7 -4 -8 1694.17 768.168 4
-7 -5 11 8094.76 2129.56 4
-7 -5 10 663.193 440.555 4
-7 -5 9 3788.48 1587.53 4
7 5 -8 17422.5 2967.65 8
-7 -5 8 20638.3 3816.59 4
-7 -5 7 9699.61 2664.12 4
7 5 -7 5970.28 1803.63 8
7 5 -6 28015.2 3757.26 8
-7 -5 6 29845.6 5093.26 4
-7 -5 5 20338.3 4414.87 4
7 5 -5 17578.9 3000 8
-7 -5 4 19701.7 4278.47 4
7 5 -4 17045.3 2824.65 8
7 5 -3 36926.5 4283.04 8
-7 -5 3 36555.6 6222.57 4
7 5 -3 37835.2 3277.28 2
7 5 -2 48972.9 4070.75 2
7 5 -2 57325.6 5368.1 8
-7 -5 2 54030.3 7847.3 4
7 5 -1 1310.94 801.931 8
7 5 -1 1467.65 677.22 2
-7 -5 0 2069.94 1260.35 4
7 5 0 2297.89 984.065 8
7 5 0 2319.67 899.345 2
7 5 1 41287.5 4078.31 2
7 5 1 39334.2 4280.24 8
-7 -5 -1 44374.9 6776.73 4
7 5 2 49425.4 4780.4 8
7 5 2 46969.2 4611.44 2
-7 -5 -2 57536.3 7399.41 4
7 5 3 22732.6 3109.9 8
7 5 3 21247.4 3105.73 2
7 5 4 68907.5 6180.56 2
-7 -5 -4 76749.9 7818.56 4
7 6 -1 20938.6 2753.09 2
7 6 0 10808.9 2035.56 2
7 6 1 7674.5 1845.34 2
7 6 2 5357.71 1602.02 2
8 -10 -3 10141.4 1912.56 7
-8 10 1 581.928 743.809 6
8 -10 -1 288.218 320.442 3
-8 10 0 44708.5 4498.8 6
8 -10 0 52022.6 4758.98 3
-8 10 -1 -127.427 335.796 6
8 -10 1 -230.353 405.175 3
-8 10 -2 9589.03 1870.83 6
8 -10 2 7670.25 1681.57 3
-8 10 -3 15228.3 2373.84 6
8 -10 3 13325.7 2251.29 3
-8 10 -4 -851.398 499.426 6
8 -10 4 388.91 434.964 3
-8 10 -5 15251.6 2309.38 6
8 -10 5 10027.3 2040.71 3
-8 10 -6 1635.7 835.93 6
8 -10 6 280.813 479.654 3
-8 10 -7 10188 1840.92 6
8 -9 -6 18701.9 2671.44 7
8 -9 -5 82375.6 6004.13 7
-8 9 5 76652.3 6880.46 6
8 -9 -5 87031 6610.82 3
8 -9 -4 55.6071 475.347 7
-8 9 4 -28.2948 380.428 6
8 -9 -4 113.342 445.089 3
8 -9 -3 29608.6 3251.38 7
-8 9 3 30356.8 3738.09 6
8 -9 -3 35201 3809.82 3
-8 9 2 14795.2 2513.7 6
8 -9 -2 16317.7 2516.32 3
-8 9 1 23492.7 3099.54 6
8 -9 -1 25947.5 3118.29 3
-8 9 0 2562.26 974.778 6
8 -9 0 4320.13 1282.84 3
-8 9 -1 101626 6880.05 6
8 -9 1 102460 6833.35 3
-8 9 -2 846.11 647.368 6
8 -9 2 619.025 522.421 3
-8 9 -3 35415.1 3552.03 6
8 -9 3 33299.7 3488.43 3
-8 9 -4 146.943 305.919 6
8 -9 4 223.007 353.946 3
-8 9 -5 1059.67 597.466 6
-8 9 -5 922.624 375.577 5
8 -9 5 1021.35 586.833 3
-8 9 -6 18100.5 2458.89 6
8 -9 6 20763.8 2777.32 3
-8 9 -6 20178.2 2091.33 5
-8 9 -7 3296.59 1060.28 6
-8 9 -7 1964.64 652.196 5
8 -9 7 2551.44 949.385 3
8 -9 8 -653.895 826.501 3
-8 9 -8 145.195 145.123 5
8 -9 9 437.397 225.015 3
-8 9 -9 -37.7016 355.917 5
8 -9 10 42090.9 4511.6 3
-8 9 -10 35450.1 3841.53 5
-8 9 -11 11726.1 2225.86 5
8 -8 -8 5277.27 1363.36 7
8 -8 -7 3293.8 1098.22 7
-8 8 7 1994.46 985.311 6
8 -8 -6 12662.3 1995.43 7
-8 8 6 12688.3 2573.14 6
8 -8 -5 7659.33 1542.28 7
-8 8 5 7617.41 1941.18 6
8 -8 -5 10590.8 2007.63 3
8 -8 -4 97299.2 6347.34 7
-8 8 4 93522.9 7158.49 6
8 -8 -4 104426 6925.65 3
8 -8 -3 9601.79 1672.19 7
-8 8 3 6852.24 1672.54 6
8 -8 -3 6235.68 1483.54 3
-8 8 2 57714.7 5080.17 6
8 -8 -2 68205.2 5179.98 3
-8 8 1 12325.1 2075.77 6
8 -8 -1 13981.9 2143.24 3
-8 8 0 -224.461 237.803 6
8 -8 0 887.293 509.93 3
-8 8 -1 28594.5 3152.41 6
8 -8 1 28775.2 3089.88 3
-8 8 -2 107102 6885.25 6
8 -8 2 113480 6954.86 3
-8 8 -3 805.994 498.285 6
8 -8 3 1847.61 762.081 3
-8 8 -4 83602.8 5802.03 6
8 -8 4 88554.5 5900.84 3
-8 8 -5 156.326 297.401 6
-8 8 -5 1089.77 520.975 5
8 -8 5 921.391 596.902 3
-8 8 -6 1878.69 714.014 6
-8 8 -6 3085.39 810.119 5
8 -8 6 2219.64 923.275 3
-8 8 -7 4421.18 1059.45 5
8 -8 7 4853.19 1272.91 3
8 -8 8 8554.78 1729.83 3
-8 8 -8 7699.78 1464.4 5
8 -8 9 5018.75 1405.62 3
-8 8 -9 3083.1 1051.36 5
8 -8 10 1326.23 733.521 3
-8 8 -10 1133.91 612.585 5
8 -8 11 12115.1 2359.57 3
-8 8 -11 10132.2 2138.29 5
8 -8 12 1635.38 859.252 3
8 -7 -9 877.017 595.878 7
-8 7 9 245.934 479.565 6
8 -7 -8 1958.24 772.399 7
-8 7 8 128.607 367.449 6
8 -7 -7 7025.39 1419.35 7
-8 7 7 7691.42 2021.61 6
8 -7 -6 23516.6 2663.04 7
-8 7 6 19749 3114.32 6
8 -7 -5 13293.5 1922.23 7
-8 7 5 9538.24 1988.53 6
8 -7 -4 792.858 417.117 7
-8 7 4 3287.34 1076.96 6
8 -7 -3 34876.8 3183.14 7
-8 7 3 36109.1 3762.16 6
8 -7 -3 33098 3389.29 3
-8 7 2 13322 2156.18 6
8 -7 -2 11741.6 1912.64 3
-8 7 1 90930.2 6214.62 6
8 -7 -1 94227.7 6034.89 3
-8 7 0 2081.55 807.663 6
8 -7 0 1537.17 490.832 5
8 -7 0 1279.07 576.016 3
-8 7 -1 16025.9 2231.67 6
8 -7 1 17600.7 2197.1 3
8 -7 1 16205.2 1764.55 5
-8 7 -2 17926.3 2349.61 6
8 -7 2 22998.9 2573.09 3
-8 7 -3 78414.5 5366.07 6
8 -7 3 71225.6 5035.68 3
-8 7 -4 7522.32 1443.94 6
-8 7 -4 7310.55 1174.77 5
8 -7 4 11198.6 1720.13 3
-8 7 -5 177797 9352.1 6
8 -7 5 182669 9409.82 3
-8 7 -5 169187 8415.19 5
-8 7 -6 4981.7 1058.14 5
8 -7 6 5187.99 1235.89 3
8 -7 7 33252.7 3328.33 3
-8 7 -7 32180.9 3073.07 5
8 -7 8 2688.66 763.909 3
-8 7 -8 2596.47 863.487 5
8 -7 9 6879.81 1549.91 3
-8 7 -9 3799.58 1042.56 5
8 -7 10 2386.45 1033.26 3
-8 7 -10 1323.59 707.838 5
8 -7 11 12112.1 2627.19 1
8 -7 11 7748.96 1834.83 3
-8 7 -11 9361.42 2041.06 5
8 -7 12 560.18 1216.59 1
8 -7 12 777.215 649.5 3
8 -7 13 8421.12 2093.02 3
8 -6 -11 16838 2507.85 7
-8 6 11 19560.1 3945.46 6
8 -6 -10 61357.9 4959.1 7
-8 6 10 65366.3 7046.89 6
8 -6 -9 51067.5 4364.71 7
-8 6 9 56948.6 6080.45 6
8 -6 -8 4964.37 1203.92 7
-8 6 8 4470.89 1522.32 6
8 -6 -7 4326.06 1086.32 7
-8 6 7 5160.75 1512.7 6
8 -6 -6 19954 2305.5 7
-8 6 6 19135.1 2859.13 6
8 -6 -5 29295.9 2788.38 7
-8 6 5 28729.3 3387.2 6
-8 6 4 18944.2 2512.15 8
8 -6 -4 20454 2212.15 7
-8 6 4 22264.9 2795.17 6
8 -6 -4 18647.1 1785.8 5
-8 6 3 30332.4 2910.46 8
8 -6 -3 33869.5 2919.06 7
8 -6 -3 30836 2664.75 1
-8 6 3 31938.4 3336.35 6
8 -6 -3 31385.4 2449.09 5
8 -6 -3 29516 2693.62 2
8 -6 -2 12800.8 1675.59 7
-8 6 2 17115.4 2309.08 6
8 -6 -2 13330.4 1899.7 3
8 -6 -2 12952.2 1501.64 5
-8 6 1 143.822 108.224 8
-8 6 1 718.378 402.272 6
8 -6 -1 -88.8653 271.621 5
8 -6 -1 71.6782 347.579 3
-8 6 0 84255.8 3922.49 8
-8 6 0 83183.2 5662.7 6
8 -6 0 93387.2 5581.03 3
8 -6 0 86761 4839.36 5
-8 6 -1 9479.72 1623.93 6
8 -6 1 10162.7 1363.41 5
8 -6 1 9322.09 1509.69 3
-8 6 -2 38539 3443.84 6
8 -6 2 33178.2 3008.7 3
-8 6 -3 6805.37 1360.25 6
8 -6 3 8356.72 1390.79 3
-8 6 -4 23130.6 2625.3 6
8 -6 4 24514.3 2528.2 3
-8 6 -4 25133.4 2306.39 5
-8 6 -5 16446.9 2191.91 6
8 -6 5 20061.3 2259.32 3
-8 6 -5 18455.9 2027.14 5
8 -6 6 209562 10061.1 3
-8 6 -6 188335 9500.67 5
-8 6 -7 1142.75 505.73 5
8 -6 7 146.532 201.201 3
8 -6 8 97585.8 6219.6 3
-8 6 -8 85627.2 5930.03 5
8 -6 9 12614.9 2091.05 3
-8 6 -9 13818.8 2164.89 5
8 -6 10 -56.9624 490.672 1
8 -6 10 38.3515 388.372 3
-8 6 -10 -129.393 323.892 5
8 -6 11 852.241 767.462 1
8 -6 11 923.431 799.381 3
-8 6 -11 332.42 363.162 5
8 -6 12 31669.1 4490.77 1
8 -6 12 20072 3059.04 3
8 -6 13 3595.88 1493.21 1
-8 5 13 2596.61 1308.27 6
8 -5 -12 72.5324 583.588 8
8 -5 -12 -140.702 327.649 7
-8 5 12 -791.052 1334.79 6
8 -5 -11 16270.6 2699.69 8
8 -5 -11 11417.6 1999.06 7
-8 5 11 12866 2916.76 6
8 -5 -10 8267.75 1883.81 8
8 -5 -10 7342.15 1541.15 7
-8 5 10 8910.8 2265.09 6
8 -5 -9 90123.5 6126.72 7
-8 5 9 91584.1 7572.12 6
8 -5 -8 44222.8 3740.62 7
-8 5 8 42355.2 4560.16 6
8 -5 -8 49483.3 4598.78 8
8 -5 -7 44369.1 3599.31 7
-8 5 7 39859.7 4201.08 6
8 -5 -7 41997.7 4085.59 8
8 -5 -6 39532.5 3303.93 7
-8 5 6 41768.1 4110.04 6
8 -5 -6 47085.6 4127.9 8
8 -5 -5 13799.5 1530.71 2
-8 5 5 13183.5 2109.3 8
8 -5 -5 13411.5 1725.32 7
-8 5 5 12861.1 2070.57 6
8 -5 -5 13693.1 1554.09 5
8 -5 -5 15647.4 2148.04 8
-8 5 4 12067 1795.93 8
8 -5 -4 13185.8 1642.78 7
-8 5 4 13091.9 1996.79 6
8 -5 -4 10584.8 1299.16 1
8 -5 -4 10954.5 1379.02 5
8 -5 -4 13341.7 1888.59 8
8 -5 -4 11237.7 1394.4 2
-8 5 3 33798 2938.62 8
8 -5 -3 39576.3 2935.02 7
8 -5 -3 34464.3 2530.48 1
-8 5 3 38946.1 3531.06 6
8 -5 -3 38178.9 2769.07 5
8 -5 -3 31275.8 2705.09 2
8 -5 -3 36263.8 3103.26 8
8 -5 -2 64698.5 4053.11 7
-8 5 2 67301.3 4856.86 6
8 -5 -2 69238 4102.45 5
8 -5 -2 66720.9 4212.17 8
-8 5 1 12816.9 1303.24 8
-8 5 1 12265.9 1836.18 6
8 -5 -1 14794.5 1858.17 3
8 -5 -1 10911.1 1426.41 5
8 -5 -1 13157.8 1448.12 8
-8 5 0 16862.7 2203.89 6
8 -5 0 21488.8 2234.67 3
8 -5 0 18715.6 1575.78 8
-8 5 -1 14355.3 2006.12 6
8 -5 1 19505 2094.32 3
-8 5 -2 17632.7 2208.31 6
8 -5 2 17392.5 1973.21 3
-8 5 -3 35764 3272.04 6
8 -5 3 37867.7 3080.35 3
-8 5 -4 1252.42 451.964 5
8 -5 4 1496.22 563.582 3
-8 5 -5 531.065 322.704 5
8 -5 5 494.379 333.755 3
-8 5 -6 8532.37 1449.47 5
8 -5 6 7841.63 1385.65 3
8 -5 6 10676 1996.9 1
8 -5 7 103883 6380.38 3
-8 5 -7 102844 6379.89 5
8 -5 8 6283.67 1380.31 3
-8 5 -8 4666.21 1224.58 5
8 -5 8 8473.63 1966.05 1
8 -5 9 132474 8911.98 1
8 -5 9 124188 7402.39 3
-8 5 -9 105202 7189.79 5
8 -5 10 7124.31 1591.94 3
-8 5 -10 8261.04 1796.48 5
8 -5 10 8757.93 2220.15 1
8 -5 11 8416.4 2149.38 1
8 -5 11 6856.48 1597.34 3
-8 5 -11 11829.6 2301.83 5
8 -5 12 5350.47 1635.94 1
8 -5 13 24212.7 3987.29 1
-8 4 14 -709.515 787.768 6
-8 4 13 349.068 657.545 6
8 -4 -12 11029.9 2272.72 8
8 -4 -12 8336.83 1788.36 7
-8 4 12 5396.82 1835.77 6
8 -4 -11 3852.93 1287.08 8
8 -4 -11 1363.89 649.969 7
-8 4 11 2800.59 1237.94 6
8 -4 -10 -59.5303 344.198 8
8 -4 -10 -469.328 576.35 7
-8 4 10 150.512 376.87 6
8 -4 -9 8390.37 1870.95 8
8 -4 -9 7683.08 1489.5 7
-8 4 9 5631.16 1546.02 6
8 -4 -8 52553.3 4143.01 7
-8 4 8 53093.7 4765.5 6
8 -4 -8 63458.5 5192.65 8
8 -4 -7 38650.7 3229.99 7
-8 4 7 36649.6 3691.21 6
8 -4 -7 36003.3 3768.73 8
8 -4 -6 61870.3 4221.51 7
-8 4 6 59544.6 4751.34 6
8 -4 -6 68589.8 5259.55 8
-8 4 5 77847.7 5385 8
8 -4 -5 77810.7 4703.86 7
-8 4 5 82273.9 5522.13 6
8 -4 -5 83768.3 5757.03 8
8 -4 -5 75665.1 4112.39 2
8 -4 -4 447.842 460.622 8
-8 4 4 1244.39 475.505 8
8 -4 -4 1047.65 416.628 7
-8 4 4 1185.29 539.922 6
8 -4 -4 821.641 277.505 1
8 -4 -4 1843.74 528.288 2
8 -4 -3 3183.96 956.382 8
8 -4 -3 3767.04 576.287 1
-8 4 3 3913.09 844.995 8
8 -4 -3 4693.93 882.516 7
-8 4 3 5178.3 1141.32 6
8 -4 -2 74856 4194.69 7
8 -4 -2 74717 3613.83 1
-8 4 2 74616.2 5037.87 6
8 -4 -2 77054.3 4999.05 8
8 -4 -1 94142.9 4856.97 7
-8 4 1 90415.5 5762.94 6
8 -4 -1 99164.2 5591.82 8
-8 4 0 30758.1 2937.02 6
8 -4 0 34819.6 2806.74 3
8 -4 0 29504.4 2568.83 8
-8 4 -1 87979 5599.79 6
8 -4 1 97606.6 5353.71 3
8 -4 1 91698.6 4884.22 8
-8 4 -2 6873.17 1311.73 6
8 -4 2 7963.63 1224.45 3
8 -4 2 7413.44 953.659 8
8 -4 3 -48.0154 274.887 1
8 -4 3 275.713 155.093 8
8 -4 3 37.5426 173.228 3
8 -4 4 12660.1 1979.06 1
8 -4 4 10195.7 1389.1 3
-8 4 -4 11050.1 1491.74 5
8 -4 4 7309.03 577.14 8
8 -4 5 18107.4 2580.6 1
8 -4 5 17472.9 1980.83 3
-8 4 -5 17023.1 2022.62 5
8 -4 6 6881.81 1547.02 1
-8 4 -6 6540.38 1257.66 5
8 -4 6 8057.91 1306.35 3
8 -4 7 129.061 291.011 3
-8 4 -7 891.102 589.424 5
8 -4 7 254.871 541.153 1
8 -4 8 19212.4 2889.82 1
8 -4 8 20434.5 2419.54 3
8 -4 8 25113.1 3731.46 2
-8 4 -8 20218.7 2532.7 5
8 -4 9 4102.43 1464.51 2
8 -4 9 1724.65 920.422 1
8 -4 9 3018.02 952.506 3
-8 4 -9 1728.69 743.995 5
-8 4 -10 90658.9 6713.39 5
8 -4 10 85148.8 7182.74 1
8 -4 11 1638.01 922.691 1
8 -4 11 2739.02 1513.49 2
-8 4 -11 851.76 729.495 5
8 -4 12 39623.5 4914.37 1
8 -4 13 10033.7 2545.43 1
-8 3 14 67137.3 6744.3 6
8 -3 -13 7203.14 1809.48 8
-8 3 13 6775.54 1988.02 6
8 -3 -12 2783.93 1220.53 8
-8 3 12 237.802 318.138 6
8 -3 -11 865.789 554.744 8
-8 3 11 1865.71 839.729 6
8 -3 -10 12523.5 2290.55 8
8 -3 -10 14420.2 2237.12 7
-8 3 10 15821.2 2452.19 6
8 -3 -9 1494.11 706.286 8
8 -3 -9 2041.44 777.75 7
-8 3 9 2665.82 929.467 6
8 -3 -8 10816.7 1971.19 8
8 -3 -8 11564.9 1812.94 7
-8 3 8 10855.8 1811.21 6
8 -3 -7 10927.9 1996.05 8
8 -3 -7 9541.77 1558.96 7
-8 3 7 9590.79 1652.39 6
8 -3 -6 35658.6 2944.84 7
-8 3 6 29189.6 2945.13 6
8 -3 -6 31967.5 3402.47 8
-8 3 5 78999.1 5377.33 8
8 -3 -5 88482.2 4996.91 7
-8 3 5 82300.8 5352.56 6
8 -3 -5 83518.5 4087.89 2
8 -3 -5 86749.7 5941.06 8
-8 3 4 77659.3 4996.66 8
8 -3 -4 82286.8 4651.8 7
-8 3 4 81856.8 5255.58 6
8 -3 -4 82403 5623.12 8
-8 3 3 11846.9 1541.76 8
8 -3 -3 13561.7 1481.71 7
-8 3 3 14657.7 1924.46 6
8 -3 -3 13901.9 1967.14 8
8 -3 -2 41771.8 2764.4 7
-8 3 2 44097.2 3527.76 6
8 -3 -2 48109.7 3755.74 8
8 -3 -1 35354.1 2373.41 7
-8 3 1 37712.3 3204.38 6
8 -3 -1 37691.8 3162.27 8
8 -3 0 54677.4 3008.5 7
-8 3 0 57034.6 4054.34 6
8 -3 0 57893.1 3661.46 3
8 -3 0 51733.5 2614.05 1
8 -3 0 54966.9 3843.38 8
8 -3 1 110506 5628.66 8
8 -3 1 97087 4596.64 7
-8 3 -1 94293.5 5819.89 6
8 -3 1 103802 5414.42 3
8 -3 1 99289.3 4794.87 1
8 -3 2 143004 6942.55 8
8 -3 2 145051 6953.28 3
8 -3 2 143209 6866.75 1
8 -3 3 15215.4 1585.43 8
8 -3 3 17793.8 1781.62 3
8 -3 3 18545 1999.49 1
8 -3 4 31023.2 2312.16 8
8 -3 4 32114.8 2499.36 3
8 -3 4 30000.7 3787.1 2
8 -3 4 31834.3 2956.41 1
8 -3 5 1444.13 700.126 1
8 -3 5 1125.74 354.102 8
8 -3 5 1006.93 448.99 2
-8 3 -5 1459.05 595.244 5
8 -3 5 733.786 369.488 3
8 -3 6 9646.38 1132.55 8
8 -3 6 8549.46 2089.28 2
8 -3 6 11828.3 1531.2 3
-8 3 -6 10161 1634.24 5
8 -3 6 11579.8 1989.93 1
8 -3 7 6532.08 1821.43 2
8 -3 7 4079.34 969.043 3
-8 3 -7 4917.64 1156.06 5
8 -3 7 3166.84 1086.72 1
8 -3 8 11148.3 2566.23 2
8 -3 8 12000.3 1765.77 3
-8 3 -8 11567.3 1878.47 5
8 -3 8 12323.4 2223.95 1
8 -3 9 1569.89 946.874 2
8 -3 9 978.828 292.801 1
-8 3 -9 2791.22 938.138 5
8 -3 10 1280.29 958.459 2
8 -3 10 406.991 524.144 1
-8 3 -10 468.845 323.155 5
8 -3 11 65813.5 6682.7 2
-8 3 -11 58464.5 5481.97 5
8 -3 11 58227 5910.01 1
8 -3 12 667.014 814.377 1
8 -3 13 57043 6172.51 1
8 -2 -13 113399 8336.61 8
8 -2 -12 10934.3 2274.5 8
-8 2 12 9916.57 1873.64 6
8 -2 -11 14851.8 2552.44 8
-8 2 11 11338.4 1947.75 6
8 -2 -10 1378.91 684.863 8
-8 2 10 1664.74 694.584 6
-8 2 9 16692 2174.15 6
8 -2 -9 19840.9 2854.11 8
8 -2 -8 13025.4 2219.11 8
-8 2 8 8694.33 1493.26 6
-8 2 7 33822.5 3093.14 6
8 -2 -7 42747.9 4077.28 8
-8 2 6 2093.45 1113.54 4
8 -2 -6 75.79 341.207 8
8 -2 -6 951.959 450.65 7
-8 2 6 1368.84 487.746 6
8 -2 -6 671.825 171.126 2
8 -2 -5 22974.9 2269.98 7
-8 2 5 21131 2300.56 6
8 -2 -5 21300.6 1599.61 2
-8 2 5 24422.1 3519.03 4
8 -2 -5 23636.7 2812.77 8
-8 2 4 42668 3409.09 8
8 -2 -4 46588 3238.28 7
-8 2 4 41466.1 3405.67 6
8 -2 -4 47436.2 2997.67 2
-8 2 4 51056.6 5198.45 4
8 -2 -4 46055.7 3995.44 8
8 -2 -3 40899.9 2837.61 7
-8 2 3 40469 3273.12 6
8 -2 -3 39804.3 3041.11 2
-8 2 3 41771.5 4704.01 4
8 -2 -3 40503.3 3593.51 8
8 -2 -2 41204.4 3530.04 8
8 -2 -2 46910.9 2831.46 7
-8 2 2 40322.5 3309.82 6
8 -2 -2 42356.1 3384.9 2
-8 2 2 40295.6 4657.17 4
8 -2 -1 49133.9 3791.54 8
8 -2 -1 51529.1 2859.29 7
-8 2 1 52037.8 3785.51 6
8 -2 -1 52739.5 4117.62 2
-8 2 1 47354.2 4994.74 4
-8 2 0 3343.66 1297.6 4
8 -2 0 2570.51 776.451 8
8 -2 0 2244.28 769.651 2
8 -2 0 1620.21 390.955 7
-8 2 -1 1144.52 889.151 4
8 -2 1 2.41104 205.613 8
8 -2 1 745.665 331.66 2
8 -2 1 395.052 173.322 7
8 -2 1 306.633 117.082 1
8 -2 1 -60.4974 193.701 3
8 -2 2 114262 6106.67 8
8 -2 2 105663 4534.04 7
8 -2 2 114274 5071.01 1
8 -2 2 114290 7545.38 2
8 -2 2 129311 5764.63 3
-8 2 -2 121455 8002.09 4
8 -2 3 127064 6440.75 8
8 -2 3 117356 4896.65 7
8 -2 3 137745 6100.31 3
8 -2 3 131861 8511.66 2
8 -2 3 136108 6135.87 1
-8 2 -3 129839 8276.76 4
8 -2 4 46383 3217.75 8
8 -2 4 44515.4 2924.55 3
8 -2 4 41006.5 4454.55 2
8 -2 4 44994.2 3284.22 1
-8 2 -4 45159.2 4364.99 4
8 -2 5 84305.2 4867.06 8
8 -2 5 91418.4 4752.21 3
8 -2 5 77706.2 6758.51 2
8 -2 5 92426.7 5583.81 1
8 -2 6 940.597 841.327 2
8 -2 6 1896.49 553.248 8
8 -2 6 2256.96 771.124 1
8 -2 6 2027.74 620.082 3
-8 2 -6 2228.7 714.025 5
8 -2 7 591.71 485.792 2
8 -2 7 905.773 425.055 8
8 -2 7 80.1685 507.726 1
-8 2 -7 1878.29 695.982 5
8 -2 8 665.434 843.946 2
8 -2 8 1385.38 845.309 1
-8 2 -8 2362.55 794.925 5
8 -2 9 18552.9 3324.83 2
-8 2 -9 16638.3 2431.95 5
8 -2 9 19648.9 2912.74 1
8 -2 10 -858.464 1027.77 2
8 -2 10 -131.233 410.863 1
-8 2 -10 32.7882 286.857 5
8 -2 11 3310.36 1249.48 1
8 -2 12 15307.8 2977.24 1
8 -2 13 -831.459 363.541 1
8 -1 -13 6027.4 1797.22 8
8 -1 -12 120948 8710.33 8
8 -1 -11 9471.84 2144.94 8
-8 1 11 8288.36 1446.96 6
-8 1 10 78530.7 5127.32 6
8 -1 -10 74253.1 6304.82 8
-8 1 9 21691.1 2357.61 6
-8 1 9 25881.8 3438.66 4
8 -1 -9 23475.5 3192.87 8
-8 1 8 5873.51 1605.89 4
8 -1 -8 6774.55 1623.85 8
-8 1 8 3787.98 895.696 6
-8 1 7 1848.51 885.067 4
8 -1 -7 1186.88 724.848 8
-8 1 7 1244.25 524.365 6
-8 1 6 45909.2 3527.97 6
-8 1 6 57523.1 5480.33 4
8 -1 -6 49951.1 4430.32 8
-8 1 5 6752.61 1862.85 4
8 -1 -5 7366.15 1537.54 8
8 -1 -5 5368.09 598.759 2
-8 1 5 5922.66 1098.69 6
8 -1 -5 5562.06 888.282 6
8 -1 -4 37162.1 3528.97 8
8 -1 -4 37236.4 2309 2
-8 1 4 32170.2 2815.68 6
8 -1 -4 34729.7 2590.74 6
-8 1 4 36921.3 4451.53 4
8 -1 -3 540.29 318.681 2
-8 1 3 1586.29 990.911 4
8 -1 -3 641.981 471.266 8
8 -1 -3 414 304.451 6
8 -1 -2 15897.1 2183.44 8
8 -1 -2 22444.6 2108 2
8 -1 -2 19232.5 1955.2 6
-8 1 2 19252 3184.75 4
8 -1 -1 58440.8 4391.17 8
8 -1 -1 62051.9 4201.22 2
-8 1 1 55716.9 5620.94 4
8 -1 0 38328.1 3345.55 8
8 -1 0 43193.7 3611.16 2
-8 1 0 33636.1 4223.8 4
8 -1 1 5268.04 1261.83 2
-8 1 -1 5205.94 1499.53 4
8 -1 1 6024.62 1194.22 8
8 -1 1 7036.02 939.183 3
8 -1 2 5285.89 1374.76 2
-8 1 -2 8778.48 1940.86 4
8 -1 2 6419.33 1239 8
8 -1 2 7380.61 945.829 3
8 -1 3 41363.2 3356.51 8
8 -1 3 39649.2 2601.11 1
8 -1 3 45347.3 4347.02 2
8 -1 3 46682.5 2664.14 3
-8 1 -3 47325.7 4630.76 4
8 -1 4 69436.7 4617.63 8
8 -1 4 77857.2 4344.49 1
8 -1 4 73099.6 3782.74 3
8 -1 4 71439 5976.16 2
-8 1 -4 72758.6 5810.38 4
8 -1 5 75547.9 4813.31 8
8 -1 5 80967 4874.79 1
8 -1 5 76425.6 6492.09 2
-8 1 -5 75703.8 5870.32 4
8 -1 6 110021 6409.87 8
8 -1 6 126974 8898.62 2
8 -1 6 129480 7080.47 1
-8 1 -6 118075 7662.84 4
-8 1 -7 1439.03 802.983 4
8 -1 7 604.734 345.57 8
-8 1 -7 1315.69 766.576 5
8 -1 7 927.268 449.342 1
8 -1 8 17070.8 3102.35 2
8 -1 8 18943.8 2692.72 1
-8 1 -8 17449.8 2430.67 5
8 -1 9 7894.58 2154.04 2
-8 1 -9 8104.28 1711.78 5
8 -1 9 7238.46 1758.55 1
8 -1 10 8154.16 2257.86 2
-8 1 -10 6664.1 1616.52 5
8 -1 10 9551.92 2115.45 1
8 -1 11 1320.3 806.269 1
8 -1 12 19336.5 3361.78 1
-8 0 12 3198.03 1131.64 4
8 0 -12 2314.22 1169.85 8
-8 0 11 105669 7554.69 4
8 0 -11 107151 8005.2 8
-8 0 10 178.613 299.588 4
8 0 -10 981.846 845.246 8
-8 0 9 136108 7163.6 6
-8 0 9 157704 9700.37 4
8 0 -9 152244 9525.91 8
-8 0 8 29631.8 2572.31 6
-8 0 8 31154.8 3897.32 4
8 0 -8 28641.6 3565.06 8
-8 0 7 11678.3 2375.91 4
8 0 -7 11179.8 2144.74 8
-8 0 7 9655.58 1375.45 6
-8 0 6 11712.5 2428.75 4
8 0 -6 9603.41 1901.81 8
8 0 -5 64384.7 5092.02 8
8 0 -5 56434.6 2710.38 2
8 0 -5 55706.4 3377.37 6
-8 0 4 8905.21 2217.72 4
8 0 -4 10105.4 1814.77 8
8 0 -4 10531.5 1077.58 2
8 0 -4 10639.6 1300.76 6
8 0 -3 73808.2 5418.16 8
8 0 -3 75821.5 4062.47 2
8 0 -3 69359.9 4167.33 6
-8 0 3 68735.5 6682.85 4
-8 0 2 14059.3 2825.75 4
8 0 -2 10779.2 1931.01 8
8 0 -2 14485.8 1621.26 2
8 0 -2 14367.9 1655.33 6
8 0 -1 32005.7 3233.26 8
8 0 -1 34343.6 2862.91 2
-8 0 1 27615.4 4037.55 4
8 0 0 12783.1 1983.96 8
-8 0 0 11923.1 2567.98 4
8 0 0 14258.6 1884.1 2
8 0 1 15345 2153.6 8
-8 0 -1 14538.7 2735.56 4
8 0 1 14919.6 2050.4 2
8 0 1 18570.7 1445.82 3
8 0 2 23305.5 2649.54 8
8 0 2 22145.2 2732.27 2
8 0 2 25624.3 1653.14 3
-8 0 -2 24594.3 3518.77 4
8 0 3 4694.79 1313.2 2
-8 0 -3 5562.52 1619.02 4
8 0 3 5771.54 1225.7 8
8 0 4 7005.99 1710.48 2
-8 0 -4 5488.58 1523.87 4
8 0 4 9237.76 1523.61 8
8 0 5 18295 2264.58 8
8 0 5 21732.5 3111.91 2
-8 0 -5 19605.9 2853.42 4
8 0 6 50611 4138.47 8
8 0 6 60474.8 4330.61 1
8 0 6 65174.3 5962.42 2
-8 0 -6 61145.8 5132.37 4
8 0 7 110217 6793.24 1
8 0 7 109511 8369.81 2
-8 0 -7 101482 7055.6 4
8 0 8 15122.5 2374.21 1
-8 0 -8 16925.3 2448.56 5
-8 0 -8 14846.2 2303.85 4
8 0 8 14574.6 2935.46 2
8 0 9 67127 5642.15 1
8 0 9 64707.1 6555.01 2
-8 0 -9 61414.5 5231.57 5
-8 0 -9 65683.1 5196.11 4
8 0 10 1414.83 662.529 1
-8 -1 13 8325.13 1858.15 4
-8 -1 12 1253.29 746.64 4
8 1 -12 2461.45 1212.79 8
-8 -1 11 1332.6 767.517 4
8 1 -11 2457.73 1033.99 8
-8 -1 10 36317.8 4156.68 4
8 1 -10 31741.3 4011.03 8
-8 -1 9 706.723 600.864 4
8 1 -9 529.893 542.964 8
8 1 -8 143910 9394.54 8
-8 -1 8 159457 10216.9 4
-8 -1 7 7623.67 2070.15 4
8 1 -7 8284.03 1895.78 8
8 1 -6 59360.3 5164.76 8
-8 -1 6 54025.6 5787.1 4
8 1 -5 42904.1 4223.73 8
-8 -1 5 40702.1 5071.89 4
8 1 -4 35782.5 3750.82 8
8 1 -4 37569.7 2414.49 2
-8 -1 4 39351.8 5057.08 4
-8 -1 3 2240.23 1383.44 4
8 1 -3 1967.6 834.511 8
8 1 -3 1517.11 513.143 6
8 1 -3 1766.89 541.334 2
8 1 -2 84646.1 6144.96 8
8 1 -2 89625.2 5017.69 2
8 1 -2 90870.2 5048.49 6
-8 -1 2 79840.2 7638.55 4
8 1 -1 30333.1 3605.59 8
8 1 -1 33085.6 2832.77 2
-8 -1 1 33183.5 4681.9 4
8 1 0 55510.7 4667.28 8
8 1 0 56179.1 4191.08 2
8 1 0 60918.1 3070.11 3
-8 -1 0 60265.3 6344.87 4
-8 -1 -1 2103.5 1278.81 4
8 1 1 1968.11 829.605 8
8 1 1 1719.02 739.88 2
-8 -1 -2 4210.9 1601.19 4
8 1 2 5576.82 1274.24 8
8 1 2 6917.52 1473.23 2
8 1 3 20423.1 2570.23 8
8 1 3 21441.7 2834.55 2
-8 -1 -3 24868.3 3625.17 4
-8 -1 -4 359.363 584.96 4
8 1 4 491.62 430.229 8
8 1 4 -290.716 369.913 2
-8 -1 -5 3732.33 1231.85 4
8 1 5 2872.56 934.733 8
8 1 5 4572.62 1516.54 2
-8 -1 -6 3184.3 1160.37 4
8 1 6 2780.3 1260.4 2
8 1 7 22144.2 3475.09 2
-8 -1 -7 24679 3161.49 4
8 1 8 39018.6 4892.67 2
-8 -1 -8 45008.9 4345.29 4
-8 -1 -9 23580 3012.25 4
-8 -2 13 -177.299 465.758 4
-8 -2 12 11699.1 2249.81 4
-8 -2 11 2028.25 1081.25 4
8 2 -11 2329.56 1073.37 8
8 2 -10 19623.5 3209.48 8
-8 -2 10 20083.2 3175.53 4
-8 -2 9 2928.5 1200.67 4
8 2 -9 2502.25 1039.79 8
-8 -2 8 548.27 619.377 4
8 2 -8 -86.6675 441.035 8
8 2 -7 83641.9 6673.23 8
-8 -2 7 88774.3 7697.65 4
-8 -2 6 1131.94 973.191 4
8 2 -6 779.048 524.496 8
8 2 -5 73108.7 5984.91 8
-8 -2 5 71200.7 7279.19 4
8 2 -4 33910.3 3835.46 8
-8 -2 4 35284.2 5097.51 4
-8 -2 3 1137.04 759.256 4
8 2 -3 636.935 442.534 8
8 2 -3 446.045 236.56 2
-8 -2 2 1040.11 845.303 4
8 2 -2 879.224 733.968 8
8 2 -2 2077.86 654.457 2
8 2 -1 114073 7550.79 8
8 2 -1 109629 6288.34 2
-8 -2 1 104691 9581.34 4
8 2 0 26474.6 3188.61 8
8 2 0 25604.1 3011.68 2
-8 -2 0 27233.8 4855.59 4
8 2 1 83688.1 6093.48 8
8 2 1 76052.8 5464.27 2
-8 -2 -1 83111.2 7993.65 4
8 2 2 21554.6 2824.55 8
-8 -2 -2 22700.8 3804.66 4
8 2 2 22854 2873.85 2
-8 -2 -3 14257.7 2906.48 4
8 2 3 9798.16 1882.26 8
8 2 3 9197.35 1842.56 2
8 2 4 783.15 501.382 8
8 2 4 1023.33 492.964 2
-8 -2 -5 1717.36 986.429 4
8 2 5 3.95943 376.856 8
8 2 5 931.912 805.747 2
-8 -2 -6 15146.1 2687.45 4
8 2 6 14375.9 2809.33 2
-8 -2 -7 -393.556 578.171 4
8 2 7 -678.223 732.566 2
-8 -2 -8 1588.37 888.625 4
-8 -2 -9 12642.7 2234.13 4
-8 -3 12 1590.68 995.978 4
-8 -3 11 260.208 271.217 4
-8 -3 10 557.993 504.589 4
8 3 -9 28841.3 3868.93 8
-8 -3 9 33171.9 4321.82 4
-8 -3 8 1103.91 957.435 4
8 3 -8 647.679 650.743 8
-8 -3 7 10565.2 2640.59 4
8 3 -7 12490 2399.46 8
8 3 -6 23553.2 3354.6 8
-8 -3 6 33305.5 4939.43 4
-8 -3 5 3159.92 1697.21 4
8 3 -5 3151.05 1186.98 8
8 3 -4 85983.7 6720.3 8
-8 -3 4 81597.5 8676.34 4
-8 -3 3 3459.85 1669.19 4
8 3 -3 5494.28 1727.37 8
8 3 -2 19567.6 2929.69 8
8 3 -2 21080.8 2269.71 2
-8 -3 2 23042.1 4558.09 4
8 3 -1 12544.1 1875.64 2
-8 -3 1 15631.7 3694.8 4
8 3 -1 12245.2 2272.22 8
8 3 0 42463 4444.06 8
8 3 0 44668.9 3923.06 2
-8 -3 -1 2385.17 1730.84 4
8 3 1 1635.82 790.953 8
8 3 1 2146.92 966.424 2
8 3 2 87322.3 6600.26 8
8 3 2 87858.1 6397.14 2
8 3 3 28239.1 3418.15 8
8 3 3 28609.4 3489.88 2
-8 -3 -3 31557 4812.91 4
-8 -3 -4 21004.4 3680.1 4
8 3 4 14857.9 2427.72 8
8 3 4 21652.9 3133.02 2
-8 -3 -5 1913.91 989.768 4
8 3 5 1218.96 680.234 8
8 3 5 2161.19 1137.59 2
-8 -3 -6 760.828 737.532 4
8 3 6 896.52 768.475 2
-8 -3 -7 8338.12 2074.49 4
-8 -4 8 31581.6 4792.44 4
-8 -4 7 1485.86 1000.28 4
8 4 -7 509.646 372.807 8
8 4 -6 48091.5 5100.63 8
-8 -4 6 49770.9 6559.38 4
-8 -4 5 502.176 730.93 4
8 4 -5 3825.51 1410.95 8
-8 -4 4 4521.95 2038.33 4
8 4 -4 7790.14 1929.44 8
8 4 -3 33840.3 4199.43 8
-8 -4 3 33135.9 5975.89 4
-8 -4 2 -38.4815 1162.67 4
8 4 -2 671.822 407.873 8
8 4 -1 36417.1 4241.62 8
8 4 -1 35725.8 3371.42 2
-8 -4 1 28880.4 5567.73 4
-8 -4 0 10004.9 3225.96 4
8 4 0 9765.35 2104.64 8
8 4 0 6114.18 1424.95 2
-8 -4 -1 7875.91 2825.56 4
8 4 1 6180.97 1652.35 8
8 4 1 6693.82 1518.42 2
8 4 2 981.157 686.451 8
8 4 2 247.64 599.655 2
8 4 3 78539.9 6393.1 8
8 4 3 85949.1 6660.15 2
8 4 4 15980.3 2636.6 8
8 4 4 18896.6 3013.35 2
8 5 1 1709.27 779.772 2
8 5 2 328.253 435.443 2
9 -9 -5 1381.14 781.403 7
9 -9 -4 9883.87 1873.67 7
9 -9 -3 39651.5 3920.76 7
-9 9 2 25526.5 3428.44 6
9 -9 -2 24962.1 3261.44 3
-9 9 1 13478.9 2401.18 6
9 -9 -1 12188.3 2209.35 3
-9 9 0 10203.3 2040.57 6
9 -9 0 10038.4 2047.36 3
-9 9 -1 25576.1 3240.7 6
9 -9 1 25470.2 3172.2 3
-9 9 -2 9434.71 1907.04 6
9 -9 2 7849.4 1669.27 3
-9 9 -3 47725.9 4527.45 6
9 -9 3 56431.4 4784.34 3
-9 9 -4 77265.6 5879.31 6
9 -9 4 75036.1 5778.69 3
-9 9 -5 10407.2 1912.59 6
9 -9 5 13353.7 2245.66 3
9 -9 6 33135.4 3683.97 3
-9 9 -6 25144.8 2556.16 5
-9 9 -7 831.295 429.817 5
9 -9 7 172.384 392.223 3
-9 9 -8 2278.76 790.051 5
9 -9 8 1939.8 714.142 3
-9 9 -9 783.588 591.602 5
-9 9 -10 9686.4 1901.08 5
9 -8 -7 12284.2 2111.8 7
9 -8 -6 1662.12 713.284 7
-9 8 6 1567.31 1006 6
9 -8 -5 42487 3983.62 7
-9 8 5 42720.5 4889.61 6
9 -8 -5 44779.6 4443.24 3
9 -8 -4 2899.12 986.179 7
-9 8 4 4800.67 1438.44 6
9 -8 -4 5344.98 1453.04 3
9 -8 -3 19741.2 2560.84 7
-9 8 3 23126.9 3223.13 6
9 -8 -3 24171.7 3042.26 3
9 -8 -2 10215.9 1752.13 7
-9 8 2 8949.2 1895.11 6
9 -8 -2 12009.8 2093.37 3
-9 8 1 13036.1 2264.07 6
9 -8 -1 12646.6 2140.69 3
-9 8 0 30182.9 3486.69 6
9 -8 0 29939.1 3309.39 3
-9 8 -1 13471.4 2237.82 6
9 -8 1 13678.1 2118.82 3
-9 8 -2 1161.89 645.069 6
9 -8 2 1594.33 724.898 3
-9 8 -3 639.597 349.559 6
9 -8 3 889.929 533.678 3
-9 8 -4 51269.4 4460.79 6
9 -8 4 47639.4 4317.81 3
-9 8 -5 67019.4 5229.53 6
9 -8 5 66635.4 5286.67 3
9 -8 6 31552.1 3539.05 3
-9 8 -6 31020.5 2916.26 5
9 -8 7 65322.4 5210.28 3
-9 8 -7 53471.1 4275.8 5
9 -8 8 310.741 427.018 3
-9 8 -8 751.395 539.757 5
9 -8 9 1160.25 833.643 3
-9 8 -9 1230.35 634.256 5
9 -8 10 4162.28 1342.04 3
-9 8 -10 2863.9 1060.34 5
9 -8 11 24593.1 3487.98 3
9 -8 11 32521.8 4536.12 1
9 -7 -9 2875.4 1114.02 7
9 -7 -8 56006.3 4696.8 7
-9 7 8 49838.9 5867.64 6
9 -7 -7 22775 2751.29 7
-9 7 7 17347.5 3151.64 6
9 -7 -6 2060.14 819.166 7
-9 7 6 1439.2 924.145 6
9 -7 -5 -552.058 455.273 7
-9 7 5 622.645 494.833 6
9 -7 -4 87162.6 5732.75 7
-9 7 4 87395.4 6746.9 6
9 -7 -4 90930.3 6299.68 3
9 -7 -3 13789.8 1960.29 7
-9 7 3 16835.9 2603 6
9 -7 -3 17108.6 2405.62 3
9 -7 -2 59362.7 4393.23 7
-9 7 2 61012.8 5161.56 6
9 -7 -2 64295.2 5009.83 3
-9 7 1 5381.75 1359.64 6
9 -7 -1 5174.53 1288.3 3
-9 7 0 13426.1 2176.48 6
9 -7 0 14065.3 2069.73 3
-9 7 -1 14283.4 2238.39 6
9 -7 1 12963.6 1990.01 3
-9 7 -2 3344.57 1039.04 6
9 -7 2 4185.84 1098.73 3
-9 7 -3 5562.23 1353.83 6
9 -7 3 6550.6 1399.37 3
-9 7 -4 -283.163 434.529 6
9 -7 4 303.077 351.376 3
-9 7 -5 35454.9 3607.37 6
9 -7 5 37961.6 3577.7 3
9 -7 6 38922.5 3648.49 3
-9 7 -6 30941.7 2988.01 5
9 -7 7 47683.3 4211.65 3
-9 7 -7 42543.4 3738.39 5
9 -7 8 84610.1 6088.39 3
-9 7 -8 79017.4 5690.1 5
9 -7 9 3912.57 1281.92 3
-9 7 -9 4115.17 1229.51 5
9 -7 9 2503.04 1111.41 1
9 -7 10 17388 2720.01 3
9 -7 10 23756.5 3664.19 1
-9 7 -10 15125.3 2484.75 5
9 -7 11 6729.46 1767.12 3
9 -7 11 5853.56 1776.08 1
9 -6 -10 691.705 490.567 7
-9 6 10 -743.684 689.748 6
9 -6 -9 48525.7 4326.85 7
-9 6 9 46814.5 5614.02 6
9 -6 -8 -29.3544 237.857 7
-9 6 8 1632.6 898.486 6
9 -6 -7 102378 6490.35 7
-9 6 7 106191 7994.26 6
9 -6 -6 8967.08 1700.08 8
9 -6 -6 8628.71 1530.96 7
-9 6 6 8563.31 1904.74 6
9 -6 -5 8762.95 1586.97 8
9 -6 -5 7725.71 1430.24 7
-9 6 5 9075.95 1942.14 6
9 -6 -4 13747 1866.03 7
-9 6 4 14852.6 2418.56 6
9 -6 -3 54274 3951.38 7
-9 6 3 55913.9 4802.19 6
9 -6 -2 5436.49 1096.28 7
-9 6 2 5848.59 1418.24 6
9 -6 -2 4915.92 1246.59 3
9 -6 -1 102221 5956.72 7
-9 6 1 106017 6985.83 6
9 -6 -1 124279 6992.56 3
-9 6 0 22228.8 2757.66 6
9 -6 0 21798.8 2536.91 3
-9 6 -1 23861.3 2853.84 6
9 -6 1 25346.3 2720.55 3
-9 6 -2 2932.55 917.308 6
9 -6 2 2135.94 761.24 3
-9 6 -3 2469.06 926.435 6
9 -6 3 2870.75 866.989 3
-9 6 -4 24552.7 2864.17 6
9 -6 4 25107.7 2699.99 3
9 -6 5 428.995 281.673 3
-9 6 -6 1262.23 584.485 5
9 -6 6 1318.1 624.062 3
9 -6 7 9252.03 2065.55 1
-9 6 -7 8405.55 1557.12 5
9 -6 7 8972.64 1654.25 3
9 -6 8 42568 4656.66 1
9 -6 8 44322.6 4061.63 3
-9 6 -8 36601 3711.81 5
9 -6 9 59511.8 5716.08 1
9 -6 9 48788.4 4482.01 3
-9 6 -9 51840.4 4653.12 5
9 -6 10 17285 3119.21 1
9 -6 10 14789.6 2413.96 3
-9 6 -10 13410.8 2358.03 5
9 -6 11 51559.5 5702.26 1
9 -6 12 3496.9 1446.77 1
-9 5 12 2065.25 1460.37 6
9 -5 -11 15004.1 2720.55 8
9 -5 -11 10445.8 1983.68 7
-9 5 11 9636.78 2511.19 6
9 -5 -10 -96.6053 583.19 8
9 -5 -10 144.755 425.565 7
-9 5 10 -48.5057 708.816 6
9 -5 -9 7358.02 1817.5 8
9 -5 -9 7651.04 1571.17 7
-9 5 9 8512.98 2143.28 6
9 -5 -8 14124.9 2423.05 8
9 -5 -8 13152.9 2025.47 7
-9 5 8 13649.5 2526.42 6
9 -5 -7 853.922 562.401 8
9 -5 -7 484.53 358.581 7
-9 5 7 -378.79 615.827 6
9 -5 -6 84958.3 5499.01 7
-9 5 6 84311.8 6436.62 6
9 -5 -6 99613.3 6627.24 8
9 -5 -5 1683.71 844.024 8
9 -5 -5 523.09 355.41 7
-9 5 5 2095.28 837.041 6
9 -5 -4 42529.6 3392.66 7
-9 5 4 48986.8 4340.68 6
9 -5 -4 48928.7 4054.79 8
9 -5 -3 21130.9 2137.38 7
-9 5 3 22400.6 2792.11 6
9 -5 -3 22169.7 2450.2 8
9 -5 -2 13838.3 1639.8 7
-9 5 2 14908.5 2194.39 6
9 -5 -2 13489.1 1738.83 8
9 -5 -1 403.513 242.03 8
9 -5 -1 51.4601 164.264 7
-9 5 1 -491.54 521.415 6
9 -5 -1 -3.00552 366.75 3
9 -5 0 131965 6730.71 7
-9 5 0 144482 8201.86 6
9 -5 0 154301 7821.86 3
9 -5 0 139513 6520.51 8
-9 5 -1 25268.8 2898.54 6
9 -5 1 32048.1 2908.88 3
-9 5 -2 51413 4362.72 6
9 -5 2 57986.8 4115.02 3
9 -5 3 5286.83 1150.48 3
9 -5 4 416.435 198.864 1
9 -5 4 2108.08 723.462 3
9 -5 5 12147.2 2074.69 1
9 -5 5 11865.5 1729.99 3
9 -5 6 930.604 517.621 1
-9 5 -6 1539.55 653.326 5
9 -5 6 743.468 479.647 3
9 -5 7 5457.66 1456.18 1
-9 5 -7 6677.01 1487.78 5
9 -5 7 7659.97 1457.11 3
9 -5 8 2055.5 907.727 1
9 -5 8 3032.56 992.431 3
-9 5 -8 2516.7 920.289 5
9 -5 9 9142.76 2454.24 2
9 -5 9 6532.23 1736.26 1
-9 5 -9 6800.89 1576 5
9 -5 10 28856.1 3857.47 1
9 -5 11 24189.6 3613.45 1
9 -5 12 51352.4 5690.64 1
-9 4 13 -422.498 374.445 6
-9 4 12 26406.4 4059.92 6
9 -4 -11 1543.41 705.821 7
-9 4 11 572.336 587.022 6
9 -4 -10 10532.3 2292.18 8
9 -4 -10 11280.5 1973.78 7
-9 4 10 10774.6 2261.35 6
9 -4 -9 1458.28 910.73 8
9 -4 -9 2388.12 796.694 7
-9 4 9 2083.3 958.423 6
9 -4 -8 26818.5 2917.6 7
-9 4 8 27515.8 3350.95 6
9 -4 -8 30213 3631.32 8
9 -4 -7 3530.15 1112.52 8
9 -4 -7 3675.49 1042.08 7
-9 4 7 2656.54 924.1 6
9 -4 -6 9275.14 1885.05 8
9 -4 -6 8021.28 1402.73 7
-9 4 6 8397.46 1681.06 6
9 -4 -5 45988.6 3488.07 7
-9 4 5 42572.8 3953.4 6
9 -4 -5 47418.8 4298.19 8
9 -4 -4 654.759 434.294 8
9 -4 -4 775.291 378.931 7
-9 4 4 1179.28 670.717 6
-9 4 3 97771.2 5552.39 8
9 -4 -3 98800 5419.91 7
-9 4 3 96762 6354.77 6
9 -4 -3 111814 6736.39 8
9 -4 -2 11146.7 1385.95 7
-9 4 2 14111.9 2058.43 6
9 -4 -2 13372.8 1941.29 8
9 -4 -1 490.559 321.461 8
9 -4 -1 -215.025 256.816 7
9 -4 -1 287.221 233.501 3
9 -4 0 7273.67 1260.94 8
9 -4 0 6374.26 949.942 7
-9 4 0 7717.48 1520.68 6
9 -4 0 7268.66 1277.01 3
9 -4 1 110545 5498.48 1
9 -4 1 105866 5280.68 7
-9 4 -1 102753 6599.04 6
9 -4 1 121445 6344.14 3
9 -4 1 113039 5941.32 8
9 -4 2 10483.9 1467.94 1
9 -4 2 11979.1 1610.83 3
9 -4 2 10253.6 1277.48 8
9 -4 3 130863 7218.68 1
9 -4 3 133393 6980.88 3
9 -4 4 29605.4 2923.32 1
9 -4 4 30457.7 2706.82 3
9 -4 5 6988.31 1425.09 1
9 -4 5 5497.95 1738.14 2
9 -4 5 6517.47 1235.46 3
9 -4 6 1082.72 681.685 1
9 -4 6 1080.56 570.693 2
-9 4 -6 2509.15 801.405 5
9 -4 6 1888.78 690.252 3
9 -4 7 4376.27 1210 1
9 -4 7 4132.64 1481.35 2
9 -4 7 3762.22 991.933 3
-9 4 -7 4386.99 1140.63 5
9 -4 8 19706.7 3435.56 2
-9 4 -8 18848.5 2500.1 5
9 -4 8 13210.9 2361.78 1
9 -4 9 4855.24 1661.3 2
-9 4 -9 5832.11 1471.28 5
9 -4 9 2845.8 1244.01 1
9 -4 10 530.095 362.354 1
9 -4 11 16801.5 2987.99 1
9 -3 -12 14817.7 2656.56 8
-9 3 12 10766.7 2201.65 6
-9 3 11 69376.2 5925.76 6
9 -3 -11 93323.7 7119.08 8
9 -3 -10 5493.03 1643.52 8
-9 3 10 3450.81 1102.66 6
9 -3 -9 -318.163 485.107 8
-9 3 9 -65.0019 143.415 6
9 -3 -8 3975.07 1291.96 8
9 -3 -8 6232.92 1388.48 7
-9 3 8 4783.08 1240.32 6
9 -3 -7 59928.4 4504.36 7
-9 3 7 55138 4526.91 6
9 -3 -7 58700.5 5229.72 8
9 -3 -6 1141.56 672.887 8
9 -3 -6 627.481 324.058 7
-9 3 6 1455.03 535.204 6
9 -3 -5 37005.4 3130.57 7
-9 3 5 38080.7 3537.48 6
9 -3 -5 42985.2 4082.13 8
9 -3 -4 15335 1786.03 7
-9 3 4 13898.2 2043.76 6
9 -3 -4 14698 1754.47 2
9 -3 -4 18697.5 2526.58 8
9 -3 -3 2684.48 950.184 8
9 -3 -3 1622.89 646.432 2
9 -3 -3 3588.17 785.899 7
-9 3 3 2909.13 922.885 6
9 -3 -2 57478.6 3549.76 7
-9 3 2 54178.1 4318.31 6
9 -3 -2 65983.4 4778.43 2
9 -3 -2 67304 4879.96 8
9 -3 -1 636.77 431.267 8
9 -3 -1 -84.3703 391.384 2
9 -3 -1 438.817 268.121 7
9 -3 0 17922.5 1499.49 7
9 -3 0 18501.2 2625.91 2
9 -3 0 18090.2 1993.39 3
9 -3 0 17381.9 2149.09 8
9 -3 1 4704.05 1052.03 8
9 -3 1 5159.55 1392.75 2
9 -3 1 4330.23 647.729 7
9 -3 1 5423.61 1012.69 3
9 -3 2 53667 3766.18 8
9 -3 2 54987.7 3658.73 3
9 -3 2 42737.7 4614.87 2
9 -3 3 1842 585.835 8
9 -3 3 2328.17 1007.12 2
9 -3 3 2294.56 628.861 3
9 -3 4 173064 8074.29 3
9 -3 4 152218 10420.7 2
9 -3 5 50319.1 3536.98 3
9 -3 5 53788.5 5585.71 2
9 -3 5 48438.1 3841.95 1
9 -3 6 28122 4056.8 2
9 -3 6 30954.1 3166.05 1
9 -3 7 21669.1 3556.49 2
-9 3 -7 16670.7 2312.67 5
9 -3 7 16272.6 2391.77 1
9 -3 8 5078.32 1795.07 2
-9 3 -8 4748.98 1265.2 5
9 -3 9 6302.77 1966.58 2
-9 3 -9 6507.71 1558.97 5
9 -2 -11 32419.2 4110.11 8
-9 2 10 95954.1 6401.99 6
9 -2 -10 110747 8045.96 8
9 -2 -9 -351.907 711.246 8
-9 2 9 233.134 268.408 6
-9 2 8 19057.3 2401.85 6
9 -2 -8 24456.3 3251.18 8
-9 2 7 13809.7 1975.85 6
9 -2 -7 15955.6 2552.89 8
-9 2 6 46493.4 3878.02 6
9 -2 -6 57217.2 4951.84 8
-9 2 5 5632.62 1841.82 4
9 -2 -5 4981.45 1373.31 8
-9 2 5 4720.39 1125.27 6
-9 2 4 83572.6 5591.5 6
9 -2 -4 93368.1 4794.61 2
-9 2 4 92679.3 8035.53 4
9 -2 -4 96338.9 6572.25 8
9 -2 -3 2830.82 745.959 2
9 -2 -3 3318.76 1086.39 8
-9 2 3 2326.69 786.548 6
9 -2 -2 25783.9 2924.93 8
9 -2 -2 27514 2644.24 2
-9 2 2 28245.8 4189.9 4
9 -2 -1 13800 1994.89 8
-9 2 1 13521.8 2831.32 4
9 -2 -1 15352.4 2080.03 2
-9 2 0 245.904 418.598 4
9 -2 0 993.194 683.333 2
9 -2 0 626.562 484.238 8
9 -2 0 1168.72 379.805 3
9 -2 1 30776.1 2916.67 8
9 -2 1 29351.9 3377.24 2
9 -2 1 30940 2490.07 3
-9 2 -1 28896.2 4036.32 4
-9 2 -2 95.1835 466.733 4
9 -2 2 465.216 720.721 2
9 -2 2 314.314 283.787 8
9 -2 2 723.606 400.128 3
-9 2 -3 7877.93 1915.01 4
9 -2 3 7922.34 1933 2
9 -2 3 7270.08 1309.5 8
9 -2 3 6618.29 1042.83 3
9 -2 4 141.917 454.531 2
9 -2 4 229.043 407.556 8
9 -2 5 106598 8184.14 2
9 -2 6 28452.2 4042.79 2
9 -2 7 70122.5 6765.56 2
9 -2 8 28500.9 4232.91 2
-9 2 -8 26562.8 3154.07 5
9 -2 9 1068.33 899.226 2
9 -1 -11 10895.5 2359.58 8
9 -1 -10 30256.2 3964.71 8
-9 1 9 85164.1 5644.7 6
-9 1 9 111947 8268.69 4
9 -1 -9 99628.2 7553.69 8
-9 1 8 7567.09 1970.93 4
9 -1 -8 8930.15 2012.39 8
-9 1 8 8165.58 1455.73 6
-9 1 7 64714.9 4690.6 6
-9 1 7 86226.1 7277.96 4
9 -1 -7 75624.6 6133.49 8
-9 1 6 11997 2626.1 4
9 -1 -6 8787.2 1854.64 8
-9 1 6 7414.51 1360.51 6
-9 1 5 8747.87 2311.55 4
9 -1 -5 4055.7 1198.02 8
9 -1 -4 15736 2402.81 8
-9 1 4 14125 2998.1 4
9 -1 -3 141689 8417.76 8
9 -1 -3 138171 6720.16 2
-9 1 3 139463 10502.3 4
-9 1 2 542.192 692.789 4
9 -1 -2 1654 666.849 8
9 -1 -2 246.14 191.874 2
9 -1 -1 61174.9 4805.25 8
9 -1 -1 63010.8 4399.81 2
-9 1 1 56724.6 6269.03 4
9 -1 0 281.005 297.297 2
9 -1 0 178.886 458.018 8
9 -1 0 546.402 293.707 3
9 -1 1 1088.3 646.186 2
-9 1 -1 664.982 274.08 4
9 -1 1 1006.87 579.967 8
9 -1 1 885.729 409.095 3
9 -1 2 13062.1 1938.93 8
-9 1 -2 14985.6 2815.59 4
9 -1 2 14452.9 2378.22 2
9 -1 3 1919.92 973.831 2
-9 1 -3 2686.96 1192.25 4
9 -1 4 1536.99 868.358 2
-9 1 -4 1768.4 946.103 4
9 -1 4 995.255 433.33 8
9 -1 5 -100.94 490.139 2
-9 1 -5 1205.2 735.504 4
9 -1 5 206.524 309.763 8
9 -1 6 39560.6 4805.89 2
-9 1 -6 47508.6 4662.67 4
9 -1 7 4348.34 1550.64 2
-9 1 -7 5212.27 1406.25 4
9 -1 8 90419.6 8030.9 2
-9 0 12 891.084 634.307 4
-9 0 11 14289.3 2685.72 4
9 0 -11 12234.2 2626.34 8
-9 0 10 9493.65 2225.14 4
9 0 -10 10681.7 2363.22 8
-9 0 9 4145.18 1402.51 4
9 0 -9 3650.81 1354.2 8
-9 0 8 61393 6150.37 4
9 0 -8 54167.6 5463.78 8
9 0 -7 24595.2 3407.14 8
-9 0 7 24874.9 3905.3 4
9 0 -6 93764.1 7206.31 8
-9 0 6 113714 8961.65 4
-9 0 5 122.228 336.484 4
9 0 -5 624.597 318.776 8
-9 0 4 5765.86 1939.77 4
9 0 -4 5499.84 1476.41 8
9 0 -3 24425.3 3166.96 8
-9 0 3 31237.5 4671.13 4
9 0 -2 87675.8 6382.55 8
9 0 -2 87782.2 5053.52 2
-9 0 2 81970 8059.84 4
-9 0 1 2903.82 1505.66 4
9 0 -1 3987.18 1214.82 8
9 0 -1 1112.99 497.545 2
9 0 0 115952 7362.7 8
9 0 0 119009 6844.03 2
-9 0 0 104580 9095.52 4
-9 0 -1 893.514 501.67 4
9 0 1 190.764 537.577 8
9 0 1 207.245 411.64 2
9 0 2 16774.5 2393.27 8
-9 0 -2 16487 3055.07 4
9 0 2 12907 2173.75 2
-9 0 -3 6360.73 1796.34 4
9 0 3 3987.95 1135.48 8
9 0 3 4937.41 1375.49 2
-9 0 -4 8538.77 2050.48 4
9 0 4 7131.99 1503.55 8
9 0 4 3732.2 1200.67 2
-9 0 -5 8685.02 2066.11 4
9 0 5 7835.76 1574.61 8
9 0 5 6902.19 1856.67 2
-9 0 -6 5548.7 1542.3 4
9 0 6 2297.03 1020.32 2
-9 0 -7 2885.67 1053.79 4
9 0 7 2192.18 964.88 2
-9 0 -8 -581.283 623.276 4
-9 0 -9 53987.3 4998.35 4
-9 -1 12 -714.122 875.649 4
-9 -1 11 7974.55 1918.42 4
-9 -1 10 24618.1 3708.05 4
9 1 -10 24557.5 3709.59 8
-9 -1 9 15944.2 2976 4
9 1 -9 14530.9 2796.85 8
-9 -1 8 6278.66 1994.33 4
9 1 -8 5122.67 1572.18 8
9 1 -7 27878.7 3742.45 8
-9 -1 7 29053.3 4322.22 4
-9 -1 6 19246.7 3506.13 4
9 1 -6 15424.6 2706.62 8
9 1 -5 56764.4 5436.78 8
-9 -1 5 67705.3 7123.93 4
-9 -1 4 2745.71 1357.46 4
9 1 -4 2322.62 1039.02 8
9 1 -3 28623 3509.64 8
-9 -1 3 23139.7 4275.01 4
-9 -1 2 13487.6 3264.38 4
9 1 -2 12004 2221.84 8
9 1 -2 12300 1624.28 2
9 1 -1 23460.6 3085.88 8
-9 -1 1 16841.6 3630.01 4
9 1 -1 19111.3 2204.64 2
-9 -1 0 9942.37 2699.3 4
9 1 0 10599.6 2038.64 8
9 1 0 13024.1 1918.65 2
9 1 1 139589 8711.25 8
9 1 1 139164 8168.13 2
-9 -1 -1 153580 11342.8 4
-9 -1 -2 3722.52 1971.52 4
9 1 2 930.327 697.155 8
9 1 2 2264.05 1207.86 2
9 1 3 44136.2 4271.13 8
9 1 3 45486.6 4501.11 2
-9 -1 -3 46442.5 5454.16 4
-9 -1 -4 1894.08 1160.03 4
9 1 4 527.926 566.899 8
9 1 4 1093.16 685.956 2
-9 -1 -5 2756.85 1226.23 4
9 1 5 1316.45 718.217 8
9 1 5 1664.66 937.154 2
-9 -1 -6 1175.37 628.957 4
9 1 6 2622.93 900.718 8
9 1 6 3033.52 1505.72 2
-9 -1 -7 14601.7 2616.11 4
-9 -1 -8 407.146 506.211 4
-9 -2 10 9067.4 2211.45 4
-9 -2 9 15873.7 3163.85 4
-9 -2 8 21362 3646.19 4
9 2 -8 17606.5 3064.75 8
9 2 -7 27204.9 3795.94 8
-9 -2 7 29378.1 4517.35 4
9 2 -6 21322.4 3243.99 8
-9 -2 6 19687.1 3795.64 4
-9 -2 5 718.655 633.549 4
9 2 -5 -176.771 302.672 8
9 2 -4 32160.3 4023.11 8
-9 -2 4 28485.8 4894.82 4
-9 -2 3 10695.9 3070.47 4
9 2 -3 8915.26 2083.64 8
9 2 -2 40644.1 4424.49 8
-9 -2 2 36254.1 5840.52 4
-9 -2 1 4308.78 2034.44 4
9 2 -1 -5.18796 424.946 8
9 2 0 -86.8335 320.089 8
9 2 0 -743.281 649.47 2
9 2 1 25256.1 3356.68 8
-9 -2 -1 28264.2 4851.29 4
9 2 1 24327.7 2934.04 2
9 2 2 77909.3 6257.67 8
9 2 2 76309.5 5932.17 2
-9 -2 -2 84538.4 8337.53 4
-9 -2 -3 2672.37 1627.23 4
9 2 3 2091.01 1083.54 8
9 2 3 3751.58 1380.93 2
9 2 4 70700.2 5900.9 8
9 2 4 84047.3 6709.13 2
-9 -2 -4 80106.7 7538.71 4
9 2 5 3145.96 1175.19 8
9 2 5 4771.15 1572.46 2
9 2 6 3668.36 1163.23 8
9 3 -5 19583.1 3221.41 8
9 3 -4 23712.7 3561.56 8
9 3 -3 13927.8 2641.78 8
9 3 -2 5567.99 1630.54 8
9 3 -1 23446.9 3361.6 8
9 3 0 5798.01 1628.39 8
9 3 1 2153.65 963.061 8
9 3 1 978.417 667.453 2
9 3 2 4271.55 1454.18 8
9 3 2 4804.87 1396.1 2
9 3 3 29401.3 3722.49 8
9 3 3 31276.6 3830.02 2
9 3 4 5753.33 1620.72 8
9 3 4 4550.16 1653.75 2
10 -9 -3 31241.9 3467.13 7
10 -9 -2 2048.86 882.428 7
10 -8 -6 12278.9 2079.7 7
10 -8 -5 12690.2 2076.9 7
10 -8 -4 22354.6 2756.28 7
10 -8 -3 4226.16 1081.34 7
10 -8 -2 81863.3 5853.51 7
10 -8 -2 97349.6 6832.43 3
10 -8 -1 705.82 572.216 7
-10 8 1 775.359 589.769 6
10 -8 -1 767.875 556.008 3
-10 8 0 23028.1 3236.68 6
10 -8 0 25427.8 3152.38 3
-10 8 -1 1332.8 666.382 6
10 -8 1 2691.81 1032.23 3
-10 8 -2 3035.4 1025.04 6
10 -8 2 3856.09 1195.21 3
10 -8 3 11645.3 2051.35 3
10 -8 4 2038.87 938.8 3
10 -8 5 309.374 452.059 3
10 -8 6 147.611 435.018 3
10 -8 7 46133.9 4518.79 3
-10 8 -8 10182.9 1822.38 5
10 -8 8 8830.2 1915.13 3
10 -7 -8 6998.05 1548.83 7
10 -7 -7 47610.9 4277.91 7
10 -7 -6 7126.59 1473.59 7
10 -7 -5 30866.8 3234.2 7
-10 7 5 36401.4 4360.43 6
10 -7 -4 5558.74 1204.06 7
-10 7 4 6695.94 1745.95 6
10 -7 -4 7953.96 1711.42 3
10 -7 -3 2125.39 806.656 7
-10 7 3 1894.1 948.072 6
10 -7 -3 2485.63 851.455 3
10 -7 -2 31395.9 3046.62 7
-10 7 2 29824 3689.18 6
10 -7 -2 33652.2 3612.54 3
10 -7 -1 88713.8 5776.98 7
-10 7 1 100025 7137.88 6
10 -7 -1 105234 6852.58 3
-10 7 0 3473.78 1255.97 6
10 -7 0 2194.75 904.736 3
-10 7 -1 77908.5 6089.43 6
10 -7 1 83556.6 5902.7 3
-10 7 -2 1569.13 833.739 6
10 -7 2 138.654 297.078 3
-10 7 -3 858.363 553.163 6
10 -7 3 64.6727 201.893 3
10 -7 4 3084.86 1007.7 3
10 -7 5 9258.39 1774.13 3
10 -7 6 3484.92 1136.65 3
-10 7 -7 2242.88 858.739 5
10 -7 7 1180.06 590.327 3
10 -7 8 18870.1 2739.76 3
-10 7 -8 17826.5 2530.43 5
10 -6 -9 9094.44 2005.26 8
10 -6 -9 8608.73 1769.56 7
10 -6 -8 10583.7 2130.98 8
10 -6 -8 10400 1862.39 7
-10 6 8 7143.89 1944.95 6
10 -6 -7 289.766 411.868 7
-10 6 7 418.23 611.286 6
10 -6 -6 21589.8 2557.33 7
-10 6 6 21246.3 3271.49 6
10 -6 -5 12426.2 1825.71 7
-10 6 5 12333.6 2368.38 6
10 -6 -4 42106.2 3543.79 7
-10 6 4 44672.4 4564.5 6
10 -6 -3 -482.334 456.247 7
-10 6 3 -315.758 514.709 6
10 -6 -3 217.315 366.196 3
10 -6 -2 8518.66 1414.35 7
-10 6 2 8835.15 1828.51 6
10 -6 -2 11030.8 1910.89 3
10 -6 -1 24104.9 2394 7
-10 6 1 27207.7 3306.62 6
10 -6 -1 25599.1 2954.73 3
10 -6 0 52383.9 3790.07 7
-10 6 0 61317.5 5117.98 6
10 -6 0 62098.6 4746.36 3
-10 6 -1 8916.95 1764.33 6
10 -6 1 8657.64 1667.12 3
-10 6 -2 123523 7994.4 6
10 -6 2 135168 7715 3
10 -6 3 2358.67 806.852 3
10 -6 4 18355.9 2421.51 3
10 -6 5 984.299 569.697 3
10 -6 6 9393.74 1769.21 3
-10 6 -7 1182.17 721.831 5
10 -6 7 1088.31 594.676 3
10 -5 -10 2077.36 1108.8 8
10 -5 -10 2133.43 909.212 7
-10 5 10 1987.84 1090.89 6
10 -5 -9 14060.4 2527.58 8
10 -5 -9 11748 2054.9 7
-10 5 9 12373.8 2535.32 6
10 -5 -8 15611.5 2284.92 7
-10 5 8 18644.8 3024.79 6
10 -5 -8 19857.9 2982.7 8
10 -5 -7 19153.7 2447.35 7
-10 5 7 20111.6 3030.22 6
10 -5 -7 24010.7 3189.3 8
10 -5 -6 13186.1 2263.71 8
10 -5 -6 10946 1749.57 7
-10 5 6 10269.7 2080.98 6
10 -5 -5 13391 1875.86 7
-10 5 5 12206.9 2222 6
10 -5 -5 13726.4 2218.3 8
10 -5 -4 989.707 513.537 8
10 -5 -4 1630.18 656.194 7
-10 5 4 725.712 623.347 6
10 -5 -3 38843 3097.5 7
-10 5 3 34544.9 3786.17 6
10 -5 -2 6046.97 1111.28 7
-10 5 2 6287.47 1515.71 6
10 -5 -2 8469.14 1601.83 3
10 -5 -1 18599.8 1925.32 7
-10 5 1 19948.7 2708.01 6
10 -5 -1 21413 2548.82 3
-10 5 0 5997.51 1468.83 6
10 -5 0 6604.96 1365.16 3
-10 5 -1 25257.4 3050.61 6
10 -5 1 26842.3 2834.87 3
10 -5 2 23870.6 2631.64 3
10 -5 3 147600 8063.48 3
10 -5 4 937.9 525.626 3
10 -5 5 89767.5 5809.17 3
10 -5 6 9113.8 2395.13 2
10 -5 7 759.305 679.775 2
-10 4 11 25827 3712 6
-10 4 10 18195.4 2947.53 6
10 -4 -10 23101.4 3399.67 8
10 -4 -9 17821.8 2592.16 7
-10 4 9 20118.5 2993.61 6
10 -4 -9 21505.8 3204.07 8
10 -4 -8 15499.9 2640.97 8
10 -4 -8 14483.8 2212 7
-10 4 8 12092 2285.47 6
10 -4 -7 10819.5 2131.68 8
10 -4 -7 7642.16 1495.09 7
-10 4 7 8892.38 1873.32 6
10 -4 -6 35478.7 3290.32 7
-10 4 6 33089.9 3689.37 6
10 -4 -6 42586.3 4353.32 8
10 -4 -5 34247 3095.44 7
-10 4 5 35587.7 3704.2 6
10 -4 -5 37041.9 3977.13 8
-10 4 4 14541.8 2279.21 6
10 -4 -4 14807.4 2360.17 8
10 -4 -3 3232.82 965.393 8
-10 4 3 3333.38 1046.11 6
10 -4 -2 14483.9 2193.9 2
-10 4 2 11963.1 2045.21 6
10 -4 -2 14882.5 2029.89 3
10 -4 -2 14388.8 2235.42 8
10 -4 -1 13558.9 2210.51 2
-10 4 1 11139.4 1948.51 6
10 -4 -1 12697.1 1825.29 3
10 -4 0 14827.8 2468.35 2
10 -4 0 14208.2 1950.51 3
10 -4 1 1353.23 844.21 2
10 -4 1 2008.68 714.606 3
10 -4 2 78.3199 632.035 2
10 -4 2 1760.99 659.786 3
10 -4 3 11040.9 2431.06 2
10 -4 3 15255.3 1939.57 3
10 -4 4 90404.8 5473.5 3
10 -4 4 80384.6 7245.74 2
10 -4 5 7856.48 2170.35 2
10 -4 6 102141 8493.08 2
10 -4 7 8922.46 2339.07 2
10 -3 -10 20045.5 3245.97 8
-10 3 9 33889.3 3754.59 6
10 -3 -9 45514.1 4876.29 8
-10 3 8 28958.6 3319.65 6
10 -3 -8 30949.7 3909.52 8
10 -3 -7 1597.14 963.734 8
-10 3 7 2359.14 879.38 6
10 -3 -6 -641.506 705.181 8
-10 3 6 440.748 469.119 6
-10 3 5 44820.5 4084.35 6
10 -3 -5 48452.2 4674.99 8
-10 3 4 49820.7 4382.67 6
10 -3 -4 62356.3 5193.72 8
-10 3 3 27573.4 3065.69 6
10 -3 -3 32936.8 3579.25 8
10 -3 -2 43461.7 3714.03 2
10 -3 -2 40015.7 3953.92 8
10 -3 -1 3784.11 1133.13 8
10 -3 -1 6510.84 1368.15 2
10 -3 -1 6679.71 1273.96 3
10 -3 0 1620.36 935.341 2
10 -3 0 739.946 357.349 3
10 -3 1 2481.04 916.626 2
10 -3 1 2740.55 759.302 3
10 -3 2 12921.8 2504.19 2
10 -3 2 17021.7 1931.4 3
10 -3 3 1581.14 912.008 2
10 -3 4 1428.26 921.353 2
10 -3 5 21580.7 3507.36 2
10 -3 6 9871.98 2466.43 2
10 -3 7 75653.2 7312.61 2
10 -2 -10 10332.6 2338.09 8
10 -2 -9 12108.6 2499.39 8
-10 2 8 44424.4 4067.5 6
10 -2 -8 53672.3 5327.1 8
-10 2 7 34774.6 3494.86 6
10 -2 -7 39138.7 4433.66 8
10 -2 -6 10385.3 2102.47 8
-10 2 6 7046.32 1464.08 6
-10 2 5 15761.9 2234.07 6
10 -2 -5 17864.7 2800.37 8
-10 2 4 32504.2 4978.02 4
10 -2 -4 34859.8 3866.02 8
-10 2 3 31462.6 4965.8 4
10 -2 -3 30709.6 3526.57 8
10 -2 -2 70898.8 5529.67 8
-10 2 2 72874.2 7594.9 4
10 -2 -1 80544 5825.52 8
10 -2 -1 77650 5442.95 2
10 -2 -1 83809.2 5023.69 3
-10 2 1 85091.4 8191.28 4
10 -2 0 20480.4 2561.09 8
10 -2 0 16488.3 2399.31 2
10 -2 0 18721.8 2008.85 3
-10 2 0 24708.8 4100.78 4
10 -2 1 7564.94 1732.76 2
-10 2 -1 9877.88 2570.09 4
10 -2 2 165.066 467.439 2
-10 2 -2 -347.196 478.517 4
10 -2 3 6422.7 1745.97 2
10 -2 4 1134.47 643.673 2
10 -2 5 5669.88 1747.33 2
10 -2 6 2809.72 1309.51 2
10 -2 7 -74.4575 752.11 2
-10 1 9 403.41 646.371 4
10 -1 -9 758.578 612.156 8
-10 1 8 14249.9 3085.3 4
10 -1 -8 14619.3 2827.68 8
-10 1 7 40967.6 5333.51 4
10 -1 -7 37394.3 4451.09 8
-10 1 6 19244.1 3700.22 4
10 -1 -6 18358.6 2968.09 8
-10 1 5 30027.5 4824.8 4
10 -1 -5 34277.8 4033.06 8
10 -1 -4 28393.1 3584.41 8
-10 1 4 27670.5 4587.43 4
-10 1 3 6970.97 2376.91 4
10 -1 -3 5355.65 1461.03 8
-10 1 2 3454.85 1718.61 4
10 -1 -2 2334.73 957.664 8
10 -1 -1 86408.5 6265.09 8
-10 1 1 81636.4 8275.61 4
10 -1 0 75728.8 5692.27 8
10 -1 0 70053 5195.12 2
-10 1 0 71207.7 7547 4
10 -1 1 35695.9 3645.51 8
10 -1 1 37283.1 3748.51 2
-10 1 -1 27627.2 4482.74 4
10 -1 2 45036.2 4465.22 2
-10 1 -2 48728.3 5739.52 4
10 -1 3 1042.93 588.904 2
-10 1 -3 2918.53 1292.9 4
10 -1 4 231.149 837.996 2
-10 1 -4 1126.8 790.006 4
10 -1 5 1979.97 1074.12 2
-10 1 -5 1406.85 1090.22 4
-10 1 -6 22130.3 3327.48 4
10 -1 6 18448.9 3365.99 2
10 0 -8 930.326 1103.08 8
-10 0 7 25408.3 4290.79 4
10 0 -7 23603.6 3506.21 8
-10 0 6 3161.57 1568.94 4
10 0 -6 2684.23 1197.93 8
-10 0 5 10875 2766.97 4
10 0 -5 8815.92 2041.64 8
10 0 -4 31169.9 3877.58 8
-10 0 4 30238.4 4993.28 4
-10 0 3 15572.6 3605.19 4
10 0 -3 15135 2562.33 8
-10 0 2 1812.28 1287.92 4
10 0 -2 1025.25 696.44 8
-10 0 1 -986.666 941.312 4
10 0 -1 1616.58 777.863 8
10 0 0 46564.2 4516.42 8
-10 0 0 43228.2 6069.22 4
10 0 1 38593.2 4038.57 8
10 0 1 36728 3750.09 2
-10 0 -1 41522.9 5703.97 4
10 0 2 40929.6 4207.94 8
10 0 2 46999.2 4494.71 2
-10 0 -2 48100.5 5993.44 4
10 0 3 80211.6 6473.12 2
-10 0 -3 81749 7745.07 4
10 0 4 1798.2 865.744 2
10 0 5 6295.42 1750.59 2
10 1 -7 4448.88 1642.44 8
10 1 -6 43436.7 5025.34 8
10 1 -5 1399.76 660.051 8
10 1 -4 8672.27 2045.76 8
10 1 -3 9340.57 2140.82 8
10 1 -2 2172.85 923.155 8
10 1 -1 11101.9 2225.28 8
10 1 0 2784.18 1133.3 8
10 1 1 6926.63 1714.6 8
10 1 2 11596.4 2195.11 8
10 1 2 8433.62 1825.05 2
10 1 3 39837.9 4327.53 2
10 1 4 66967.3 6120.14 2
10 2 -4 7526 2065.49 8
10 2 -3 23838.8 3729.67 8
10 2 -2 1332.33 931.964 8
10 2 -1 1340.71 434.932 8
10 2 0 17635.5 3007.95 8
10 2 1 5.81007 325.761 8
10 2 2 1470.43 951.39 8
11 -8 3 21026.7 2930.91 3
11 -8 4 1153.38 676.683 3
11 -7 -2 7281.17 1663.22 3
11 -7 -1 3822.37 1176.62 3
11 -7 0 -17.63 406.082 3
11 -7 1 42413.9 4172.08 3
11 -7 2 60557.1 5127.99 3
11 -7 3 29232.9 3337.54 3
11 -7 4 61741.3 5137.65 3
11 -7 5 787.83 667.684 3
-11 6 4 1390.13 846.451 6
11 -6 -4 -654.177 565.615 3
-11 6 3 2907.35 1126.39 6
11 -6 -3 2904.67 949.84 3
-11 6 2 11279.7 2255.88 6
11 -6 -2 12961.1 2186.79 3
-11 6 1 377.503 413.709 6
11 -6 -1 131.223 323.33 3
-11 6 0 2454.74 1010.82 6
11 -6 0 2471.18 948.421 3
11 -6 1 -197.451 212.224 3
11 -6 2 22104.5 2757.25 3
11 -6 3 28568.5 3172.72 3
-11 5 7 8168.43 1991.43 6
-11 5 6 46729.4 4823.14 6
-11 5 5 1691.55 954.439 6
-11 5 4 60375.9 5438.31 6
-11 5 3 5308.5 1482.26 6
11 -5 -3 5533.32 1334.38 3
-11 5 2 15825.1 2592.77 6
11 -5 -2 14439.6 2215.77 3
-11 5 1 506.527 443.231 6
11 -5 -1 1782.07 721.486 3
11 -5 0 -41.8825 319.48 2
11 -5 0 -76.4732 326.147 3
11 -5 1 9560.27 2083.9 2
11 -5 1 8843.1 1623.5 3
11 -5 2 877.352 981.306 2
11 -5 2 -179.326 499.316 3
11 -5 3 2600.68 1163.25 2
11 -5 4 5446.73 1775.53 2
11 -5 5 43542.2 5281.25 2
-11 4 8 -47.3085 478.468 6
-11 4 7 22198.7 3096.75 6
-11 4 6 9341.69 1933.55 6
-11 4 5 11018.2 2102.55 6
-11 4 4 461.403 455.949 6
-11 4 3 92872.6 6707.08 6
-11 4 2 10592.8 2063.2 6
11 -4 -2 10720.5 1817.53 3
11 -4 -1 35467.6 3395.03 3
11 -4 0 2739 888.755 3
11 -4 1 408.203 384.978 2
11 -4 2 5430.57 1606.74 2
11 -4 3 1610.58 650.132 2
11 -4 4 2784.72 1188.38 2
11 -4 5 3174.3 1361.23 2
11 -3 -8 23757.5 3630.4 8
11 -3 -7 567.709 647.592 8
-11 3 7 494.401 449.314 6
-11 3 6 48986.1 4552.85 6
-11 3 5 5859.12 1458 6
11 -3 -2 89857.7 5799.24 3
11 -3 2 4137.77 1416.93 2
11 -3 3 -60.8723 655.807 2
11 -3 4 6213.9 1802.89 2
11 -3 5 7899.24 2202.95 2
11 -2 -8 20717.3 3340.48 8
11 -2 -7 10214 2251.48 8
11 -2 -6 518.44 802.04 8
11 -2 -5 38598.5 4479.17 8
11 -2 3 16606.2 2844.18 2
11 -2 4 7257.36 1891.58 2
11 -2 5 2069.51 1070.3 2
11 -1 -7 46584.1 5303.95 8
11 -1 -6 2478.48 1009.92 8
11 -1 -5 11384.8 2393.54 8
11 -1 -4 4977.85 1531.67 8
11 -1 -3 1041.53 584.774 8
11 0 -5 1928.6 825.142 8
11 0 -4 25181.3 3678.52 8
11 0 -3 1055.64 747.583 8
