#------------------------------------------------------------------------------
#$Date: 2021-02-05 01:04:31 +0200 (Fri, 05 Feb 2021) $
#$Revision: 261628 $
#$URL: file:///home/coder/svn-repositories/cod/cif/7/24/18/7241828.cif $
#------------------------------------------------------------------------------
#
# This file is available in the Crystallography Open Database (COD),
# http://www.crystallography.net/
#
# All data on this site have been placed in the public domain by the
# contributors.
#
data_7241828
loop_
_publ_author_name
'Gu\'nka, Piotr A.'
'Hanfland, Michael'
'Chen, Yu-Sheng'
'Zachara, Janusz'
_publ_section_title
;
 High-pressure and low-temperature structural study of claudetite I, a
 monoclinic layered As2O3 polymorph
;
_journal_issue                   3
_journal_name_full               CrystEngComm
_journal_page_first              638
_journal_page_last               644
_journal_paper_doi               10.1039/D0CE01401J
_journal_volume                  23
_journal_year                    2021
_chemical_formula_moiety         'As2 O3'
_chemical_formula_sum            'As2 O3'
_chemical_formula_weight         197.84
_chemical_name_common            'claudetite I'
_chemical_name_systematic
;
arsenic(III) oxide
;
_space_group_IT_number           14
_space_group_name_Hall           '-P 2yn'
_space_group_name_H-M_alt        'P 1 21/n 1'
_symmetry_cell_setting           monoclinic
_symmetry_space_group_name_H-M   'P 1 21/n 1'
_audit_creation_date             2020-10-21T11:06
_audit_creation_method           'created in GSAS-II'
_audit_update_record
;
2020-10-22 deposited with the CCDC.	2020-12-10 downloaded from the CCDC.
;
_cell_angle_alpha                90
_cell_angle_beta                 94.604(6)
_cell_angle_gamma                90
_cell_formula_units_Z            4
_cell_length_a                   5.0748(6)
_cell_length_b                   12.42717(21)
_cell_length_c                   4.4031(4)
_cell_measurement_pressure       3.74e6(6)
_cell_measurement_temperature    293
_cell_volume                     276.79(4)
_computing_data_reduction        Fit2D
_computing_structure_refinement
'GSAS-II (Toby & Von Dreele, J. Appl. Cryst. 46, 544-549, 2013)'
_diffrn_ambient_pressure         3.74e6(6)
_diffrn_ambient_temperature      293
_diffrn_detector                 'Mar555 flat panel'
_diffrn_detector_type            'Mar555 flat panel'
_diffrn_measurement_device_type  'ESRF ID09A beamline'
_diffrn_radiation_monochromator  Si
_diffrn_radiation_polarisn_ratio 0.9900
_diffrn_radiation_probe          x-ray
_diffrn_radiation_wavelength     0.41421
_diffrn_source                   'ESRF ID09A'
_diffrn_source_type              synchrotron
_exptl_crystal_colour            colourless
_exptl_crystal_density_diffrn    4.7477
_exptl_crystal_description       'white powder'
_pd_block_id                     2020-10-21T11:06|clau1_008rietveld||id09a
_pd_calc_method                  'Rietveld Refinement'
_pd_meas_number_of_points        4000
_pd_phase_name                   claudetiteI
_pd_prep_pressure                100.0(1)
_pd_prep_temperature             293
_pd_proc_info_datetime           2020-10-21T11:06
_pd_proc_ls_background_function
;
Background function: "chebyschev" function with 15 terms:
    714.7(23), 327(11), 10(4)e1, 2.6(8)e2, 3.24(22)e3, -3.06(17)e3, 
    -3.146(30)e4, 1.332(3)e4, 1.0207(14)e5, -2.602(15)e4, -1.5507(27)e5, 
    2.289(12)e4, 1.1276(30)e5, -7.44(17)e3, -3.17(3)e4, 
;
_pd_proc_ls_pref_orient_corr
;
Simple spherical harmonic correction Order = 6
    Coefficients:  0:0:C(6,6) = 0.463(23); 0:0:C(4,4) = 0.931(31); 
    0:0:C(6,-2) = 0.142(31); 0:0:C(2,-2) = 0.344(17); 0:0:C(4,-4) = 0.252(22); 
    0:0:C(2,2) = 0.838(18); 0:0:C(4,0) = 0.413(28); 0:0:C(6,-6) = -0.388(31); 
    0:0:C(6,4) = 0.208(29); 0:0:C(4,2) = -0.135(22); 0:0:C(6,2) = 0.204(26); 
    0:0:C(6,-4) = 0.040(26); 0:0:C(6,0) = 0.43(3); 0:0:C(2,0) = 0.693(20); 
    0:0:C(4,-2) = -0.146(20); 
;
_pd_proc_ls_profile_function
;
Finger-Cox-Jephcoat function parameters U, V, W, X, Y, SH/L:
  peak variance(Gauss) = Utan(Th)^2^+Vtan(Th)+W:
  peak HW(Lorentz) = X/cos(Th)+Ytan(Th); SH/L = S/L+H/L
  U, V, W in (centideg)^2^, X & Y in centideg
    8.6(7)e2, -132(11), 6.4(5), 1.14(12), 4(3), 0.002, 
  Crystallite size in microns with "isotropic" model:
  parameters: Size, G/L mix
    1.000, 1.000, 
  Microstrain, "isotropic" model (10^6^ * delta Q/Q)
    parameters: Mustrain, G/L mix
    1000.000, 1.000, 

;
_pd_proc_ls_prof_R_factor        0.02554
_pd_proc_ls_prof_wR_expected     0.03485
_pd_proc_ls_prof_wR_factor       0.04150
_refine_ls_goodness_of_fit_all   1.217
_refine_ls_matrix_type           full
_refine_ls_number_parameters     57
_refine_ls_R_Fsqd_factor         0.14350
_refine_ls_shift/su_max          0.0046
_refine_ls_wR_factor_obs         0.04184
_reflns_d_resolution_high        1.150
_reflns_d_resolution_low         6.214
_reflns_limit_h_max              4
_reflns_limit_h_min              0
_reflns_limit_k_max              10
_reflns_limit_k_min              0
_reflns_limit_l_max              3
_reflns_limit_l_min              -3
_reflns_number_total             191
_cod_data_source_file            d0ce01401j3.cif
_cod_data_source_block           clau1_008rietveld
_cod_depositor_comments
'Adding full bibliography for 7241824--7241862.cif.'
_cod_original_cell_volume        276.787(17)
_cod_database_code               7241828
_refine_ls_r_f_factor            0.09127
_gsas_proc_ls_prof_r_b_factor    0.05052
_gsas_proc_ls_prof_wr_b_factor   0.07331
loop_
_space_group_symop_id
_space_group_symop_operation_xyz
1 x,y,z
2 1/2-x,1/2+y,1/2-z
3 -x,-y,-z
4 1/2+x,1/2-y,1/2+z
loop_
_atom_site_label
_atom_site_type_symbol
_atom_site_fract_x
_atom_site_fract_y
_atom_site_fract_z
_atom_site_occupancy
_atom_site_adp_type
_atom_site_U_iso_or_equiv
_atom_site_symmetry_multiplicity
As1 As 0.2555(16) 0.09360(24) 0.0406(8) 1.000 Uiso 0.0195(16) 4
As2 As 0.3461(11) 0.35571(29) 0.0093(8) 1.000 Uiso 0.0195 4
O3 O 0.412(4) 0.2200(7) 0.079(4) 1.000 Uiso 0.0195 4
O4 O 0.641(4) 0.4192(18) 0.1410(27) 1.000 Uiso 0.0195 4
O5 O -0.032(4) 0.1527(20) 0.148(4) 1.000 Uiso 0.0195 4
loop_
_atom_type_symbol
_atom_type_number_in_cell
_atom_type_scat_Cromer_Mann_a1
_atom_type_scat_Cromer_Mann_a2
_atom_type_scat_Cromer_Mann_a3
_atom_type_scat_Cromer_Mann_a4
_atom_type_scat_Cromer_Mann_b1
_atom_type_scat_Cromer_Mann_b2
_atom_type_scat_Cromer_Mann_b3
_atom_type_scat_Cromer_Mann_b4
_atom_type_scat_Cromer_Mann_c
_atom_type_scat_length_neutron
_atom_type_scat_source
_atom_type_scat_dispersion_real
_atom_type_scat_dispersion_imag
_atom_type_scat_dispersion_source
As 8 16.6723 6.0701 3.4313 4.2779 2.6345 0.2647 12.9479 47.7972 2.531 0.658
https://subversion.xray.aps.anl.gov/pyGSAS/trunk/atmdata.py 0.283 0.775
https://subversion.xray.aps.anl.gov/pyGSAS/trunk/atmdata.py
O 12 3.0485 2.2868 1.5463 0.867 13.2771 5.7011 0.3239 32.9089 0.2508 0.5805
https://subversion.xray.aps.anl.gov/pyGSAS/trunk/atmdata.py 0.002 0.002
https://subversion.xray.aps.anl.gov/pyGSAS/trunk/atmdata.py
loop_
_geom_angle_atom_site_label_1
_geom_angle_atom_site_label_2
_geom_angle_atom_site_label_3
_geom_angle
_geom_angle_site_symmetry_1
_geom_angle_site_symmetry_2
_geom_angle_site_symmetry_3
_geom_angle_publ_flag
O3 As1 O4 106.2(10) 1_555 1_555 4_454 yes
O3 As1 O5 88.8(11) 1_555 1_555 1_555 yes
O4 As1 O5 95.2(8) 4_454 1_555 1_555 yes
O3 As2 O4 103.3(10) 1_555 1_555 1_555 yes
O3 As2 O5 91.5(13) 1_555 1_555 4_554 yes
O4 As2 O5 88.5(7) 1_555 1_555 4_554 yes
As1 O3 As2 140.1(12) 1_555 1_555 1_555 yes
As1 O4 As2 118.7(8) 4_555 1_555 1_555 yes
As1 O5 As2 126.0(11) 1_555 1_555 4_455 yes
loop_
_geom_bond_atom_site_label_1
_geom_bond_atom_site_label_2
_geom_bond_distance
_geom_bond_site_symmetry_1
_geom_bond_site_symmetry_2
_geom_bond_publ_flag
As1 O3 1.762(10) 1_555 1_555 yes
As1 O4 1.815(9) 1_555 4_454 yes
As1 O5 1.734(11) 1_555 1_555 yes
As2 O3 1.743(10) 1_555 1_555 yes
As2 O4 1.749(11) 1_555 1_555 yes
As2 O5 1.755(10) 1_555 4_554 yes
loop_
_pd_meas_2theta_scan
_pd_meas_intensity_total
_pd_calc_intensity_total
_pd_proc_intensity_bkg_calc
_pd_proc_ls_weight
0.00440 98.76059 0 0 0
0.01320 97.491005 0 0 0
0.02201 99.826309 0 0 0
0.03081 102.26284 0 0 0
0.03961 102.86649 0 0 0
0.04841 103.11127 0 0 0
0.05721 103.6086 0 0 0
0.06602 104.90591 0 0 0
0.07482 106.58317 0 0 0
0.08362 107.38524 0 0 0
0.09242 105.72556 0 0 0
0.10122 104.7738 0 0 0
0.11003 105.42298 0 0 0
0.11883 106.61492 0 0 0
0.12763 106.14854 0 0 0
0.13643 106.43369 0 0 0
0.14523 105.14165 0 0 0
0.15404 103.34255 0 0 0
0.16284 101.83015 0 0 0
0.17164 101.33101 0 0 0
0.18044 102.42886 0 0 0
0.18925 103.71058 0 0 0
0.19805 106.25275 0 0 0
0.20685 107.57556 0 0 0
0.21565 106.39062 0 0 0
0.22445 105.38878 0 0 0
0.23326 105.24754 0 0 0
0.24206 106.81343 0 0 0
0.25086 106.08336 0 0 0
0.25966 107.98292 0 0 0
0.26846 110.44847 0 0 0
0.27727 110.77061 0 0 0
0.28607 108.07317 0 0 0
0.29487 106.91381 0 0 0
0.30367 107.27669 0 0 0
0.31248 107.63299 0 0 0
0.32128 108.01053 0 0 0
0.33008 107.33631 0 0 0
0.33888 106.731 0 0 0
0.34768 107.10593 0 0 0
0.35649 108.2179 0 0 0
0.36529 109.00163 0 0 0
0.37409 109.63616 0 0 0
0.38289 109.90151 0 0 0
0.39169 109.54728 0 0 0
0.40050 109.47192 0 0 0
0.40930 109.97954 0 0 0
0.41810 110.38419 0 0 0
0.42690 109.67699 0 0 0
0.43570 109.14468 0 0 0
0.44451 109.67091 0 0 0
0.45331 109.84022 0 0 0
0.46211 109.89851 0 0 0
0.47091 108.32319 0 0 0
0.47972 108.83408 0 0 0
0.48852 108.06983 0 0 0
0.49732 107.98099 0 0 0
0.50612 108.30836 0 0 0
0.51492 108.82126 0 0 0
0.52373 109.29356 0 0 0
0.53253 109.32123 0 0 0
0.54133 108.88995 0 0 0
0.55013 108.84437 0 0 0
0.55893 108.61163 0 0 0
0.56774 108.89575 0 0 0
0.57654 108.19724 0 0 0
0.58534 107.81487 0 0 0
0.59414 107.65988 0 0 0
0.60295 107.965 0 0 0
0.61175 109.0432 0 0 0
0.62055 108.85032 0 0 0
0.62935 108.75168 0 0 0
0.63815 107.74306 0 0 0
0.64696 107.80807 0 0 0
0.65576 108.29897 0 0 0
0.66456 108.65636 0 0 0
0.67336 108.19984 0 0 0
0.68216 108.52702 0 0 0
0.69097 109.02901 0 0 0
0.69977 109.40594 0 0 0
0.70857 109.9277 0 0 0
0.71737 110.4421 0 0 0
0.72617 110.15372 0 0 0
0.73498 110.68184 0 0 0
0.74378 111.45992 0 0 0
0.75258 111.68642 0 0 0
0.76138 110.83942 0 0 0
0.77019 110.6117 0 0 0
0.77899 110.28368 0 0 0
0.78779 111.23403 0 0 0
0.79659 111.72392 0 0 0
0.80539 111.36301 0 0 0
0.81420 110.32693 0 0 0
0.82300 110.51771 0 0 0
0.83180 111.10314 0 0 0
0.84060 111.33791 0 0 0
0.84940 112.33342 0 0 0
0.85821 114.06413 0 0 0
0.86701 115.82854 0 0 0
0.87581 116.42042 0 0 0
0.88461 117.14435 0 0 0
0.89342 118.48019 0 0 0
0.90222 119.55003 0 0 0
0.91102 119.95261 0 0 0
0.91982 120.65401 0 0 0
0.92862 121.73213 0 0 0
0.93743 122.47989 0 0 0
0.94623 123.33062 0 0 0
0.95503 124.194 0 0 0
0.96383 128.13074 0 0 0
0.97263 133.18138 0 0 0
0.98144 132.86079 0 0 0
0.99024 130.36472 0 0 0
0.99904 131.00726 0 0 0
1.00784 135.46729 0 0 0
1.01664 142.24783 0 0 0
1.02545 145.34514 0 0 0
1.03425 151.19429 0 0 0
1.04305 157.65028 0 0 0
1.05185 169.18776 0 0 0
1.06066 173.4944 0 0 0
1.06946 185.80029 0 0 0
1.07826 192.17401 0 0 0
1.08706 197.63837 0 0 0
1.09586 201.25992 0 0 0
1.10467 206.95595 0 0 0
1.11347 215.50258 0 0 0
1.12227 221.95793 0 0 0
1.13107 227.60138 0 0 0
1.13987 231.25673 0 0 0
1.14868 233.57449 0 0 0
1.15748 236.49123 0 0 0
1.16628 239.18607 0 0 0
1.17508 243.04272 0 0 0
1.18389 244.97415 0 0 0
1.19269 247.70538 0 0 0
1.20149 249.80717 0 0 0
1.21029 252.36139 0 0 0
1.21909 253.75842 0 0 0
1.22790 254.92802 0 0 0
1.23670 256.52209 0 0 0
1.24550 258.16003 0 0 0
1.25430 260.90613 0 0 0
1.26310 263.33713 0 0 0
1.27191 265.56671 0 0 0
1.28071 267.67642 0 0 0
1.28951 268.68146 0 0 0
1.29831 270.20959 0 0 0
1.30711 270.93851 0 0 0
1.31592 272.78461 0 0 0
1.32472 273.80264 0 0 0
1.33352 276.28949 0 0 0
1.34232 277.73019 0 0 0
1.35113 279.82663 0 0 0
1.35993 282.61234 0 0 0
1.36873 284.17493 0 0 0
1.37753 285.04501 0 0 0
1.38633 285.24146 0 0 0
1.39514 286.94547 0 0 0
1.40394 288.07761 0 0 0
1.41274 288.55231 0 0 0
1.42154 288.44891 0 0 0
1.43034 289.75494 0 0 0
1.43915 291.23264 0 0 0
1.44795 292.92209 0 0 0
1.45675 294.7894 0 0 0
1.46555 295.31714 0 0 0
1.47436 295.7496 0 0 0
1.48316 296.40161 0 0 0
1.49196 298.10876 0 0 0
1.50076 299.33853 0 0 0
1.50956 300.30789 0 0 0
1.51837 302.76239 0 0 0
1.52717 304.99799 0 0 0
1.53597 307.16232 0 0 0
1.54477 307.026 0 0 0
1.55357 306.96176 0 0 0
1.56238 306.59689 0 0 0
1.57118 307.91653 0 0 0
1.57998 309.81442 0 0 0
1.58878 311.05304 0 0 0
1.59758 311.73618 0 0 0
1.60639 311.98611 0 0 0
1.61519 312.03632 0 0 0
1.62399 313.00568 0 0 0
1.63279 313.284 0 0 0
1.64160 314.36096 0 0 0
1.65040 315.9111 0 0 0
1.65920 317.05917 0 0 0
1.66800 317.76556 0 0 0
1.67680 318.68094 0 0 0
1.68561 318.76825 0 0 0
1.69441 318.57559 0 0 0
1.70321 319.22559 0 0 0
1.71201 320.57373 0 0 0
1.72081 320.97684 0 0 0
1.72962 321.03839 0 0 0
1.73842 321.62296 0 0 0
1.74722 323.24451 0 0 0
1.75602 325.55862 0 0 0
1.76483 326.72693 0 0 0
1.77363 327.09296 0 0 0
1.78243 327.11847 0 0 0
1.79123 327.48141 0 0 0
1.80003 328.47958 0 0 0
1.80884 330.30389 0 0 0
1.81764 330.85666 0 0 0
1.82644 329.80994 0 0 0
1.83524 330.08749 0 0 0
1.84404 331.16617 0 0 0
1.85285 331.7153 0 0 0
1.86165 332.41272 0 0 0
1.87045 333.89508 0 0 0
1.87925 335.49036 0 0 0
1.88805 336.40292 0 0 0
1.89686 336.93503 0 0 0
1.90566 339.16925 0 0 0
1.91446 340.2222 0 0 0
1.92326 339.86151 0 0 0
1.93207 339.39539 0 0 0
1.94087 340.02191 0 0 0
1.94967 340.34976 0 0 0
1.95847 340.80933 0 0 0
1.96727 341.73273 0 0 0
1.97608 342.0853 0 0 0
1.98488 342.19113 0 0 0
1.99368 342.39941 0 0 0
2.00248 344.01041 0 0 0
2.01128 344.70047 0 0 0
2.02009 344.38907 0 0 0
2.02889 344.37286 0 0 0
2.03769 345.36533 0 0 0
2.04649 346.97678 0 0 0
2.05530 347.60809 0 0 0
2.06410 348.62317 0 0 0
2.07290 349.4213 0 0 0
2.08170 349.96738 0 0 0
2.09050 350.12329 0 0 0
2.09931 350.15155 0 0 0
2.10811 350.44955 0 0 0
2.11691 351.09894 0 0 0
2.12571 352.16278 0 0 0
2.13451 352.59543 0 0 0
2.14332 352.41443 0 0 0
2.15212 352.67236 0 0 0
2.16092 353.95169 0 0 0
2.16972 354.34418 0 0 0
2.17852 354.3428 0 0 0
2.18733 354.87589 0 0 0
2.19613 355.89639 0 0 0
2.20493 358.0842 0 0 0
2.21373 358.90005 0 0 0
2.22254 359.3038 0 0 0
2.23134 359.13422 0 0 0
2.24014 359.70081 0 0 0
2.24894 360.46198 0 0 0
2.25774 360.77127 0 0 0
2.26655 360.32474 0 0 0
2.27535 360.62903 0 0 0
2.28415 360.87234 0 0 0
2.29295 361.22739 0 0 0
2.30175 361.25479 0 0 0
2.31056 362.28159 0 0 0
2.31936 363.48425 0 0 0
2.32816 363.57581 0 0 0
2.33696 363.61603 0 0 0
2.34576 364.94513 0 0 0
2.35457 366.28958 0 0 0
2.36337 367.44955 0 0 0
2.37217 366.66528 0 0 0
2.38097 365.78012 0 0 0
2.38978 365.89655 0 0 0
2.39858 367.017 0 0 0
2.40738 367.67709 0 0 0
2.41618 367.78226 0 0 0
2.42498 368.19437 0 0 0
2.43379 369.0502 0 0 0
2.44259 370.12698 0 0 0
2.45139 370.03052 0 0 0
2.46019 369.85385 0 0 0
2.46899 369.83105 0 0 0
2.47780 370.13846 0 0 0
2.48660 370.35193 0 0 0
2.49540 371.02731 0 0 0
2.50420 371.66895 0 0 0
2.51301 372.81418 0 0 0
2.52181 374.14636 0 0 0
2.53061 375.19543 0 0 0
2.53941 375.40857 0 0 0
2.54821 375.49362 0 0 0
2.55702 375.63721 0 0 0
2.56582 376.17502 0 0 0
2.57462 376.78418 0 0 0
2.58342 377.32831 0 0 0
2.59222 377.17648 0 0 0
2.60103 377.17957 0 0 0
2.60983 377.67828 0 0 0
2.61863 378.927 380.177675 380.140092 0.00263903
2.62743 379.5715 380.577912 380.540046 0.00263455
2.63624 379.74872 380.964683 380.92653 0.00263332
2.64504 379.47183 381.338717 381.300273 0.00263524
2.65384 379.03369 381.700755 381.662017 0.00263829
2.66264 378.49081 382.051476 382.01244 0.00264207
2.67144 378.31015 382.391547 382.352211 0.00264333
2.68025 379.76028 382.721604 382.681963 0.00263324
2.68905 381.58536 383.042291 383.002341 0.00262065
2.69785 382.06821 383.354197 383.313936 0.00261733
2.70665 381.51041 383.6579 383.617323 0.00262116
2.71545 381.65747 383.953965 383.913067 0.00262015
2.72426 382.19562 384.242916 384.201694 0.00261646
2.73306 382.92172 384.525291 384.483741 0.0026115
2.74186 383.61261 384.801579 384.759697 0.0026068
2.75066 383.50644 385.072261 385.030043 0.00260752
2.75946 383.22885 385.337789 385.29523 0.00260941
2.76827 383.39136 385.598624 385.555719 0.0026083
2.77707 384.2182 385.855182 385.811928 0.00260269
2.78587 385.14206 386.107871 386.064263 0.00259644
2.79467 386.02927 386.357081 386.313114 0.00259048
2.80348 386.58691 386.603194 386.558864 0.00258674
2.81228 387.23248 386.84657 386.801871 0.00258243
2.82108 387.52695 387.08755 387.042478 0.00258047
2.82988 387.00912 387.326456 387.281006 0.00258392
2.83868 387.9971 387.563618 387.517785 0.00257734
2.84749 388.11545 387.799329 387.753107 0.00257655
2.85629 387.75726 388.033875 387.987259 0.00257893
2.86509 387.97937 388.267526 388.220511 0.00257746
2.87389 389.32785 388.500543 388.453123 0.00256853
2.88269 389.78006 388.733177 388.685347 0.00256555
2.89150 389.60291 388.965664 388.917418 0.00256672
2.90030 390.13071 389.198223 389.149554 0.00256324
2.90910 391.42102 389.431057 389.38196 0.00255479
2.91790 391.24442 389.664381 389.61485 0.00255595
2.92670 391.091 389.898376 389.848403 0.00255695
2.93551 391.73184 390.133218 390.082799 0.00255277
2.94431 392.72107 390.369068 390.318195 0.00254634
2.95311 392.81366 390.606098 390.554765 0.00254574
2.96191 393.53824 390.844444 390.792644 0.00254105
2.97072 394.41388 391.08425 391.031975 0.00253541
2.97952 394.05774 391.325641 391.272884 0.0025377
2.98832 394.2388 391.568728 391.515482 0.00253653
2.99712 393.42496 391.813639 391.759896 0.00254178
3.00592 393.64124 392.060466 392.006219 0.00254038
3.01473 394.37457 392.309305 392.254545 0.00253566
3.02353 395.45486 392.560233 392.504953 0.00252873
3.03233 394.83112 392.813346 392.757537 0.00253273
3.04113 395.33087 393.068707 393.01236 0.00252953
3.04993 396.23218 393.326376 393.269482 0.00252377
3.05874 397.27353 393.58641 393.528962 0.00251716
3.06754 396.45779 393.848868 393.790854 0.00252234
3.07634 396.46255 394.113792 394.055203 0.00252231
3.08514 396.76743 394.381217 394.322044 0.00252037
3.09395 397.14359 394.651167 394.5914 0.00251798
3.10275 397.55597 394.923686 394.863314 0.00251537
3.11155 397.47903 395.198786 395.137799 0.00251586
3.12035 397.15659 395.476482 395.414868 0.0025179
3.12915 396.90778 395.756782 395.694529 0.00251948
3.13796 398.22766 396.03969 395.976788 0.00251113
3.14676 399.25055 396.325214 396.26165 0.00250469
3.15556 399.35715 396.613351 396.549112 0.00250402
3.16436 398.72705 396.904088 396.839162 0.00250798
3.17316 398.1835 397.197404 397.131776 0.0025114
3.18197 398.17371 397.493301 397.426959 0.00251147
3.19077 398.80856 397.791751 397.72468 0.00250747
3.19957 399.19556 398.092729 398.024914 0.00250504
3.20837 399.47461 398.396198 398.327623 0.00250329
3.21717 399.81012 398.710916 398.632797 0.00250119
3.22598 400.64346 399.019361 398.940388 0.00249598
3.23478 400.97971 399.33021 399.250366 0.00249389
3.24358 401.12152 399.643421 399.562687 0.00249301
3.25238 401.55176 399.95894 399.877297 0.00249034
3.26119 401.52792 400.276745 400.194172 0.00249049
3.26999 402.03619 400.596777 400.513254 0.00248734
3.27879 403.37131 400.918988 400.834493 0.00247911
3.28759 404.30493 401.243315 401.157825 0.00247338
3.29639 404.65259 401.569727 401.483217 0.00247126
3.30520 404.58511 401.898153 401.810599 0.00247167
3.31400 404.40475 402.228545 402.13992 0.00247277
3.32280 404.20316 402.560831 402.471109 0.002474
3.33160 404.79123 402.894965 402.804116 0.00247041
3.34040 405.34137 403.230884 403.138877 0.00246706
3.34921 405.70715 403.568522 403.475326 0.00246483
3.35801 405.84918 403.907815 403.813396 0.00246397
3.36681 405.85605 404.248688 404.15301 0.00246393
3.37561 405.92795 404.591098 404.494123 0.00246349
3.38442 406.1087 404.934963 404.836651 0.00246239
3.39322 406.63779 405.280224 405.180533 0.00245919
3.40202 406.79868 405.626803 405.525687 0.00245822
3.41082 407.20074 405.974643 405.872054 0.00245579
3.41962 407.22623 406.323677 406.219562 0.00245564
3.42843 406.8175 406.673833 406.568136 0.0024581
3.43723 406.22992 407.02503 406.917693 0.00246166
3.44603 406.64304 407.377225 407.268183 0.00245916
3.45483 407.8147 407.730339 407.619522 0.00245209
3.46363 409.03745 408.084303 407.971637 0.00244476
3.47244 409.37418 408.43904 408.324443 0.00244275
3.48124 409.52298 408.794507 408.677891 0.00244187
3.49004 409.76529 409.150625 409.031893 0.00244042
3.49884 409.88409 409.507337 409.386383 0.00243971
3.50764 409.91333 409.864578 409.741286 0.00243954
3.51645 409.73013 410.222274 410.096516 0.00244063
3.52525 410.17383 410.580393 410.452026 0.00243799
3.53405 410.96866 410.938864 410.807732 0.00243328
3.54285 411.15002 411.297637 411.163563 0.0024322
3.55166 410.85815 411.656647 411.519435 0.00243393
3.56046 410.76413 412.015876 411.875304 0.00243449
3.56926 411.67236 412.383224 412.231083 0.00242912
3.57806 412.3313 412.742803 412.586711 0.00242523
3.58686 412.62265 413.102475 412.942108 0.00242352
3.59567 412.57224 413.462234 413.297217 0.00242382
3.60447 412.95786 413.822071 413.651973 0.00242155
3.61327 412.91348 414.181985 414.006305 0.00242181
3.62207 413.09406 414.541997 414.360148 0.00242076
3.63087 414.06628 414.902135 414.713425 0.00241507
3.63968 414.98508 415.262492 415.066097 0.00240973
3.64848 414.87964 415.623151 415.418085 0.00241034
3.65728 414.58331 415.984268 415.769335 0.00241206
3.66608 415.06821 416.346034 416.119776 0.00240924
3.67489 415.07874 416.708747 416.469359 0.00240918
3.68369 414.60913 417.072803 416.818025 0.00241191
3.69249 415.59976 417.438743 417.165714 0.00240616
3.70129 416.6593 417.807321 417.512358 0.00240004
3.71009 417.29672 418.179646 417.857924 0.00239638
3.71890 416.9632 418.557293 418.202347 0.00239829
3.72770 416.06451 418.942791 418.54557 0.00240347
3.73650 416.18588 419.341066 418.887542 0.00240277
3.74530 416.98694 419.764394 419.228223 0.00239816
3.75410 417.42276 420.246836 419.567554 0.00239565
3.76291 417.62531 420.87613 419.905493 0.00239449
3.77171 418.42126 421.837296 420.24199 0.00238994
3.78051 419.29871 423.420253 420.576988 0.00238493
3.78931 422.01788 425.902169 420.910467 0.00236957
3.79811 427.12042 429.269218 421.242371 0.00234126
3.80692 438.9035 432.905688 421.572659 0.00227841
3.81572 450.00507 435.48053 421.901281 0.0022222
3.82452 449.77231 435.599392 422.228219 0.00222335
3.83332 436.72101 433.413269 422.553421 0.00228979
3.84213 428.11575 430.406564 422.876858 0.00233582
3.85093 423.9119 427.811756 423.198485 0.00235898
3.85973 422.96561 426.136262 423.518279 0.00236426
3.86853 422.33142 425.327328 423.836208 0.00236781
3.87733 421.85089 425.09109 424.152237 0.00237051
3.88614 421.59827 425.150189 424.466338 0.00237193
3.89494 422.27194 425.336805 424.778471 0.00236814
3.90374 422.97974 425.574225 425.088631 0.00236418
3.91254 422.55008 425.833217 425.39678 0.00236658
3.92134 422.23431 426.103186 425.702899 0.00236835
3.93015 422.55222 426.379678 426.006956 0.00236657
3.93895 423.08911 426.660296 426.308941 0.00236357
3.94775 422.6637 426.943478 426.608833 0.00236595
3.95655 422.71625 427.228123 426.90661 0.00236565
3.96535 423.1358 427.513425 427.202246 0.00236331
3.97416 423.49765 427.798811 427.495745 0.00236129
3.98296 424.14395 428.083828 427.787081 0.00235769
3.99176 424.70197 428.36813 428.07624 0.00235459
4.00056 425.01114 428.651461 428.363215 0.00235288
4.00937 424.52341 428.933603 428.647987 0.00235558
4.01817 425.01291 429.214411 428.930566 0.00235287
4.02697 425.18896 429.493727 429.210914 0.0023519
4.03577 425.49405 429.77146 429.489042 0.00235021
4.04457 425.57709 430.047546 429.764963 0.00234975
4.05338 426.40817 430.321879 430.038635 0.00234517
4.06218 427.33386 430.594421 430.310076 0.00234009
4.07098 427.616 430.865144 430.579297 0.00233855
4.07978 427.41681 431.133985 430.846272 0.00233964
4.08858 427.51254 431.400941 431.111026 0.00233911
4.09739 427.60095 431.665961 431.373533 0.00233863
4.10619 428.43054 431.92905 431.633816 0.0023341
4.11499 429.58972 432.190204 431.891888 0.0023278
4.12379 430.27667 432.449389 432.147728 0.00232409
4.13260 429.78336 432.706621 432.401361 0.00232675
4.14140 429.34692 432.961907 432.652802 0.00232912
4.15020 428.90573 433.215225 432.902037 0.00233151
4.15900 429.50131 433.46661 433.149103 0.00232828
4.16780 430.82648 433.716044 433.393986 0.00232112
4.17661 431.1998 433.963547 433.636708 0.00231911
4.18541 430.40497 434.209149 433.877298 0.00232339
4.19421 429.40234 434.45284 434.115747 0.00232882
4.20301 429.74045 434.70398 434.352092 0.00232699
4.21181 430.86926 434.943991 434.586325 0.00232089
4.22062 431.78 435.182161 434.818478 0.00231599
4.22942 431.64944 435.418529 435.048585 0.00231669
4.23822 431.30411 435.653087 435.276634 0.00231855
4.24702 431.36456 435.885879 435.502662 0.00231822
4.25582 431.90671 436.116946 435.726704 0.00231531
4.26463 432.18729 436.346294 435.948757 0.00231381
4.27343 432.79916 436.573976 436.168867 0.00231054
4.28223 433.89664 436.800002 436.387035 0.0023047
4.29103 434.06992 437.024422 436.603301 0.00230378
4.29984 433.68628 437.247281 436.817699 0.00230581
4.30864 433.61646 437.468595 437.030233 0.00230619
4.31744 434.23611 437.688428 437.240955 0.00230289
4.32624 434.57742 437.906801 437.449873 0.00230109
4.33504 434.61725 438.123764 437.657022 0.00230088
4.34385 434.56415 438.339378 437.862447 0.00230116
4.35265 434.22153 438.553667 438.066157 0.00230297
4.36145 434.65442 438.76669 438.268192 0.00230068
4.37025 436.0116 438.97851 438.468596 0.00229352
4.37905 436.7482 439.189158 438.66738 0.00228965
4.38786 437.39456 439.398715 438.864603 0.00228627
4.39666 437.66428 439.60721 439.060271 0.00228486
4.40546 438.28513 439.814716 439.254433 0.00228162
4.41426 438.31 440.021309 439.447136 0.00228149
4.42307 438.14145 440.22703 439.638396 0.00228237
4.43187 438.32889 440.431967 439.828266 0.00228139
4.44067 438.05954 440.636168 440.016765 0.00228279
4.44947 437.75827 440.83972 440.203943 0.00228437
4.45827 438.39102 441.042706 440.389844 0.00228107
4.46708 439.24234 441.246078 440.574489 0.00227665
4.47588 439.27798 441.448152 440.75793 0.00227646
4.48468 438.7757 441.64991 440.940211 0.00227907
4.49348 438.78934 441.851422 441.121356 0.002279
4.50228 440.1304 442.052806 441.301424 0.00227205
4.51109 441.00632 442.25414 441.480439 0.00226754
4.51989 440.84958 442.455538 441.658448 0.00226835
4.52869 440.48254 442.657125 441.835505 0.00227024
4.53749 439.84689 442.858996 442.011634 0.00227352
4.54630 440.11713 443.061294 442.186893 0.00227212
4.55510 440.95544 443.26413 442.361307 0.0022678
4.56390 441.57877 443.467653 442.53493 0.0022646
4.57270 442.47064 443.672027 442.707816 0.00226004
4.58150 443.20087 443.877382 442.879986 0.00225631
4.59031 443.68237 444.0839 443.051494 0.00225386
4.59911 443.30777 444.291774 443.222396 0.00225577
4.60791 443.85663 444.501177 443.392718 0.00225298
4.61671 443.97324 444.712338 443.56252 0.00225239
4.62551 444.51096 444.925461 443.731828 0.00224966
4.63432 445.44037 445.140805 443.900701 0.00224497
4.64312 445.9469 445.358642 444.069188 0.00224242
4.65192 445.81097 445.57924 444.237318 0.0022431
4.66072 446.1788 445.802932 444.405147 0.00224125
4.66952 446.57339 446.030069 444.572726 0.00223927
4.67833 446.83591 446.261008 444.740084 0.00223796
4.68713 446.98599 446.496194 444.907285 0.00223721
4.69593 447.67834 446.736073 445.074358 0.00223375
4.70473 448.58121 446.981162 445.241354 0.00222925
4.71354 448.98013 447.232052 445.40833 0.00222727
4.72234 449.18021 447.489364 445.575314 0.00222628
4.73114 449.57715 447.753842 445.74237 0.00222431
4.73994 449.20874 448.026264 445.909523 0.00222614
4.74874 448.83911 448.324169 446.07683 0.00222797
4.75755 448.15802 448.615532 446.244344 0.00223136
4.76635 448.03726 448.918002 446.412096 0.00223196
4.77515 448.22455 449.232941 446.580135 0.00223102
4.78395 449.28241 449.561945 446.748519 0.00222577
4.79275 450.3537 449.906789 446.917276 0.00222048
4.80156 451.09131 450.269618 447.086465 0.00221685
4.81036 451.36972 450.652853 447.256116 0.00221548
4.81916 451.22229 451.05941 447.426283 0.0022162
4.82796 451.84225 451.492734 447.597018 0.00221316
4.83676 452.37381 451.956837 447.768347 0.00221056
4.84557 453.23938 452.456647 447.940335 0.00220634
4.85437 453.56058 452.997968 448.113007 0.00220478
4.86317 453.37903 453.587952 448.286414 0.00220566
4.87197 453.32318 454.23537 448.460611 0.00220593
4.88078 454.65283 454.950908 448.635624 0.00219948
4.88958 455.6987 455.748032 448.811501 0.00219443
4.89838 456.44394 456.643711 448.988297 0.00219085
4.90718 457.9606 457.659346 449.166036 0.00218359
4.91598 459.97742 458.822808 449.344781 0.00217402
4.92479 461.77277 460.170132 449.524551 0.00216557
4.93359 462.80634 461.749343 449.705399 0.00216073
4.94239 464.84662 463.625111 449.887377 0.00215125
4.95119 467.89752 465.885609 450.070507 0.00213722
4.95999 470.68613 468.654797 450.254847 0.00212456
4.96880 473.90179 472.109557 450.440419 0.00211014
4.97760 479.59689 476.515447 450.627275 0.00208508
4.98640 488.54626 482.315877 450.815461 0.00204689
4.99520 504.02188 490.446813 451.004997 0.00198404
5.00401 536.78204 503.470024 451.195935 0.00186295
5.01281 602.05804 528.771242 451.388321 0.00166097
5.02161 733.28546 584.508959 451.582172 0.00136373
5.03041 950.86407 703.694579 451.777548 0.00105168
5.03921 1281.7024 922.818278 451.974468 0.00078021
5.04802 1609.4523 1244.684525 452.172973 0.00062133
5.05682 1798.5399 1590.087253 452.373115 0.00055601
5.06562 1791.0374 1776.266381 452.574906 0.00055834
5.07442 1531.5493 1652.432108 452.778408 0.00065293
5.08322 1167.5985 1323.736135 452.983627 0.00085646
5.09203 853.19086 986.709587 453.190612 0.00117207
5.10083 662.01758 743.699442 453.39941 0.00151053
5.10963 572.61761 605.802493 453.610032 0.00174637
5.11843 526.54596 539.907402 453.822518 0.00189917
5.12723 503.40817 510.427729 454.036917 0.00198646
5.13604 490.10248 496.038471 454.253238 0.00204039
5.14484 482.61768 487.573339 454.471533 0.00207203
5.15364 478.00647 481.792768 454.69181 0.00209202
5.16244 475.09668 477.549428 454.914115 0.00210483
5.17125 473.17548 474.334209 455.138486 0.00211338
5.18005 471.62976 471.854699 455.364929 0.00212031
5.18885 470.63199 469.918098 455.593487 0.0021248
5.19765 469.94382 468.390971 455.824204 0.00212791
5.20645 468.86816 467.178658 456.057075 0.0021328
5.21526 468.00552 466.212055 456.292158 0.00213673
5.22406 467.87955 465.440307 456.529456 0.0021373
5.23286 468.08734 464.824991 456.769003 0.00213635
5.24166 468.01273 464.336826 457.01084 0.00213669
5.25046 468.40817 463.953263 457.254967 0.00213489
5.25927 468.21249 463.656544 457.501437 0.00213578
5.26807 467.76938 463.432712 457.750242 0.00213781
5.27687 467.91953 463.270561 458.001422 0.00213712
5.28567 468.93607 463.397685 458.255014 0.00213249
5.29448 469.74118 463.335325 458.511014 0.00212883
5.30328 470.0267 463.312329 458.769454 0.00212754
5.31208 470.68552 463.32376 459.030371 0.00212456
5.32088 471.60294 463.365532 459.29376 0.00212043
5.32968 471.29462 463.466175 459.559665 0.00212182
5.33849 470.60886 463.559183 459.828077 0.00212491
5.34729 469.64102 463.673875 460.099035 0.00212929
5.35609 469.75031 463.808238 460.372565 0.00212879
5.36489 469.79355 463.960565 460.648658 0.00212859
5.37369 470.82339 464.129442 460.927361 0.00212394
5.38250 471.60901 464.313655 461.208663 0.0021204
5.39130 471.7735 464.512201 461.492588 0.00211966
5.40010 471.33737 464.724263 461.779172 0.00212162
5.40890 471.3071 464.949139 462.068397 0.00212176
5.41770 471.09076 465.186299 462.360296 0.00212273
5.42651 471.09851 465.435334 462.654893 0.0021227
5.43531 471.34946 465.69592 462.952171 0.00212157
5.44411 471.65283 465.967901 463.252175 0.0021202
5.45291 472.12408 466.251178 463.554886 0.00211809
5.46172 472.85001 466.545801 463.860327 0.00211484
5.47052 473.31223 466.851953 464.168527 0.00211277
5.47932 473.50452 467.169897 464.479465 0.00211191
5.48812 473.72034 467.500099 464.79318 0.00211095
5.49692 474.17722 467.843127 465.109647 0.00210892
5.50573 474.6113 468.199796 465.428896 0.00210699
5.51453 475.04404 468.571526 465.750945 0.00210507
5.52333 474.73224 468.958805 466.075768 0.00210645
5.53213 474.44739 469.38701 466.40339 0.00210772
5.54093 474.99738 469.811714 466.733839 0.00210527
5.54974 475.3002 470.25861 467.067075 0.00210393
5.55854 476.57507 470.731026 467.403144 0.00209831
5.56734 476.63403 471.233064 467.742015 0.00209805
5.57614 476.83948 471.770074 468.083704 0.00209714
5.58495 477.07388 472.348994 468.428235 0.00209611
5.59375 477.76453 472.978793 468.775573 0.00209308
5.60255 478.12674 473.671548 469.125762 0.0020915
5.61135 478.54297 474.443328 469.478756 0.00208968
5.62015 479.16885 475.316336 469.834578 0.00208695
5.62896 479.36432 476.32162 470.193248 0.0020861
5.63776 479.71768 477.503351 470.554731 0.00208456
5.64656 480.60648 478.926852 470.919035 0.0020807
5.65536 482.36371 480.69429 471.286185 0.00207312
5.66416 483.40616 482.991497 471.65614 0.00206865
5.67297 484.09943 486.267907 472.028931 0.00206569
5.68177 484.82693 491.846462 472.404517 0.00206259
5.69057 487.74304 503.410664 472.782918 0.00205026
5.69937 494.50525 528.89742 473.164143 0.00202222
5.70817 514.09674 579.435404 473.548148 0.00194516
5.71698 570.6861 660.542852 473.934948 0.00175228
5.72578 671.09808 756.740108 474.324564 0.0014901
5.73458 749.33313 819.125564 474.716936 0.00133452
5.74338 727.44904 794.860924 475.112106 0.00137467
5.75219 634.2821 707.248309 475.510021 0.00157659
5.76099 557.23779 616.109937 475.9107 0.00179457
5.76979 521.69208 551.909844 476.314146 0.00191684
5.77859 505.83145 516.904834 476.720311 0.00197694
5.78739 496.67001 500.947914 477.129229 0.00201341
5.79620 491.79901 494.094268 477.540849 0.00203335
5.80500 489.11884 490.848119 477.955174 0.00204449
5.81380 487.84937 489.02913 478.372221 0.00204981
5.82260 487.42554 487.900639 478.791934 0.0020516
5.83140 487.61212 487.193417 479.214317 0.00205081
5.84021 487.82889 486.777358 479.639384 0.0020499
5.84901 487.90799 486.57443 480.06708 0.00204957
5.85781 487.93204 486.533872 480.497429 0.00204947
5.86661 487.61841 486.621587 480.930373 0.00205078
5.87541 488.36761 486.814757 481.365921 0.00204764
5.88422 489.3338 487.098559 481.804089 0.00204359
5.89302 489.98019 487.464095 482.244801 0.0020409
5.90182 490.34811 487.90747 482.688096 0.00203937
5.91062 491.53851 488.429083 483.133912 0.00203443
5.91943 492.0546 489.034029 483.582247 0.00203229
5.92823 492.67761 489.732604 484.033115 0.00202972
5.93703 493.06329 490.541607 484.486447 0.00202814
5.94583 494.38721 491.487035 484.942255 0.00202271
5.95463 495.8046 492.608122 485.400536 0.00201692
5.96344 496.79102 493.964289 485.861224 0.00201292
5.97224 498.08884 495.650422 486.324353 0.00200767
5.98104 500.31595 497.839547 486.789855 0.00199874
5.98984 504.81705 500.949154 487.257726 0.00198092
5.99864 513.20508 506.218876 487.727977 0.00194854
6.00745 529.49677 517.133214 488.200539 0.00188859
6.01625 559.81195 541.214002 488.675434 0.00178631
6.02505 614.91553 588.777551 489.152592 0.00162624
6.03385 694.43237 664.060455 489.632023 0.00144003
6.04266 784.06079 750.101439 490.113721 0.00127541
6.05146 837.49036 797.632679 490.597614 0.00119404
6.06026 810.16296 763.185895 491.083707 0.00123432
6.06906 718.97736 680.218546 491.572009 0.00139086
6.07786 620.7998 602.12001 492.06243 0.00161083
6.08667 555.66888 550.825107 492.555007 0.00179963
6.09547 525.88641 524.498641 493.049661 0.00190155
6.10427 513.08942 512.970286 493.546399 0.00194898
6.11307 506.48459 508.01523 494.045215 0.00197439
6.12187 503.5481 505.583581 494.546031 0.00198591
6.13068 502.20453 504.188663 495.04888 0.00199122
6.13948 501.55948 503.333909 495.553684 0.00199378
6.14828 500.62607 502.821689 496.060434 0.0019975
6.15708 500.4556 502.547127 496.569138 0.00199818
6.16589 500.77469 502.444259 497.079718 0.00199691
6.17469 501.17999 502.468806 497.592165 0.00199529
6.18349 501.55447 502.590021 498.106485 0.0019938
6.19229 501.40756 502.785993 498.6226 0.00199439
6.20109 501.495 503.040983 499.140528 0.00199404
6.20990 501.34357 503.343219 499.660189 0.00199464
6.21870 502.59973 503.683945 500.181584 0.00198965
6.22750 503.67068 504.056532 500.70472 0.00198542
6.23630 504.30286 504.45577 501.229498 0.00198294
6.24510 504.52084 504.877678 501.755925 0.00198208
6.25391 504.83249 505.319136 502.284008 0.00198086
6.26271 505.24982 505.777596 502.813645 0.00197922
6.27151 505.54361 506.251141 503.344874 0.00197807
6.28031 506.00528 506.738132 503.877605 0.00197626
6.28911 505.95212 507.237365 504.411845 0.00197647
6.29792 506.15234 507.747872 504.947581 0.00197569
6.30672 507.15216 508.268837 505.48473 0.00197179
6.31552 508.0603 508.799746 506.023322 0.00196827
6.32432 508.81912 509.340129 506.563272 0.00196533
6.33313 509.2439 509.889753 507.104568 0.0019637
6.34193 508.81653 510.448529 507.647217 0.00196534
6.35073 508.41287 511.016415 508.191132 0.00196691
6.35953 508.89276 511.593581 508.7363 0.00196505
6.36833 509.98993 512.180359 509.28273 0.00196082
6.37714 511.0759 512.777135 509.830332 0.00195666
6.38594 510.94385 513.384587 510.379127 0.00195716
6.39474 511.23456 514.003473 510.929027 0.00195605
6.40354 511.56744 514.634885 511.480032 0.00195478
6.41234 512.39935 515.280209 512.032148 0.0019516
6.42115 513.48309 515.941056 512.585268 0.00194748
6.42995 513.86279 516.61964 513.13943 0.00194604
6.43875 514.7973 517.318574 513.69454 0.00194251
6.44755 515.03137 518.04131 514.250603 0.00194163
6.45636 515.65015 518.792228 514.807608 0.0019393
6.46516 516.2876 519.576831 515.365465 0.0019369
6.47396 517.75079 520.40243 515.92418 0.00193143
6.48276 517.99109 521.278613 516.483741 0.00193054
6.49156 518.65802 522.218007 517.044058 0.00192805
6.50037 519.69611 523.237975 517.605164 0.0019242
6.50917 521.34149 524.362186 518.16697 0.00191813
6.51797 522.66241 525.624173 518.729462 0.00191328
6.52677 523.84814 527.072311 519.292646 0.00190895
6.53557 525.06134 528.777998 519.856435 0.00190454
6.54438 526.45581 530.852647 520.420846 0.00189949
6.55318 527.23071 533.490076 520.98579 0.0018967
6.56198 528.22461 537.129027 521.551268 0.00189313
6.57078 532.00854 543.052604 522.117285 0.00187967
6.57958 538.54749 555.023359 522.683734 0.00185685
6.58839 551.74786 581.526267 523.250621 0.00181242
6.59719 585.7384 634.946537 523.817946 0.00170725
6.60599 662.72357 721.065599 524.385619 0.00150892
6.61479 752.78851 819.508427 524.953662 0.00132839
6.62360 812.81317 868.829462 525.521983 0.0012303
6.63240 757.69067 820.305678 526.09059 0.0013198
6.64120 675.99005 723.03761 526.659471 0.00147931
6.65000 605.49323 638.347399 527.228536 0.00165155
6.65880 573.66107 586.309167 527.797819 0.00174319
6.66761 559.65869 561.130966 528.36723 0.0017868
6.67641 549.94183 550.452158 528.936758 0.00181837
6.68521 544.94122 545.775378 529.50641 0.00183506
6.69401 540.66119 543.374228 530.076096 0.00184959
6.70281 538.5752 541.974051 530.645806 0.00185675
6.71162 537.11481 541.138708 531.215548 0.0018618
6.72042 536.97839 540.675386 531.785232 0.00186227
6.72922 536.40826 540.474285 532.354879 0.00186425
6.73802 536.67694 540.46519 532.924402 0.00186332
6.74682 536.74902 540.601553 533.493802 0.00186307
6.75563 537.66302 540.852193 534.063087 0.0018599
6.76443 538.60022 541.196401 534.63215 0.00185666
6.77323 539.65393 541.621317 535.201001 0.00185304
6.78203 540.05457 542.120575 535.76964 0.00185166
6.79084 540.86206 542.694141 536.337981 0.0018489
6.79964 541.27173 543.350454 536.906046 0.0018475
6.80844 541.95264 544.115227 537.473747 0.00184518
6.81724 544.07104 545.068897 538.041094 0.001838
6.82604 546.57697 546.464393 538.608076 0.00182957
6.83485 550.23737 548.951401 539.174609 0.0018174
6.84365 554.62091 553.663346 539.740726 0.00180303
6.85245 560.74475 561.535301 540.306342 0.00178334
6.86125 569.02539 571.595577 540.871447 0.00175739
6.87005 578.61145 578.975767 541.436052 0.00172828
6.87886 587.14679 577.33762 542.000071 0.00170315
6.88766 589.36829 569.158077 542.563496 0.00169673
6.89646 586.98431 561.13145 543.126338 0.00170362
6.90526 582.75867 556.122041 543.688505 0.00171598
6.91407 576.71674 553.954022 544.250039 0.00173395
6.92287 569.60974 553.444514 544.810839 0.00175559
6.93167 563.52173 553.665037 545.370915 0.00177455
6.94047 558.97784 554.182533 545.930272 0.00178898
6.94927 556.54773 554.848332 546.488827 0.00179679
6.95808 555.68335 555.617364 547.046605 0.00179959
6.96688 555.9436 556.476761 547.603522 0.00179874
6.97568 556.34454 557.422887 548.159591 0.00179745
6.98448 557.17633 558.462142 548.714806 0.00179476
6.99328 558.43225 559.641762 549.269084 0.00179073
7.00209 559.52063 560.911208 549.822438 0.00178724
7.01089 560.97595 562.333853 550.374863 0.00178261
7.01969 562.84796 563.950721 550.926277 0.00177668
7.02849 565.1698 565.820677 551.476718 0.00176938
7.03729 567.57367 568.029733 552.026107 0.00176189
7.04610 571.69104 570.705946 552.574439 0.0017492
7.05490 576.06927 574.048662 553.121726 0.0017359
7.06370 583.05811 578.399594 553.667891 0.00171509
7.07250 592.88397 584.500864 554.212959 0.00168667
7.08131 608.77594 594.486877 554.756852 0.00164264
7.09011 635.5896 614.704164 555.299579 0.00157334
7.09891 675.18756 660.06696 555.841154 0.00148107
7.10771 737.34839 752.872918 556.381482 0.00135621
7.11651 836.57874 903.934276 556.920577 0.00119534
7.12532 944.45978 1075.799981 557.458449 0.00105881
7.13412 1068.0117 1152.824814 557.995022 0.00093632
7.14292 1081.1774 1054.219146 558.530323 0.00092492
7.15172 1047.4735 881.713502 559.064278 0.00095468
7.16052 938.39148 740.406263 559.596902 0.00106565
7.16933 828.98175 657.805955 560.128193 0.0012063
7.17813 747.90302 619.333031 560.658077 0.00133707
7.18693 685.47687 603.135001 561.186595 0.00145884
7.19573 647.28961 595.799454 561.713674 0.0015449
7.20453 623.8576 591.89164 562.239313 0.00160293
7.21334 609.29456 589.617106 562.763529 0.00164124
7.22214 600.95514 588.338086 563.286249 0.00166402
7.23094 596.07111 587.753846 563.807475 0.00167765
7.23974 592.88739 587.691984 564.327223 0.00168666
7.24855 590.65448 588.048408 564.845417 0.00169304
7.25735 590.40204 588.76244 565.362104 0.00169376
7.26615 590.9093 589.804121 565.877198 0.00169231
7.27495 592.60358 591.167979 566.390717 0.00168747
7.28375 594.28058 592.870942 566.902673 0.00168271
7.29256 595.38538 594.95341 567.412999 0.00167958
7.30136 598.44757 597.484569 567.921696 0.00167099
7.31016 601.8067 600.57275 568.428783 0.00166166
7.31896 606.58856 604.382585 568.934193 0.00164856
7.32777 611.5838 609.168398 569.437958 0.0016351
7.33657 619.49359 615.339911 569.940012 0.00161422
7.34537 628.95453 623.667603 570.440374 0.00158994
7.35417 646.03308 636.0756 570.939048 0.00154791
7.36297 673.37903 658.339607 571.435969 0.00148505
7.37178 720.15436 706.00735 571.931181 0.00138859
7.38058 808.69757 808.661335 572.424619 0.00123656
7.38938 967.91907 995.87957 572.916288 0.00103314
7.39818 1201.8784 1253.396934 573.40621 0.00083203
7.40698 1424.0658 1463.993964 573.894321 0.00070221
7.41579 1479.9198 1451.529969 574.380628 0.00067571
7.42459 1357.8519 1273.626325 574.865151 0.00073646
7.43339 1173.9031 1109.500185 575.347825 0.00085186
7.44219 1031.5211 999.472152 575.828698 0.00096944
7.45099 927.64362 897.216876 576.307696 0.001078
7.45980 837.84406 801.589118 576.78484 0.00119354
7.46860 761.29218 733.198864 577.260147 0.00131356
7.47740 712.18427 694.966357 577.73356 0.00140413
7.48620 682.99261 678.581703 578.205112 0.00146414
7.49501 670.25848 674.250428 578.674746 0.00149196
7.50381 664.37897 676.003126 579.142486 0.00150517
7.51261 665.93176 681.490358 579.608338 0.00150166
7.52141 672.09406 690.162466 580.072248 0.00148789
7.53021 680.42664 702.212953 580.534239 0.00146967
7.53902 696.38232 718.273286 580.994319 0.00143599
7.54782 709.71356 739.430639 581.452434 0.00140902
7.55662 740.87836 767.416704 581.90863 0.00134975
7.56542 770.90479 804.970245 582.362854 0.00129718
7.57422 834.26636 856.738056 582.815114 0.00119866
7.58303 912.67889 932.333538 583.265435 0.00109568
7.59183 1058.2623 1058.270443 583.713761 0.00094495
7.60063 1322.8044 1314.471221 584.160142 0.00075597
7.60943 1812.8784 1897.227959 584.604513 0.00055161
7.61823 3029.1169 3120.747397 585.046899 0.00033013
7.62704 4972.0732 5175.69197 585.487321 0.00020112
7.63584 7923.4009 7605.192454 585.925729 0.00012621
7.64464 9204.7764 8804.855273 586.362135 0.00010864
7.65344 7881.0093 7555.971453 586.796566 0.00012689
7.66225 4955.4067 5340.310261 587.228972 0.0002018
7.67105 3551.3098 3679.031835 587.659391 0.00028159
7.67985 2716.0061 2826.946618 588.087776 0.00036819
7.68865 2327.0388 2312.786293 588.514153 0.00042973
7.69745 1798.1902 1805.512347 588.938536 0.00055611
7.70626 1460.1083 1373.450943 589.360879 0.00068488
7.71506 1123.8423 1083.340188 589.781228 0.0008898
7.72386 933.95288 919.854893 590.19954 0.00107072
7.73266 830.4657 833.720898 590.615827 0.00120414
7.74146 758.36389 784.727288 591.030118 0.00131863
7.75027 724.37378 752.692304 591.442369 0.0013805
7.75907 695.8255 729.67763 591.852594 0.00143714
7.76787 682.07513 712.500953 592.260823 0.00146611
7.77667 668.76379 699.575791 592.667008 0.0014953
7.78548 661.70746 689.9693 593.071201 0.00151124
7.79428 656.53418 683.135651 593.473348 0.00152315
7.80308 654.31451 678.829107 593.873478 0.00152832
7.81188 654.77069 677.117907 594.271615 0.00152725
7.82068 658.61432 678.60531 594.66772 0.00151834
7.82949 668.56586 685.329835 595.061809 0.00149574
7.83829 687.21606 703.56155 595.45391 0.00145515
7.84709 729.99445 749.282428 595.843987 0.00136987
7.85589 823.3894 850.638413 596.232078 0.00121449
7.86469 1000.7328 1030.633355 596.618145 0.00099927
7.87350 1261.1019 1263.146866 597.00222 0.00079296
7.88230 1389.5109 1417.522069 597.384318 0.00071968
7.89110 1307.4185 1331.739076 597.764404 0.00076487
7.89990 1066.619 1097.659947 598.142525 0.00093754
7.90870 880.38953 887.083896 598.518647 0.00113586
7.91751 775.95673 757.333031 598.892789 0.00128873
7.92631 719.69757 694.028361 599.264979 0.00138947
7.93511 685.30792 665.890427 599.635181 0.0014592
7.94391 664.59216 652.056912 600.003425 0.00150468
7.95272 649.22418 643.73449 600.36973 0.0015403
7.96152 639.25885 637.973853 600.734063 0.00156431
7.97032 633.19684 633.722696 601.096473 0.00157929
7.97912 628.30914 630.482009 601.456928 0.00159157
7.98792 624.87317 627.955149 601.815447 0.00160032
7.99673 622.93414 625.949634 602.172061 0.00160531
8.00553 621.62659 624.33545 602.526762 0.00160868
8.01433 619.56433 623.021891 602.879507 0.00161404
8.02313 618.54657 621.943651 603.230388 0.00161669
8.03193 617.80243 621.053211 603.579373 0.00161864
8.04074 617.65601 620.315062 603.926435 0.00161902
8.04954 616.39838 619.701934 604.271651 0.00162233
8.05834 616.1557 619.192876 604.614996 0.00162297
8.06714 616.10101 618.771458 604.956442 0.00162311
8.07594 615.82501 618.422647 605.296068 0.00162384
8.08475 616.02136 618.139525 605.633847 0.00162332
8.09355 615.7821 617.914431 605.969755 0.00162395
8.10235 615.85388 617.734748 606.303869 0.00162376
8.11115 615.19403 617.602292 606.636164 0.0016255
8.11996 615.41431 617.502377 606.96665 0.00162492
8.12876 614.86035 617.435777 607.295303 0.00162639
8.13756 614.88721 617.399017 607.6222 0.00162631
8.14636 614.33624 617.389205 607.947318 0.00162777
8.15516 613.83643 617.403847 608.270634 0.0016291
8.16397 613.66302 617.440894 608.592225 0.00162956
8.17277 614.14001 617.498647 608.912068 0.00162829
8.18157 614.28424 617.57567 609.230141 0.00162791
8.19037 614.07971 617.670917 609.546521 0.00162845
8.19917 614.20313 617.78357 609.861186 0.00162813
8.20798 613.98755 617.913148 610.174112 0.0016287
8.21678 614.63806 618.059534 610.485385 0.00162697
8.22558 614.60638 618.222979 610.794975 0.00162706
8.23438 614.84717 618.404264 611.102895 0.00162642
8.24319 614.87274 618.719572 611.409125 0.00162635
8.25199 615.38611 618.942482 611.713748 0.001625
8.26079 615.24908 619.190558 612.016735 0.00162536
8.26959 615.26868 619.469271 612.318068 0.00162531
8.27839 615.60901 619.787028 612.617828 0.00162441
8.28720 615.7226 620.156902 612.915997 0.00162411
8.29600 615.54364 620.600242 613.212547 0.00162458
8.30480 615.33618 621.157591 613.507561 0.00162513
8.31360 616.59088 621.929959 613.80102 0.00162182
8.32240 618.61243 623.222087 614.092906 0.00161652
8.33121 621.27734 625.858331 614.383292 0.00160959
8.34001 624.85791 631.404507 614.672163 0.00160036
8.34881 630.8844 641.379155 614.95953 0.00158508
8.35761 639.43756 654.778851 615.24538 0.00156387
8.36641 646.71057 664.586125 615.529785 0.00154629
8.37522 648.37494 661.06431 615.812728 0.00154232
8.38402 643.66132 648.557732 616.094195 0.00155361
8.39282 635.31964 636.970477 616.374257 0.00157401
8.40162 628.65302 629.848159 616.652901 0.0015907
8.41043 623.4859 626.492479 616.930112 0.00160389
8.41923 619.69012 625.157659 617.205961 0.00161371
8.42803 617.60388 624.652495 617.480435 0.00161916
8.43683 617.11267 624.467787 617.753519 0.00162045
8.44563 616.64191 624.43161 618.025285 0.00162169
8.45444 616.39569 624.483028 618.295719 0.00162233
8.46324 616.45172 624.593414 618.564836 0.00162219
8.47204 616.64557 624.746053 618.832623 0.00162168
8.48084 617.13983 624.930297 619.099151 0.00162038
8.48964 617.33649 625.139095 619.364406 0.00161986
8.49845 617.94885 625.369214 619.628378 0.00161826
8.50725 618.14703 625.614338 619.891134 0.00161774
8.51605 617.97986 625.873746 620.152665 0.00161818
8.52485 617.56268 626.145872 620.412957 0.00161927
8.53366 618.0694 626.429755 620.67208 0.00161794
8.54246 618.37756 626.724728 620.930022 0.00161714
8.55126 618.83038 627.030415 621.186771 0.00161595
8.56006 618.78638 627.346791 621.442401 0.00161607
8.56886 618.73578 627.673917 621.696895 0.0016162
8.57767 618.27924 628.012073 621.950271 0.00161739
8.58647 618.58295 628.361659 622.202515 0.0016166
8.59527 619.28912 628.723364 622.453703 0.00161475
8.60407 620.25684 629.097899 622.703818 0.00161224
8.61287 620.59326 629.486143 622.952848 0.00161136
8.62168 620.67346 629.889292 623.200868 0.00161115
8.63048 621.0249 630.308593 623.447866 0.00161024
8.63928 621.55023 630.745493 623.693825 0.00160888
8.64808 621.45258 631.201855 623.93882 0.00160913
8.65689 621.3808 631.679653 624.182838 0.00160932
8.66569 621.37335 632.18118 624.425871 0.00160934
8.67449 622.52966 632.709282 624.667985 0.00160635
8.68329 623.02911 633.267077 624.909169 0.00160506
8.69209 622.70239 633.857958 625.149442 0.0016059
8.70090 622.61053 634.486779 625.388792 0.00160614
8.70970 623.19336 635.15848 625.627287 0.00160464
8.71850 624.38098 635.878982 625.864917 0.00160159
8.72730 625.3609 636.6553 626.101674 0.00159908
8.73610 626.12 637.496115 626.337622 0.00159714
8.74491 626.53192 638.411514 626.572753 0.00159609
8.75371 626.60614 639.413661 626.807059 0.0015959
8.76251 627.50232 640.517781 627.040604 0.00159362
8.77131 628.86182 641.74526 627.27338 0.00159017
8.78011 630.5661 643.112301 627.505378 0.00158588
8.78892 632.53992 644.65074 627.736664 0.00158093
8.79772 635.16882 646.396149 627.967227 0.00157438
8.80652 637.01935 648.394118 628.197085 0.00156981
8.81532 639.61835 650.70319 628.42623 0.00156343
8.82413 642.57861 653.401079 628.654724 0.00155623
8.83293 645.45251 656.58999 628.882559 0.0015493
8.84173 649.47784 660.407967 629.109729 0.0015397
8.85053 655.11182 665.032056 629.336295 0.00152646
8.85933 662.30609 670.761235 629.56225 0.00150988
8.86814 671.01807 677.96831 629.787587 0.00149027
8.87694 683.7735 687.240406 630.012366 0.00146247
8.88574 701.22186 699.49443 630.236581 0.00142608
8.89454 727.45044 716.440331 630.460222 0.00137466
8.90334 767.4632 742.047123 630.683357 0.00130299
8.91215 833.40729 786.628308 630.905971 0.00119989
8.92095 950.92432 874.215278 631.128083 0.00105161
8.92975 1152.4556 1048.112651 631.349682 0.00086771
8.93855 1485.8191 1363.127929 631.570836 0.00067303
8.94736 1907.8463 1843.075808 631.791531 0.00052415
8.95616 2347.2141 2400.003217 632.011759 0.00042604
8.96496 2690.0659 2886.646201 632.231586 0.00037174
8.97376 2822.4939 3023.433703 632.451003 0.0003543
8.98256 2609.9446 2549.936936 632.669995 0.00038315
8.99137 2151.8542 1850.214477 632.888631 0.00046472
9.00017 1635.1428 1305.96624 633.106899 0.00061157
9.00897 1239.6179 992.778971 633.324793 0.0008067
9.01777 995.20984 843.472774 633.542371 0.00100481
9.02657 852.36932 775.33925 633.759626 0.0011732
9.03538 772.63788 739.977855 633.976572 0.00129427
9.04418 727.04767 717.988528 634.193202 0.00137543
9.05298 699.0625 702.71127 634.409575 0.00143049
9.06178 681.02051 691.550295 634.625681 0.00146838
9.07058 669.00903 683.165927 634.841514 0.00149475
9.07939 660.89594 676.738166 635.057132 0.0015131
9.08819 654.47998 671.730209 635.272527 0.00152793
9.09699 649.74274 667.778662 635.48769 0.00153907
9.10579 646.98376 664.62977 635.702679 0.00154563
9.11460 645.21948 662.1029 635.917487 0.00154986
9.12340 642.93787 660.067524 636.132105 0.00155536
9.13220 641.41089 658.427317 636.34659 0.00155906
9.14100 641.32922 657.109816 636.560935 0.00155926
9.14980 641.1734 656.061117 636.775129 0.00155964
9.15861 639.96222 655.240313 636.989232 0.00156259
9.16741 639.60449 654.61676 637.203233 0.00156347
9.17621 640.10388 654.167626 637.417145 0.00156225
9.18501 640.19257 653.876396 637.630961 0.00156203
9.19381 639.56232 653.7322 637.844736 0.00156357
9.20262 639.69324 653.728946 638.058462 0.00156325
9.21142 640.52148 653.865043 638.272129 0.00156123
9.22022 640.96759 654.143697 638.485794 0.00156014
9.22902 641.979 654.573236 638.699447 0.00155768
9.23782 643.43182 655.168102 638.913076 0.00155417
9.24663 645.60083 655.949026 639.126744 0.00154894
9.25543 648.68109 656.947116 639.340435 0.00154159
9.26423 654.2049 658.20555 639.554138 0.00152857
9.27303 659.64496 659.809225 639.767915 0.00151597
9.28184 667.76758 661.795632 639.981754 0.00149753
9.29064 677.65143 664.311102 640.195663 0.00147568
9.29944 686.77344 667.53465 640.409631 0.00145608
9.30824 695.77087 671.743495 640.623718 0.00143725
9.31704 711.08466 677.404802 640.837914 0.0014063
9.32585 728.60126 685.410521 641.052201 0.00137249
9.33465 748.40875 697.595741 641.266641 0.00133617
9.34345 775.55743 717.84792 641.481221 0.0012894
9.35225 818.92426 754.899722 641.695929 0.00122111
9.36105 889.66821 827.993888 641.91082 0.00112401
9.36986 1013.6632 969.461307 642.125882 0.00098652
9.37866 1197.2638 1210.992951 642.341104 0.00083524
9.38746 1427.7297 1534.049166 642.556541 0.00070041
9.39626 1600.5487 1776.796541 642.77218 0.00062479
9.40507 1630.1342 1697.07361 642.988032 0.00061345
9.41387 1499.8696 1378.961864 643.204084 0.00066672
9.42267 1277.4861 1071.921565 643.420391 0.00078279
9.43147 1074.8809 873.316063 643.636939 0.00093034
9.44027 923.62372 772.28168 643.853717 0.00108269
9.44908 824.04333 726.738478 644.070778 0.00121353
9.45788 764.17535 705.182323 644.288109 0.0013086
9.46668 731.73682 693.104108 644.505697 0.00136661
9.47548 714.22363 685.363872 644.723596 0.00140012
9.48428 708.01495 680.166441 644.941792 0.0014124
9.49309 716.56519 676.739773 645.160272 0.00139555
9.50189 727.05469 674.68671 645.379088 0.00137541
9.51069 743.56104 673.842451 645.598228 0.00134488
9.51949 755.36932 674.24778 645.817699 0.00132386
9.52829 773.08258 676.319485 646.037487 0.00129352
9.53710 783.79303 681.548118 646.257646 0.00127585
9.54590 793.51062 694.225363 646.47816 0.00126022
9.55470 806.75024 723.351528 646.699015 0.00123954
9.56350 819.33624 780.134069 646.920264 0.0012205
9.57231 831.9895 865.702896 647.141892 0.00120194
9.58111 849.00464 949.785489 647.36388 0.00117785
9.58991 871.29932 962.672493 647.58629 0.00114771
9.59871 888.40161 889.328817 647.809098 0.00112562
9.60751 879.66272 798.626884 648.032288 0.0011368
9.61632 837.69171 732.741702 648.255917 0.00119376
9.62512 782.15131 696.415064 648.479971 0.00127852
9.63392 739.40527 679.43179 648.704449 0.00135244
9.64272 708.71991 671.571404 648.929336 0.00141099
9.65152 688.91895 667.35866 649.15469 0.00145155
9.66033 676.61029 664.684469 649.380492 0.00147796
9.66913 668.36267 662.820667 649.606719 0.00149619
9.67793 662.84064 661.46837 649.833431 0.00150866
9.68673 658.38806 660.467897 650.060606 0.00151886
9.69553 655.39038 659.719502 650.288229 0.00152581
9.70434 653.7724 659.156732 650.516351 0.00152958
9.71314 653.13873 658.734334 650.744953 0.00153107
9.72194 652.21631 658.420163 650.974019 0.00153323
9.73074 651.44073 658.191084 651.203599 0.00153506
9.73955 650.6001 658.030138 651.433676 0.00153704
9.74835 650.57336 657.92673 651.664254 0.00153711
9.75715 650.77362 657.86683 651.895314 0.00153663
9.76595 651.05365 657.845038 652.126908 0.00153597
9.77475 651.11566 657.855485 652.359017 0.00153583
9.78356 650.79224 657.893513 652.591622 0.00153659
9.79236 650.68158 657.95539 652.824774 0.00153685
9.80116 650.427 658.039112 653.058453 0.00153745
9.80996 650.43683 658.140261 653.29264 0.00153743
9.81876 650.89941 658.257855 653.527386 0.00153634
9.82757 650.75372 658.390275 653.762671 0.00153668
9.83637 650.18616 658.536192 653.998474 0.00153802
9.84517 649.44696 658.694577 654.234847 0.00153977
9.85397 649.45233 658.864556 654.471769 0.00153976
9.86278 650.0993 659.045465 654.709243 0.00153823
9.87158 651.18256 659.236786 654.947249 0.00153567
9.88038 651.89838 659.438205 655.185836 0.00153398
9.88918 651.77277 659.649497 655.424985 0.00153428
9.89798 652.23303 659.870574 655.664673 0.00153319
9.90679 652.64618 660.10157 655.904952 0.00153222
9.91559 653.15576 660.342877 656.145799 0.00153103
9.92439 652.93768 660.594503 656.387189 0.00153154
9.93319 652.65173 660.857296 656.629183 0.00153221
9.94199 652.52344 661.132054 656.871749 0.00153251
9.95080 652.7016 661.419855 657.114864 0.00153209
9.95960 652.30194 661.722227 657.358586 0.00153303
9.96840 652.72974 662.041026 657.602891 0.00153203
9.97720 653.38837 662.378703 657.847775 0.00153048
9.98600 653.97632 662.738413 658.093215 0.00152911
9.99481 655.62738 663.124427 658.339267 0.00152526
10.00361 657.21265 663.54226 658.585917 0.00152158
10.01241 658.07983 663.999188 658.833103 0.00151957
10.02121 658.26508 664.50549 659.080933 0.00151914
10.03002 658.58435 665.074879 659.329325 0.00151841
10.03882 660.03571 665.726938 659.578277 0.00151507
10.04762 662.79279 666.490135 659.827877 0.00150877
10.05642 666.289 667.406141 660.07804 0.00150085
10.06522 670.89752 668.540185 660.328794 0.00149054
10.07403 677.18341 670.005128 660.580139 0.0014767
10.08283 686.38501 672.04739 660.832106 0.00145691
10.09163 697.11176 675.340453 661.084635 0.00143449
10.10043 706.45325 681.727065 661.337728 0.00141552
10.10923 714.11078 695.188201 661.591471 0.00140034
10.11804 718.47473 721.253353 661.845777 0.00139184
10.12684 720.69562 762.358648 662.100675 0.00138755
10.13564 722.12842 808.882678 662.356163 0.0013848
10.14444 725.8299 830.497789 662.612272 0.00137773
10.15325 727.90851 804.99115 662.868912 0.0013738
10.16205 723.82806 758.654455 663.126171 0.00138154
10.17085 711.83112 719.696896 663.384049 0.00140483
10.17965 697.92157 695.927161 663.642455 0.00143283
10.18845 686.89575 684.200031 663.901507 0.00145582
10.19726 678.81604 679.024363 664.161116 0.00147315
10.20606 674.09448 676.689783 664.421339 0.00148347
10.21486 671.31866 675.553269 664.682087 0.00148961
10.22366 669.89264 675.05721 664.943446 0.00149278
10.23246 669.34583 675.091546 665.205416 0.001494
10.24127 669.85553 675.865176 665.467906 0.00149286
10.25007 671.43591 678.028285 665.731033 0.00148935
10.25887 674.82513 682.580698 665.994707 0.00148187
10.26767 680.94434 690.167223 666.258955 0.00146855
10.27647 689.02216 699.434663 666.523776 0.00145133
10.28528 694.74713 705.194124 666.789168 0.00143937
10.29408 694.48767 701.921434 667.055129 0.00143991
10.30288 688.63037 693.247214 667.321657 0.00145216
10.31168 682.27557 685.274151 667.588779 0.00146568
10.32048 677.19434 680.200308 667.856404 0.00147668
10.32929 673.67938 677.702036 668.12465 0.00148439
10.33809 672.12646 676.716586 668.393423 0.00148782
10.34689 671.30573 676.421435 668.662752 0.00148963
10.35569 670.68799 676.41626 668.932634 0.00149101
10.36450 671.06189 676.550633 669.203067 0.00149018
10.37330 671.8468 676.772122 669.474079 0.00148843
10.38210 672.05261 677.052557 669.745575 0.00148798
10.39090 672.03625 677.38081 670.017675 0.00148801
10.39971 672.17688 677.748582 670.290285 0.0014877
10.40851 673.07733 678.150743 670.5634 0.00148571
10.41731 674.38342 678.584293 670.837112 0.00148284
10.42611 675.21558 679.047315 671.111324 0.00148101
10.43491 675.50867 679.539169 671.386065 0.00148037
10.44371 675.69287 680.059866 671.661331 0.00147996
10.45252 676.10956 680.610281 671.937151 0.00147905
10.46132 676.19037 681.191512 672.213458 0.00147887
10.47012 676.17834 681.805515 672.49025 0.0014789
10.47892 676.90771 682.454929 672.767617 0.00147731
10.48773 677.79663 683.142515 673.045463 0.00147537
10.49653 678.36462 683.872132 673.323814 0.00147413
10.50533 678.89301 684.648558 673.602668 0.00147299
10.51413 680.29517 685.479676 673.882022 0.00146995
10.52293 681.03552 686.364921 674.161871 0.00146835
10.53174 682.03021 687.314825 674.442213 0.00146621
10.54054 683.6391 688.337706 674.723075 0.00146276
10.54934 684.99036 689.441649 675.004359 0.00145987
10.55814 685.99646 690.635147 675.286188 0.00145773
10.56695 687.89447 691.907085 675.568464 0.00145371
10.57575 690.59088 693.223135 675.851213 0.00144804
10.58455 693.80884 694.353973 676.134434 0.00144132
10.59335 696.9939 694.687881 676.418121 0.00143473
10.60215 701.43964 693.209497 676.702304 0.00142564
10.61096 708.91193 689.49777 676.986882 0.00141061
10.61976 719.7876 686.210785 677.27198 0.0013893
10.62856 736.6731 692.005337 677.557497 0.00135745
10.63736 761.93732 721.266107 677.843463 0.00131244
10.64616 794.01239 777.196347 678.129873 0.00125943
10.65497 825.2348 838.021423 678.416722 0.00121178
10.66377 848.7113 883.194581 678.704009 0.00117826
10.67257 859.68457 907.344747 678.991727 0.00116322
10.68137 852.69971 895.528165 679.279907 0.00117275
10.69017 826.87421 852.609809 679.568479 0.00120937
10.69898 795.22955 808.80996 679.857471 0.0012575
10.70778 767.6842 780.25986 680.146881 0.00130262
10.71658 749.13318 768.234167 680.436702 0.00133488
10.72538 739.59863 768.30403 680.726933 0.00135208
10.73419 735.70166 776.156016 681.017568 0.00135925
10.74299 737.2915 789.858715 681.308637 0.00135632
10.75179 744.99799 809.728833 681.600037 0.00134229
10.76059 758.80658 838.208915 681.891896 0.00131786
10.76939 783.05542 881.880403 682.184111 0.00127705
10.77820 829.50348 959.051402 682.476677 0.00120554
10.78700 935.06689 1116.271585 682.76969 0.00106944
10.79580 1186.6904 1443.590881 683.063047 0.00084268
10.80460 1894.5018 2051.750361 683.356811 0.00052784
10.81340 3306.3484 2969.405857 683.650876 0.00030245
10.82221 4625.7178 3972.053321 683.94534 0.00021618
10.83101 4633.4116 4436.911158 684.240199 0.00021582
10.83981 3755.3955 3911.121662 684.535347 0.00026628
10.84861 2811.0032 2900.78919 684.830916 0.00035574
10.85741 1988.6464 2005.02326 685.1268 0.00050285
10.86622 1396.6156 1423.068795 685.42303 0.00071602
10.87502 1061.6588 1115.186438 685.719602 0.00094192
10.88382 896.77966 970.062142 686.01651 0.0011151
10.89262 818.20337 900.811813 686.313753 0.00122219
10.90142 782.51703 863.932259 686.611326 0.00127793
10.91023 768.36267 842.718866 686.909258 0.00130147
10.91903 765.98706 831.606176 687.207479 0.00130551
10.92783 772.37219 829.29189 687.506019 0.00129471
10.93663 790.28125 837.86645 687.804873 0.00126537
10.94544 828.15833 865.794206 688.104039 0.0012075
10.95424 907.79138 933.992059 688.403512 0.00110157
10.96304 1064.3046 1078.804961 688.703289 0.00093958
10.97184 1337.4469 1337.508795 689.0034 0.00074769
10.98064 1682.2919 1704.680029 689.303739 0.00059443
10.98945 1959.8556 2068.5785 689.60444 0.00051024
10.99825 2045.1469 2201.433763 689.905396 0.00048896
11.00705 1896.9817 1978.672978 690.206638 0.00052715
11.01585 1609.1493 1584.435428 690.508162 0.00062145
11.02465 1341.2078 1234.218004 690.809966 0.0007456
11.03346 1140.455 1003.086115 691.112079 0.00087684
11.04226 997.83832 877.202484 691.414396 0.00100217
11.05106 902.17273 815.493211 691.717051 0.00110844
11.05986 841.99115 784.533051 692.019937 0.00118766
11.06867 804.47479 766.806627 692.323086 0.00124305
11.07747 779.79767 755.249993 692.626493 0.00128238
11.08627 762.41766 747.372138 692.930157 0.00131162
11.09507 749.22937 742.600665 693.234074 0.0013347
11.10387 739.65265 741.388903 693.538241 0.00135199
11.11268 733.85211 744.768152 693.84269 0.00136267
11.12148 730.92761 753.095603 694.147313 0.00136812
11.13028 730.82501 764.007722 694.452212 0.00136832
11.13908 732.6463 770.273712 694.757383 0.00136492
11.14789 734.5423 764.232141 695.062755 0.00136139
11.15669 734.78406 749.875556 695.36836 0.00136094
11.16549 731.58057 735.718708 695.674195 0.0013669
11.17429 726.81366 725.544857 695.980292 0.00137587
11.18309 722.59363 719.47268 696.286543 0.0013839
11.19190 719.23059 716.148118 696.593052 0.00139037
11.20070 716.9071 714.259179 696.899814 0.00139488
11.20950 714.71802 713.043273 697.206724 0.00139915
11.21830 713.22229 712.160274 697.513919 0.00140209
11.22710 712.65399 711.48161 697.821291 0.00140321
11.23591 711.95825 710.948779 698.128872 0.00140458
11.24471 710.71979 710.529002 698.436662 0.00140702
11.25351 710.42725 710.199878 698.744657 0.0014076
11.26231 710.84509 709.945146 699.05289 0.00140678
11.27111 711.43378 709.741997 699.361255 0.00140561
11.27992 711.32806 709.605896 699.669889 0.00140582
11.28872 710.97369 709.51011 699.978686 0.00140652
11.29752 710.72906 709.449818 700.287679 0.00140701
11.30632 710.67999 709.415278 700.596865 0.0014071
11.31513 711.28864 709.389372 700.906243 0.0014059
11.32393 711.82269 709.332251 701.215812 0.00140484
11.33273 712.40741 709.141913 701.525569 0.00140369
11.34153 712.68921 708.623382 701.835549 0.00140314
11.35033 713.31885 707.509756 702.145644 0.0014019
11.35914 713.65021 705.661192 702.455994 0.00140125
11.36794 714.48401 703.410435 702.766492 0.00139961
11.37674 715.04761 701.96525 703.077171 0.00139851
11.38554 715.53259 702.919247 703.388031 0.00139756
11.39434 716.84222 705.958735 703.69907 0.00139501
11.40315 718.49377 709.495241 704.010322 0.0013918
11.41195 720.48053 712.769562 704.321681 0.00138796
11.42075 722.76196 716.040445 704.633288 0.00138358
11.42955 727.84161 720.531971 704.945034 0.00137393
11.43835 735.13989 728.515503 705.256919 0.00136029
11.44716 748.7533 742.889023 705.569049 0.00133555
11.45596 770.85223 765.351293 705.881316 0.00129727
11.46476 802.54492 793.000276 706.193756 0.00124604
11.47356 818.40741 814.306544 706.506368 0.00122189
11.48237 812.68481 812.906726 706.819187 0.00123049
11.49117 789.18585 790.581791 707.132106 0.00126713
11.49997 770.69232 764.160091 707.445232 0.00129753
11.50877 756.64685 743.837485 707.758563 0.00132162
11.51757 746.4201 731.688251 708.072029 0.00133973
11.52638 741.04492 725.800986 708.385666 0.00134945
11.53518 737.53638 723.529419 708.699473 0.00135587
11.54398 737.20398 723.125885 709.013485 0.00135648
11.55278 736.40649 723.95032 709.327597 0.00135795
11.56158 738.86102 726.314971 709.641915 0.00135343
11.57039 744.67554 731.643384 709.956439 0.00134287
11.57919 754.1861 742.638462 710.271063 0.00132593
11.58799 772.24573 762.446528 710.58593 0.00129492
11.59679 797.95691 791.813209 710.900933 0.0012532
11.60559 822.92596 824.761013 711.216109 0.00121518
11.61440 843.34186 844.490629 711.531457 0.00118576
11.62320 842.95306 834.469545 711.846979 0.00118631
11.63200 822.70636 804.024659 712.162712 0.0012155
11.64080 808.32355 772.672129 712.478548 0.00123713
11.64961 783.57336 749.804128 712.794632 0.0012762
11.65841 767.79065 736.420759 713.110857 0.00130244
11.66721 758.62793 729.751293 713.42726 0.00131817
11.67601 748.50525 726.711654 713.743843 0.001336
11.68481 743.00537 725.34675 714.060605 0.00134589
11.69362 739.01453 724.758339 714.37755 0.00135315
11.70242 735.34906 724.616318 714.694677 0.0013599
11.71122 734.32227 724.833063 715.012025 0.0013618
11.72002 734.14386 725.473858 715.329486 0.00136213
11.72883 735.0329 726.83484 715.647206 0.00136048
11.73763 737.06323 729.648234 715.96508 0.00135674
11.74643 740.58008 735.192814 716.283143 0.00135029
11.75523 747.33478 744.859499 716.601399 0.00133809
11.76403 758.51654 758.861797 716.919849 0.00131836
11.77284 770.98779 774.29391 717.238531 0.00129704
11.78164 777.88647 783.444414 717.557338 0.00128553
11.79044 774.82013 779.060142 717.876417 0.00129062
11.79924 764.73523 765.548872 718.195661 0.00130764
11.80804 753.47882 751.862259 718.515073 0.00132718
11.81685 745.91528 742.621974 718.834763 0.00134063
11.82565 742.98462 738.696368 719.154626 0.00134592
11.83445 742.24329 738.950738 719.474698 0.00134727
11.84325 744.01752 741.345388 719.794984 0.00134405
11.85206 745.81671 743.208278 720.115521 0.00134081
11.86086 747.01862 742.288173 720.43624 0.00133865
11.86966 747.03308 739.249709 720.757142 0.00133863
11.87846 745.42706 736.169423 721.07834 0.00134151
11.88726 743.82874 734.243166 721.399727 0.0013444
11.89607 742.15558 733.853859 721.721342 0.00134743
11.90487 740.97699 735.007869 722.043189 0.00134957
11.91367 741.18713 737.524451 722.365305 0.00134919
11.92247 741.8634 740.889855 722.687586 0.00134796
11.93127 742.68323 743.890866 723.010142 0.00134647
11.94008 743.72247 744.795828 723.332978 0.00134459
11.94888 745.23358 743.421977 723.655986 0.00134186
11.95768 746.62213 741.41551 723.979317 0.00133937
11.96648 747.29785 740.029098 724.302862 0.00133815
11.97528 747.84229 739.660885 724.6267 0.00133718
11.98409 748.67432 740.227383 724.950723 0.00133569
11.99289 750.24005 741.501 725.275044 0.00133291
12.00169 752.23724 743.324136 725.599667 0.00132937
12.01049 755.0188 745.67232 725.924485 0.00132447
12.01929 760.04395 748.654284 726.249648 0.00131571
12.02810 766.16083 752.524517 726.575051 0.00130521
12.03690 774.67914 757.754327 726.900732 0.00129086
12.04570 788.92554 765.146512 727.226696 0.00126755
12.05450 810.06793 776.068049 727.552946 0.00123446
12.06330 838.9115 793.178829 727.879487 0.00119202
12.07211 885.94482 822.125774 728.206321 0.00112874
12.08091 946.03906 873.723171 728.533489 0.00105704
12.08971 1023.4917 964.585405 728.860922 0.00097705
12.09851 1134.1663 1109.663451 729.18866 0.0008817
12.10732 1231.6094 1301.409515 729.516706 0.00081195
12.11612 1331.4546 1484.120391 729.845066 0.00075106
12.12492 1388.1624 1550.862394 730.173743 0.00072038
12.13372 1362.6289 1446.551551 730.50274 0.00073388
12.14252 1263.989 1252.385098 730.8321 0.00079115
12.15133 1131.8788 1067.302629 731.161714 0.00088349
12.16013 1007.861 934.582381 731.491735 0.0009922
12.16893 924.88196 856.347123 731.822057 0.00108122
12.17773 869.26617 816.695898 732.152682 0.0011504
12.18653 835.94421 798.768982 732.483728 0.00119625
12.19534 816.9032 792.203033 732.815085 0.00122414
12.20414 808.60541 793.464674 733.146835 0.0012367
12.21294 809.89996 804.458215 733.478867 0.00123472
12.22174 826.80701 831.512741 733.811337 0.00120947
12.23055 866.82703 882.804799 734.144136 0.00115363
12.23935 942.87836 961.992135 734.477268 0.00106058
12.24815 1053.2872 1058.441928 734.810851 0.00094941
12.25695 1152.3263 1136.632493 735.144776 0.00086781
12.26575 1167.9753 1145.694498 735.479085 0.00085618
12.27456 1088.9203 1082.843523 735.813782 0.00091834
12.28336 984.84296 998.33708 736.148911 0.00101539
12.29216 912.99475 928.350278 736.48436 0.0010953
12.30096 872.82159 879.276939 736.82025 0.00114571
12.30977 846.43622 842.861953 737.156584 0.00118142
12.31857 825.71863 814.327903 737.49329 0.00121107
12.32737 808.59973 793.340345 737.830411 0.00123671
12.33617 794.17682 779.383232 738.167952 0.00125917
12.34497 782.57196 771.453371 738.505955 0.00127784
12.35378 775.09296 768.615025 738.84431 0.00129017
12.36258 770.76337 770.689562 739.183136 0.00129742
12.37138 769.5426 778.452241 739.522438 0.00129947
12.38018 771.36798 792.642501 739.862104 0.0012964
12.38898 775.24139 811.886451 740.202295 0.00128992
12.39779 779.21051 830.292964 740.542897 0.00128335
12.40659 780.35608 837.008631 740.883955 0.00128147
12.41539 778.66541 826.058795 741.225473 0.00128425
12.42419 775.83215 805.566738 741.567455 0.00128894
12.43299 773.02155 785.686495 741.909905 0.00129362
12.44180 769.06415 771.044795 742.252829 0.00130028
12.45060 765.11365 762.096307 742.596269 0.001307
12.45940 762.48877 757.318851 742.940152 0.00131149
12.46820 760.84796 754.933306 743.284521 0.00131432
12.47701 759.19733 753.716991 743.629382 0.00131718
12.48581 757.77441 753.048921 743.974737 0.00131965
12.49461 757.41388 752.666366 744.320592 0.00132028
12.50341 757.38892 752.461394 744.66695 0.00132033
12.51221 757.43945 752.387591 745.013856 0.00132024
12.52102 757.90674 752.421672 745.361195 0.00131942
12.52982 759.03156 752.556202 745.70913 0.00131747
12.53862 759.54071 752.805609 746.057547 0.00131659
12.54742 760.17981 753.226976 746.406449 0.00131548
12.55622 761.36279 753.958331 746.755959 0.00131343
12.56503 762.88983 755.213807 747.105963 0.00131081
12.57383 764.85413 757.246734 747.456545 0.00130744
12.58263 768.13751 760.138908 747.807589 0.00130185
12.59143 772.27557 763.518158 748.159258 0.00129487
12.60023 775.67706 766.27772 748.511437 0.0012892
12.60904 779.22357 766.873542 748.864129 0.00128333
12.61784 778.62848 765.152844 749.217459 0.00128431
12.62664 777.61737 762.607909 749.571311 0.00128598
12.63544 774.25085 760.481616 749.925728 0.00129157
12.64424 770.82019 759.276862 750.280714 0.00129732
12.65305 768.46899 759.025957 750.636314 0.00130129
12.66185 767.74969 759.58539 750.99241 0.00130251
12.67065 767.48206 760.849448 751.349126 0.00130296
12.67945 768.26996 762.870572 751.706468 0.00130163
12.68826 768.72931 765.956172 752.064356 0.00130085
12.69706 769.53406 770.805029 752.422835 0.00129949
12.70586 769.97577 778.688897 752.78191 0.00129874
12.71466 771.63562 790.978051 753.141623 0.00129595
12.72346 773.31287 807.464141 753.501856 0.00129314
12.73227 775.75867 824.520079 753.862734 0.00128906
12.74107 777.35803 834.161267 754.224262 0.00128641
12.74987 777.68408 829.616423 754.586319 0.00128587
12.75867 776.79034 814.955071 754.949072 0.00128735
12.76747 776.34906 799.210288 755.312402 0.00128808
12.77628 777.9173 788.039497 755.676352 0.00128548
12.78508 782.25122 783.438998 756.040925 0.00127836
12.79388 788.56543 784.964459 756.406125 0.00126813
12.80268 796.3623 790.546212 756.771996 0.00125571
12.81148 803.48651 796.671221 757.138415 0.00124458
12.82029 805.23059 798.696712 757.505552 0.00124188
12.82909 803.30511 794.422989 757.873285 0.00124486
12.83789 798.37299 786.713004 758.241657 0.00125255
12.84669 790.75476 779.17723 758.610671 0.00126461
12.85550 784.9422 773.568237 758.98033 0.00127398
12.86430 780.88263 770.13133 759.350635 0.0012806
12.87310 778.15619 768.397718 759.721589 0.00128509
12.88190 776.63934 767.691456 760.093237 0.0012876
12.89070 775.46814 767.52536 760.465453 0.00128954
12.89951 774.70654 767.641075 760.838409 0.00129081
12.90831 775.35089 767.944471 761.21198 0.00128974
12.91711 776.73035 768.443916 761.586209 0.00128745
12.92591 777.18121 769.216533 761.9611 0.0012867
12.93472 778.80469 770.370608 762.336652 0.00128402
12.94352 780.55389 771.965498 762.71291 0.00128114
12.95232 784.37744 773.897345 763.089749 0.0012749
12.96112 788.09052 775.751253 763.467339 0.00126889
12.96992 792.73071 776.818482 763.845554 0.00126146
12.97873 794.84583 776.690894 764.224395 0.00125811
12.98753 794.93402 775.86199 764.603992 0.00125797
12.99633 791.70349 775.012802 764.984218 0.0012631
13.00513 788.72528 774.514833 765.365114 0.00126787
13.01393 785.32959 774.453481 765.746684 0.00127335
13.02274 784.21069 774.755299 766.12897 0.00127517
13.03154 783.51996 775.304577 766.511887 0.00127629
13.04034 782.27808 776.010703 766.895434 0.00127832
13.04914 780.79529 776.825461 767.279744 0.00128075
13.05795 780.87561 777.737268 767.664685 0.00128061
13.06675 781.42639 778.733943 768.0503 0.00127971
13.07555 782.38623 779.825149 768.436592 0.00127814
13.08435 782.6864 781.033926 768.823602 0.00127765
13.09315 783.38788 782.373878 769.211199 0.00127651
13.10196 785.07971 783.869628 769.599515 0.00127376
13.11076 787.07935 785.552395 769.988549 0.00127052
13.11956 788.45215 787.463312 770.378169 0.00126831
13.12836 789.87732 789.654308 770.768551 0.00126602
13.13716 791.14532 792.196119 771.159561 0.00126399
13.14597 792.2478 795.182881 771.551287 0.00126223
13.15477 794.68951 798.745042 771.943595 0.00125835
13.16357 798.95325 803.058823 772.336617 0.00125164
13.17237 804.05096 808.395935 772.730352 0.0012437
13.18117 810.33954 815.212426 773.124665 0.00123405
13.18998 819.3999 824.441711 773.519733 0.00122041
13.19878 832.65729 838.249618 773.915421 0.00120097
13.20758 852.8277 861.656944 774.311771 0.00117257
13.21638 885.58978 904.915015 774.708782 0.00112919
13.22518 944.53125 984.925865 775.106452 0.00105873
13.23399 1060.9596 1121.685588 775.504779 0.00094254
13.24279 1282.0095 1326.658882 775.90376 0.00078003
13.25159 1646.1421 1584.416895 776.303439 0.00060748
13.26039 2011.2346 1832.624911 776.703723 0.00049721
13.26920 2163.7124 1956.424001 777.104655 0.00046217
13.27800 1973.2202 1871.972607 777.506231 0.00050679
13.28680 1610.0743 1639.772858 777.90845 0.00062109
13.29560 1287.9895 1379.411092 778.311307 0.0007764
13.30440 1079.6813 1164.200195 778.714801 0.0009262
13.31321 967.34277 1017.175379 779.118974 0.00103376
13.32201 909.224 930.711405 779.523684 0.00109984
13.33081 877.74286 885.531251 779.929113 0.00113929
13.33961 862.11847 864.238652 780.335118 0.00115993
13.34841 856.62213 856.38532 780.741697 0.00116738
13.35722 859.14307 858.07015 781.148982 0.00116395
13.36602 869.78754 869.82116 781.556833 0.00114971
13.37482 890.84283 894.647473 781.965338 0.00112253
13.38362 922.68042 935.597719 782.374353 0.0010838
13.39243 958.90961 992.795107 782.784059 0.00104285
13.40123 1005.6674 1061.100149 783.194313 0.00099436
13.41003 1055.3704 1125.828464 783.60511 0.00094753
13.41883 1091.3175 1160.665722 784.016585 0.00091632
13.42763 1108.6884 1150.074074 784.428593 0.00090197
13.43644 1090.0255 1107.827607 784.841176 0.00091741
13.44524 1042.7346 1050.784349 785.254329 0.00095902
13.45404 987.29321 987.987914 785.668093 0.00101287
13.46284 935.42889 930.173771 786.082322 0.00106903
13.47164 894.23236 885.189495 786.497152 0.00111828
13.48045 866.02649 854.23821 786.912577 0.0011547
13.48925 846.59662 834.884676 787.328449 0.0011812
13.49805 834.68738 823.667297 787.744952 0.00119805
13.50685 826.62604 817.533526 788.161937 0.00120974
13.51566 821.69019 814.416298 788.579494 0.001217
13.52446 819.24127 813.328611 788.997473 0.00122064
13.53326 819.22626 814.230756 789.41601 0.00122066
13.54206 820.61383 817.803252 789.835099 0.0012186
13.55086 824.97144 825.048037 790.25459 0.00121216
13.55967 831.96173 836.585967 790.674667 0.00120198
13.56847 841.73779 851.599792 791.09518 0.00118802
13.57727 853.76721 866.767509 791.516169 0.00117128
13.58607 865.5733 875.724904 791.937626 0.0011553
13.59487 873.11548 872.757046 792.359545 0.00114532
13.60368 870.74237 859.829588 792.781918 0.00114845
13.61248 860.8606 843.830232 793.204737 0.00116163
13.62128 847.26337 829.780487 793.628043 0.00118027
13.63008 834.59589 819.683235 794.05173 0.00119818
13.63889 824.28412 813.504727 794.47584 0.00121317
13.64769 817.61017 810.236324 794.900363 0.00122308
13.65649 813.03339 808.752702 795.325292 0.00122996
13.66529 810.526 808.248357 795.750618 0.00123377
13.67409 808.89911 808.28393 796.176331 0.00123625
13.68290 808.13184 808.671428 796.602473 0.00123742
13.69170 808.35077 809.368556 797.028889 0.00123709
13.70050 809.79834 810.448287 797.455762 0.00123488
13.70930 811.77411 812.15487 797.88294 0.00123187
13.71810 814.60077 815.035382 798.310412 0.0012276
13.72691 819.13489 820.119096 798.738314 0.0012208
13.73571 825.74249 829.009612 799.166492 0.00121103
13.74451 835.38403 843.629073 799.595033 0.00119705
13.75331 849.80945 865.275425 800.02378 0.00117673
13.76211 871.20532 893.050566 800.452919 0.00114784
13.77092 896.74451 922.240617 800.882294 0.00111514
13.77972 919.63654 944.177125 801.311894 0.00108739
13.78852 929.13055 948.522915 801.741856 0.00107628
13.79732 920.46417 931.919005 802.172021 0.00108641
13.80612 901.57245 903.493707 802.60243 0.00110917
13.81493 882.94672 874.574896 803.03307 0.00113257
13.82373 866.31641 851.436691 803.46398 0.00115431
13.83253 852.59644 835.813852 803.895003 0.00117289
13.84133 841.30066 826.725298 804.326273 0.00118864
13.85014 833.82953 822.26191 804.75778 0.00119929
13.85894 828.94769 820.74356 805.189415 0.00120635
13.86774 826.06653 821.125469 805.621215 0.00121056
13.87654 824.45935 822.807774 806.053168 0.00121292
13.88534 825.37866 825.253106 806.485312 0.00121157
13.89415 826.96545 827.644325 806.917488 0.00120924
13.90295 829.22943 828.814485 807.349832 0.00120594
13.91175 831.28467 828.024144 807.78233 0.00120296
13.92055 832.64099 825.846729 808.214825 0.001201
13.92935 831.55316 823.385036 808.647499 0.00120257
13.93816 829.13477 821.367818 809.080194 0.00120608
13.94696 827.18262 820.064931 809.512946 0.00120892
13.95576 824.74231 819.444862 809.945742 0.0012125
13.96456 822.8996 819.334329 810.37857 0.00121522
13.97337 821.8407 819.548432 810.811466 0.00121678
13.98217 820.7619 819.954537 811.24427 0.00121838
13.99097 819.76581 820.479909 811.677166 0.00121986
13.99977 819.995 821.089923 812.109993 0.00121952
14.00857 820.32837 821.77364 812.542787 0.00121902
14.01738 820.83508 822.530201 812.975534 0.00121827
14.02618 821.15118 823.363987 813.408222 0.0012178
14.03498 821.69574 824.283993 813.840836 0.001217
14.04378 822.11761 825.301639 814.273365 0.00121637
14.05259 822.30267 826.434737 814.705842 0.0012161
14.06139 823.38324 827.706298 815.138106 0.0012145
14.07019 825.57892 829.150062 815.570342 0.00121127
14.07899 828.08752 830.80745 816.002386 0.0012076
14.08779 829.90112 832.748712 816.434275 0.00120496
14.09660 833.1983 835.071464 816.865994 0.00120019
14.10540 837.73291 837.982185 817.29753 0.0011937
14.11420 843.13824 841.908606 817.728916 0.00118605
14.12300 849.84235 847.768074 818.159992 0.00117669
14.13180 858.77588 857.385042 818.590939 0.00116445
14.14061 871.76416 873.893858 819.021596 0.0011471
14.14941 889.70691 901.694971 819.451948 0.00112397
14.15821 917.13116 945.335727 819.882128 0.00109036
14.16701 957.39069 1006.922453 820.311974 0.00104451
14.17581 1016.651 1082.330076 820.74152 0.00098362
14.18462 1087.2108 1157.475393 821.170752 0.00091978
14.19342 1151.1055 1209.461928 821.599703 0.00086873
14.20222 1175.7703 1218.002456 822.028262 0.00085051
14.21102 1157.2328 1179.126242 822.456412 0.00086413
14.21983 1109.5741 1111.076145 822.884285 0.00090125
14.22863 1062.1484 1039.150456 823.31172 0.00094149
14.23743 1018.8159 978.760249 823.738751 0.00098153
14.24623 984.396 934.514625 824.165362 0.00101585
14.25503 957.42365 905.277348 824.591538 0.00104447
14.26384 935.7594 887.791695 825.017263 0.00106865
14.27264 918.86438 878.481915 825.442524 0.0010883
14.28144 907.52661 874.646109 825.867351 0.0011019
14.29024 902.27271 874.887415 826.291585 0.00110831
14.29904 905.12347 879.199926 826.715404 0.00110482
14.30785 919.25574 889.183702 827.138648 0.00108784
14.31665 946.64093 908.327457 827.561348 0.00105637
14.32545 990.8465 941.713883 827.98349 0.00100924
14.33425 1057.3877 994.332027 828.405058 0.00094573
14.34305 1154.652 1067.667651 828.826084 0.00086606
14.35186 1274.8806 1155.501899 829.246409 0.00078439
14.36066 1395.5103 1239.98642 829.666208 0.00071658
14.36946 1462.0369 1291.25919 830.085323 0.00068398
14.37826 1439.7303 1285.821265 830.503786 0.00069457
14.38706 1346.8051 1235.684893 830.92158 0.0007425
14.39587 1243.411 1178.15736 831.338691 0.00080424
14.40467 1178.3959 1148.116143 831.755101 0.00084861
14.41347 1179.7007 1170.11169 832.170797 0.00084767
14.42227 1262.047 1257.005078 832.585808 0.00079236
14.43108 1457.1752 1405.965908 833.000025 0.00068626
14.43988 1731.8939 1592.683579 833.413479 0.0005774
14.44868 1952.7769 1765.332476 833.826155 0.00051209
14.45748 1947.6051 1848.092816 834.238036 0.00051345
14.46628 1740.8131 1790.279807 834.649107 0.00057444
14.47509 1476.1755 1623.489187 835.059352 0.00067743
14.48389 1276.0242 1421.201242 835.468802 0.00078368
14.49269 1152.0127 1237.850358 835.877302 0.00086805
14.50149 1076.2734 1098.122958 836.285022 0.00092913
14.51029 1026.6808 1004.960067 836.691806 0.00097401
14.51910 992.22882 949.098314 837.097639 0.00100783
14.52790 967.83881 917.903381 837.502645 0.00103323
14.53670 949.93604 900.941756 837.906669 0.0010527
14.54550 934.40997 891.709203 838.309741 0.00107019
14.55430 921.85425 887.087227 838.711846 0.00108477
14.56311 910.74829 886.242231 839.112969 0.001098
14.57191 903.4671 889.704789 839.513139 0.00110685
14.58071 897.4361 898.548785 839.912204 0.00111429
14.58951 894.29236 913.693035 840.310331 0.0011182
14.59832 892.25385 934.424089 840.707369 0.00112076
14.60712 892.54724 957.496764 841.103346 0.00112039
14.61592 892.11597 976.162052 841.498249 0.00112093
14.62472 893.54565 981.549174 841.892061 0.00111914
14.63352 897.12634 969.75852 842.284768 0.00111467
14.64233 901.15051 946.360695 842.676354 0.00110969
14.65113 900.85022 919.623114 843.066848 0.00111006
14.65993 897.39569 894.793347 843.456103 0.00111434
14.66873 890.46735 873.803539 843.844281 0.00112301
14.67754 883.16968 856.68031 844.231234 0.00113229
14.68634 878.36035 843.091063 844.616992 0.00113848
14.69514 876.52393 833.812434 845.001539 0.00114087
14.70394 876.79224 831.444573 845.384862 0.00114052
14.71274 880.57336 838.997796 845.766988 0.00113562
14.72155 887.67169 856.591473 846.147774 0.00112654
14.73035 895.60455 881.07501 846.527378 0.00111656
14.73915 902.05719 907.938064 846.905655 0.00110858
14.74795 908.50934 931.578961 847.282636 0.0011007
14.75675 914.56134 945.338263 847.658306 0.00109342
14.76556 917.20178 945.034096 848.03265 0.00109027
14.77436 913.48547 933.639975 848.405656 0.00109471
14.78316 905.73682 918.330102 848.777308 0.00110407
14.79196 898.26819 905.278847 849.147635 0.00111325
14.80077 894.66913 898.549031 849.51654 0.00111773
14.80957 895.66516 900.422306 849.884008 0.00111649
14.81837 903.18195 911.649239 850.250153 0.0011072
14.82717 916.66711 931.245623 850.614835 0.00109091
14.83597 936.66681 955.641764 850.978083 0.00106762
14.84478 960.99878 977.279272 851.339884 0.00104058
14.85358 972.68756 986.504763 851.700265 0.00102808
14.86238 970.24805 979.828139 852.059091 0.00103066
14.87118 952.85846 963.620701 852.416473 0.00104947
14.87998 929.22717 946.936769 852.772396 0.00107616
14.88879 912.09473 935.939292 853.126728 0.00109638
14.89759 901.21289 933.075416 853.479617 0.00110962
14.90639 897.24866 937.358722 853.830931 0.00111452
14.91519 899.17572 944.983047 854.180736 0.00111213
14.92399 905.18945 951.217445 854.528903 0.00110474
14.93280 911.25037 952.916508 854.875538 0.00109739
14.94160 913.75287 948.505491 855.220629 0.00109439
14.95040 909.33014 938.035723 855.564048 0.00109971
14.95920 899.4657 924.439421 855.905939 0.00111177
14.96800 890.4552 911.687302 856.246174 0.00112302
14.97681 884.02289 902.600519 856.584781 0.00113119
14.98561 881.17529 898.78593 856.921749 0.00113485
14.99441 883.06073 901.204076 857.257068 0.00113242
15.00321 890.15271 910.542492 857.590727 0.0011234
15.01201 901.6449 927.295929 857.922715 0.00110908
15.02082 920.08362 951.42101 858.25306 0.00108686
15.02962 947.64825 981.512052 858.581677 0.00105524
15.03842 982.54675 1013.888535 858.908594 0.00101776
15.04722 1015.2933 1043.672189 859.2338 0.00098494
15.05603 1036.3672 1067.296803 859.557287 0.00096491
15.06483 1030.7758 1080.477325 859.879044 0.00097014
15.07363 1008.1983 1076.18431 860.199063 0.00099187
15.08243 976.35162 1051.794525 860.517372 0.00102422
15.09123 945.21484 1014.913841 860.833852 0.00105796
15.10004 920.86737 976.274529 861.14864 0.00108593
15.10884 904.47888 942.993394 861.461619 0.00110561
15.11764 892.63092 917.971403 861.772781 0.00112028
15.12644 884.69135 901.180444 862.082226 0.00113034
15.13524 879.39661 890.981904 862.389838 0.00113714
15.14405 876.10419 885.297795 862.69568 0.00114142
15.15285 873.65253 882.400288 862.999642 0.00114462
15.16165 871.79126 881.222101 863.301853 0.00114706
15.17045 870.85449 881.359415 863.602204 0.0011483
15.17925 871.49744 882.952418 863.900689 0.00114745
15.18806 872.41522 886.53793 864.197402 0.00114624
15.19686 873.19177 892.807185 864.492235 0.00114522
15.20566 875.89612 902.199255 864.785217 0.00114169
15.21446 879.82239 914.376838 865.076342 0.00113659
15.22327 884.08636 927.77091 865.365636 0.00113111
15.23207 889.32446 939.329852 865.652996 0.00112445
15.24087 897.53705 945.08025 865.938515 0.00111416
15.24967 906.22992 942.97495 866.222187 0.00110347
15.25848 915.07544 935.458914 866.503943 0.00109281
15.26728 920.78351 927.331378 866.783811 0.00108603
15.27608 927.60895 922.79617 867.061786 0.00107804
15.28488 936.55255 924.696612 867.337896 0.00106775
15.29368 957.89856 934.41196 867.612043 0.00104395
15.30249 996.08698 951.662234 867.884318 0.00100393
15.31129 1036.4382 974.0893 868.154715 0.00096484
15.32009 1067.9536 996.999536 868.423141 0.00093637
15.32889 1082.0157 1014.456351 868.689714 0.0009242
15.33769 1072.1213 1021.499454 868.954341 0.00093273
15.34650 1050.6205 1015.374078 869.21705 0.00095182
15.35530 1014.1859 997.760539 869.477838 0.00098601
15.36410 980.52295 975.036423 869.736703 0.00101986
15.37290 952.35645 953.647805 869.993674 0.00105003
15.38170 933.87549 937.130923 870.24866 0.00107081
15.39051 920.42474 926.136158 870.501778 0.00108645
15.39931 912.4953 919.262226 870.75294 0.0010959
15.40811 908.58923 914.325318 871.002173 0.00110061
15.41691 908.23651 910.07688 871.249478 0.00110103
15.42572 910.93195 906.818052 871.494854 0.00109778
15.43452 917.73883 905.500873 871.738301 0.00108963
15.44332 931.61737 906.932995 871.979821 0.0010734
15.45212 952.70074 911.420258 872.21944 0.00104965
15.46092 981.65991 918.561424 872.457078 0.00101868
15.46973 1016.4363 927.133049 872.692844 0.00098383
15.47853 1044.9467 935.141735 872.92666 0.00095699
15.48733 1049.5229 940.753188 873.158554 0.00095281
15.49613 1027.8594 944.157388 873.388527 0.0009729
15.50493 994.01727 947.592548 873.616582 0.00100602
15.51374 966.57373 953.013278 873.842748 0.00103458
15.52254 953.89172 960.539509 874.066949 0.00104834
15.53134 952.87775 968.706577 874.289292 0.00104945
15.54014 960.53375 975.305797 874.509703 0.00104109
15.54894 963.53284 977.339929 874.728186 0.00103785
15.55775 957.22699 971.85445 874.94482 0.00104468
15.56655 943.10022 959.095064 875.159535 0.00106033
15.57535 926.61163 942.74266 875.372359 0.0010792
15.58415 910.84985 926.66897 875.583298 0.00109788
15.59296 899.19116 913.197279 875.792379 0.00111211
15.60176 890.06561 903.205336 875.999538 0.00112351
15.61056 884.46643 896.534705 876.20485 0.00113063
15.61936 880.09814 892.486394 876.408321 0.00113624
15.62816 878.33966 890.235248 876.609911 0.00113851
15.63697 876.84613 889.086171 876.809648 0.00114045
15.64577 875.93652 888.570937 877.007541 0.00114164
15.65457 875.58466 888.42502 877.203617 0.00114209
15.66337 875.80737 888.528867 877.397817 0.0011418
15.67217 876.41071 888.852928 877.590216 0.00114102
15.68098 877.83881 889.43471 877.78082 0.00113916
15.68978 879.39178 890.388317 877.969573 0.00113715
15.69858 881.39069 891.936598 878.156569 0.00113457
15.70738 885.44781 894.444734 878.341752 0.00112937
15.71618 890.89795 898.42427 878.525152 0.00112246
15.72499 897.49823 904.474101 878.706778 0.00111421
15.73379 905.4082 913.126584 878.88664 0.00110447
15.74259 916.08008 924.610219 879.064768 0.00109161
15.75139 928.48676 938.506948 879.24111 0.00107702
15.76020 940.422 953.389142 879.415758 0.00106335
15.76900 952.15582 966.895701 879.588662 0.00105025
15.77780 963.63049 976.884444 879.759851 0.00103774
15.78660 970.04974 982.053891 879.929338 0.00103087
15.79540 976.60413 981.032409 880.097134 0.00102396
15.80421 981.7594 973.081808 880.26325 0.00101858
15.81301 985.45349 959.976525 880.427698 0.00101476
15.82181 980.47968 945.155478 880.590507 0.00101991
15.83061 970.76331 931.540177 880.751637 0.00103012
15.83942 955.83978 920.723467 880.911171 0.0010462
15.84822 943.05872 913.17081 881.069068 0.00106038
15.85702 933.43158 908.608078 881.22536 0.00107132
15.86582 926.31976 906.410555 881.38006 0.00107954
15.87462 920.2439 905.917775 881.533182 0.00108667
15.88343 916.86829 906.618909 881.684756 0.00109067
15.89223 916.19946 908.220375 881.834745 0.00109147
15.90103 917.73132 910.649273 881.983231 0.00108964
15.90983 920.909 914.049731 882.130179 0.00108588
15.91863 926.66321 918.818714 882.275604 0.00107914
15.92744 937.4635 925.696994 882.41957 0.00106671
15.93624 951.81592 935.902316 882.562044 0.00105062
15.94504 972.26868 951.326605 882.703056 0.00102852
15.95384 998.05347 974.783253 882.842624 0.00100195
15.96265 1034.8906 1010.265278 882.980779 0.00096629
15.97145 1080.5388 1062.923074 883.117506 0.00092546
15.98025 1143.7382 1138.224302 883.252821 0.00087433
15.98905 1223.3339 1239.977621 883.386788 0.00081744
15.99785 1339.5457 1368.181527 883.519378 0.00074652
16.00665 1493.6455 1517.258351 883.650623 0.0006695
16.01546 1674.2535 1671.791818 883.780541 0.00059728
16.02426 1810.4783 1800.919864 883.909163 0.00055234
16.03306 1834.5654 1862.639211 884.03648 0.00054509
16.04186 1736.9658 1830.717665 884.162524 0.00057572
16.05066 1601.3372 1720.85586 884.287298 0.00062448
16.05947 1472.6084 1573.065472 884.41085 0.00067907
16.06827 1374.8744 1421.143375 884.533199 0.00072734
16.07707 1296.0443 1284.525323 884.654335 0.00077158
16.08588 1228.6768 1172.491488 884.774306 0.00081388
16.09468 1166.6093 1087.597113 884.893104 0.00085719
16.10348 1110.2659 1027.353969 885.010735 0.00090069
16.11228 1062.3577 986.517795 885.127285 0.0009413
16.12108 1020.9744 959.61561 885.242723 0.00097946
16.12989 988.94312 942.124764 885.357093 0.00101118
16.13869 964.05402 930.752848 885.470392 0.00103729
16.14749 946.35107 923.269007 885.582664 0.00105669
16.15629 932.85596 918.258604 885.693906 0.00107198
16.16509 923.47882 914.909755 885.804126 0.00108286
16.17390 915.48517 912.841752 885.913408 0.00109232
16.18270 910.89319 911.975919 886.021723 0.00109782
16.19150 908.54285 912.408003 886.129118 0.00110066
16.20030 908.02325 914.271585 886.23559 0.00110129
16.20911 909.48627 917.577005 886.341185 0.00109952
16.21790 914.52533 922.044324 886.445877 0.00109346
16.22671 921.98413 926.960655 886.549749 0.00108462
16.23551 929.5827 931.090182 886.652809 0.00107575
16.24431 934.0069 932.913225 886.755059 0.00107066
16.25312 932.33881 931.506154 886.856542 0.00107257
16.26192 924.42395 927.252767 886.95726 0.00108175
16.27072 914.92932 921.397969 887.057258 0.00109298
16.27952 906.75366 915.241345 887.156513 0.00110284
16.28832 900.04504 909.715391 887.255107 0.00111106
16.29713 895.75665 905.299756 887.353049 0.00111637
16.30593 892.59869 902.083454 887.450343 0.00112032
16.31473 890.383 899.9129 887.547033 0.00112311
16.32353 888.58936 898.535989 887.643121 0.00112538
16.33233 886.729 897.706082 887.738631 0.00112774
16.34114 885.73834 897.232085 887.83361 0.001129
16.34994 885.45917 896.98629 887.928069 0.00112936
16.35874 885.21979 896.8883 888.022044 0.00112966
16.36754 885.27899 896.883388 888.115538 0.00112959
16.37635 885.87878 896.925256 888.208596 0.00112882
16.38515 886.34784 896.968372 888.301222 0.00112823
16.39395 886.68182 896.978864 888.39344 0.0011278
16.40275 886.68237 896.956564 888.485296 0.0011278
16.41155 886.20044 896.931915 888.576804 0.00112841
16.42036 885.38916 896.940886 888.667999 0.00112945
16.42916 884.72083 897.010723 888.758885 0.0011303
16.43796 885.20905 897.159769 888.849507 0.00112968
16.44676 885.95978 897.396249 888.93985 0.00112872
16.45556 886.99884 897.748763 889.03 0.0011274
16.46437 887.7572 898.245733 889.119941 0.00112643
16.47317 888.35608 898.956865 889.209707 0.00112567
16.48197 889.25781 900.012703 889.299336 0.00112453
16.49077 890.39709 901.628055 889.38883 0.00112309
16.49958 891.31152 904.111905 889.478235 0.00112194
16.50838 892.45154 907.838621 889.567537 0.00112051
16.51718 894.64471 913.167373 889.656821 0.00111776
16.52598 897.68481 920.303169 889.746071 0.00111398
16.53478 900.88068 929.133661 889.835323 0.00111002
16.54359 904.5282 939.05401 889.924613 0.00110555
16.55239 909.47675 948.808256 890.013944 0.00109953
16.56119 915.26581 956.676086 890.103342 0.00109258
16.56999 922.46997 961.374587 890.192853 0.00108405
16.57879 929.1106 962.815646 890.282502 0.0010763
16.58760 935.98633 961.530611 890.372293 0.00106839
16.59640 941.38251 958.038989 890.462261 0.00106227
16.60520 949.711 953.386567 890.552442 0.00105295
16.61400 955.80804 949.665608 890.64284 0.00104624
16.62280 959.97839 949.466766 890.73348 0.00104169
16.63161 961.31079 955.218561 890.824407 0.00104025
16.64041 966.57642 968.837227 890.915646 0.00103458
16.64921 977.74261 991.331867 891.007201 0.00102276
16.65801 999.30615 1022.234369 891.099107 0.00100069
16.66681 1032.3829 1059.002775 891.191399 0.00096863
16.67562 1077.1425 1096.472409 891.284059 0.00092838
16.68442 1125.4624 1126.961349 891.377175 0.00088852
16.69322 1172.8612 1142.88227 891.470729 0.00085262
16.70202 1211.743 1142.111194 891.564766 0.00082526
16.71082 1240.8202 1128.909402 891.659289 0.00080592
16.71963 1247.2048 1108.923207 891.754332 0.00080179
16.72843 1219.5857 1086.277442 891.84993 0.00081995
16.73723 1174.2805 1064.778621 891.946063 0.00085159
16.74603 1128.8832 1048.289247 892.04282 0.00088583
16.75483 1091.3423 1039.004977 892.140181 0.0009163
16.76364 1066.0513 1036.299506 892.23819 0.00093804
16.77244 1050.894 1036.875787 892.33685 0.00095157
16.78124 1040.8385 1035.706594 892.436193 0.00096076
16.79004 1031.1193 1028.439286 892.53623 0.00096982
16.79885 1017.3041 1014.15573 892.637009 0.00098299
16.80765 999.77368 995.282084 892.73855 0.00100023
16.81645 979.55756 975.172854 892.840853 0.00102087
16.82525 961.6886 956.510514 892.943963 0.00103984
16.83405 946.01245 940.940234 893.047879 0.00105707
16.84286 933.95209 929.067478 893.152634 0.00107072
16.85166 925.59979 920.692071 893.258237 0.00108038
16.86046 920.00409 915.159559 893.364734 0.00108695
16.86926 914.92273 911.69472 893.472145 0.00109299
16.87806 911.32373 909.615152 893.580467 0.0010973
16.88687 909.09882 908.417097 893.689745 0.00109999
16.89567 907.8089 907.778852 893.799975 0.00110155
16.90447 906.70801 907.521433 893.911163 0.00110289
16.91327 906.77045 907.570514 894.023392 0.00110281
16.92207 906.92236 907.937535 894.136632 0.00110263
16.93088 906.86743 908.725239 894.250927 0.0011027
16.93968 907.50519 910.160574 894.366271 0.00110192
16.94848 908.95264 912.639697 894.482708 0.00110017
16.95728 911.13666 916.756301 894.600229 0.00109753
16.96608 914.3183 923.267056 894.718841 0.00109371
16.97489 919.11682 932.955736 894.838627 0.001088
16.98369 925.53491 946.35128 894.959551 0.00108046
16.99249 935.21185 963.377785 895.081658 0.00106928
17.00129 948.40045 982.979899 895.204937 0.00105441
17.01010 967.60406 1002.82242 895.329432 0.00103348
17.01890 986.4054 1019.237274 895.455104 0.00101378
17.02770 1003.6443 1028.143738 895.582039 0.00099637
17.03650 1007.6784 1027.298294 895.710238 0.00099238
17.04530 999.67175 1017.845979 895.839688 0.00100033
17.05411 982.31378 1002.8883 895.970434 0.001018
17.06291 965.11224 985.512071 896.102459 0.00103615
17.07171 949.38519 968.255038 896.235793 0.00105331
17.08051 937.89471 952.974355 896.370435 0.00106622
17.08931 928.91821 940.666102 896.506429 0.00107652
17.09812 924.03619 931.555285 896.643787 0.00108221
17.10692 920.83728 925.329773 896.782492 0.00108597
17.11572 919.75171 921.434945 896.922587 0.00108725
17.12452 918.92462 919.283124 897.064052 0.00108823
17.13333 918.8244 918.37337 897.206899 0.00108835
17.14213 918.96558 918.335696 897.35117 0.00108818
17.15093 920.37152 918.943122 897.496861 0.00108652
17.15973 922.44623 920.124412 897.643999 0.00108407
17.16853 925.39783 922.001721 897.792559 0.00108062
17.17734 929.86993 924.969338 897.942585 0.00107542
17.18614 936.49329 929.797407 898.094053 0.00106781
17.19494 946.3808 937.724145 898.246969 0.00105666
17.20374 962.16785 950.473753 898.401377 0.00103932
17.21254 987.17639 970.093089 898.557268 0.00101299
17.22135 1026.7328 998.555871 898.714666 0.00097396
17.23015 1087.7961 1037.135286 898.873542 0.00091929
17.23895 1172.1818 1085.836044 899.03394 0.00085311
17.24775 1271.0323 1142.904775 899.19579 0.00078676
17.25656 1360.9583 1204.467438 899.359209 0.00073478
17.26536 1409.6649 1264.731543 899.524129 0.00070939
17.27416 1416.3252 1318.5136 899.690571 0.00070605
17.28296 1401.4224 1364.014533 899.85856 0.00071356
17.29177 1395.9563 1400.789493 900.028059 0.00071635
17.30057 1418.6141 1424.824848 900.199073 0.00070491
17.30937 1424.8025 1427.637967 900.371641 0.00070185
17.31817 1417.8074 1402.631902 900.545767 0.00070531
17.32697 1376.7021 1352.189572 900.721412 0.00072637
17.33578 1329.1008 1286.920505 900.898597 0.00075239
17.34458 1279.7352 1219.985643 901.077343 0.00078141
17.35338 1236.1768 1162.77068 901.257608 0.00080895
17.36218 1190.0793 1122.755683 901.439393 0.00084028
17.37098 1150.6724 1103.193454 901.622736 0.00086906
17.37979 1132.9832 1103.343668 901.807637 0.00088263
17.38859 1130.3413 1118.956823 901.994051 0.00088469
17.39739 1169.2948 1142.797739 902.181997 0.00085522
17.40619 1209.3265 1165.244984 902.371494 0.00082691
17.41499 1226.4355 1175.935133 902.562449 0.00081537
17.42380 1197.5768 1168.132992 902.75499 0.00083502
17.43260 1162.7335 1143.028461 902.949024 0.00086004
17.44140 1083.5813 1107.988276 903.14459 0.00092287
17.45020 1042.4971 1071.226716 903.341638 0.00095924
17.45901 1006.4662 1038.87348 903.540182 0.00099358
17.46781 987.62 1014.508033 903.740239 0.00101254
17.47661 974.45898 999.452024 903.94171 0.00102621
17.48541 972.31171 993.267224 904.144723 0.00102848
17.49421 973.52924 994.356051 904.349178 0.00102719
17.50302 978.99091 1000.507329 904.555112 0.00102146
17.51182 984.85803 1009.563322 904.762468 0.00101537
17.52062 990.51111 1020.043978 904.971259 0.00100958
17.52942 995.04828 1030.87212 905.18145 0.00100498
17.53822 1000.4891 1040.409133 905.393076 0.00099951
17.54703 1002.6255 1045.894892 905.606127 0.00099738
17.55583 999.34277 1044.27639 905.82054 0.00100066
17.56463 989.74176 1034.36883 906.036351 0.00101036
17.57343 977.10101 1018.036462 906.253497 0.00102344
17.58224 964.21655 998.733504 906.471988 0.00103711
17.59104 953.07196 979.602719 906.691784 0.00104924
17.59984 943.62787 962.725318 906.912917 0.00105974
17.60864 936.74902 949.150493 907.135374 0.00106752
17.61744 931.53375 939.081215 907.359086 0.0010735
17.62625 928.11774 932.136481 907.58406 0.00107745
17.63505 925.30273 927.663287 907.810305 0.00108073
17.64385 923.68463 924.981195 908.037699 0.00108262
17.65265 923.06525 923.540646 908.266377 0.00108335
17.66145 922.40454 922.992843 908.496216 0.00108412
17.67026 921.8028 923.183957 908.727247 0.00108483
17.67906 922.08356 924.114922 908.959398 0.0010845
17.68786 922.98438 925.871141 909.192672 0.00108344
17.69666 924.48425 928.534739 909.427074 0.00108168
17.70546 926.89038 932.088578 909.662475 0.00107888
17.71427 930.25104 936.341073 909.899012 0.00107498
17.72307 934.06012 940.849828 910.136553 0.00107059
17.73187 939.66388 944.910454 910.375129 0.00106421
17.74067 945.07056 947.625226 910.614659 0.00105812
17.74948 947.69489 948.216703 910.855145 0.00105519
17.75828 947.34064 946.514388 911.096534 0.00105559
17.76708 944.2995 943.114444 911.338853 0.00105899
17.77588 939.09766 938.954831 911.582076 0.00106485
17.78468 934.16229 934.871197 911.826119 0.00107048
17.79349 930.62225 931.443369 912.071009 0.00107455
17.80229 927.69562 929.022868 912.316662 0.00107794
17.81109 925.58228 927.786511 912.563076 0.0010804
17.81989 924.74561 927.802902 912.810192 0.00108138
17.82869 924.3656 929.084439 913.058036 0.00108182
17.83750 924.3797 931.580413 913.306578 0.00108181
17.84630 925.23529 935.209874 913.555728 0.00108081
17.85510 926.52954 939.708145 913.805512 0.0010793
17.86390 929.77594 944.628548 914.055839 0.00107553
17.87270 933.74475 949.282614 914.306676 0.00107096
17.88151 936.9361 952.773811 914.558047 0.00106731
17.89031 938.07007 954.268953 914.809888 0.00106602
17.89911 937.01385 953.528248 915.062193 0.00106722
17.90791 936.21857 951.135187 915.31487 0.00106813
17.91672 935.98615 948.091639 915.56794 0.00106839
17.92552 936.97357 945.331254 915.821309 0.00106727
17.93432 938.44232 943.532928 916.074941 0.0010656
17.94312 941.61316 943.094879 916.328855 0.00106201
17.95192 946.58337 944.148467 916.582985 0.00105643
17.96073 953.90515 946.597849 916.837322 0.00104832
17.96953 964.29132 950.196391 917.091769 0.00103703
17.97833 981.13861 954.632506 917.346345 0.00101922
17.98713 1001.5048 959.532718 917.600894 0.0009985
17.99593 1018.6949 964.489894 917.85555 0.00098165
18.00474 1022.3585 969.246739 918.110157 0.00097813
18.01354 1015.3831 974.136692 918.364703 0.00098485
18.02234 1006.364 980.318506 918.619175 0.00099368
18.03114 1002.9827 989.441777 918.873474 0.00099703
18.03995 1008.3224 1003.078973 919.127616 0.00099175
18.04875 1023.9608 1022.309128 919.381442 0.0009766
18.05755 1054.4658 1047.430394 919.635083 0.00094835
18.06635 1101.5956 1077.73363 919.88838 0.00090777
18.07515 1161.6351 1111.295011 920.141318 0.00086086
18.08396 1213.655 1144.668204 920.393882 0.00082396
18.09276 1236.6895 1173.279256 920.645971 0.00080861
18.10156 1240.3551 1193.186944 920.897539 0.00080622
18.11036 1244.2263 1202.307935 921.148599 0.00080371
18.11916 1248.2732 1199.509477 921.399106 0.00080111
18.12797 1234.9376 1184.175206 921.648957 0.00080976
18.13677 1206.3793 1157.999652 921.898134 0.00082893
18.14557 1154.281 1125.946166 922.146621 0.00086634
18.15437 1101.598 1094.282953 922.394312 0.00090777
18.16317 1068.0793 1068.388229 922.641164 0.00093626
18.17198 1043.9453 1052.132945 922.887184 0.0009579
18.18078 1031.8713 1047.976307 923.132324 0.00096911
18.18958 1030.4506 1057.032529 923.376483 0.00097045
18.19838 1038.5875 1078.977459 923.61964 0.00096285
18.20719 1056.8287 1111.806823 923.861776 0.00094623
18.21599 1082.6154 1151.589686 924.102731 0.00092369
18.22479 1114.7355 1192.4697 924.342623 0.00089707
18.23359 1145.1992 1227.010558 924.581294 0.00087321
18.24239 1166.0999 1247.222556 924.818722 0.00085756
18.25120 1168.7947 1246.861153 925.054887 0.00085558
18.26000 1151.204 1225.042001 925.289684 0.00086866
18.26880 1117.3766 1187.198674 925.52312 0.00089495
18.27760 1078.7493 1141.601996 925.75504 0.000927
18.28640 1042.6669 1095.583635 925.985552 0.00095908
18.29521 1013.4749 1054.199266 926.214503 0.0009867
18.30401 990.82703 1020.13414 926.44187 0.00100926
18.31281 974.76233 994.123719 926.667629 0.00102589
18.32161 963.2027 975.523277 926.89168 0.0010382
18.33041 955.73682 962.940848 927.113975 0.00104631
18.33922 949.87903 954.775139 927.334514 0.00105277
18.34802 945.31897 949.601317 927.553248 0.00105784
18.35682 942.29639 946.324768 927.770079 0.00106124
18.36562 939.97986 944.198997 927.984982 0.00106385
18.37443 937.86914 942.760807 928.197934 0.00106625
18.38323 937.13049 941.742782 928.408835 0.00106709
18.39203 935.55566 940.998005 928.61764 0.00106888
18.40083 933.66748 940.446826 928.824346 0.00107105
18.40963 932.88245 940.046571 929.028905 0.00107195
18.41844 932.16772 939.774389 929.231222 0.00107277
18.42724 931.4696 939.620764 929.431273 0.00107357
18.43604 931.33234 939.589112 929.629031 0.00107373
18.44484 931.53644 939.69963 929.824361 0.0010735
18.45364 932.28186 939.997822 930.017348 0.00107264
18.46245 933.54248 940.565188 930.207857 0.00107119
18.47125 934.84851 941.530362 930.395884 0.00106969
18.48005 936.78552 943.073695 930.58134 0.00106748
18.48885 938.57672 945.418165 930.7642 0.00106544
18.49766 942.45282 948.800139 930.944439 0.00106106
18.50646 948.03058 953.409937 931.12193 0.00105482
18.51526 954.06677 959.327338 931.296749 0.00104814
18.52406 961.2652 966.429379 931.468772 0.0010403
18.53286 969.8064 974.316065 931.637992 0.00103113
18.54167 978.00177 982.240761 931.804328 0.00102249
18.55047 986.82745 989.14398 931.967756 0.00101335
18.55927 995.87854 993.94376 932.128214 0.00100414
18.56807 1003.7989 996.029005 932.285697 0.00099622
18.57687 1011.242 995.388857 932.440161 0.00098888
18.58568 1016.9579 992.293995 932.59153 0.00098332
18.59448 1015.3366 987.158386 932.739798 0.0009849
18.60328 1006.3779 980.718461 932.88489 0.00099366
18.61208 994.88654 973.999135 933.026784 0.00100514
18.62088 982.70392 967.978169 933.165426 0.0010176
18.62969 972.44604 963.346231 933.300807 0.00102833
18.63849 964.61047 960.46729 933.43289 0.00103669
18.64729 959.31616 959.416259 933.561607 0.00104241
18.65609 954.35767 960.011496 933.686951 0.00104783
18.66490 951.12073 961.856074 933.808858 0.00105139
18.67370 949.94794 964.368515 933.927294 0.00105269
18.68250 948.97211 966.831559 934.042251 0.00105377
18.69130 948.97974 968.505884 934.153684 0.00105376
18.70010 949.67651 968.902555 934.26157 0.00105299
18.70891 949.34509 968.07743 934.365854 0.00105336
18.71771 948.32172 966.597645 934.466528 0.00105449
18.72651 948.0683 965.213011 934.563541 0.00105478
18.73531 949.55151 964.587951 934.656862 0.00105313
18.74411 951.73749 965.183567 934.746486 0.00105071
18.75292 956.4942 967.210209 934.832375 0.00104548
18.76172 964.99872 970.617417 934.914511 0.00103627
18.77052 976.80933 975.115453 934.992849 0.00102374
18.77932 992.25665 980.235664 935.067385 0.0010078
18.78812 1006.6801 985.338525 935.13806 0.00099336
18.79693 1012.2764 989.6891 935.204895 0.00098787
18.80573 1005.4628 992.719675 935.267858 0.00099457
18.81453 993.06219 994.434038 935.326914 0.00100699
18.82333 981.99103 995.488098 935.382058 0.00101834
18.83214 974.96826 996.816607 935.43326 0.00102567
18.84094 973.10803 999.241831 935.480513 0.00102764
18.84974 976.95538 1003.315781 935.523784 0.00102359
18.85854 984.27649 1009.373874 935.563081 0.00101597
18.86734 994.31274 1017.755627 935.598386 0.00100572
18.87615 1007.4207 1029.030978 935.629679 0.00099263
18.88495 1025.3707 1043.832704 935.656955 0.00097526
18.89375 1048.3645 1062.347529 935.6802 0.00095387
18.90255 1073.6044 1083.859885 935.699406 0.00093144
18.91135 1100.7018 1106.760633 935.71457 0.00090851
18.92016 1128.4905 1128.867068 935.725686 0.00088614
18.92896 1155.8821 1147.634597 935.732749 0.00086514
18.93776 1180.6021 1159.999888 935.735754 0.00084703
18.94656 1192.8303 1162.957301 935.734702 0.00083834
18.95537 1187.7766 1155.467089 935.729592 0.00084191
18.96417 1167.3368 1139.845646 935.720428 0.00085665
18.97297 1140.087 1120.59571 935.707209 0.00087713
18.98177 1114.0757 1102.150063 935.689941 0.00089761
18.99057 1095.7039 1087.504761 935.668628 0.00091266
18.99938 1086.257 1077.857917 935.643281 0.00092059
19.00818 1085.571 1072.687383 935.613904 0.00092117
19.01698 1091.5116 1069.966508 935.580521 0.00091616
19.02578 1097.5885 1066.785005 935.543122 0.00091109
19.03458 1097.141 1060.556975 935.501737 0.00091146
19.04339 1086.8636 1050.376654 935.456376 0.00092008
19.05219 1069.3466 1037.247946 935.407049 0.00093515
19.06099 1049.4305 1023.141934 935.353788 0.0009529
19.06979 1031.3145 1010.066477 935.296599 0.00096964
19.07859 1016.7547 999.753981 935.235531 0.00098352
19.08740 1006.4956 993.595748 935.170567 0.00099355
19.09620 999.73615 992.689479 935.10176 0.00100026
19.10500 998.68134 997.825372 935.029128 0.00100132
19.11380 1004.3598 1009.432133 934.952692 0.00099566
19.12261 1018.0837 1027.417062 934.872499 0.00098224
19.13141 1042.7069 1050.967516 934.788582 0.00095904
19.14021 1084.681 1078.329203 934.700955 0.00092193
19.14901 1136.8909 1106.60264 934.609654 0.00087959
19.15781 1184.5085 1131.70489 934.514735 0.00084423
19.16662 1206.7911 1148.713501 934.416228 0.00082864
19.17542 1193.9789 1153.328857 934.314161 0.00083754
19.18422 1154.9137 1144.158957 934.2086 0.00086587
19.19302 1111.6815 1123.646136 934.09959 0.00089954
19.20182 1072.5203 1096.379134 933.987154 0.00093238
19.21063 1042.5367 1066.867958 933.871337 0.0009592
19.21943 1020.1514 1038.449904 933.752215 0.00098025
19.22823 1005.0313 1013.11312 933.629828 0.00099499
19.23703 993.74207 991.639691 933.504214 0.0010063
19.24583 985.73523 973.955897 933.375487 0.00101447
19.25464 979.49591 959.494459 933.243615 0.00102093
19.26344 974.71436 947.644392 933.108717 0.00102594
19.27224 970.31165 938.01232 932.970823 0.0010306
19.28104 967.56458 930.547476 932.830027 0.00103352
19.28985 965.11017 925.4599 932.686378 0.00103615
19.29865 963.62585 922.941609 932.539924 0.00103775
19.30745 962.52209 922.840812 932.390803 0.00103894
19.31625 961.93848 924.593482 932.238981 0.00103957
19.32505 960.52393 927.452458 932.0846 0.0010411
19.33386 959.58154 930.717032 931.927697 0.00104212
19.34266 958.11127 933.830821 931.768383 0.00104372
19.35146 955.70081 936.418268 931.606719 0.00104635
19.36026 953.14252 938.306417 931.442802 0.00104916
19.36906 951.23859 939.510862 931.276676 0.00105126
19.37787 949.54425 940.164631 931.108422 0.00105314
19.38667 948.49323 940.445379 930.938163 0.0010543
19.39547 947.66016 940.558135 930.765947 0.00105523
19.40427 946.35944 940.692259 930.5919 0.00105668
19.41307 945.93353 941.037919 930.416134 0.00105716
19.42188 945.56982 941.777358 930.238639 0.00105756
19.43068 944.94617 943.081207 930.059589 0.00105826
19.43948 944.9494 945.097922 929.879037 0.00105826
19.44828 945.96301 947.932974 929.697121 0.00105712
19.45709 948.37445 951.618416 929.513898 0.00105444
19.46589 950.50793 956.084505 929.329509 0.00105207
19.47469 953.60938 961.140383 929.144077 0.00104865
19.48349 957.8374 966.478941 928.957599 0.00104402
19.49229 962.99561 971.697321 928.770263 0.00103843
19.50110 969.13647 976.417727 928.582134 0.00103185
19.50990 976.30078 980.537016 928.393361 0.00102427
19.51870 981.56219 984.54985 928.204011 0.00101878
19.52750 984.81665 989.423811 928.014279 0.00101542
19.53630 986.8252 996.268416 927.824169 0.00101335
19.54511 989.78027 1005.902505 927.633816 0.00101033
19.55391 995.27203 1018.583429 927.443377 0.00100475
19.56271 1006.2783 1033.860194 927.252925 0.00099376
19.57151 1023.7668 1050.565668 927.062618 0.00097678
19.58032 1048.1422 1066.922603 926.872533 0.00095407
19.58912 1070.5737 1080.647761 926.682874 0.00093408
19.59792 1085.5265 1089.262307 926.493653 0.00092121
19.60672 1083.2207 1091.010238 926.305013 0.00092317
19.61552 1067.202 1086.01673 926.117119 0.00093703
19.62433 1044.938 1076.29945 925.930052 0.00095699
19.63313 1025.0027 1064.544252 925.743977 0.00097561
19.64193 1009.2814 1053.006535 925.559019 0.0009908
19.65073 1000.6057 1043.047048 925.37526 0.00099939
19.65953 997.08398 1035.090087 925.192849 0.00100292
19.66834 996.96747 1028.703658 925.011892 0.00100304
19.67714 996.99036 1022.959619 924.832556 0.00100302
19.68594 995.07849 1017.11926 924.654928 0.00100495
19.69474 990.46075 1011.16319 924.479178 0.00100963
19.70354 985.00317 1005.701664 924.305432 0.00101523
19.71235 980.64844 1001.486895 924.13378 0.00101973
19.72115 979.63385 999.077302 923.96437 0.00102079
19.72995 982.27417 998.721864 923.797313 0.00101805
19.73875 988.81451 1000.316689 923.632775 0.00101131
19.74756 997.41937 1003.356389 923.470847 0.00100259
19.75636 1003.8695 1006.983465 923.311732 0.00099615
19.76516 1005.6724 1010.271074 923.155448 0.00099436
19.77396 1003.7516 1012.635487 923.002197 0.00099626
19.78276 1003.1321 1013.961991 922.852086 0.00099688
19.79157 1004.7645 1014.279668 922.705228 0.00099526
19.80037 1009.4593 1013.409825 922.561781 0.00099063
19.80917 1012.666 1010.970535 922.421838 0.00098749
19.81797 1011.4913 1006.741157 922.285587 0.00098864
19.82678 1006.1644 1000.951559 922.153057 0.00099387
19.83558 997.24432 994.15232 922.024434 0.00100276
19.84438 987.75385 986.860433 921.899823 0.0010124
19.85318 978.74896 979.416019 921.77933 0.00102171
19.86198 971.8407 972.131517 921.663102 0.00102898
19.87079 966.61682 965.408487 921.551253 0.00103454
19.87959 963.34015 959.68426 921.443873 0.00103805
19.88839 960.53766 955.28258 921.341076 0.00104108
19.89719 959.98145 952.330575 921.242998 0.00104169
19.90599 961.45459 950.749562 921.149735 0.00104009
19.91480 963.24774 950.280496 921.061385 0.00103815
19.92360 965.13318 950.510501 920.97807 0.00103613
19.93240 968.48737 950.908567 920.899891 0.00103254
19.94120 972.31738 950.914787 920.826929 0.00102847
19.95001 974.72827 950.113684 920.759281 0.00102593
19.95881 975 948.407865 920.697055 0.00102564
19.96761 973.07965 946.028459 920.640333 0.00102767
19.97641 967.75897 943.367202 920.589195 0.00103332
19.98521 960.93567 940.81036 920.543744 0.00104065
19.99402 954.84375 938.6577 920.504028 0.00104729
20.00282 949.8941 937.105854 920.470141 0.00105275
20.01162 946.54388 936.246136 920.442145 0.00105648
20.02042 945.58124 936.077186 920.420113 0.00105755
20.02922 945.02344 936.52564 920.404102 0.00105817
20.03803 945.27582 937.473105 920.394167 0.00105789
20.04683 946.68921 938.793737 920.390362 0.00105631
20.05563 949.29761 940.4103 920.39273 0.00105341
20.06443 952.10565 942.326872 920.401313 0.0010503
20.07324 955.55328 944.597274 920.416148 0.00104651
20.08204 958.52228 947.254912 920.43726 0.00104327
20.09084 961.42053 950.243546 920.464674 0.00104013
20.09964 963.16644 953.424895 920.4984 0.00103824
20.10844 963.56555 956.634607 920.538457 0.00103781
20.11725 962.68018 959.748313 920.584849 0.00103877
20.12605 961.05774 962.691416 920.637561 0.00104052
20.13485 959.15051 965.44113 920.696594 0.00104259
20.14365 959.00714 968.099279 920.761914 0.00104275
20.15245 960.61639 970.968272 920.833501 0.001041
20.16126 963.46313 974.435547 920.911309 0.00103792
20.17006 968.16693 978.739176 920.995312 0.00103288
20.17886 977.1178 983.776955 921.085458 0.00102342
20.18766 986.41089 989.01812 921.181666 0.00101378
20.19646 995.57092 993.538156 921.283885 0.00100445
20.20527 1001.1939 996.157534 921.392011 0.00099881
20.21407 1002.5456 995.85182 921.505936 0.00099746
20.22287 995.85547 992.243055 921.625626 0.00100416
20.23167 985.72327 985.807689 921.750915 0.00101448
20.24047 974.41791 977.570273 921.881708 0.00102625
20.24928 963.63165 968.654839 922.01784 0.00103774
20.25808 955.2326 959.989108 922.159196 0.00104687
20.26688 948.86871 952.235215 922.305586 0.00105389
20.27568 944.18176 945.776913 922.456818 0.00105912
20.28449 940.71619 940.762833 922.612797 0.00106302
20.29329 938.40894 937.174713 922.773255 0.00106563
20.30209 936.81097 934.886633 922.938019 0.00106745
20.31089 935.00641 933.742298 923.106826 0.00106951
20.31969 933.73444 933.599106 923.279477 0.00107097
20.32850 933.27142 934.353348 923.455637 0.0010715
20.33730 933.66028 935.9345 923.635138 0.00107105
20.34610 933.5553 938.279133 923.817677 0.00107117
20.35490 934.23035 941.294809 924.002911 0.0010704
20.36370 936.24298 944.822886 924.190567 0.0010681
20.37251 940.54523 948.608157 924.380268 0.00106321
20.38131 946.33435 952.290027 924.571706 0.00105671
20.39011 952.46094 955.402108 924.764425 0.00104991
20.39891 956.64832 957.443266 924.958148 0.00104532
20.40771 957.70807 958.032553 925.152447 0.00104416
20.41652 953.82629 957.074718 925.346853 0.00104841
20.42532 948.36517 954.81615 925.540965 0.00105445
20.43412 943.71039 951.725156 925.734275 0.00105965
20.44292 940.48993 948.317489 925.926298 0.00106328
20.45172 938.10107 945.04551 926.11657 0.00106598
20.46053 936.42761 942.258043 926.304542 0.00106789
20.46933 935.70709 940.194279 926.489682 0.00106871
20.47813 935.71539 938.999385 926.671376 0.0010687
20.48693 936.02295 938.734492 926.849068 0.00106835
20.49574 936.81805 939.393623 927.022096 0.00106744
20.50454 938.18213 940.913602 927.189816 0.00106589
20.51334 940.45099 943.178005 927.351595 0.00106332
20.52214 942.91827 946.015605 927.506719 0.00106054
20.53094 946.26996 949.19931 927.65448 0.00105678
20.53975 949.58386 952.43993 927.794095 0.00105309
20.54855 952.91687 955.406846 927.924819 0.00104941
20.55735 955.19354 957.788177 928.04579 0.00104691
20.56615 957.23755 959.411447 928.156255 0.00104467
20.57495 957.19006 960.325157 928.255298 0.00104472
20.58376 956.09015 960.747496 928.342037 0.00104593
20.59256 953.84338 960.916417 928.415555 0.00104839
20.60136 952.59692 960.961475 928.474879 0.00104976
20.61016 951.81586 960.864719 928.519033 0.00105062
20.61896 950.95868 960.48632 928.546981 0.00105157
20.62777 949.87067 959.648538 928.557687 0.00105277
20.63657 949.69159 958.23548 928.550049 0.00105297
20.64537 949.61884 956.245079 928.522946 0.00105305
20.65417 949.18378 953.758744 928.475209 0.00105354
20.66298 947.58759 950.914905 928.405652 0.00105531
20.67178 946.16534 947.895553 928.313047 0.0010569
20.68058 944.70911 944.888888 928.1961 0.00105853
20.68938 943.45966 942.054349 928.053489 0.00105993
20.69818 941.7522 939.496456 927.883895 0.00106185
20.70699 941.61035 937.271726 927.685908 0.00106201
20.71579 941.47247 935.393147 927.458067 0.00106217
20.72459 941.1839 933.8396 927.198947 0.00106249
20.73339 940.50403 932.561125 926.907036 0.00106326
20.74219 940.26935 931.49138 926.580703 0.00106353
20.75100 940.00543 930.558517 926.218328 0.00106382
20.75980 939.6897 929.69681 925.818335 0.00106418
20.76860 939.66699 928.858948 925.378982 0.00106421
20.77741 940.72614 928.017624 924.89846 0.00106301
20.78620 942.04108 927.161617 924.375204 0
20.79501 943.91736 0 0 0
20.80381 945.79974 0 0 0
20.81261 947.57037 0 0 0
20.82141 950.06128 0 0 0
20.83022 952.44 0 0 0
20.83902 955.03845 0 0 0
20.84782 958.25189 0 0 0
20.85662 962.50641 0 0 0
20.86542 966.49915 0 0 0
20.87423 970.66272 0 0 0
20.88303 975.71838 0 0 0
20.89183 981.00916 0 0 0
20.90063 986.14868 0 0 0
20.90943 990.35919 0 0 0
20.91824 994.03851 0 0 0
20.92704 999.15375 0 0 0
20.93584 1004.5732 0 0 0
20.94465 1009.2979 0 0 0
20.95345 1009.8329 0 0 0
20.96225 1005.1223 0 0 0
20.97105 997.0838 0 0 0
20.97985 987.77161 0 0 0
20.98866 979.26648 0 0 0
20.99746 971.49164 0 0 0
21.00626 965.39435 0 0 0
21.01506 960.76831 0 0 0
21.02386 956.29156 0 0 0
21.03267 954.12103 0 0 0
21.04147 954.61768 0 0 0
21.05027 956.67371 0 0 0
21.05907 961.57428 0 0 0
21.06788 972.7663 0 0 0
21.07668 990.80011 0 0 0
21.08548 1016.7421 0 0 0
21.09428 1051.7333 0 0 0
21.10308 1102.2102 0 0 0
21.11189 1163.9679 0 0 0
21.12069 1229.6392 0 0 0
21.12949 1275.0637 0 0 0
21.13829 1283.5775 0 0 0
21.14709 1241.9299 0 0 0
21.15590 1180.484 0 0 0
21.16470 1117.775 0 0 0
21.17350 1066.8853 0 0 0
21.18230 1028.8518 0 0 0
21.19110 1004.2929 0 0 0
21.19991 987.74109 0 0 0
21.20871 976.45648 0 0 0
21.21751 967.50085 0 0 0
21.22631 961.48596 0 0 0
21.23512 956.58832 0 0 0
21.24392 952.87805 0 0 0
21.25272 949.85822 0 0 0
21.26152 947.85846 0 0 0
21.27032 947.01929 0 0 0
21.27913 947.26801 0 0 0
21.28793 948.17151 0 0 0
21.29673 950.2901 0 0 0
21.30553 952.12512 0 0 0
21.31433 953.22192 0 0 0
21.32314 954.74164 0 0 0
21.33194 957.59216 0 0 0
21.34074 960.92755 0 0 0
21.34954 965.30902 0 0 0
21.35834 969.23499 0 0 0
21.36715 973.17078 0 0 0
21.37595 976.9353 0 0 0
21.38475 980.22498 0 0 0
21.39355 982.30176 0 0 0
21.40236 982.31616 0 0 0
21.41116 981.83441 0 0 0
21.41996 981.80975 0 0 0
21.42876 981.35742 0 0 0
21.43756 981.3222 0 0 0
21.44637 981.17487 0 0 0
21.45517 980.44019 0 0 0
21.46397 980.41766 0 0 0
21.47277 981.31305 0 0 0
21.48157 983.71454 0 0 0
21.49038 987.12958 0 0 0
21.49918 990.96844 0 0 0
21.50798 993.83118 0 0 0
21.51678 995.33575 0 0 0
21.52558 993.15082 0 0 0
21.53439 987.60565 0 0 0
21.54319 980.38806 0 0 0
21.55199 973.21063 0 0 0
21.56079 965.83423 0 0 0
21.56959 959.31116 0 0 0
21.57840 954.51703 0 0 0
21.58720 951.63037 0 0 0
21.59600 948.56952 0 0 0
21.60480 946.24786 0 0 0
21.61360 945.74854 0 0 0
21.62241 947.16486 0 0 0
21.63121 948.88141 0 0 0
21.64001 950.35547 0 0 0
21.64881 950.94366 0 0 0
21.65762 949.84357 0 0 0
21.66642 949.10205 0 0 0
21.67522 949.08252 0 0 0
21.68402 952.00024 0 0 0
21.69282 955.72839 0 0 0
21.70163 963.21783 0 0 0
21.71043 972.20276 0 0 0
21.71923 993.59167 0 0 0
21.72803 1013.4178 0 0 0
21.73683 1053.0542 0 0 0
21.74564 1071.5724 0 0 0
21.75444 1143.5485 0 0 0
21.76324 1141.2139 0 0 0
21.77204 1156.1294 0 0 0
21.78085 1136.3044 0 0 0
21.78965 1106.6382 0 0 0
21.79845 1099.9371 0 0 0
21.80725 1119.4536 0 0 0
21.81605 1141.2213 0 0 0
21.82486 1232.1372 0 0 0
21.83366 1254.1538 0 0 0
21.84246 1289.4362 0 0 0
21.85126 1270.1589 0 0 0
21.86006 1150.4868 0 0 0
21.86887 1114.8947 0 0 0
21.87767 1050.6548 0 0 0
21.88647 1030.2454 0 0 0
21.89527 1009.1415 0 0 0
21.90408 997.11224 0 0 0
21.91288 987.38544 0 0 0
21.92168 981.54761 0 0 0
21.93048 978.39087 0 0 0
21.93928 977.75391 0 0 0
21.94809 977.07898 0 0 0
21.95689 975.99829 0 0 0
21.96569 974.44672 0 0 0
21.97449 971.35071 0 0 0
21.98329 967.86261 0 0 0
21.99210 962.95862 0 0 0
22.00090 957.39886 0 0 0
22.00970 952.70715 0 0 0
22.01850 949.75372 0 0 0
22.02731 947.54138 0 0 0
22.03611 945.34338 0 0 0
22.04491 943.76483 0 0 0
22.05371 942.31116 0 0 0
22.06251 942.19202 0 0 0
22.07132 944.2016 0 0 0
22.08012 946.86298 0 0 0
22.08892 949.51282 0 0 0
22.09772 954.1745 0 0 0
22.10652 959.70166 0 0 0
22.11533 965.56348 0 0 0
22.12413 973.50098 0 0 0
22.13293 981.16962 0 0 0
22.14173 985.08356 0 0 0
22.15054 985.85205 0 0 0
22.15934 982.56519 0 0 0
22.16814 976.64929 0 0 0
22.17694 969.43878 0 0 0
22.18574 962.43646 0 0 0
22.19455 957.94904 0 0 0
22.20335 955.30225 0 0 0
22.21215 953.6778 0 0 0
22.22095 952.85956 0 0 0
22.22975 952.32819 0 0 0
22.23856 951.89948 0 0 0
22.24736 951.83484 0 0 0
22.25616 951.61884 0 0 0
22.26496 950.97791 0 0 0
22.27376 949.46881 0 0 0
22.28257 948.49615 0 0 0
22.29137 948.09222 0 0 0
22.30017 946.7749 0 0 0
22.30897 945.19818 0 0 0
22.31778 944.3219 0 0 0
22.32658 944.38202 0 0 0
22.33538 945.0863 0 0 0
22.34418 946.80005 0 0 0
22.35298 952.00323 0 0 0
22.36179 960.17041 0 0 0
22.37059 971.15253 0 0 0
22.37939 986.32037 0 0 0
22.38819 1007.7665 0 0 0
22.39699 1033.4097 0 0 0
22.40580 1060.001 0 0 0
22.41460 1077.3506 0 0 0
22.42340 1076.0487 0 0 0
22.43220 1062.0162 0 0 0
22.44100 1040.3292 0 0 0
22.44981 1021.4759 0 0 0
22.45861 1010.4658 0 0 0
22.46741 1006.2815 0 0 0
22.47621 1008.6867 0 0 0
22.48502 1018.787 0 0 0
22.49382 1035.8959 0 0 0
22.50262 1058.1028 0 0 0
22.51142 1076.5149 0 0 0
22.52022 1079.2333 0 0 0
22.52903 1066.5674 0 0 0
22.53783 1042.4778 0 0 0
22.54663 1015.3969 0 0 0
22.55543 995.56793 0 0 0
22.56423 980.69287 0 0 0
22.57304 970.86438 0 0 0
22.58184 964.14044 0 0 0
22.59064 959.87299 0 0 0
22.59944 958.16943 0 0 0
22.60825 958.21283 0 0 0
22.61705 960.14594 0 0 0
22.62585 963.29034 0 0 0
22.63465 965.08264 0 0 0
22.64345 965.88232 0 0 0
22.65226 965.60376 0 0 0
22.66106 963.53687 0 0 0
22.66986 960.61627 0 0 0
22.67866 957.24475 0 0 0
22.68746 954.86603 0 0 0
22.69627 953.76849 0 0 0
22.70507 953.63135 0 0 0
22.71387 954.60413 0 0 0
22.72267 956.45227 0 0 0
22.73147 959.20013 0 0 0
22.74028 962.43195 0 0 0
22.74908 964.55609 0 0 0
22.75788 965.20679 0 0 0
22.76668 962.62836 0 0 0
22.77549 957.94763 0 0 0
22.78429 952.01794 0 0 0
22.79309 946.15283 0 0 0
22.80189 940.87988 0 0 0
22.81069 937.2179 0 0 0
22.81950 933.77008 0 0 0
22.82830 932.16193 0 0 0
22.83710 931.33563 0 0 0
22.84590 931.1001 0 0 0
22.85470 931.58789 0 0 0
22.86351 932.21826 0 0 0
22.87231 933.58807 0 0 0
22.88111 934.87427 0 0 0
22.88991 935.82007 0 0 0
22.89871 938.95209 0 0 0
22.90752 942.77319 0 0 0
22.91632 946.53735 0 0 0
22.92512 949.14063 0 0 0
22.93392 951.21857 0 0 0
22.94273 953.09076 0 0 0
22.95153 953.91473 0 0 0
22.96033 953.8573 0 0 0
22.96913 954.09491 0 0 0
22.97793 954.77661 0 0 0
22.98674 955.09125 0 0 0
22.99554 956.9776 0 0 0
23.00434 961.28162 0 0 0
23.01314 967.13446 0 0 0
23.02194 974.12903 0 0 0
23.03075 984.44293 0 0 0
23.03955 997.0033 0 0 0
23.04835 1013.3792 0 0 0
23.05715 1035.792 0 0 0
23.06596 1064.1769 0 0 0
23.07476 1094.2244 0 0 0
23.08356 1115.5977 0 0 0
23.09236 1118.2687 0 0 0
23.10116 1100.7792 0 0 0
23.10997 1069.6249 0 0 0
23.11877 1035.687 0 0 0
23.12757 1007.0699 0 0 0
23.13637 986.4892 0 0 0
23.14517 973.57263 0 0 0
23.15398 965.68774 0 0 0
23.16278 961.22461 0 0 0
23.17158 960.28271 0 0 0
23.18038 961.73761 0 0 0
23.18918 963.04871 0 0 0
23.19799 963.32672 0 0 0
23.20679 961.46991 0 0 0
23.21559 958.46631 0 0 0
23.22439 954.59467 0 0 0
23.23320 950.08612 0 0 0
23.24200 946.26788 0 0 0
23.25080 943.43518 0 0 0
23.25960 941.25787 0 0 0
23.26840 940.86945 0 0 0
23.27721 942.41211 0 0 0
23.28601 943.96625 0 0 0
23.29481 944.7113 0 0 0
23.30361 943.7431 0 0 0
23.31241 942.09912 0 0 0
23.32122 940.08746 0 0 0
23.33002 937.2005 0 0 0
23.33882 934.12689 0 0 0
23.34762 932.34216 0 0 0
23.35642 931.28894 0 0 0
23.36523 929.57446 0 0 0
23.37403 927.83923 0 0 0
23.38283 926.54877 0 0 0
23.39163 924.69489 0 0 0
23.40044 923.60541 0 0 0
23.40924 922.63007 0 0 0
23.41804 921.26752 0 0 0
23.42684 920.72479 0 0 0
23.43564 920.3797 0 0 0
23.44445 920.2359 0 0 0
23.45325 920.05347 0 0 0
23.46205 919.83118 0 0 0
23.47085 920.03186 0 0 0
23.47965 921.11859 0 0 0
23.48846 922.18549 0 0 0
23.49726 923.35303 0 0 0
23.50606 924.09979 0 0 0
23.51486 925.35455 0 0 0
23.52367 927.74036 0 0 0
23.53247 930.62592 0 0 0
23.54127 932.94562 0 0 0
23.55007 934.3446 0 0 0
23.55887 935.12207 0 0 0
23.56768 934.49872 0 0 0
23.57648 933.08832 0 0 0
23.58528 932.8222 0 0 0
23.59408 935.06329 0 0 0
23.60288 939.24139 0 0 0
23.61169 943.81622 0 0 0
23.62049 948.31317 0 0 0
23.62929 952.37531 0 0 0
23.63809 954.02081 0 0 0
23.64689 952.9917 0 0 0
23.65570 951.74078 0 0 0
23.66450 951.0578 0 0 0
23.67330 950.07129 0 0 0
23.68210 950.11865 0 0 0
23.69091 952.29913 0 0 0
23.69971 955.88525 0 0 0
23.70851 959.66339 0 0 0
23.71731 963.12286 0 0 0
23.72611 967.85071 0 0 0
23.73492 974.09644 0 0 0
23.74372 980.659 0 0 0
23.75252 988.41113 0 0 0
23.76132 996.07196 0 0 0
23.77012 1002.7779 0 0 0
23.77893 1006.9039 0 0 0
23.78773 1007.4561 0 0 0
23.79653 1004.3222 0 0 0
23.80533 994.7937 0 0 0
23.81414 982.35242 0 0 0
23.82294 970.87524 0 0 0
23.83174 960.64893 0 0 0
23.84054 952.03021 0 0 0
23.84934 946.36041 0 0 0
23.85815 942.71655 0 0 0
23.86695 939.71057 0 0 0
23.87575 938.18158 0 0 0
23.88455 938.93719 0 0 0
23.89335 941.7724 0 0 0
23.90216 945.44458 0 0 0
23.91096 950.01526 0 0 0
23.91976 953.36169 0 0 0
23.92856 954.42725 0 0 0
23.93736 953.27222 0 0 0
23.94617 952.28076 0 0 0
23.95497 951.89838 0 0 0
23.96377 951.21252 0 0 0
23.97257 952.11469 0 0 0
23.98137 954.02795 0 0 0
23.99018 954.37231 0 0 0
23.99898 951.29559 0 0 0
24.00778 947.79395 0 0 0
24.01658 944.85974 0 0 0
24.02539 942.53674 0 0 0
24.03419 938.83667 0 0 0
24.04299 935.33997 0 0 0
24.05179 933.02179 0 0 0
24.06059 931.51929 0 0 0
24.06940 929.23181 0 0 0
24.07820 927.16638 0 0 0
24.08700 926.04498 0 0 0
24.09580 924.87994 0 0 0
24.10460 924.00305 0 0 0
24.11341 923.05475 0 0 0
24.12221 922.01624 0 0 0
24.13101 922.05847 0 0 0
24.13981 922.3576 0 0 0
24.14862 922.27344 0 0 0
24.15742 921.52747 0 0 0
24.16622 920.56635 0 0 0
24.17502 919.96356 0 0 0
24.18382 920.31915 0 0 0
24.19263 921.86047 0 0 0
24.20143 923.20599 0 0 0
24.21023 923.08362 0 0 0
24.21903 922.91382 0 0 0
24.22783 924.14752 0 0 0
24.23664 926.11127 0 0 0
24.24544 928.64526 0 0 0
24.25424 932.45441 0 0 0
24.26304 936.09943 0 0 0
24.27184 938.31946 0 0 0
24.28065 940.03717 0 0 0
24.28945 941.10657 0 0 0
24.29825 941.95801 0 0 0
24.30705 941.52887 0 0 0
24.31586 940.35126 0 0 0
24.32466 939.37286 0 0 0
24.33346 937.33594 0 0 0
24.34226 936.61572 0 0 0
24.35106 937.3714 0 0 0
24.35987 938.75732 0 0 0
24.36867 941.50354 0 0 0
24.37747 944.30334 0 0 0
24.38627 947.63214 0 0 0
24.39507 951.24115 0 0 0
24.40388 955.9837 0 0 0
24.41268 962.30963 0 0 0
24.42148 969.17566 0 0 0
24.43029 975.40253 0 0 0
24.43908 981.29608 0 0 0
24.44789 984.96478 0 0 0
24.45669 985.93817 0 0 0
24.46549 987.84937 0 0 0
24.47430 990.5401 0 0 0
24.48310 999.6369 0 0 0
24.49190 1011.6635 0 0 0
24.50070 1031.228 0 0 0
24.50950 1052.6046 0 0 0
24.51831 1080.6903 0 0 0
24.52711 1106.4398 0 0 0
24.53591 1122.016 0 0 0
24.54471 1122.1555 0 0 0
24.55351 1101.5024 0 0 0
24.56232 1071.9875 0 0 0
24.57112 1044.5045 0 0 0
24.57992 1023.7489 0 0 0
24.58872 1011.3021 0 0 0
24.59753 1005.7318 0 0 0
24.60633 1002.3857 0 0 0
24.61513 1001.4567 0 0 0
24.62393 1000.7632 0 0 0
24.63273 1000.9584 0 0 0
24.64154 999.2771 0 0 0
24.65034 996.30457 0 0 0
24.65914 991.50177 0 0 0
24.66794 986.91309 0 0 0
24.67674 981.32782 0 0 0
24.68555 975.36896 0 0 0
24.69435 969.72021 0 0 0
24.70315 962.86975 0 0 0
24.71195 957.99347 0 0 0
24.72076 955.7074 0 0 0
24.72956 955.14758 0 0 0
24.73836 954.46576 0 0 0
24.74716 956.39954 0 0 0
24.75596 959.15564 0 0 0
24.76477 963.52991 0 0 0
24.77357 969.13147 0 0 0
24.78237 975.03503 0 0 0
24.79117 980.08466 0 0 0
24.79997 985.99237 0 0 0
24.80878 995.27753 0 0 0
24.81758 1006.8195 0 0 0
24.82638 1021.7904 0 0 0
24.83518 1041.5868 0 0 0
24.84398 1065.9385 0 0 0
24.85279 1091.5325 0 0 0
24.86159 1116.9272 0 0 0
24.87039 1139.5446 0 0 0
24.87919 1150.1572 0 0 0
24.88800 1140.2372 0 0 0
24.89680 1114.0294 0 0 0
24.90560 1079.8916 0 0 0
24.91440 1047.1713 0 0 0
24.92320 1018.7573 0 0 0
24.93201 996.51477 0 0 0
24.94081 980.82922 0 0 0
24.94961 968.33441 0 0 0
24.95841 959.91064 0 0 0
24.96721 953.54034 0 0 0
24.97602 948.70099 0 0 0
24.98482 945.22534 0 0 0
24.99362 943.02411 0 0 0
25.00242 940.29156 0 0 0
25.01122 937.51746 0 0 0
25.02003 937.2655 0 0 0
25.02883 937.97388 0 0 0
25.03763 940.06702 0 0 0
25.04643 943.83246 0 0 0
25.05523 948.75043 0 0 0
25.06404 956.95227 0 0 0
25.07284 969.63611 0 0 0
25.08164 985.58691 0 0 0
25.09044 1003.7166 0 0 0
25.09924 1025.2919 0 0 0
25.10805 1052.1018 0 0 0
25.11685 1081.7135 0 0 0
25.12565 1111.9841 0 0 0
25.13445 1136.0586 0 0 0
25.14325 1142.9244 0 0 0
25.15206 1131.5287 0 0 0
25.16086 1106.4514 0 0 0
25.16966 1075.2621 0 0 0
25.17846 1046.1899 0 0 0
25.18727 1020.5701 0 0 0
25.19607 1000.8086 0 0 0
25.20487 983.97845 0 0 0
25.21367 969.55328 0 0 0
25.22247 958.06494 0 0 0
25.23128 949.44745 0 0 0
25.24008 941.74335 0 0 0
25.24888 936.64825 0 0 0
25.25768 934.31061 0 0 0
25.26648 933.37854 0 0 0
25.27529 933.15179 0 0 0
25.28409 933.44122 0 0 0
25.29289 935.72925 0 0 0
25.30169 938.86542 0 0 0
25.31049 942.41901 0 0 0
25.31930 945.90717 0 0 0
25.32810 947.6803 0 0 0
25.33690 948.60809 0 0 0
25.34570 949.15027 0 0 0
25.35451 949.65985 0 0 0
25.36331 948.04413 0 0 0
25.37211 945.57556 0 0 0
25.38091 943.41119 0 0 0
25.38971 942.32288 0 0 0
25.39852 941.21381 0 0 0
25.40732 940.74835 0 0 0
25.41612 941.84003 0 0 0
25.42492 944.54773 0 0 0
25.43372 948.68896 0 0 0
25.44253 952.5061 0 0 0
25.45133 953.73901 0 0 0
25.46013 950.16797 0 0 0
25.46893 944.62128 0 0 0
25.47774 939.06006 0 0 0
25.48654 934.99683 0 0 0
25.49534 931.01666 0 0 0
25.50414 928.03925 0 0 0
25.51294 926.08948 0 0 0
25.52175 924.79742 0 0 0
25.53055 924.40302 0 0 0
25.53935 924.38251 0 0 0
25.54815 924.92749 0 0 0
25.55695 926.27502 0 0 0
25.56576 928.75183 0 0 0
25.57456 931.91803 0 0 0
25.58336 935.98224 0 0 0
25.59216 941.26813 0 0 0
25.60096 947.96454 0 0 0
25.60977 955.0498 0 0 0
25.61857 961.63788 0 0 0
25.62737 967.22803 0 0 0
25.63618 969.79077 0 0 0
25.64498 967.65259 0 0 0
25.65378 963.19727 0 0 0
25.66258 958.0061 0 0 0
25.67138 952.37921 0 0 0
25.68019 948.13977 0 0 0
25.68899 945.25977 0 0 0
25.69779 942.81451 0 0 0
25.70659 941.11572 0 0 0
25.71539 940.12988 0 0 0
25.72420 938.37891 0 0 0
25.73300 938.33228 0 0 0
25.74180 938.70111 0 0 0
25.75060 937.15649 0 0 0
25.75940 934.99811 0 0 0
25.76821 932.62518 0 0 0
25.77701 929.95081 0 0 0
25.78581 927.46588 0 0 0
25.79461 926.05255 0 0 0
25.80342 925.88379 0 0 0
25.81222 926.75012 0 0 0
25.82102 927.15619 0 0 0
25.82982 926.07782 0 0 0
25.83862 923.03809 0 0 0
25.84743 920.1098 0 0 0
25.85623 917.88171 0 0 0
25.86503 914.70453 0 0 0
25.87383 912.52747 0 0 0
25.88263 910.36945 0 0 0
25.89144 908.99573 0 0 0
25.90024 907.60101 0 0 0
25.90904 905.1618 0 0 0
25.91784 903.49133 0 0 0
25.92664 903.32257 0 0 0
25.93545 902.70581 0 0 0
25.94425 901.10468 0 0 0
25.95305 900.13019 0 0 0
25.96185 899.44751 0 0 0
25.97066 897.8053 0 0 0
25.97946 896.34271 0 0 0
25.98826 896.0672 0 0 0
25.99706 895.6825 0 0 0
26.00586 894.69519 0 0 0
26.01467 893.42914 0 0 0
26.02347 892.72998 0 0 0
26.03227 893.45245 0 0 0
26.04107 894.16675 0 0 0
26.04987 894.28607 0 0 0
26.05868 894.28857 0 0 0
26.06748 894.63159 0 0 0
26.07628 895.61444 0 0 0
26.08508 896.08936 0 0 0
26.09388 897.23413 0 0 0
26.10269 899.41577 0 0 0
26.11149 901.30969 0 0 0
26.12029 902.5022 0 0 0
26.12909 904.66083 0 0 0
26.13790 907.14465 0 0 0
26.14670 908.80261 0 0 0
26.15550 909.09454 0 0 0
26.16430 906.67731 0 0 0
26.17310 904.16602 0 0 0
26.18191 902.57947 0 0 0
26.19071 901.80426 0 0 0
26.19951 900.909 0 0 0
26.20831 900.22522 0 0 0
26.21711 900.06329 0 0 0
26.22592 900.34058 0 0 0
26.23472 901.25598 0 0 0
26.24352 902.13165 0 0 0
26.25232 904.36334 0 0 0
26.26113 907.6601 0 0 0
26.26993 910.7749 0 0 0
26.27873 914.77051 0 0 0
26.28753 919.9679 0 0 0
26.29633 925.40607 0 0 0
26.30514 929.27026 0 0 0
26.31394 932.35248 0 0 0
26.32274 935.03278 0 0 0
26.33154 935.17163 0 0 0
26.34034 934.01697 0 0 0
26.34915 932.62738 0 0 0
26.35795 931.50342 0 0 0
26.36675 931.534 0 0 0
26.37555 932.12555 0 0 0
26.38435 933.79926 0 0 0
26.39316 935.22107 0 0 0
26.40196 933.75439 0 0 0
26.41076 930.29675 0 0 0
26.41956 927.0249 0 0 0
26.42837 923.81592 0 0 0
26.43717 921.64526 0 0 0
26.44597 920.23535 0 0 0
26.45477 918.56616 0 0 0
26.46357 916.50775 0 0 0
26.47238 914.92499 0 0 0
26.48118 914.06146 0 0 0
26.48998 913.07605 0 0 0
26.49878 912.18262 0 0 0
26.50758 911.1604 0 0 0
26.51639 910.40771 0 0 0
26.52519 910.07422 0 0 0
26.53399 909.54565 0 0 0
26.54279 907.8725 0 0 0
26.55159 906.61639 0 0 0
26.56040 906.02673 0 0 0
26.56920 904.69159 0 0 0
26.57800 902.48541 0 0 0
26.58680 900.90216 0 0 0
26.59561 899.85291 0 0 0
26.60441 898.7182 0 0 0
26.61321 898.23419 0 0 0
26.62201 898.27466 0 0 0
26.63081 898.57056 0 0 0
26.63962 898.74078 0 0 0
26.64842 900.02649 0 0 0
26.65722 902.01245 0 0 0
26.66602 903.77087 0 0 0
26.67482 906.02954 0 0 0
26.68363 908.33258 0 0 0
26.69243 911.36365 0 0 0
26.70123 914.98688 0 0 0
26.71003 919.00311 0 0 0
26.71884 923.06409 0 0 0
26.72764 927.47803 0 0 0
26.73644 933.53192 0 0 0
26.74524 940.68091 0 0 0
26.75404 949.09625 0 0 0
26.76285 958.43536 0 0 0
26.77165 966.71362 0 0 0
26.78045 972.03186 0 0 0
26.78925 975.0014 0 0 0
26.79805 978.81372 0 0 0
26.80686 984.47266 0 0 0
26.81566 987.46722 0 0 0
26.82446 984.77515 0 0 0
26.83326 976.6308 0 0 0
26.84206 963.85376 0 0 0
26.85087 949.49561 0 0 0
26.85967 936.51965 0 0 0
26.86847 927.38489 0 0 0
26.87727 921.67035 0 0 0
26.88608 916.20081 0 0 0
26.89488 912.21344 0 0 0
26.90368 909.79132 0 0 0
26.91248 906.28705 0 0 0
26.92128 903.65076 0 0 0
26.93009 902.77936 0 0 0
26.93889 902.19092 0 0 0
26.94769 901.57141 0 0 0
26.95649 900.35944 0 0 0
26.96529 899.41541 0 0 0
26.97410 900.26526 0 0 0
26.98290 900.90302 0 0 0
26.99170 901.01904 0 0 0
27.00050 900.21045 0 0 0
27.00930 899.15887 0 0 0
27.01811 899.94031 0 0 0
27.02691 900.49774 0 0 0
27.03571 901.64954 0 0 0
27.04451 902.00769 0 0 0
27.05332 902.12415 0 0 0
27.06212 902.90857 0 0 0
27.07092 902.95746 0 0 0
27.07972 903.11328 0 0 0
27.08852 902.6521 0 0 0
27.09733 902.54303 0 0 0
27.10613 903.45612 0 0 0
27.11493 905.27979 0 0 0
27.12373 905.92688 0 0 0
27.13253 906.74493 0 0 0
27.14134 907.56152 0 0 0
27.15014 907.87646 0 0 0
27.15894 907.67554 0 0 0
27.16774 906.94604 0 0 0
27.17655 908.10516 0 0 0
27.18535 908.0083 0 0 0
27.19415 906.27246 0 0 0
27.20295 905.89624 0 0 0
27.21175 906.10254 0 0 0
27.22056 905.95093 0 0 0
27.22936 906.12952 0 0 0
27.23816 906.88763 0 0 0
27.24696 907.85577 0 0 0
27.25576 910.29657 0 0 0
27.26457 912.56006 0 0 0
27.27337 914.43561 0 0 0
27.28217 917.56824 0 0 0
27.29097 921.79272 0 0 0
27.29977 926.51251 0 0 0
27.30858 930.164 0 0 0
27.31738 933.07013 0 0 0
27.32618 935.04462 0 0 0
27.33498 936.40302 0 0 0
27.34379 936.84064 0 0 0
27.35259 937.96375 0 0 0
27.36139 940.65259 0 0 0
27.37019 942.08447 0 0 0
27.37899 941.3833 0 0 0
27.38780 939.18195 0 0 0
27.39660 934.95367 0 0 0
27.40540 930.2818 0 0 0
27.41420 927.2829 0 0 0
27.42300 925.21033 0 0 0
27.43181 923.42731 0 0 0
27.44061 922.0495 0 0 0
27.44941 921.74683 0 0 0
27.45821 921.93384 0 0 0
27.46701 921.66302 0 0 0
27.47582 920.86444 0 0 0
27.48462 920.1673 0 0 0
27.49342 919.2724 0 0 0
27.50222 916.9613 0 0 0
27.51103 912.94507 0 0 0
27.51983 909.28729 0 0 0
27.52863 908.28961 0 0 0
27.53743 908.12384 0 0 0
27.54623 908.0603 0 0 0
27.55504 909.17877 0 0 0
27.56384 909.50226 0 0 0
27.57264 909.86084 0 0 0
27.58144 909.56653 0 0 0
27.59024 908.01147 0 0 0
27.59905 907.23163 0 0 0
27.60785 905.57642 0 0 0
27.61665 902.90021 0 0 0
27.62545 901.01483 0 0 0
27.63426 898.84485 0 0 0
27.64306 896.45203 0 0 0
27.65186 895.29254 0 0 0
27.66066 894.95166 0 0 0
27.66946 894.18988 0 0 0
27.67827 892.87305 0 0 0
27.68707 893.37762 0 0 0
27.69587 893.14191 0 0 0
27.70467 891.11102 0 0 0
27.71347 890.94983 0 0 0
27.72228 890.90576 0 0 0
27.73108 890.10101 0 0 0
27.73988 889.92517 0 0 0
27.74868 890.07123 0 0 0
27.75748 891.12134 0 0 0
27.76629 891.79425 0 0 0
27.77509 891.41321 0 0 0
27.78389 891.50732 0 0 0
27.79269 892.92755 0 0 0
27.80150 894.9032 0 0 0
27.81030 895.86572 0 0 0
27.81910 896.90186 0 0 0
27.82790 900.01697 0 0 0
27.83670 902.31433 0 0 0
27.84551 904.50372 0 0 0
27.85431 908.83936 0 0 0
27.86311 914.72125 0 0 0
27.87191 922.28986 0 0 0
27.88071 928.74054 0 0 0
27.88952 933.7699 0 0 0
27.89832 937.29376 0 0 0
27.90712 940.97888 0 0 0
27.91592 943.83057 0 0 0
27.92472 944.40277 0 0 0
27.93353 944.71594 0 0 0
27.94233 942.90656 0 0 0
27.95113 939.54364 0 0 0
27.95993 936.94873 0 0 0
27.96874 936.54449 0 0 0
27.97754 938.39948 0 0 0
27.98634 938.62 0 0 0
27.99514 936.47839 0 0 0
28.00394 933.70184 0 0 0
28.01275 929.69788 0 0 0
28.02155 925.14667 0 0 0
28.03035 921.16284 0 0 0
28.03915 917.9906 0 0 0
28.04796 917.42755 0 0 0
28.05676 918.66577 0 0 0
28.06556 920.07068 0 0 0
28.07436 921.66174 0 0 0
28.08316 920.96753 0 0 0
28.09196 918.41461 0 0 0
28.10077 915.27789 0 0 0
28.10957 912.86108 0 0 0
28.11837 910.38586 0 0 0
28.12717 907.31616 0 0 0
28.13598 905.289 0 0 0
28.14478 904.88159 0 0 0
28.15358 905.56219 0 0 0
28.16238 905.03656 0 0 0
28.17119 904.66498 0 0 0
28.17999 904.09064 0 0 0
28.18879 903.89563 0 0 0
28.19759 905.18622 0 0 0
28.20639 906.67719 0 0 0
28.21520 908.30389 0 0 0
28.22400 908.51917 0 0 0
28.23280 907.9566 0 0 0
28.24160 907.48615 0 0 0
28.25040 907.16479 0 0 0
28.25921 906.19958 0 0 0
28.26801 904.82855 0 0 0
28.27681 905.06714 0 0 0
28.28561 904.76013 0 0 0
28.29442 904.08801 0 0 0
28.30322 905.81873 0 0 0
28.31202 908.63898 0 0 0
28.32082 911.2052 0 0 0
28.32962 910.86975 0 0 0
28.33843 900.60315 0 0 0
28.34723 901.77051 0 0 0
28.35603 916.7384 0 0 0
28.36483 927.47003 0 0 0
28.37363 936.36731 0 0 0
28.38244 945.20276 0 0 0
28.39124 953.69037 0 0 0
28.40004 960.80652 0 0 0
28.40884 966.53473 0 0 0
28.41765 970.33112 0 0 0
28.42645 974.50623 0 0 0
28.43525 979.13995 0 0 0
28.44405 983.02661 0 0 0
28.45285 984.31152 0 0 0
28.46166 982.2782 0 0 0
28.47046 976.14447 0 0 0
28.47926 969.13293 0 0 0
28.48806 963.05792 0 0 0
28.49686 954.67645 0 0 0
28.50567 946.40137 0 0 0
28.51447 940.27496 0 0 0
28.52327 934.77716 0 0 0
28.53207 929.66742 0 0 0
28.54087 925.50995 0 0 0
28.54968 922.67322 0 0 0
28.55848 920.7807 0 0 0
28.56728 919.60303 0 0 0
28.57608 919.94238 0 0 0
28.58488 920.0542 0 0 0
28.59369 920.57611 0 0 0
28.60249 921.20941 0 0 0
28.61129 919.2312 0 0 0
28.62009 916.90033 0 0 0
28.62889 915.6452 0 0 0
28.63770 913.73883 0 0 0
28.64650 913.04218 0 0 0
28.65530 913.4588 0 0 0
28.66410 912.82874 0 0 0
28.67291 912.59406 0 0 0
28.68171 911.83319 0 0 0
28.69051 910.22839 0 0 0
28.69931 909.42157 0 0 0
28.70811 909.3006 0 0 0
28.71692 907.13135 0 0 0
28.72572 904.31848 0 0 0
28.73452 903.21759 0 0 0
28.74332 902.05322 0 0 0
28.75212 900.17932 0 0 0
28.76093 897.46136 0 0 0
28.76973 895.633 0 0 0
28.77853 895.87219 0 0 0
28.78733 895.30304 0 0 0
28.79613 895.07184 0 0 0
28.80494 895.51758 0 0 0
28.81374 894.77631 0 0 0
28.82254 895.07037 0 0 0
28.83134 896.01501 0 0 0
28.84014 897.17645 0 0 0
28.84895 898.63446 0 0 0
28.85775 899.40985 0 0 0
28.86655 900.10925 0 0 0
28.87535 901.54242 0 0 0
28.88416 903.09894 0 0 0
28.89296 904.9552 0 0 0
28.90176 907.40137 0 0 0
28.91056 909.18121 0 0 0
28.91936 910.38354 0 0 0
28.92817 910.11841 0 0 0
28.93697 910.89807 0 0 0
28.94577 913.46173 0 0 0
28.95457 914.94208 0 0 0
28.96337 919.76208 0 0 0
28.97218 928.18872 0 0 0
28.98098 937.20825 0 0 0
28.98978 947.70728 0 0 0
28.99858 954.71448 0 0 0
29.00738 954.62384 0 0 0
29.01619 948.38641 0 0 0
29.02499 938.7381 0 0 0
29.03379 929.29041 0 0 0
29.04259 920.58258 0 0 0
29.05140 914.09955 0 0 0
29.06020 909.49103 0 0 0
29.06900 907.03113 0 0 0
29.07780 905.83624 0 0 0
29.08660 904.99945 0 0 0
29.09541 905.52069 0 0 0
29.10421 907.12946 0 0 0
29.11301 909.65936 0 0 0
29.12181 915.96472 0 0 0
29.13061 922.5097 0 0 0
29.13942 927.11035 0 0 0
29.14822 930.18091 0 0 0
29.15702 930.64636 0 0 0
29.16583 928.97003 0 0 0
29.17463 924.68781 0 0 0
29.18343 919.20483 0 0 0
29.19223 914.31244 0 0 0
29.20103 909.02728 0 0 0
29.20984 904.96106 0 0 0
29.21864 902.63971 0 0 0
29.22744 900.14484 0 0 0
29.23624 899.98169 0 0 0
29.24504 900.33307 0 0 0
29.25384 899.75281 0 0 0
29.26265 897.73999 0 0 0
29.27145 895.89874 0 0 0
29.28025 894.64447 0 0 0
29.28906 893.4671 0 0 0
29.29785 893.37848 0 0 0
29.30666 893.39282 0 0 0
29.31546 892.70917 0 0 0
29.32426 892.50531 0 0 0
29.33307 893.49969 0 0 0
29.34187 894.41425 0 0 0
29.35067 896.38129 0 0 0
29.35947 896.42493 0 0 0
29.36827 895.54407 0 0 0
29.37708 896.90253 0 0 0
29.38588 898.1651 0 0 0
29.39468 899.0224 0 0 0
29.40348 900.18445 0 0 0
29.41228 900.71246 0 0 0
29.42109 901.28699 0 0 0
29.42989 903.37433 0 0 0
29.43869 905.23499 0 0 0
29.44749 907.61755 0 0 0
29.45630 910.51154 0 0 0
29.46510 913.1366 0 0 0
29.47390 915.46429 0 0 0
29.48270 917.71844 0 0 0
29.49150 921.42291 0 0 0
29.50031 924.10175 0 0 0
29.50911 924.6521 0 0 0
29.51791 924.2265 0 0 0
29.52671 924.6402 0 0 0
29.53551 923.53284 0 0 0
29.54432 920.02081 0 0 0
29.55312 916.52368 0 0 0
29.56192 914.55206 0 0 0
29.57072 913.33887 0 0 0
29.57952 910.92816 0 0 0
29.58833 909.02203 0 0 0
29.59713 908.61487 0 0 0
29.60593 908.99426 0 0 0
29.61473 907.19513 0 0 0
29.62354 903.18787 0 0 0
29.63234 902.40948 0 0 0
29.64114 905.29492 0 0 0
29.64994 907.04865 0 0 0
29.65874 908.25916 0 0 0
29.66755 911.05872 0 0 0
29.67635 915.66443 0 0 0
29.68515 922.59778 0 0 0
29.69395 928.23248 0 0 0
29.70275 934.34204 0 0 0
29.71156 938.46552 0 0 0
29.72036 939.00671 0 0 0
29.72916 937.68561 0 0 0
29.73796 933.78815 0 0 0
29.74676 928.21014 0 0 0
29.75557 923.00287 0 0 0
29.76437 917.56561 0 0 0
29.77317 911.95508 0 0 0
29.78197 908.67755 0 0 0
29.79078 904.9549 0 0 0
29.79958 901.98102 0 0 0
29.80838 900.35266 0 0 0
29.81718 899.2641 0 0 0
29.82598 896.70215 0 0 0
29.83479 892.58533 0 0 0
29.84359 892.00677 0 0 0
29.85239 892.70386 0 0 0
29.86119 892.44037 0 0 0
29.86999 891.84265 0 0 0
29.87880 890.48578 0 0 0
29.88760 888.3916 0 0 0
29.89640 887.80823 0 0 0
29.90520 888.37781 0 0 0
29.91400 889.42413 0 0 0
29.92281 890.11621 0 0 0
29.93161 890.04742 0 0 0
29.94041 890.23413 0 0 0
29.94921 891.05707 0 0 0
29.95801 893.22955 0 0 0
29.96682 894.45782 0 0 0
29.97562 893.04211 0 0 0
29.98442 893.65552 0 0 0
29.99322 894.78308 0 0 0
30.00203 893.41351 0 0 0
30.01083 892.8219 0 0 0
30.01963 893.14203 0 0 0
30.02843 893.82489 0 0 0
30.03723 893.88824 0 0 0
30.04604 893.91357 0 0 0
30.05484 894.06366 0 0 0
30.06364 894.81335 0 0 0
30.07244 896.89514 0 0 0
30.08124 897.05109 0 0 0
30.09005 899.81494 0 0 0
30.09885 901.75092 0 0 0
30.10765 902.67102 0 0 0
30.11645 905.45776 0 0 0
30.12526 906.92822 0 0 0
30.13406 909.11359 0 0 0
30.14286 911.90991 0 0 0
30.15166 915.8609 0 0 0
30.16046 921.64746 0 0 0
30.16927 927.52148 0 0 0
30.17807 932.73883 0 0 0
30.18687 939.14142 0 0 0
30.19567 946.64655 0 0 0
30.20447 954.68781 0 0 0
30.21328 961.7514 0 0 0
30.22208 965.76447 0 0 0
30.23088 970.08856 0 0 0
30.23968 975.79401 0 0 0
30.24849 977.0127 0 0 0
30.25729 978.25885 0 0 0
30.26609 979.54846 0 0 0
30.27489 976.78351 0 0 0
30.28369 975.77307 0 0 0
30.29250 975.94208 0 0 0
30.30130 975.04456 0 0 0
30.31010 974.28027 0 0 0
30.31890 973.95905 0 0 0
30.32770 970.97583 0 0 0
30.33651 967.34625 0 0 0
30.34531 965.64844 0 0 0
30.35411 963.88843 0 0 0
30.36291 961.16864 0 0 0
30.37172 956.78418 0 0 0
30.38052 950.27795 0 0 0
30.38932 944.45917 0 0 0
30.39812 939.11292 0 0 0
30.40692 929.83099 0 0 0
30.41573 922.71216 0 0 0
30.42453 919.16876 0 0 0
30.43333 914.8396 0 0 0
30.44213 911.51294 0 0 0
30.45093 908.45972 0 0 0
30.45974 907.41455 0 0 0
30.46854 907.98358 0 0 0
30.47734 911.48938 0 0 0
30.48614 916.94922 0 0 0
30.49494 919.29852 0 0 0
30.50375 918.95044 0 0 0
30.51255 918.79993 0 0 0
30.52135 917.94983 0 0 0
30.53015 915.87836 0 0 0
30.53896 910.44415 0 0 0
30.54776 906.71167 0 0 0
30.55656 905.36749 0 0 0
30.56536 904.04065 0 0 0
30.57416 903.58521 0 0 0
30.58297 905.07495 0 0 0
30.59177 906.86121 0 0 0
30.60057 908.74829 0 0 0
30.60937 908.79639 0 0 0
30.61817 906.81909 0 0 0
30.62698 904.73322 0 0 0
30.63578 902.8877 0 0 0
30.64458 904.28546 0 0 0
30.65338 903.61737 0 0 0
30.66218 903.39917 0 0 0
30.67099 905.91614 0 0 0
30.67979 905.71741 0 0 0
30.68859 905.73651 0 0 0
30.69739 904.34973 0 0 0
30.70620 901.44611 0 0 0
30.71500 901.01398 0 0 0
30.72380 899.37006 0 0 0
30.73260 895.25842 0 0 0
30.74140 891.08893 0 0 0
30.75021 890.65137 0 0 0
30.75901 890.54803 0 0 0
30.76781 889.53235 0 0 0
30.77661 889.45911 0 0 0
30.78541 886.8656 0 0 0
30.79422 884.72919 0 0 0
30.80302 883.97186 0 0 0
30.81182 882.61426 0 0 0
30.82062 880.57843 0 0 0
30.82943 879.80066 0 0 0
30.83823 879.53009 0 0 0
30.84703 880.22681 0 0 0
30.85583 882.05188 0 0 0
30.86463 880.65979 0 0 0
30.87344 880.23169 0 0 0
30.88224 881.64966 0 0 0
30.89104 880.20386 0 0 0
30.89984 879.31195 0 0 0
30.90864 878.13696 0 0 0
30.91745 876.77863 0 0 0
30.92625 877.65021 0 0 0
30.93505 878.82733 0 0 0
30.94385 877.96417 0 0 0
30.95265 877.17981 0 0 0
30.96146 876.20325 0 0 0
30.97026 874.18073 0 0 0
30.97906 873.99335 0 0 0
30.98786 873.54504 0 0 0
30.99667 874.03424 0 0 0
31.00547 873.56219 0 0 0
31.01427 875.98865 0 0 0
31.02307 876.8421 0 0 0
31.03187 871.22192 0 0 0
31.04068 871.87354 0 0 0
31.04948 875.58484 0 0 0
31.05828 874.526 0 0 0
31.06708 875.21808 0 0 0
31.07588 878.81732 0 0 0
31.08469 880.92371 0 0 0
31.09349 883.58386 0 0 0
31.10229 889.28003 0 0 0
31.11109 893.49506 0 0 0
31.11989 893.91791 0 0 0
31.12870 895.84985 0 0 0
31.13750 900.20337 0 0 0
31.14630 902.29785 0 0 0
31.15510 901.32129 0 0 0
31.16391 900.30475 0 0 0
31.17271 899.73645 0 0 0
31.18151 896.88794 0 0 0
31.19031 893.73395 0 0 0
31.19911 889.07556 0 0 0
31.20792 885.1322 0 0 0
31.21672 885.06396 0 0 0
31.22552 883.0191 0 0 0
31.23432 879.77686 0 0 0
31.24312 877.78387 0 0 0
31.25193 879.26965 0 0 0
31.26073 880.22571 0 0 0
31.26953 876.74615 0 0 0
31.27833 878.29889 0 0 0
31.28714 883.00964 0 0 0
31.29594 887.38147 0 0 0
31.30474 889.61591 0 0 0
31.31354 888.95831 0 0 0
31.32234 891.09332 0 0 0
31.33115 891.25562 0 0 0
31.33995 891.03137 0 0 0
31.34875 888.58447 0 0 0
31.35755 885.33185 0 0 0
31.36635 888.00336 0 0 0
31.37516 889.4494 0 0 0
31.38396 889.3924 0 0 0
31.39276 893.28174 0 0 0
31.40156 899.61841 0 0 0
31.41036 905.77155 0 0 0
31.41917 912.21436 0 0 0
31.42797 920.36755 0 0 0
31.43677 926.75214 0 0 0
31.44557 926.63654 0 0 0
31.45438 923.10974 0 0 0
31.46318 917.98804 0 0 0
31.47198 911.90295 0 0 0
31.48078 906.10736 0 0 0
31.48958 900.59857 0 0 0
31.49839 896.23669 0 0 0
31.50719 897.14117 0 0 0
31.51599 894.05737 0 0 0
31.52479 890.19763 0 0 0
31.53359 888.74243 0 0 0
31.54240 884.72961 0 0 0
31.55120 883.05115 0 0 0
31.56000 880.95941 0 0 0
31.56880 875.89838 0 0 0
31.57760 874.89282 0 0 0
31.58641 873.75708 0 0 0
31.59521 869.52722 0 0 0
31.60401 867.44165 0 0 0
31.61281 868.66846 0 0 0
31.62162 868.06097 0 0 0
31.63042 870.14771 0 0 0
31.63922 873.72003 0 0 0
31.64802 870.53589 0 0 0
31.65682 867.65771 0 0 0
31.66563 868.09436 0 0 0
31.67443 866.30371 0 0 0
31.68323 863.8858 0 0 0
31.69203 861.08392 0 0 0
31.70083 861.84521 0 0 0
31.70964 863.93787 0 0 0
31.71844 865.89032 0 0 0
31.72724 867.06677 0 0 0
31.73604 863.0282 0 0 0
31.74485 859.1861 0 0 0
31.75365 856.00885 0 0 0
31.76245 856.19855 0 0 0
31.77125 858.85779 0 0 0
31.78005 862.3385 0 0 0
31.78886 865.30676 0 0 0
31.79766 863.91394 0 0 0
31.80646 863.2403 0 0 0
31.81526 862.37781 0 0 0
31.82406 861.64789 0 0 0
31.83287 862.63049 0 0 0
31.84167 865.30304 0 0 0
31.85047 866.55627 0 0 0
31.85927 869.71167 0 0 0
31.86807 873.10413 0 0 0
31.87688 871.99072 0 0 0
31.88568 871.14514 0 0 0
31.89448 875.88977 0 0 0
31.90328 877.16498 0 0 0
31.91209 877.04663 0 0 0
31.92089 878.92944 0 0 0
31.92969 877.82629 0 0 0
31.93849 873.51697 0 0 0
31.94729 875.78796 0 0 0
31.95610 880.36285 0 0 0
31.96490 877.78528 0 0 0
31.97370 877.57904 0 0 0
31.98250 884.5246 0 0 0
31.99130 890.09161 0 0 0
32.00011 893.11536 0 0 0
32.00891 901.15173 0 0 0
32.01771 908.40118 0 0 0
32.02651 907.24078 0 0 0
32.03532 904.77423 0 0 0
32.04412 902.44415 0 0 0
32.05292 897.89563 0 0 0
32.06172 895.159 0 0 0
32.07052 893.86414 0 0 0
32.07933 882.44574 0 0 0
32.08813 873.23395 0 0 0
32.09693 872.86676 0 0 0
32.10573 870.26758 0 0 0
32.11454 866.66809 0 0 0
32.12334 866.76862 0 0 0
32.13214 867.48004 0 0 0
32.14094 862.09692 0 0 0
32.14974 863.79895 0 0 0
32.15855 868.10645 0 0 0
32.16735 865.96851 0 0 0
32.17615 859.39886 0 0 0
32.18495 859.26904 0 0 0
32.19375 865.30621 0 0 0
32.20256 862.21686 0 0 0
32.21136 859.99548 0 0 0
32.22016 853.1463 0 0 0
32.22896 850.16095 0 0 0
32.23776 848.91956 0 0 0
32.24657 847.51111 0 0 0
32.25537 848.33905 0 0 0
32.26417 848.73047 0 0 0
32.27297 848.88202 0 0 0
32.28178 844.11725 0 0 0
32.29058 838.0011 0 0 0
32.29938 835.58459 0 0 0
32.30818 835.28223 0 0 0
32.31698 832.84943 0 0 0
32.32579 828.76483 0 0 0
32.33459 833.78552 0 0 0
32.34339 841.2002 0 0 0
32.35219 840.60199 0 0 0
32.36099 837.82257 0 0 0
32.36980 833.91388 0 0 0
32.37860 829.40875 0 0 0
32.38740 828.56177 0 0 0
32.39620 830.08936 0 0 0
32.40500 831.83112 0 0 0
32.41381 830.16852 0 0 0
32.42261 834.7359 0 0 0
32.43141 833.31342 0 0 0
32.44021 827.74426 0 0 0
32.44902 823.50049 0 0 0
32.45782 829.0799 0 0 0
32.46662 830.99426 0 0 0
32.47542 829.57758 0 0 0
32.48422 835.11713 0 0 0
32.49303 833.32202 0 0 0
32.50183 828.13092 0 0 0
32.51063 830.00043 0 0 0
32.51943 828.56934 0 0 0
32.52823 819.46613 0 0 0
32.53704 819.8454 0 0 0
32.54584 822.15851 0 0 0
32.55464 815.98517 0 0 0
32.56344 808.13184 0 0 0
32.57225 807.83929 0 0 0
32.58105 807.51587 0 0 0
32.58985 806.41846 0 0 0
32.59865 809.15765 0 0 0
32.60745 800.59113 0 0 0
32.61626 777.94586 0 0 0
32.62506 768.56946 0 0 0
32.63386 774.28113 0 0 0
32.64266 772.49298 0 0 0
32.65146 778.95288 0 0 0
32.66027 783.10553 0 0 0
32.66907 781.81061 0 0 0
32.67787 764.59009 0 0 0
32.68667 747.16132 0 0 0
32.69547 737.28711 0 0 0
32.70428 746.52271 0 0 0
32.71308 746.43787 0 0 0
32.72188 730.27502 0 0 0
32.73068 723.18811 0 0 0
32.73949 722.27698 0 0 0
32.74829 714.2915 0 0 0
32.75709 679.89362 0 0 0
32.76589 661.51276 0 0 0
32.77469 654.39813 0 0 0
32.78350 655.32312 0 0 0
32.79230 642.4928 0 0 0
32.80110 607.88116 0 0 0
32.80990 560.77856 0 0 0
32.81870 502.42279 0 0 0
32.82751 414.64276 0 0 0
32.83631 275.49158 0 0 0
32.84511 188.24942 0 0 0
32.85391 178.43385 0 0 0
32.86271 171.97867 0 0 0
32.87152 177.86525 0 0 0
32.88032 189.14619 0 0 0
32.88912 194.82451 0 0 0
32.89792 202.53996 0 0 0
32.90673 198.18307 0 0 0
32.91553 183.28458 0 0 0
32.92433 180.27066 0 0 0
32.93313 187.76256 0 0 0
32.94193 189.97995 0 0 0
32.95074 189.64371 0 0 0
32.95954 189.04654 0 0 0
32.96834 191.40096 0 0 0
32.97714 190.02602 0 0 0
32.98594 179.32542 0 0 0
32.99475 172.90689 0 0 0
33.00355 167.61391 0 0 0
33.01235 171.28102 0 0 0
33.02115 187.39876 0 0 0
33.02996 189.85909 0 0 0
33.03876 181.88622 0 0 0
33.04756 169.31432 0 0 0
33.05636 162.5253 0 0 0
33.06516 165.65359 0 0 0
33.07397 170.14877 0 0 0
33.08277 181.18404 0 0 0
33.09157 198.14313 0 0 0
33.10037 206.06303 0 0 0
33.10917 203.16348 0 0 0
33.11798 198.31488 0 0 0
33.12678 195.71352 0 0 0
33.13558 199.80894 0 0 0
33.14438 196.22397 0 0 0
33.15318 190.38596 0 0 0
33.16199 188.5101 0 0 0
33.17079 190.38988 0 0 0
33.17959 193.45262 0 0 0
33.18839 185.1306 0 0 0
33.19720 178.93164 0 0 0
33.20600 186.46881 0 0 0
33.21480 199.30266 0 0 0
33.22360 186.94168 0 0 0
33.23240 176.34277 0 0 0
33.24121 181.07103 0 0 0
33.25001 186.85081 0 0 0
33.25881 193.55676 0 0 0
33.26761 190.00952 0 0 0
33.27641 185.83977 0 0 0
33.28522 194.51247 0 0 0
33.29402 202.87744 0 0 0
33.30282 207.10756 0 0 0
33.31162 209.05238 0 0 0
33.32042 198.02557 0 0 0
33.32923 190.68872 0 0 0
33.33803 185.62778 0 0 0
33.34683 187.53169 0 0 0
33.35563 199.64597 0 0 0
33.36444 207.39975 0 0 0
33.37324 212.08974 0 0 0
33.38204 198.97179 0 0 0
33.39084 188.62758 0 0 0
33.39964 191.54623 0 0 0
33.40845 201.39961 0 0 0
33.41725 208.9868 0 0 0
33.42605 200.02325 0 0 0
33.43485 186.64691 0 0 0
33.44365 182.965 0 0 0
33.45246 192.79039 0 0 0
33.46126 198.25429 0 0 0
33.47006 201.94141 0 0 0
33.47886 194.52655 0 0 0
33.48766 188.77083 0 0 0
33.49647 186.1205 0 0 0
33.50527 185.06703 0 0 0
33.51407 188.01105 0 0 0
33.52287 195.33783 0 0 0
33.53168 197.28654 0 0 0
33.54048 195.50865 0 0 0
33.54928 203.43938 0 0 0
33.55808 205.79773 0 0 0
33.56688 192.41823 0 0 0
33.57569 178.22141 0 0 0
33.58449 186.46721 0 0 0
33.59329 196.07268 0 0 0
33.60209 197.86153 0 0 0
33.61089 202.43927 0 0 0
33.61970 192.69038 0 0 0
33.62850 180.03337 0 0 0
33.63730 186.36798 0 0 0
33.64610 202.91577 0 0 0
33.65491 200.60155 0 0 0
33.66371 193.7231 0 0 0
33.67251 192.84225 0 0 0
33.68131 196.56291 0 0 0
33.69011 206.73985 0 0 0
33.69892 213.07999 0 0 0
33.70772 212.16342 0 0 0
33.71652 205.29099 0 0 0
33.72532 203.20389 0 0 0
33.73412 206.00807 0 0 0
33.74293 201.99809 0 0 0
33.75173 200.22153 0 0 0
33.76053 197.82304 0 0 0
33.76933 187.49962 0 0 0
33.77813 182.8967 0 0 0
33.78694 191.30504 0 0 0
33.79574 192.19014 0 0 0
33.80454 196.2963 0 0 0
33.81334 204.03679 0 0 0
33.82215 211.65997 0 0 0
33.83095 213.49664 0 0 0
33.83975 206.70596 0 0 0
33.84855 190.90662 0 0 0
33.85735 185.29108 0 0 0
33.86616 183.60791 0 0 0
33.87496 188.32053 0 0 0
33.88376 198.28989 0 0 0
33.89256 205.92374 0 0 0
33.90136 209.47722 0 0 0
33.91017 190.22346 0 0 0
33.91897 174.25836 0 0 0
33.92777 174.56064 0 0 0
33.93657 183.28293 0 0 0
33.94537 196.0661 0 0 0
33.95418 205.92548 0 0 0
33.96298 211.81438 0 0 0
33.97178 209.59227 0 0 0
33.98058 196.18201 0 0 0
33.98939 186.29512 0 0 0
33.99819 187.2448 0 0 0
34.00699 184.37451 0 0 0
34.01579 192.82626 0 0 0
34.02459 195.64333 0 0 0
34.03340 189.46213 0 0 0
34.04220 185.39978 0 0 0
34.05100 190.04335 0 0 0
34.05980 202.73927 0 0 0
34.06860 208.64154 0 0 0
34.07741 201.83095 0 0 0
34.08621 197.45897 0 0 0
34.09501 193.09836 0 0 0
34.10381 189.01053 0 0 0
34.11262 181.63191 0 0 0
34.12142 181.53282 0 0 0
34.13022 186.74469 0 0 0
34.13902 193.17906 0 0 0
34.14782 193.7608 0 0 0
34.15663 194.19455 0 0 0
34.16543 204.6046 0 0 0
34.17423 199.64442 0 0 0
34.18303 193.59923 0 0 0
34.19183 197.24384 0 0 0
34.20064 205.20816 0 0 0
34.20944 205.24696 0 0 0
34.21824 203.24463 0 0 0
34.22704 199.16011 0 0 0
34.23584 204.01968 0 0 0
34.24465 210.66705 0 0 0
34.25345 211.33076 0 0 0
34.26225 209.34282 0 0 0
34.27105 211.32791 0 0 0
34.27986 216.73921 0 0 0
34.28866 220.33337 0 0 0
34.29746 218.6788 0 0 0
34.30626 208.49261 0 0 0
34.31506 210.76535 0 0 0
34.32387 213.88025 0 0 0
34.33267 216.69455 0 0 0
34.34147 209.11646 0 0 0
34.35027 199.44481 0 0 0
34.35907 202.98929 0 0 0
34.36788 210.14137 0 0 0
34.37668 213.81239 0 0 0
34.38548 210.39786 0 0 0
34.39428 215.67635 0 0 0
34.40308 213.74123 0 0 0
34.41189 203.92595 0 0 0
34.42069 194.58803 0 0 0
34.42949 200.90898 0 0 0
34.43829 208.99413 0 0 0
34.44710 215.04272 0 0 0
34.45590 215.41457 0 0 0
34.46470 204.40077 0 0 0
34.47350 195.89857 0 0 0
34.48230 193.82841 0 0 0
34.49111 200.43202 0 0 0
34.49991 203.52625 0 0 0
34.50871 209.72469 0 0 0
34.51751 210.28345 0 0 0
34.52631 198.97168 0 0 0
34.53512 190.49741 0 0 0
34.54392 191.38142 0 0 0
34.55272 192.25247 0 0 0
34.56152 198.44954 0 0 0
34.57033 197.45105 0 0 0
34.57913 193.94183 0 0 0
34.58793 199.79858 0 0 0
34.59673 205.5876 0 0 0
34.60553 208.1351 0 0 0
34.61434 202.69885 0 0 0
34.62314 205.64595 0 0 0
34.63194 210.81528 0 0 0
34.64074 210.87834 0 0 0
34.64954 211.35202 0 0 0
34.65835 206.51826 0 0 0
34.66715 201.49478 0 0 0
34.67595 212.30722 0 0 0
34.68475 214.76401 0 0 0
34.69355 192.63985 0 0 0
34.70236 200.93985 0 0 0
34.71116 220.77844 0 0 0
34.71996 238.32137 0 0 0
34.72876 243.65054 0 0 0
34.73757 223.07166 0 0 0
34.74637 205.73875 0 0 0
34.75517 197.01025 0 0 0
34.76397 191.09702 0 0 0
34.77277 181.56917 0 0 0
34.78158 202.43178 0 0 0
34.79038 219.66208 0 0 0
34.79918 224.05235 0 0 0
34.80798 225.64447 0 0 0
34.81678 214.65707 0 0 0
34.82559 202.02916 0 0 0
34.83439 200.94737 0 0 0
34.84319 199.18074 0 0 0
34.85199 202.25142 0 0 0
34.86079 211.50584 0 0 0
34.86960 208.94347 0 0 0
34.87840 207.54008 0 0 0
34.88720 196.37802 0 0 0
34.89600 192.16014 0 0 0
34.90481 191.01474 0 0 0
34.91361 206.75969 0 0 0
34.92241 229.11473 0 0 0
34.93121 228.51738 0 0 0
34.94001 221.80544 0 0 0
34.94882 212.36263 0 0 0
34.95762 207.7692 0 0 0
34.96642 209.77956 0 0 0
34.97522 212.45839 0 0 0
34.98402 215.19279 0 0 0
34.99283 214.4384 0 0 0
35.00163 212.332 0 0 0
35.01043 215.70419 0 0 0
35.01923 219.29016 0 0 0
35.02804 224.0183 0 0 0
35.03684 216.31732 0 0 0
35.04564 211.79532 0 0 0
35.05444 212.49539 0 0 0
35.06324 218.60349 0 0 0
35.07205 225.94202 0 0 0
35.08085 224.34081 0 0 0
35.08965 217.5899 0 0 0
35.09845 211.65758 0 0 0
35.10725 218.45723 0 0 0
35.11606 220.51935 0 0 0
35.12486 216.36926 0 0 0
35.13366 203.72621 0 0 0
35.14246 197.38405 0 0 0
35.15126 208.01439 0 0 0
35.16007 213.30304 0 0 0
35.16887 215.88184 0 0 0
35.17767 204.27821 0 0 0
35.18647 203.9306 0 0 0
35.19528 205.91624 0 0 0
35.20408 208.38385 0 0 0
loop_
_gsas_i100_meas
0.24
20.65
3.38
4.59
3.22
0.55
8.54
10.76
3.03
100.00
13.28
0.15
9.36
0.35
7.91
27.77
0.48
0.60
16.09
5.09
1.45
0.30
-1.68
1.66
2.08
50.41
4.45
16.58
0.16
0.55
-0.55
1.86
0.00
2.41
0.96
0.27
0.21
0.30
7.15
5.71
6.19
0.89
0.91
0.35
0.05
0.71
0.70
0.23
19.88
0.35
4.51
1.84
1.33
0.00
0.29
2.13
0.27
2.41
4.53
0.35
0.00
9.80
18.99
0.00
1.61
-0.84
1.62
-0.26
2.08
0.48
0.01
0.62
1.02
2.32
-0.01
0.80
1.32
2.43
0.47
1.61
0.60
1.38
0.00
0.72
1.34
0.23
1.60
0.00
18.86
0.95
1.22
0.52
0.09
0.00
0.00
0.41
0.03
0.49
4.83
2.26
0.05
1.83
0.90
0.14
0.22
1.68
0.38
0.08
-0.19
0.82
5.30
8.65
2.39
5.83
0.67
0.02
1.85
0.05
0.00
0.05
0.58
0.50
0.10
0.06
0.82
0.33
3.73
4.61
0.75
5.03
0.08
0.14
0.00
0.96
0.78
0.04
-0.01
0.40
0.08
0.81
0.07
0.00
0.56
-0.17
1.23
4.94
0.03
3.04
0.01
0.50
5.68
0.01
0.20
0.22
-1.23
0.26
0.05
0.78
0.42
-0.12
3.15
0.13
1.24
0.10
0.01
1.17
1.34
0.62
0.95
0.00
0.00
0.15
0.13
0.32
0.67
1.30
0.55
0.00
0.01
0.48
0.01
0.19
0.14
0.40
0.05
0.38
0.14
0.09
0.06
0.00
0.07
