#------------------------------------------------------------------------------
#$Date: 2021-01-01 06:05:13 +0200 (Fri, 01 Jan 2021) $
#$Revision: 260336 $
#$URL: file:///home/coder/svn-repositories/cod/cif/7/24/19/7241998.cif $
#------------------------------------------------------------------------------
#
# This file is available in the Crystallography Open Database (COD),
# http://www.crystallography.net/
#
# All data on this site have been placed in the public domain by the
# contributors.
#
data_7241998
loop_
_publ_author_name
'Liebing, Phil'
'Oehler, Florian'
'Witzorke, Juliane'
'Schmeide, Marten'
_publ_section_title
;
 From zero- to three-dimensional heterobimetallic coordination polymers
 with the [Pt{SSC-N(CH2COO)2}2]4&#x2212; metalloligand
;
_journal_issue                   45
_journal_name_full               CrystEngComm
_journal_page_first              7838
_journal_page_last               7846
_journal_paper_doi               10.1039/D0CE01389G
_journal_volume                  22
_journal_year                    2020
_chemical_formula_moiety         'C10 H24 N2 Ni2 O16 Pt S4, 4(H2 O)'
_chemical_formula_sum            'C10 H32 N2 Ni2 O20 Pt S4'
_chemical_formula_weight         941.12
_space_group_crystal_system      triclinic
_space_group_IT_number           2
_space_group_name_Hall           '-P 1'
_space_group_name_H-M_alt        'P -1'
_atom_sites_solution_hydrogens   mixed
_atom_sites_solution_primary     dual
_audit_block_doi                 10.5517/ccdc.csd.cc266mxz
_audit_creation_date             2020-02-03
_audit_creation_method
;
Olex2 1.2
(compiled 2018.05.29 svn.r3508 for OlexSys, GUI svn.r5506)
;
_audit_update_record
;
2020-09-15 deposited with the CCDC.	2020-10-14 downloaded from the CCDC.
;
_cell_angle_alpha                117.142(3)
_cell_angle_beta                 92.957(4)
_cell_angle_gamma                99.353(4)
_cell_formula_units_Z            1
_cell_length_a                   6.2643(3)
_cell_length_b                   13.6027(7)
_cell_length_c                   14.2439(6)
_cell_measurement_reflns_used    11143
_cell_measurement_temperature    133.15
_cell_measurement_theta_max      26.997
_cell_measurement_theta_min      2.869
_cell_volume                     1054.74(9)
_computing_cell_refinement       'X-Area (STOE & Cie, 2018/12)'
_computing_data_collection       'X-Area (STOE & Cie, 2018/12)'
_computing_data_reduction        'X-Area and X-Red (STOE & Cie, 2018/12)'
_computing_molecular_graphics    'Olex2 (Dolomanov et al., 2009)'
_computing_publication_material  'Olex2 (Dolomanov et al., 2009)'
_computing_structure_refinement  'ShelXL (Sheldrick, 2015)'
_computing_structure_solution    'ShelXT (Sheldrick, 2015)'
_diffrn_ambient_temperature      133.15
_diffrn_detector_area_resol_mean 6.67
_diffrn_measured_fraction_theta_full 0.999
_diffrn_measured_fraction_theta_max 0.999
_diffrn_measurement_device_type  'STOE IPDS 2T'
_diffrn_measurement_method       'omega scans'
_diffrn_radiation_type           MoK\a
_diffrn_radiation_wavelength     0.71073
_diffrn_reflns_av_R_equivalents  0.0307
_diffrn_reflns_av_unetI/netI     0.0255
_diffrn_reflns_Laue_measured_fraction_full 0.999
_diffrn_reflns_Laue_measured_fraction_max 0.999
_diffrn_reflns_limit_h_max       8
_diffrn_reflns_limit_h_min       -8
_diffrn_reflns_limit_k_max       16
_diffrn_reflns_limit_k_min       -17
_diffrn_reflns_limit_l_max       18
_diffrn_reflns_limit_l_min       -18
_diffrn_reflns_number            11143
_diffrn_reflns_point_group_measured_fraction_full 0.999
_diffrn_reflns_point_group_measured_fraction_max 0.999
_diffrn_reflns_theta_full        25.242
_diffrn_reflns_theta_max         26.997
_diffrn_reflns_theta_min         2.869
_diffrn_source                   'fine-focus sealed tube'
_exptl_absorpt_coefficient_mu    4.446
_exptl_absorpt_correction_T_max  0.8680
_exptl_absorpt_correction_T_min  0.2950
_exptl_absorpt_correction_type   numerical
_exptl_absorpt_process_details
'X-Area, X-Red and X-Shape (STOE & Cie, 2018/12)'
_exptl_crystal_colour            'pale green'
_exptl_crystal_colour_modifier   pale
_exptl_crystal_colour_primary    green
_exptl_crystal_density_diffrn    1.482
_exptl_crystal_description       needle
_exptl_crystal_F_000             464
_exptl_crystal_size_max          0.39
_exptl_crystal_size_mid          0.05
_exptl_crystal_size_min          0.03
_refine_diff_density_max         0.558
_refine_diff_density_min         -0.674
_refine_diff_density_rms         0.098
_refine_ls_extinction_method     none
_refine_ls_goodness_of_fit_ref   1.044
_refine_ls_hydrogen_treatment    constr
_refine_ls_matrix_type           full
_refine_ls_number_parameters     191
_refine_ls_number_reflns         4585
_refine_ls_number_restraints     0
_refine_ls_restrained_S_all      1.044
_refine_ls_R_factor_all          0.0333
_refine_ls_R_factor_gt           0.0274
_refine_ls_shift/su_max          0.000
_refine_ls_shift/su_mean         0.000
_refine_ls_structure_factor_coef Fsqd
_refine_ls_weighting_details
'w=1/[\s^2^(Fo^2^)+(0.0372P)^2^+1.5085P] where P=(Fo^2^+2Fc^2^)/3'
_refine_ls_weighting_scheme      calc
_refine_ls_wR_factor_gt          0.0666
_refine_ls_wR_factor_ref         0.0701
_reflns_Friedel_coverage         0.000
_reflns_number_gt                4129
_reflns_number_total             4585
_reflns_threshold_expression     'I > 2\s(I)'
_cod_data_source_file            d0ce01389g2.cif
_cod_data_source_block           li0449
_cod_database_code               7241998
_shelx_shelxl_version_number     2018/3
_shelx_space_group_comment
;
The symmetry employed for this shelxl refinement is uniquely defined
by the following loop, which should always be used as a source of
symmetry information in preference to the above space-group names.
They are only intended as comments.
;
_shelx_estimated_absorpt_t_max   0.878
_shelx_estimated_absorpt_t_min   0.276
_olex2_refinement_description
;
1. Fixed Uiso
 At 1.2 times of:
  All C(H,H) groups
 At 1.5 times of:
  All O(H,H) groups
2.a Free rotating group:
 O9(H9A,H9B), O10(H10A,H10B)
2.b Rotating group:
 O5(H5A,H5B), O6(H6A,H6B), O7(H7A,H7B), O8(H8A,H8B)
2.c Secondary CH2 refined with riding coordinates:
 C2(H2A,H2B), C4(H4A,H4B)
;
_shelx_res_file
;
TITL li0449_a.res in P-1
    li0449.res
    created by SHELXL-2018/3 at 15:45:25 on 03-Feb-2020
REM Old TITL
REM SHELXT solution in P-1: R1 0.212, Rweak 0.020, Alpha 0.042
REM <I/s> 0.000 for 0 systematic absences, Orientation as input
REM Formula found by SHELXT: C18 N16 Ni2 O8 Pt S4
CELL 0.71073 6.2643 13.6027 14.2439 117.142 92.957 99.353
ZERR 1 0.0003 0.0007 0.0006 0.003 0.004 0.004
LATT 1
SFAC C H N Ni O Pt S
UNIT 10 32 2 2 20 1 4
EQIV $1 1+X,+Y,+Z
EQIV $2 -1+X,1+Y,+Z
EQIV $3 -1+X,+Y,+Z
EQIV $4 1-X,1-Y,1-Z
EQIV $5 2-X,1-Y,1-Z

L.S. 15 0 0
PLAN  20
SIZE 0.39 0.05 0.03
TEMP -140
HTAB O5 O2
HTAB O5 O9
HTAB O6 O2_$1
HTAB O7 O4
HTAB O7 O10_$2
HTAB O8 O4_$3
HTAB O9 O3_$4
HTAB O10 O1_$5
HTAB O10 O9
BUMP 0.1
BOND $H
list 4
ABIN
fmap 2 53
acta
OMIT -6 54
REM <olex2.extras>
REM <HklSrc "%.\\li0449.hkl">
REM </olex2.extras>

WGHT    0.037200    1.508500
FVAR       0.47459
PT1   6    0.500000    0.500000    0.000000    10.50000    0.01707    0.05351 =
         0.01700    0.00983    0.00488    0.01777
NI1   4    1.000000    0.500000    0.500000    10.50000    0.01267    0.01749 =
         0.02165    0.01096    0.00253    0.00527
NI2   4    0.000000    1.000000    0.500000    10.50000    0.01441    0.01558 =
         0.02737    0.00897    0.00819    0.00664
S1    7    0.684582    0.572623    0.170033    11.00000    0.01657    0.05895 =
         0.01898    0.01031    0.00479    0.01874
S2    7    0.239470    0.563290    0.110951    11.00000    0.01718    0.05781 =
         0.01923    0.01193    0.00430    0.01813
O1    5    0.819209    0.603520    0.477195    11.00000    0.01569    0.02141 =
         0.02453    0.01110    0.00022    0.00520
O2    5    0.536238    0.480681    0.355460    11.00000    0.01769    0.01815 =
         0.03015    0.01024    0.00047    0.00578
O3    5    0.078062    0.845593    0.440037    11.00000    0.03918    0.02043 =
         0.05636    0.02062    0.03414    0.01708
O4    5    0.350417    0.854914    0.347884    11.00000    0.01990    0.02672 =
         0.04281    0.02211    0.01578    0.01195
O5    5    0.722934    0.372501    0.441560    11.00000    0.01982    0.01949 =
         0.02589    0.01250    0.00186    0.00522
AFIX   7
H5A   2    0.753935    0.307271    0.402571    11.00000   -1.50000
H5B   2    0.638406    0.380031    0.396499    11.00000   -1.50000
AFIX   0
O6    5    1.087965    0.446184    0.350306    11.00000    0.01840    0.02613 =
         0.02354    0.00997    0.00448    0.00340
AFIX   7
H6A   2    1.032214    0.373227    0.309222    11.00000   -1.50000
H6B   2    1.230402    0.450962    0.352424    11.00000   -1.50000
AFIX   0
O7    5    0.242633    1.056117    0.434042    11.00000    0.02238    0.01991 =
         0.03094    0.01234    0.01059    0.00914
AFIX   7
H7A   2    0.191434    1.084601    0.394105    11.00000   -1.50000
H7B   2    0.294606    0.999346    0.385248    11.00000   -1.50000
AFIX   0
O8    5   -0.222233    0.948713    0.365166    11.00000    0.02081    0.05456 =
         0.03603    0.02161    0.00415   -0.00231
AFIX   7
H8A   2   -0.342889    0.908350    0.368550    11.00000   -1.50000
H8B   2   -0.167342    0.899096    0.314647    11.00000   -1.50000
AFIX   6

O9    5    0.711719    0.143378    0.340555    11.00000    0.04802    0.02939 =
         0.05055    0.01707   -0.00042    0.01249
H9A   2    0.618858    0.095838    0.285888    11.00000   -1.50000
H9B   2    0.717045    0.111065    0.378818    11.00000   -1.50000
AFIX   6

O10   5    1.159310    0.188807    0.338517    11.00000    0.04510    0.03108 =
         0.03865    0.01017   -0.00134    0.01548
H10A  2    1.022547    0.161411    0.318091    11.00000   -1.50000
H10B  2    1.169572    0.255285    0.389583    11.00000   -1.50000
AFIX   0

N1    3    0.417411    0.647905    0.316595    11.00000    0.01265    0.02005 =
         0.01833    0.00944    0.00407    0.00946
C1    1    0.653043    0.577440    0.410116    11.00000    0.01191    0.02328 =
         0.01967    0.01178    0.00683    0.00902
C2    1    0.601034    0.677188    0.398671    11.00000    0.01408    0.01681 =
         0.01704    0.00599    0.00192    0.00603
AFIX  23
H2A   2    0.568423    0.732999    0.467980    11.00000   -1.20000
H2B   2    0.732512    0.713935    0.381941    11.00000   -1.20000
AFIX   0
C3    1    0.219424    0.805594    0.383155    11.00000    0.01500    0.01900 =
         0.02351    0.00946    0.00244    0.00702
C4    1    0.213812    0.682400    0.351856    11.00000    0.01371    0.02040 =
         0.02340    0.01217    0.00892    0.00990
AFIX  23
H4A   2    0.186147    0.669695    0.413675    11.00000   -1.20000
H4B   2    0.091209    0.634486    0.293686    11.00000   -1.20000
AFIX   0
C5    1    0.442090    0.602336    0.216002    11.00000    0.01616    0.03139 =
         0.02114    0.00921    0.00428    0.01235
HKLF 4




REM  li0449_a.res in P-1
REM wR2 = 0.0701, GooF = S = 1.044, Restrained GooF = 1.044 for all data
REM R1 = 0.0274 for 4129 Fo > 4sig(Fo) and 0.0333 for all 4585 data
REM 191 parameters refined using 0 restraints

END

WGHT      0.0372      1.5089

REM Highest difference peak  0.558,  deepest hole -0.674,  1-sigma level  0.098
Q1    1   0.5000  0.0000  0.0000  10.50000  0.05    0.56
Q2    1  -0.1813  0.8955  0.3666  11.00000  0.05    0.45
Q3    1   0.3356  0.4608 -0.0422  11.00000  0.05    0.42
Q4    1   0.3400  0.5201  0.0603  11.00000  0.05    0.41
Q5    1   0.7082  0.5796  0.4551  11.00000  0.05    0.40
Q6    1   0.8240  0.4184  0.4993  11.00000  0.05    0.38
Q7    1   0.4668  0.4159 -0.1013  11.00000  0.05    0.37
Q8    1   0.5357  0.7451  0.4343  11.00000  0.05    0.36
Q9    1   0.2330  0.7398  0.3640  11.00000  0.05    0.35
Q10   1   0.5726  0.4393  0.3395  11.00000  0.05    0.35
Q11   1   1.0172  0.4384  0.3005  11.00000  0.05    0.34
Q12   1   1.1700  0.5399  0.5483  11.00000  0.05    0.34
Q13   1   0.0735  0.8559  0.1820  11.00000  0.05    0.34
Q14   1   0.4337  0.3846 -0.0418  11.00000  0.05    0.33
Q15   1   0.7882  0.5566  0.2601  11.00000  0.05    0.32
Q16   1   0.1786  0.8824  0.4587  11.00000  0.05    0.32
Q17   1   0.3064  0.6594  0.3243  11.00000  0.05    0.32
Q18   1  -0.1987  0.9372  0.3025  11.00000  0.05    0.31
Q19   1   0.6232  0.0628  0.4217  11.00000  0.05    0.31
Q20   1   0.3783  1.0973  0.4798  11.00000  0.05    0.30
;
_shelx_res_checksum              46153
_shelx_fab_file
;
-8 3 1 1.8803 0.5329
-7 -5 2 1.5919 -0.2671
-7 -5 3 -0.0498 -0.3185
-7 -5 4 0.1832 -0.0033
-7 -5 5 1.1061 0.0536
-7 -5 6 0.3952 -0.1479
-7 -5 7 -0.4885 -0.1511
-7 -4 1 1.4416 0.3422
-7 -4 2 1.1889 0.0155
-7 -4 3 0.7832 -0.1231
-7 -4 4 0.7419 0.0395
-7 -4 5 0.3834 0.0398
-7 -4 6 0.1791 -0.0935
-7 -4 7 1.1901 -0.0319
-7 -4 8 2.0961 0.0400
-7 -3 1 1.3816 0.6559
-7 -3 2 1.3988 0.0430
-7 -3 3 0.5808 -0.1204
-7 -3 4 -0.6213 0.1267
-7 -3 5 -0.8661 0.1289
-7 -3 6 -0.0011 -0.0009
-7 -3 7 0.8546 0.1150
-7 -3 8 0.9058 0.2068
-7 -3 9 0.2409 -0.0056
-7 -2 1 -0.5272 0.1290
-7 -2 2 0.3373 -0.1332
-7 -2 3 -0.0484 -0.1168
-7 -2 4 -0.1323 0.0265
-7 -2 5 1.1637 -0.0627
-7 -2 6 1.6679 -0.1850
-7 -2 7 0.2282 -0.1282
-7 -2 8 -1.1920 -0.0862
-7 -2 9 -1.3293 -0.0574
-7 -1 1 -0.7847 0.6871
-7 -1 2 0.3360 0.1639
-7 -1 3 0.4647 -0.1336
-7 -1 4 1.0707 0.0354
-7 -1 5 2.3372 0.1597
-7 -1 6 2.1409 0.0683
-7 -1 7 0.2867 0.0304
-7 -1 8 -1.3148 0.0725
-7 -1 9 -1.9084 0.1001
-7 0 1 0.1398 0.2607
-7 0 2 0.7548 -0.1903
-7 0 3 1.2053 -0.1975
-7 0 4 2.2203 0.1213
-7 0 5 3.3126 0.0462
-7 0 6 2.8042 -0.1737
-7 0 7 0.8237 -0.0424
-7 0 8 -0.7412 0.0874
-7 0 9 -0.9300 -0.0532
-7 1 1 0.0369 0.5947
-7 1 2 -0.1128 0.1030
-7 1 3 1.0383 0.0064
-7 1 4 2.4118 0.0972
-7 1 5 2.4987 -0.0853
-7 1 6 0.7458 -0.1134
-7 1 7 -1.1851 0.1398
-7 1 8 -1.0431 0.1151
-7 1 9 0.5505 -0.0196
-7 2 1 -1.0436 0.3118
-7 2 2 -0.1135 -0.1698
-7 2 3 0.7349 -0.2158
-7 2 4 0.0853 0.0034
-7 2 5 -1.1887 0.0375
-7 2 6 -2.3032 0.0482
-7 2 7 -2.5504 0.0739
-7 2 8 -1.5038 -0.2596
-7 3 1 0.0388 0.6219
-7 3 2 0.8883 0.2105
-7 3 3 0.4748 -0.0612
-7 3 4 -0.2859 0.0783
-7 3 5 -0.7833 0.0884
-7 3 6 -1.3568 -0.0106
-7 3 7 -1.5100 0.0987
-7 3 8 -0.8246 0.1838
-7 4 1 0.2625 0.4841
-7 4 2 -0.1051 -0.1746
-7 4 3 0.7311 -0.3475
-7 4 4 1.4825 0.0199
-7 4 5 0.9284 0.0595
-7 4 6 -0.1286 -0.2527
-7 4 7 -0.3949 -0.3126
-7 5 1 0.0601 0.4110
-7 5 2 -0.2959 0.0860
-7 5 3 0.0155 -0.0436
-7 5 4 -0.0749 0.1886
-7 5 5 -0.2252 0.2592
-7 5 6 -0.4086 0.1354
-7 6 1 0.1491 0.6931
-7 6 2 -0.1368 0.0421
-7 6 3 -0.6978 -0.2109
-7 6 4 -0.7805 -0.1280
-7 6 5 -0.2638 -0.1842
-7 6 6 -0.1597 -0.0464
-7 7 1 1.2893 -0.1500
-7 7 2 1.2864 -0.1465
-7 7 3 0.4486 0.1018
-7 7 4 -0.2284 0.1847
-7 7 5 -0.3574 -0.1787
-7 8 1 1.6992 0.9880
-7 8 2 0.7371 0.4198
-7 8 3 -0.3637 -0.0612
-7 9 1 -0.2397 0.1253
-7 9 2 -0.4703 -0.4052
-6 -9 5 0.1310 0.2313
-6 -9 6 0.7880 0.1060
-6 -9 7 1.2858 0.1406
-6 -9 8 0.9121 0.2000
-6 -8 1 3.1405 0.2432
-6 -8 2 2.1496 -0.1225
-6 -8 3 0.8173 -0.1244
-6 -8 4 -1.0154 0.0631
-6 -8 5 -1.8109 0.0277
-6 -8 6 -1.3915 -0.0562
-6 -8 7 -1.0205 0.0434
-6 -8 8 -0.5517 0.0755
-6 -8 9 0.3762 -0.0791
-6 -8 10 0.5440 -0.3116
-6 -7 1 0.8127 0.4045
-6 -7 2 1.0743 -0.1116
-6 -7 3 0.4165 -0.3026
-6 -7 4 0.3003 -0.0636
-6 -7 5 0.7944 -0.0368
-6 -7 6 0.7085 -0.2413
-6 -7 7 0.6203 -0.2175
-6 -7 8 1.2066 -0.0124
-6 -7 9 1.0067 -0.0070
-6 -7 10 -0.2700 -0.1202
-6 -7 11 -0.3550 0.0961
-6 -6 1 0.0735 0.5580
-6 -6 2 -0.3354 0.0898
-6 -6 3 0.0686 0.0405
-6 -6 4 1.5301 0.3284
-6 -6 5 2.0667 0.2904
-6 -6 6 1.3231 0.0419
-6 -6 7 0.4930 0.1334
-6 -6 8 -0.5574 0.3511
-6 -6 9 -1.9199 0.2484
-6 -6 10 -2.0121 0.0901
-6 -6 11 -0.4423 0.0741
-6 -6 12 0.8327 -0.1997
-6 -5 1 -0.1070 0.3434
-6 -5 2 -0.2751 0.0018
-6 -5 3 -0.4231 -0.3407
-6 -5 4 -0.0898 -0.2520
-6 -5 5 0.8075 -0.1031
-6 -5 6 1.5156 -0.1361
-6 -5 7 1.1194 -0.1857
-6 -5 8 -0.0120 -0.2819
-6 -5 9 -0.7714 -0.4078
-6 -5 10 -1.1195 -0.2963
-6 -5 11 -1.4277 -0.0339
-6 -5 12 -1.0826 0.0726
-6 -4 1 3.2048 0.5532
-6 -4 2 2.2049 0.1215
-6 -4 3 -0.2947 -0.1014
-6 -4 4 -0.6240 0.0886
-6 -4 5 1.1741 0.1840
-6 -4 6 1.9384 0.1268
-6 -4 7 1.0113 0.1703
-6 -4 8 0.1896 0.2349
-6 -4 9 -0.4320 0.2556
-6 -4 10 -1.6769 0.3367
-6 -4 11 -2.3307 0.3502
-6 -4 12 -1.1131 0.1367
-6 -3 1 1.4734 0.4104
-6 -3 2 0.6039 0.0956
-6 -3 3 -0.2762 -0.0111
-6 -3 4 0.0255 0.0300
-6 -3 5 0.5283 -0.0462
-6 -3 6 0.1683 -0.1188
-6 -3 7 -0.4356 -0.0579
-6 -3 8 -1.0465 -0.0625
-6 -3 9 -2.1789 -0.2335
-6 -3 10 -2.9590 -0.3776
-6 -3 11 -2.1204 -0.3582
-6 -3 12 -0.4150 -0.2141
-6 -2 1 -3.3874 0.3328
-6 -2 2 -0.2393 -0.1470
-6 -2 3 1.2891 -0.3109
-6 -2 4 0.8750 -0.0411
-6 -2 5 0.1145 0.0453
-6 -2 6 -0.2579 -0.1030
-6 -2 7 -0.7321 -0.0764
-6 -2 8 -1.6677 0.0480
-6 -2 9 -2.3089 0.0825
-6 -2 10 -1.8840 0.2347
-6 -2 11 -1.0238 0.4669
-6 -2 12 -0.6294 0.3379
-6 -1 1 -0.6958 0.7628
-6 -1 2 1.6700 0.1805
-6 -1 3 2.3655 -0.0366
-6 -1 4 1.2592 0.2231
-6 -1 5 -0.5789 0.2750
-6 -1 6 -1.9505 0.1206
-6 -1 7 -2.0156 0.0917
-6 -1 8 -0.9758 0.0825
-6 -1 9 -0.0187 0.0090
-6 -1 10 0.0504 -0.0935
-6 -1 11 -0.3651 -0.3101
-6 -1 12 -0.4351 -0.3441
-6 0 1 0.5805 0.3789
-6 0 2 2.3015 -0.1818
-6 0 3 2.9921 -0.4075
-6 0 4 1.1280 -0.1892
-6 0 5 -1.4338 -0.1093
-6 0 6 -2.0705 -0.2590
-6 0 7 -0.6892 -0.2950
-6 0 8 0.3384 -0.1082
-6 0 9 -0.3659 0.0639
-6 0 10 -1.1834 -0.0655
-6 0 11 -0.5371 -0.2567
-6 0 12 0.4143 0.2208
-6 1 1 1.0090 0.5753
-6 1 2 2.0210 0.1928
-6 1 3 0.3040 0.0508
-6 1 4 -1.8509 0.2549
-6 1 5 -1.8561 0.2910
-6 1 6 -0.1929 0.1537
-6 1 7 0.7003 0.1505
-6 1 8 -0.6561 0.2175
-6 1 9 -2.6383 0.2456
-6 1 10 -2.2620 0.2445
-6 1 11 0.1854 0.0813
-6 2 1 1.0593 0.5499
-6 2 2 -0.7973 -0.0378
-6 2 3 -2.6280 -0.2957
-6 2 4 -2.1948 -0.1195
-6 2 5 -0.4643 -0.0695
-6 2 6 0.5863 -0.1186
-6 2 7 0.1410 -0.1509
-6 2 8 -1.3562 -0.3534
-6 2 9 -2.2209 -0.4308
-6 2 10 -1.0412 -0.0962
-6 2 11 0.9988 0.0564
-6 3 1 0.4590 0.3950
-6 3 2 0.1996 -0.0866
-6 3 3 0.5014 -0.1458
-6 3 4 0.8626 0.0591
-6 3 5 0.5861 0.0001
-6 3 6 -0.1676 0.0170
-6 3 7 -0.7079 0.2715
-6 3 8 -0.6794 0.2946
-6 3 9 -0.2950 0.1880
-6 3 10 0.1856 0.2823
-6 4 1 1.3005 0.6926
-6 4 2 2.4195 0.2212
-6 4 3 1.6619 0.1248
-6 4 4 0.5500 0.2150
-6 4 5 0.2517 0.0388
-6 4 6 0.2160 -0.1145
-6 4 7 0.2169 -0.0891
-6 4 8 0.4562 -0.1441
-6 4 9 0.4959 -0.0884
-6 4 10 0.3322 0.0959
-6 5 1 1.9204 0.2518
-6 5 2 2.0477 -0.2886
-6 5 3 0.2716 -0.5031
-6 5 4 -0.2124 -0.1832
-6 5 5 0.7315 0.0278
-6 5 6 0.9338 -0.0289
-6 5 7 0.1180 -0.1085
-6 5 8 -0.5086 -0.1707
-6 5 9 -0.3881 -0.0629
-6 6 1 0.6031 0.9990
-6 6 2 0.4986 0.2535
-6 6 3 0.1397 -0.0204
-6 6 4 0.2406 0.3189
-6 6 5 0.0484 0.2793
-6 6 6 -0.7632 0.0638
-6 6 7 -1.3398 0.3096
-6 6 8 -1.1083 0.3949
-6 7 1 0.1712 0.3547
-6 7 2 1.2080 -0.2591
-6 7 3 1.4407 -0.2536
-6 7 4 0.4331 0.0027
-6 7 5 -0.7021 -0.3530
-6 7 6 -0.7104 -0.6351
-6 7 7 0.1456 -0.1602
-6 8 1 1.3126 0.4820
-6 8 2 1.6405 -0.0379
-6 8 3 1.0572 -0.1593
-6 8 4 -0.0494 0.3296
-6 8 5 -0.5870 0.5316
-6 8 6 -0.0542 0.2416
-6 9 1 0.3518 0.9671
-6 9 2 1.6807 0.1415
-6 9 3 1.3556 -0.3620
-6 9 4 -0.1931 -0.1324
-6 9 5 -1.5907 0.1010
-6 10 1 1.3714 0.0226
-6 10 2 2.2176 -0.1033
-6 10 3 1.0444 -0.2116
-6 10 4 -0.1293 -0.1276
-6 11 1 -0.8112 0.8667
-6 11 2 -0.5884 0.3927
-5 -11 4 -1.7007 -0.2703
-5 -11 5 -2.8195 -0.0705
-5 -11 6 -1.8479 -0.1360
-5 -11 7 1.3879 -0.0965
-5 -11 8 3.6676 0.0155
-5 -11 9 3.0853 -0.0918
-5 -11 10 1.0689 -0.1858
-5 -10 1 -2.6595 0.7144
-5 -10 2 0.9467 0.2074
-5 -10 3 2.2240 -0.1706
-5 -10 4 0.3412 0.0702
-5 -10 5 -0.7123 0.1768
-5 -10 6 0.1378 -0.0373
-5 -10 7 0.1570 -0.0550
-5 -10 8 -0.8471 0.0611
-5 -10 9 -0.5748 0.0154
-5 -10 10 0.5222 -0.0361
-5 -10 11 0.4364 -0.0169
-5 -10 12 -0.0209 0.0059
-5 -9 1 -1.7018 0.2913
-5 -9 2 -0.3285 0.0562
-5 -9 3 0.8324 0.0113
-5 -9 4 1.5675 0.1329
-5 -9 5 1.8999 0.0368
-5 -9 6 0.4914 -0.1155
-5 -9 7 -1.7514 -0.0183
-5 -9 8 -1.7667 0.1125
-5 -9 9 0.3486 0.0665
-5 -9 10 1.3674 0.0479
-5 -9 11 0.3901 0.1454
-5 -9 12 -0.4394 0.0924
-5 -9 13 -0.0262 -0.1927
-5 -8 1 -2.0734 0.3104
-5 -8 2 -1.9986 -0.1389
-5 -8 3 -0.0390 -0.2853
-5 -8 4 1.7446 -0.0284
-5 -8 5 2.1016 0.0903
-5 -8 6 1.4644 -0.0268
-5 -8 7 0.7299 -0.0264
-5 -8 8 0.2461 0.0325
-5 -8 9 0.3282 -0.0895
-5 -8 10 0.7478 -0.1709
-5 -8 11 0.0582 -0.0605
-5 -8 12 -2.0046 -0.0620
-5 -8 13 -3.0948 -0.1382
-5 -8 14 -1.9530 0.1190
-5 -7 1 -1.5067 0.5829
-5 -7 2 -1.7201 0.1117
-5 -7 3 -0.9921 -0.0923
-5 -7 4 -0.6781 0.1345
-5 -7 5 -0.3431 0.1114
-5 -7 6 0.6232 -0.1564
-5 -7 7 0.7440 -0.0851
-5 -7 8 -0.5168 0.1214
-5 -7 9 -0.9897 0.0170
-5 -7 10 0.0054 -0.0662
-5 -7 11 0.3032 0.1275
-5 -7 12 -0.6471 0.2230
-5 -7 13 -1.0973 0.1006
-5 -7 14 -0.9154 -0.0418
-5 -6 1 -0.0007 0.4763
-5 -6 2 -1.0049 -0.0314
-5 -6 3 -1.2424 -0.2384
-5 -6 4 -0.9612 0.0295
-5 -6 5 0.0555 0.0570
-5 -6 6 1.2633 -0.0770
-5 -6 7 0.9004 0.0781
-5 -6 8 -1.1694 0.1947
-5 -6 9 -2.3892 0.0154
-5 -6 10 -0.9482 -0.0727
-5 -6 11 1.5681 -0.0190
-5 -6 12 2.2666 -0.1297
-5 -6 13 0.6347 -0.1977
-5 -6 14 -0.9900 0.0522
-5 -5 1 -0.1441 0.4326
-5 -5 2 -1.1775 0.0118
-5 -5 3 -0.1418 -0.1018
-5 -5 4 1.8678 0.0967
-5 -5 5 3.0592 0.0912
-5 -5 6 3.1862 -0.0898
-5 -5 7 2.3683 -0.1320
-5 -5 8 0.5136 -0.0930
-5 -5 9 -0.9624 -0.1001
-5 -5 10 -0.3508 -0.0484
-5 -5 11 1.0087 0.0697
-5 -5 12 0.5319 0.0982
-5 -5 13 -1.0582 0.0402
-5 -5 14 -1.1095 -0.0144
-5 -4 1 -0.8365 0.5912
-5 -4 2 0.2295 0.0577
-5 -4 3 1.6727 -0.2488
-5 -4 4 1.8942 -0.0186
-5 -4 5 0.9279 0.0999
-5 -4 6 0.8979 -0.0616
-5 -4 7 1.8616 0.0090
-5 -4 8 1.4565 0.2253
-5 -4 9 -0.4448 0.1132
-5 -4 10 -1.5396 -0.0721
-5 -4 11 -1.2380 0.0499
-5 -4 12 -0.8048 0.1245
-5 -4 13 -0.7470 -0.0615
-5 -4 14 -0.8234 -0.0939
-5 -3 1 -0.5204 0.4674
-5 -3 2 -0.1717 -0.0837
-5 -3 3 -0.0010 -0.1368
-5 -3 4 -0.3104 0.1991
-5 -3 5 -1.2104 0.1162
-5 -3 6 -1.2365 -0.1356
-5 -3 7 0.2233 0.0083
-5 -3 8 1.2701 0.1163
-5 -3 9 0.3732 -0.1415
-5 -3 10 -1.2683 -0.2349
-5 -3 11 -1.6801 -0.0343
-5 -3 12 -0.8511 -0.0003
-5 -3 13 -0.3037 -0.0308
-5 -3 14 -0.6581 0.1643
-5 -2 1 -0.8475 0.5272
-5 -2 2 -0.9802 0.0778
-5 -2 3 0.6309 -0.1419
-5 -2 4 2.0634 -0.0470
-5 -2 5 0.9884 -0.0682
-5 -2 6 -0.6933 -0.1502
-5 -2 7 0.1739 -0.0725
-5 -2 8 2.0326 0.0282
-5 -2 9 1.2276 0.0576
-5 -2 10 -1.4400 0.1293
-5 -2 11 -2.3527 0.1886
-5 -2 12 -1.0591 0.0447
-5 -2 13 0.1514 -0.2377
-5 -2 14 0.3510 -0.3021
-5 -1 1 1.1177 0.6036
-5 -1 2 0.6157 -0.0181
-5 -1 3 1.6906 -0.2395
-5 -1 4 3.4701 0.1138
-5 -1 5 2.9269 0.2912
-5 -1 6 0.6421 0.1162
-5 -1 7 -0.1608 0.0403
-5 -1 8 0.6747 0.0652
-5 -1 9 1.1021 -0.0818
-5 -1 10 0.8501 -0.1707
-5 -1 11 0.5432 0.0272
-5 -1 12 0.1369 0.1294
-5 -1 13 -0.0405 -0.0155
-5 -1 14 0.3490 0.1770
-5 0 1 0.2965 0.5344
-5 0 2 -0.4957 0.0466
-5 0 3 0.7481 -0.1501
-5 0 4 3.2267 -0.0163
-5 0 5 3.6868 -0.0749
-5 0 6 1.5979 -0.2081
-5 0 7 -0.4313 -0.0925
-5 0 8 -0.2120 0.0348
-5 0 9 1.8648 -0.0119
-5 0 10 3.1594 -0.0314
-5 0 11 1.6897 -0.0295
-5 0 12 -1.0143 -0.1187
-5 0 13 -1.9961 -0.0703
-5 1 1 1.3473 0.5958
-5 1 2 0.0845 -0.0067
-5 1 3 -0.6053 -0.2228
-5 1 4 0.7902 0.0376
-5 1 5 2.8640 0.1339
-5 1 6 2.4161 0.0197
-5 1 7 -0.6758 0.0198
-5 1 8 -2.6440 0.1187
-5 1 9 -1.4195 0.1432
-5 1 10 0.4929 0.0643
-5 1 11 0.3295 0.0003
-5 1 12 -1.1589 0.0234
-5 1 13 -1.7122 -0.1376
-5 2 1 1.8880 0.5428
-5 2 2 -1.5184 0.0159
-5 2 3 -2.0616 -0.0723
-5 2 4 1.3756 0.1839
-5 2 5 4.5368 0.1490
-5 2 6 3.1279 -0.0877
-5 2 7 -1.0691 -0.1292
-5 2 8 -3.3771 -0.0742
-5 2 9 -2.4823 -0.1498
-5 2 10 -0.4122 -0.1713
-5 2 11 0.8154 0.1278
-5 2 12 0.6998 0.4835
-5 3 1 0.8136 0.6066
-5 3 2 0.0868 -0.0601
-5 3 3 1.5665 -0.3747
-5 3 4 3.7923 -0.1244
-5 3 5 3.8092 0.0084
-5 3 6 1.5400 -0.0934
-5 3 7 -0.6311 0.0095
-5 3 8 -1.5036 0.2757
-5 3 9 -1.3297 0.2167
-5 3 10 -0.5009 -0.2612
-5 3 11 0.2612 -0.5541
-5 3 12 0.3664 -0.0498
-5 4 1 4.1974 0.6123
-5 4 2 2.6742 0.0599
-5 4 3 1.0235 -0.0320
-5 4 4 0.3905 0.2837
-5 4 5 0.2330 0.2230
-5 4 6 0.1033 -0.1395
-5 4 7 -0.1553 -0.1911
-5 4 8 -0.4718 0.1004
-5 4 9 -0.6495 0.2755
-5 4 10 -0.9287 0.0644
-5 4 11 -1.3674 -0.1766
-5 5 1 2.3923 0.5619
-5 5 2 0.4493 0.0784
-5 5 3 -1.1987 -0.2462
-5 5 4 -1.2157 -0.1640
-5 5 5 0.2892 0.0099
-5 5 6 1.5508 0.0710
-5 5 7 1.0071 -0.0811
-5 5 8 -0.5032 -0.2961
-5 5 9 -1.1891 -0.1589
-5 5 10 -0.9561 0.2442
-5 5 11 -0.7413 0.3621
-5 6 1 -1.0603 0.5412
-5 6 2 -0.3536 -0.0377
-5 6 3 -0.4508 -0.2364
-5 6 4 -0.0614 -0.0231
-5 6 5 1.1649 0.1196
-5 6 6 1.0576 0.1732
-5 6 7 -1.2141 0.2026
-5 6 8 -2.8894 0.0616
-5 6 9 -1.6280 -0.1859
-5 6 10 0.8210 -0.4241
-5 7 1 -0.2554 0.5323
-5 7 2 1.7649 0.1941
-5 7 3 2.0681 0.1358
-5 7 4 1.2641 0.1292
-5 7 5 0.1493 -0.1924
-5 7 6 -0.9696 -0.3621
-5 7 7 -1.5654 0.0119
-5 7 8 -1.0759 0.4669
-5 7 9 0.2007 0.4302
-5 8 1 2.7437 0.5119
-5 8 2 2.8304 -0.2155
-5 8 3 1.3145 -0.4611
-5 8 4 -0.0061 0.0933
-5 8 5 0.0510 0.3616
-5 8 6 1.1483 -0.0864
-5 8 7 1.7363 -0.4748
-5 8 8 1.0571 -0.2845
-5 9 1 0.5498 0.7771
-5 9 2 -0.8895 0.0254
-5 9 3 -0.4896 -0.2782
-5 9 4 1.1780 0.1103
-5 9 5 2.2341 0.3242
-5 9 6 1.7491 0.2141
-5 9 7 0.3625 0.0782
-5 10 1 -1.4606 0.6127
-5 10 2 0.0963 0.2420
-5 10 3 2.2276 -0.1210
-5 10 4 2.6486 -0.3345
-5 10 5 1.1824 -0.3159
-5 10 6 -0.5259 0.1272
-5 11 1 0.1665 0.1750
-5 11 2 0.8518 -0.1593
-5 11 3 0.8678 -0.0015
-5 11 4 0.4347 0.3801
-5 11 5 -0.0350 -0.0840
-5 12 1 0.8848 0.7468
-5 12 2 0.2320 -0.1935
-5 12 3 0.1901 -0.0653
-5 13 1 1.7449 0.4656
-4 -13 5 -1.9665 0.1579
-4 -13 6 -1.2509 0.1152
-4 -13 7 0.9811 0.1613
-4 -13 8 0.6599 0.2893
-4 -13 9 -1.6051 0.2614
-4 -13 10 -2.1884 0.1340
-4 -13 11 -0.0883 0.1675
-4 -12 2 0.8275 -0.3580
-4 -12 3 2.1858 -0.2001
-4 -12 4 0.3653 0.1840
-4 -12 5 -1.4876 0.0537
-4 -12 6 -0.6254 -0.1218
-4 -12 7 1.1854 0.0532
-4 -12 8 1.4619 0.0562
-4 -12 9 0.7200 -0.1962
-4 -12 10 0.3524 -0.1164
-4 -12 11 0.1316 0.1395
-4 -12 12 -0.4661 -0.0885
-4 -12 13 -0.8247 -0.5422
-4 -11 1 -1.0919 0.5343
-4 -11 2 0.8639 0.0398
-4 -11 3 1.9819 -0.1700
-4 -11 4 1.4410 -0.0608
-4 -11 5 -0.1448 -0.0707
-4 -11 6 -1.5217 -0.1306
-4 -11 7 -1.5056 -0.1002
-4 -11 8 0.0809 -0.1145
-4 -11 9 2.0409 -0.1063
-4 -11 10 2.7340 0.0321
-4 -11 11 1.3868 0.0380
-4 -11 12 -1.0710 -0.1428
-4 -11 13 -2.2709 -0.0301
-4 -11 14 -0.7177 0.4712
-4 -10 1 -0.3644 0.5454
-4 -10 2 -1.0206 0.0372
-4 -10 3 -1.7020 -0.1640
-4 -10 4 -2.0525 0.1232
-4 -10 5 -2.3162 0.2517
-4 -10 6 -1.9847 0.1144
-4 -10 7 -0.6104 0.1090
-4 -10 8 0.8678 0.1881
-4 -10 9 1.4222 0.1101
-4 -10 10 1.4712 0.0392
-4 -10 11 1.7008 0.1264
-4 -10 12 1.8494 0.1710
-4 -10 13 1.7280 0.0518
-4 -10 14 1.6752 -0.1583
-4 -10 15 1.4021 -0.4153
-4 -9 1 -1.0422 0.3885
-4 -9 2 -1.7883 0.0481
-4 -9 3 -1.4275 -0.1750
-4 -9 4 0.0901 -0.0366
-4 -9 5 1.4908 -0.0127
-4 -9 6 1.5182 -0.1794
-4 -9 7 0.5125 -0.1777
-4 -9 8 -0.2375 -0.0755
-4 -9 9 -0.1711 -0.0991
-4 -9 10 0.3954 -0.1328
-4 -9 11 1.0686 -0.1294
-4 -9 12 1.3758 -0.1796
-4 -9 13 0.7705 -0.1382
-4 -9 14 -0.4132 0.0581
-4 -9 15 -0.9446 0.1821
-4 -8 1 0.8855 0.5389
-4 -8 2 0.4011 -0.0590
-4 -8 3 0.1994 -0.2310
-4 -8 4 1.1351 0.0921
-4 -8 5 2.1835 0.1288
-4 -8 6 1.8550 -0.0599
-4 -8 7 0.4456 0.0366
-4 -8 8 -0.5018 0.1900
-4 -8 9 -0.3313 0.0921
-4 -8 10 0.2424 0.0142
-4 -8 11 0.2349 0.1068
-4 -8 12 -0.7856 0.1726
-4 -8 13 -2.1626 0.1546
-4 -8 14 -2.2417 0.0799
-4 -8 15 -0.4009 -0.0475
-4 -7 1 0.1658 0.4615
-4 -7 2 -1.9426 0.0145
-4 -7 3 -3.6263 -0.0205
-4 -7 4 -3.0030 0.1579
-4 -7 5 -0.1811 0.0642
-4 -7 6 2.1636 -0.0525
-4 -7 7 1.7991 0.0155
-4 -7 8 0.1166 -0.0100
-4 -7 9 -0.1169 -0.1068
-4 -7 10 1.0602 -0.0125
-4 -7 11 1.4956 0.0695
-4 -7 12 0.3980 -0.1017
-4 -7 13 -1.0272 -0.2398
-4 -7 14 -1.3224 -0.1421
-4 -7 15 -0.1068 -0.0514
-4 -7 16 1.4884 -0.0359
-4 -6 1 0.1452 0.4421
-4 -6 2 -1.2464 -0.0549
-4 -6 3 -2.4845 -0.2655
-4 -6 4 -2.0971 -0.0867
-4 -6 5 0.2330 -0.0224
-4 -6 6 2.2005 -0.1092
-4 -6 7 1.8986 -0.0459
-4 -6 8 0.5640 0.0437
-4 -6 9 0.1828 -0.0474
-4 -6 10 0.8407 -0.1173
-4 -6 11 1.7561 -0.0328
-4 -6 12 2.1158 0.0552
-4 -6 13 0.9191 0.1312
-4 -6 14 -1.1146 0.2043
-4 -6 15 -1.2476 0.1051
-4 -6 16 0.9167 -0.0586
-4 -5 1 0.3996 0.5600
-4 -5 2 1.5887 0.0934
-4 -5 3 1.8657 -0.0502
-4 -5 4 0.8137 0.1669
-4 -5 5 -0.3090 0.1383
-4 -5 6 -0.5173 0.0017
-4 -5 7 -0.3443 0.1103
-4 -5 8 -0.4257 0.1382
-4 -5 9 -0.3187 -0.0133
-4 -5 10 0.5034 0.0724
-4 -5 11 1.4455 0.2243
-4 -5 12 1.1339 -0.0010
-4 -5 13 -0.7910 -0.2494
-4 -5 14 -2.4617 -0.1105
-4 -5 15 -1.8255 0.0737
-4 -5 16 0.3206 0.0778
-4 -4 1 -0.4817 0.5568
-4 -4 2 3.6195 -0.0253
-4 -4 3 3.8144 -0.2546
-4 -4 4 -0.3614 -0.0373
-4 -4 5 -4.1026 0.0156
-4 -4 6 -3.5402 -0.1222
-4 -4 7 -0.5551 -0.1468
-4 -4 8 1.0428 -0.0926
-4 -4 9 0.5168 -0.0505
-4 -4 10 -0.8141 -0.0356
-4 -4 11 -2.1017 -0.1123
-4 -4 12 -2.7362 -0.1346
-4 -4 13 -2.2019 0.0655
-4 -4 14 -1.0149 0.1582
-4 -4 15 -0.0405 -0.1132
-4 -4 16 0.7694 -0.2486
-4 -3 1 -1.0651 0.5314
-4 -3 2 0.8190 -0.0201
-4 -3 3 -0.0962 -0.1830
-4 -3 4 -2.9954 0.0991
-4 -3 5 -3.5928 0.1706
-4 -3 6 0.2953 0.0026
-4 -3 7 4.7058 0.0192
-4 -3 8 4.6900 0.1265
-4 -3 9 0.8440 0.0385
-4 -3 10 -2.6657 -0.0438
-4 -3 11 -3.4107 0.0808
-4 -3 12 -1.7024 0.1657
-4 -3 13 0.4794 0.0678
-4 -3 14 0.7997 -0.0206
-4 -3 15 -0.7172 -0.0086
-4 -2 1 -4.9888 0.6902
-4 -2 2 -3.8241 0.1311
-4 -2 3 0.3080 -0.1749
-4 -2 4 2.6525 -0.0179
-4 -2 5 2.6492 0.0648
-4 -2 6 3.2001 -0.0278
-4 -2 7 4.2709 -0.0318
-4 -2 8 3.8070 -0.0033
-4 -2 9 2.1156 0.0121
-4 -2 10 0.6251 0.0952
-4 -2 11 -0.3248 0.0005
-4 -2 12 -0.6573 -0.3052
-4 -2 13 -0.7332 -0.2259
-4 -2 14 -1.5193 0.2542
-4 -2 15 -2.5016 0.2427
-4 -1 1 -6.4066 0.5017
-4 -1 2 -3.0430 -0.0301
-4 -1 3 3.7160 -0.2540
-4 -1 4 5.5040 -0.0145
-4 -1 5 1.6917 0.0964
-4 -1 6 -1.8624 -0.0467
-4 -1 7 -1.3179 -0.1371
-4 -1 8 2.0040 -0.0960
-4 -1 9 4.2866 -0.0132
-4 -1 10 3.0386 0.0311
-4 -1 11 -0.5559 -0.0033
-4 -1 12 -3.1566 0.0184
-4 -1 13 -3.0722 0.1569
-4 -1 14 -1.3071 0.0933
-4 -1 15 0.4078 -0.3398
-4 0 1 -7.6661 0.6589
-4 0 2 -3.7334 0.0981
-4 0 3 2.5744 -0.1209
-4 0 4 4.2071 0.0965
-4 0 5 0.4100 0.1776
-4 0 6 -3.0542 0.0239
-4 0 7 -1.9068 -0.0002
-4 0 8 1.3203 0.1351
-4 0 9 2.0938 0.1345
-4 0 10 0.0761 -0.0184
-4 0 11 -2.3048 -0.0793
-4 0 12 -3.4400 0.0073
-4 0 13 -2.7087 0.1280
-4 0 14 -0.6423 0.1526
-4 1 1 -5.3047 0.4879
-4 1 2 0.0100 -0.0622
-4 1 3 5.2678 -0.2419
-4 1 4 5.0295 0.0055
-4 1 5 0.4842 0.0282
-4 1 6 -1.8997 -0.1753
-4 1 7 -0.5627 -0.1073
-4 1 8 0.0149 0.0951
-4 1 9 -1.5257 0.0061
-4 1 10 -2.2039 -0.1846
-4 1 11 -1.4774 -0.1393
-4 1 12 -1.2106 0.0208
-4 1 13 -1.2109 0.0898
-4 1 14 -0.4437 -0.0654
-4 2 1 -0.5713 0.6177
-4 2 2 1.6312 0.0734
-4 2 3 1.9372 -0.1321
-4 2 4 -0.3335 0.0905
-4 2 5 -1.7239 0.1075
-4 2 6 0.1361 -0.0707
-4 2 7 2.2422 -0.0587
-4 2 8 1.4104 0.0450
-4 2 9 -0.6618 0.0436
-4 2 10 -1.0418 0.0575
-4 2 11 -0.0194 0.1365
-4 2 12 0.5402 0.1118
-4 2 13 0.2603 -0.1043
-4 2 14 0.0713 -0.3498
-4 3 1 -1.7540 0.5912
-4 3 2 -3.2268 0.0034
-4 3 3 -3.4753 -0.1995
-4 3 4 -1.8076 0.0645
-4 3 5 0.7358 0.1659
-4 3 6 2.0725 -0.0021
-4 3 7 1.6842 -0.0158
-4 3 8 0.3827 0.1407
-4 3 9 -1.2206 0.0379
-4 3 10 -2.1346 -0.2527
-4 3 11 -1.3942 -0.1146
-4 3 12 -0.0749 0.3435
-4 3 13 -0.0200 0.1957
-4 4 1 -1.8488 0.5447
-4 4 2 -0.7711 0.0695
-4 4 3 0.7177 -0.2090
-4 4 4 1.5147 -0.0658
-4 4 5 0.4044 -0.0206
-4 4 6 -1.5615 -0.1609
-4 4 7 -2.0175 -0.0843
-4 4 8 -1.2954 0.0814
-4 4 9 -1.5205 -0.0638
-4 4 10 -2.3922 -0.1984
-4 4 11 -1.8850 0.0729
-4 4 12 -0.0754 0.1635
-4 5 1 1.4453 0.6755
-4 5 2 5.0977 0.1303
-4 5 3 3.8841 -0.1532
-4 5 4 0.4013 0.0430
-4 5 5 -1.5546 0.1772
-4 5 6 -0.7787 0.0811
-4 5 7 1.1884 0.0093
-4 5 8 2.0566 0.0345
-4 5 9 0.7327 0.1169
-4 5 10 -1.6037 0.1939
-4 5 11 -2.3703 0.0775
-4 5 12 -0.6937 -0.1838
-4 6 1 1.9169 0.5338
-4 6 2 2.7845 0.0050
-4 6 3 0.6717 -0.2135
-4 6 4 -0.5641 0.0292
-4 6 5 0.7384 0.1164
-4 6 6 2.4736 -0.0700
-4 6 7 2.6668 -0.1326
-4 6 8 1.4635 -0.0391
-4 6 9 -0.4337 -0.0861
-4 6 10 -2.1704 -0.1785
-4 6 11 -2.5032 0.1283
-4 7 1 -3.7285 0.5933
-4 7 2 -2.7287 -0.0718
-4 7 3 -0.0433 -0.2573
-4 7 4 1.9077 0.0441
-4 7 5 1.6375 0.0199
-4 7 6 0.1153 -0.1820
-4 7 7 -0.6461 0.0410
-4 7 8 -0.1552 0.2697
-4 7 9 0.4399 -0.0993
-4 7 10 0.3317 -0.4161
-4 8 1 -3.1571 0.6170
-4 8 2 -0.2257 0.0805
-4 8 3 2.9467 -0.0724
-4 8 4 2.5845 0.1980
-4 8 5 -0.4389 0.1935
-4 8 6 -2.3720 -0.0442
-4 8 7 -1.4774 0.0042
-4 8 8 0.6598 0.2170
-4 8 9 1.6389 0.1769
-4 9 1 1.4377 0.5699
-4 9 2 1.5853 -0.0232
-4 9 3 1.8688 -0.3918
-4 9 4 1.4346 -0.1164
-4 9 5 0.3781 0.0986
-4 9 6 -0.7300 -0.1458
-4 9 7 -1.2641 -0.3831
-4 9 8 -1.0552 -0.1960
-4 10 1 0.2320 0.5605
-4 10 2 -0.8030 0.0370
-4 10 3 0.7085 -0.1446
-4 10 4 3.1281 0.1251
-4 10 5 3.4751 0.2449
-4 10 6 1.0917 0.1403
-4 10 7 -1.5385 0.0430
-4 11 1 -1.7212 0.5555
-4 11 2 -1.2186 0.0909
-4 11 3 1.4871 -0.0256
-4 11 4 3.0585 0.0232
-4 11 5 1.5603 -0.1493
-4 11 6 -1.0061 -0.0339
-4 12 1 -0.1121 0.2957
-4 12 2 0.6235 -0.2457
-4 12 3 1.4587 -0.2253
-4 12 4 0.5750 0.0003
-4 13 1 1.7650 0.6478
-4 13 2 0.2295 0.0364
-4 13 3 -0.9525 0.2478
-4 14 1 0.5317 0.2009
-3 -14 4 -1.3906 0.2143
-3 -14 5 -0.7847 0.2063
-3 -14 6 0.5496 0.0263
-3 -14 7 1.6895 -0.0273
-3 -14 8 1.1135 0.0594
-3 -14 9 -1.8572 0.1197
-3 -14 10 -4.6866 0.0968
-3 -14 11 -4.0924 0.0348
-3 -14 12 -1.0896 0.0588
-3 -13 1 1.4464 0.0985
-3 -13 2 1.3699 -0.0694
-3 -13 3 0.5203 -0.0122
-3 -13 4 -0.4520 0.0253
-3 -13 5 -1.4096 -0.0283
-3 -13 6 -0.7273 -0.0118
-3 -13 7 2.0352 0.0793
-3 -13 8 3.4603 0.0900
-3 -13 9 0.7975 0.0129
-3 -13 10 -3.0931 -0.0242
-3 -13 11 -3.3942 0.0188
-3 -13 12 -0.3974 0.0484
-3 -13 13 0.9028 -0.0731
-3 -13 14 -1.7714 -0.3422
-3 -12 1 -0.0466 0.3055
-3 -12 2 -0.4483 -0.0452
-3 -12 3 0.0399 -0.1744
-3 -12 4 0.0805 -0.0548
-3 -12 5 -1.1399 -0.0319
-3 -12 6 -1.8399 -0.0949
-3 -12 7 -0.6343 -0.0760
-3 -12 8 0.7315 -0.0745
-3 -12 9 -0.1001 -0.1377
-3 -12 10 -2.3116 -0.1029
-3 -12 11 -2.9919 -0.0006
-3 -12 12 -1.4686 -0.0079
-3 -12 13 -0.0649 -0.0388
-3 -12 14 -0.3806 0.1002
-3 -12 15 -1.3592 0.3432
-3 -11 1 -0.9685 0.5205
-3 -11 2 -1.1547 0.0667
-3 -11 3 -0.5477 -0.0107
-3 -11 4 0.2819 0.1539
-3 -11 5 -0.0929 0.0940
-3 -11 6 -1.5753 -0.0113
-3 -11 7 -2.1264 0.0957
-3 -11 8 -1.0479 0.1772
-3 -11 9 0.0008 0.0894
-3 -11 10 0.0900 0.0238
-3 -11 11 0.1201 0.0403
-3 -11 12 0.5860 0.0668
-3 -11 13 0.9217 0.0823
-3 -11 14 0.8795 -0.0352
-3 -11 15 0.6792 -0.2872
-3 -11 16 0.2781 -0.2621
-3 -10 1 -0.1430 0.3253
-3 -10 2 -1.0159 -0.0777
-3 -10 3 -0.0518 -0.1917
-3 -10 4 1.7475 0.0117
-3 -10 5 1.6888 0.0226
-3 -10 6 -0.2234 -0.1145
-3 -10 7 -1.4232 -0.0833
-3 -10 8 -0.9030 -0.0039
-3 -10 9 0.3643 -0.0485
-3 -10 10 1.6754 -0.0757
-3 -10 11 2.4506 -0.0229
-3 -10 12 1.8500 -0.0220
-3 -10 13 0.4021 -0.0827
-3 -10 14 -0.0402 -0.0922
-3 -10 15 0.9936 -0.0026
-3 -10 16 1.7872 0.1521
-3 -9 1 1.5888 0.5460
-3 -9 2 -0.5194 0.0511
-3 -9 3 -0.5305 -0.1460
-3 -9 4 1.4102 0.0373
-3 -9 5 2.4269 0.0720
-3 -9 6 0.6965 -0.0398
-3 -9 7 -2.0989 -0.0147
-3 -9 8 -2.7283 0.0308
-3 -9 9 -0.4389 -0.0218
-3 -9 10 2.1057 -0.0115
-3 -9 11 2.2747 0.0594
-3 -9 12 0.5271 0.0543
-3 -9 13 -0.7882 0.0706
-3 -9 14 -0.4974 0.1741
-3 -9 15 0.5418 0.1482
-3 -9 16 0.9842 -0.0833
-3 -8 1 0.6161 0.5228
-3 -8 2 -3.7871 0.0432
-3 -8 3 -4.3957 -0.1644
-3 -8 4 -0.5370 0.0445
-3 -8 5 2.5885 0.1278
-3 -8 6 0.7051 0.0119
-3 -8 7 -3.5016 0.0194
-3 -8 8 -4.8344 0.0859
-3 -8 9 -2.7376 0.0221
-3 -8 10 -0.0169 -0.0352
-3 -8 11 1.6460 0.0024
-3 -8 12 1.6085 -0.0283
-3 -8 13 -0.1706 -0.1615
-3 -8 14 -1.6461 -0.2134
-3 -8 15 -0.7761 -0.0740
-3 -8 16 0.9128 0.1373
-3 -8 17 0.7753 0.1646
-3 -7 1 -0.1092 0.5119
-3 -7 2 -0.5817 0.0103
-3 -7 3 -0.8741 -0.1816
-3 -7 4 -0.5806 0.0125
-3 -7 5 -0.9428 -0.0099
-3 -7 6 -2.2075 -0.1745
-3 -7 7 -2.8775 -0.0790
-3 -7 8 -2.3798 0.0541
-3 -7 9 -1.1142 -0.0386
-3 -7 10 1.2418 -0.0890
-3 -7 11 3.8069 0.0454
-3 -7 12 3.7061 0.1201
-3 -7 13 0.9174 0.0694
-3 -7 14 -0.5424 0.0487
-3 -7 15 0.6456 0.0512
-3 -7 16 1.1054 -0.0216
-3 -7 17 -0.4191 -0.1200
-3 -6 1 7.3676 0.5166
-3 -6 2 7.4746 0.0261
-3 -6 3 1.7160 -0.1217
-3 -6 4 -3.9243 0.0988
-3 -6 5 -4.0639 0.1415
-3 -6 6 0.7011 0.0129
-3 -6 7 5.1496 0.0247
-3 -6 8 5.5265 0.0785
-3 -6 9 2.9808 0.0113
-3 -6 10 0.9352 -0.0396
-3 -6 11 0.8159 0.0058
-3 -6 12 1.5628 0.0343
-3 -6 13 1.8799 0.0031
-3 -6 14 1.1990 -0.0270
-3 -6 15 -0.3598 -0.0131
-3 -6 16 -1.5083 0.0297
-3 -6 17 -0.9202 0.0019
-3 -5 1 5.8096 0.5611
-3 -5 2 2.5051 0.0696
-3 -5 3 -3.8863 -0.2075
-3 -5 4 -6.8736 -0.0245
-3 -5 5 -2.9243 0.0650
-3 -5 6 3.7884 -0.0757
-3 -5 7 6.5444 -0.0774
-3 -5 8 3.9245 0.0389
-3 -5 9 -0.2212 0.0118
-3 -5 10 -2.1488 -0.0580
-3 -5 11 -1.0957 -0.0308
-3 -5 12 1.0480 -0.0514
-3 -5 13 1.4621 -0.1331
-3 -5 14 -0.5501 -0.0678
-3 -5 15 -2.5360 0.1151
-3 -5 16 -2.5470 0.1457
-3 -5 17 -1.7098 -0.0480
-3 -4 1 -4.3117 0.6039
-3 -4 2 -2.3174 0.0266
-3 -4 3 -2.4810 -0.2419
-3 -4 4 -4.7466 0.0089
-3 -4 5 -5.7025 0.1227
-3 -4 6 -4.0729 -0.0332
-3 -4 7 -1.6951 -0.0518
-3 -4 8 0.0545 0.0417
-3 -4 9 1.0983 0.0231
-3 -4 10 1.3272 0.0124
-3 -4 11 0.8264 0.1007
-3 -4 12 -0.0321 0.1521
-3 -4 13 -0.9958 0.1048
-3 -4 14 -1.3647 -0.0259
-3 -4 15 -0.9185 -0.1569
-3 -4 16 -1.2701 -0.0822
-3 -3 1 -1.1330 0.5893
-3 -3 2 6.3405 0.1125
-3 -3 3 7.3515 -0.1298
-3 -3 4 0.0932 0.0717
-3 -3 5 -7.6171 0.1271
-3 -3 6 -7.8334 -0.0464
-3 -3 7 -0.9162 -0.0490
-3 -3 8 6.0934 0.0654
-3 -3 9 7.1999 0.0027
-3 -3 10 3.0706 -0.1357
-3 -3 11 -1.1238 -0.1152
-3 -3 12 -2.3645 -0.0134
-3 -3 13 -1.4643 -0.0136
-3 -3 14 0.2169 -0.0332
-3 -3 15 1.4608 0.0962
-3 -3 16 0.8465 0.1541
-3 -2 1 5.4785 0.6231
-3 -2 2 7.0400 -0.0035
-3 -2 3 6.1063 -0.2971
-3 -2 4 1.8870 -0.0674
-3 -2 5 -1.7911 0.0646
-3 -2 6 -0.3920 -0.0477
-3 -2 7 4.9577 -0.0486
-3 -2 8 8.0317 0.0446
-3 -2 9 5.3679 0.0186
-3 -2 10 0.2554 0.0104
-3 -2 11 -2.5355 0.0860
-3 -2 12 -2.3035 -0.0065
-3 -2 13 -1.0610 -0.1617
-3 -2 14 -0.0503 0.0177
-3 -2 15 0.6792 0.2575
-3 -2 16 1.1569 -0.0663
-3 -1 1 -5.8747 0.5735
-3 -1 2 -7.3656 0.1182
-3 -1 3 -3.8223 -0.1105
-3 -1 4 0.8622 0.0991
-3 -1 5 2.9445 0.1722
-3 -1 6 2.3054 -0.0250
-3 -1 7 0.5710 -0.0644
-3 -1 8 -0.7039 0.0428
-3 -1 9 -0.7504 0.0227
-3 -1 10 -0.4561 0.0110
-3 -1 11 -0.8426 0.1029
-3 -1 12 -1.2387 0.0767
-3 -1 13 -1.1758 -0.0417
-3 -1 14 -1.3663 -0.0648
-3 -1 15 -1.3726 -0.0551
-3 -1 16 -0.3665 0.0167
-3 0 1 -7.4491 0.6805
-3 0 2 -8.6139 -0.0040
-3 0 3 -8.1126 -0.3048
-3 0 4 -4.3841 -0.0091
-3 0 5 -0.3788 0.0716
-3 0 6 -0.0073 -0.1281
-3 0 7 -2.4231 -0.0622
-3 0 8 -2.8314 0.1068
-3 0 9 0.0649 -0.0465
-3 0 10 2.3755 -0.2634
-3 0 11 1.9206 -0.1394
-3 0 12 0.5887 0.1425
-3 0 13 -0.4288 0.1419
-3 0 14 -1.5427 -0.1489
-3 0 15 -2.0850 -0.1725
-3 1 1 9.4043 0.5054
-3 1 2 -0.9224 -0.0395
-3 1 3 -8.8903 -0.1257
-3 1 4 -5.9100 0.1559
-3 1 5 2.4943 0.1269
-3 1 6 6.3813 -0.1142
-3 1 7 4.0393 -0.0400
-3 1 8 0.9368 0.2119
-3 1 9 0.7117 0.1607
-3 1 10 2.0900 -0.0628
-3 1 11 2.5245 -0.0079
-3 1 12 1.3712 0.1654
-3 1 13 -0.1488 -0.0020
-3 1 14 -0.8475 -0.2561
-3 1 15 -0.8075 -0.0035
-3 2 1 9.4146 0.7317
-3 2 2 -0.0095 0.1436
-3 2 3 -4.5253 -0.2352
-3 2 4 -0.0351 -0.0074
-3 2 5 6.8081 0.1415
-3 2 6 8.2987 -0.0805
-3 2 7 3.7321 -0.1412
-3 2 8 -1.7232 0.0264
-3 2 9 -3.1973 -0.0178
-3 2 10 -1.0074 -0.1059
-3 2 11 0.8721 0.0682
-3 2 12 0.6907 0.0877
-3 2 13 0.0436 -0.1843
-3 2 14 -0.1488 -0.0751
-3 3 1 -0.7961 0.5342
-3 3 2 0.5035 -0.1493
-3 3 3 -0.3735 -0.3121
-3 3 4 -0.0880 0.0890
-3 3 5 1.8249 0.1404
-3 3 6 2.9728 -0.1053
-3 3 7 1.5841 -0.0232
-3 3 8 -1.1376 0.1057
-3 3 9 -2.5746 -0.0933
-3 3 10 -1.8714 -0.1516
-3 3 11 -0.2815 0.0966
-3 3 12 0.6129 0.1089
-3 3 13 0.0286 -0.1126
-3 3 14 -1.2348 -0.0605
-3 4 1 -0.9262 0.6549
-3 4 2 2.3177 0.2290
-3 4 3 0.4332 0.0008
-3 4 4 -1.9773 0.0412
-3 4 5 -1.6744 -0.0134
-3 4 6 1.1114 -0.0386
-3 4 7 3.7199 0.1299
-3 4 8 3.5296 0.1813
-3 4 9 1.0354 -0.0144
-3 4 10 -0.5079 -0.0822
-3 4 11 0.1512 0.1442
-3 4 12 0.5802 0.2209
-3 4 13 -0.5646 -0.2763
-3 5 1 1.3554 0.5471
-3 5 2 2.8814 -0.0936
-3 5 3 1.8904 -0.3516
-3 5 4 -0.3981 -0.0160
-3 5 5 -1.4860 0.1428
-3 5 6 0.5390 -0.1155
-3 5 7 3.6857 -0.2172
-3 5 8 3.8705 -0.0284
-3 5 9 1.1237 -0.0206
-3 5 10 -0.6509 -0.1506
-3 5 11 -0.2400 0.0288
-3 5 12 0.1378 0.2140
-3 6 1 0.7711 0.6236
-3 6 2 1.6107 0.0512
-3 6 3 1.6280 -0.1450
-3 6 4 1.0232 0.1668
-3 6 5 0.7226 0.1915
-3 6 6 1.2404 -0.0953
-3 6 7 1.4122 -0.0345
-3 6 8 -0.0377 0.2380
-3 6 9 -2.0132 0.1246
-3 6 10 -2.4233 -0.1742
-3 6 11 -1.2502 -0.1135
-3 6 12 -0.1651 0.2224
-3 7 1 -2.3173 0.7426
-3 7 2 -1.9593 0.0188
-3 7 3 -0.0224 -0.3056
-3 7 4 2.3187 0.0035
-3 7 5 2.7079 0.1344
-3 7 6 1.2749 -0.0652
-3 7 7 0.4375 -0.0943
-3 7 8 0.6798 0.0640
-3 7 9 0.0686 0.0894
-3 7 10 -1.5347 -0.0228
-3 7 11 -1.8912 -0.0814
-3 8 1 -4.1517 0.4367
-3 8 2 -0.9214 -0.0413
-3 8 3 2.3000 -0.1737
-3 8 4 2.9774 0.0445
-3 8 5 0.9982 0.0596
-3 8 6 -0.2538 -0.1108
-3 8 7 1.6116 -0.1493
-3 8 8 3.6114 -0.0858
-3 8 9 1.9712 -0.0401
-3 8 10 -1.2155 0.0471
-3 9 1 -0.5057 0.6968
-3 9 2 2.7603 0.1900
-3 9 3 3.2937 -0.1247
-3 9 4 1.4499 -0.0036
-3 9 5 -0.6891 0.1519
-3 9 6 -1.3758 0.1657
-3 9 7 -0.8407 0.1555
-3 9 8 -0.6439 0.0948
-3 9 9 -1.0021 0.0022
-3 10 1 0.9427 0.3604
-3 10 2 1.3966 -0.1259
-3 10 3 0.9376 -0.1603
-3 10 4 0.3229 0.0693
-3 10 5 0.0494 -0.0848
-3 10 6 -0.5538 -0.3127
-3 10 7 -1.6239 -0.1285
-3 10 8 -1.6997 0.1283
-3 11 1 1.2610 0.4871
-3 11 2 1.3030 0.0372
-3 11 3 0.2977 -0.0224
-3 11 4 0.0186 0.1035
-3 11 5 1.0428 0.0088
-3 11 6 1.4652 -0.0513
-3 12 1 2.0318 0.5762
-3 12 2 1.8023 0.0249
-3 12 3 0.4777 -0.1864
-3 12 4 0.3981 0.0567
-3 12 5 0.6626 0.2750
-3 13 1 1.5551 0.3934
-3 13 2 1.5258 0.0542
-3 13 3 0.7329 -0.1894
-3 13 4 -0.0853 -0.3746
-3 14 1 3.0712 0.4826
-3 14 2 2.8416 0.2636
-2 -15 4 0.5652 0.0483
-2 -15 5 1.2983 0.1082
-2 -15 6 -1.2477 0.0972
-2 -15 7 -3.6781 0.0253
-2 -15 8 -1.1489 -0.0348
-2 -15 9 4.7814 -0.0454
-2 -15 10 7.1809 0.0646
-2 -15 11 3.6236 0.1841
-2 -15 12 -0.6104 0.1085
-2 -15 13 -1.1662 0.0554
-2 -14 1 1.4018 0.2803
-2 -14 2 1.2334 -0.1255
-2 -14 3 0.4892 -0.1537
-2 -14 4 -0.6913 0.1534
-2 -14 5 -1.4693 0.1894
-2 -14 6 -1.2743 -0.0379
-2 -14 7 0.3220 -0.0402
-2 -14 8 3.1507 0.1479
-2 -14 9 3.8362 0.1494
-2 -14 10 -0.6924 -0.0185
-2 -14 11 -5.5199 -0.0934
-2 -14 12 -2.7999 -0.0186
-2 -14 13 4.8561 0.0437
-2 -14 14 7.1616 -0.1008
-2 -13 1 0.8570 0.3583
-2 -13 2 0.6918 0.0422
-2 -13 3 -0.0681 -0.1961
-2 -13 4 -1.0583 -0.2077
-2 -13 5 -1.6785 -0.1302
-2 -13 6 -2.1172 -0.0379
-2 -13 7 -2.1328 -0.0107
-2 -13 8 -1.5075 -0.0991
-2 -13 9 -1.8944 -0.1557
-2 -13 10 -3.9382 -0.0582
-2 -13 11 -4.0195 0.0539
-2 -13 12 0.5184 0.0027
-2 -13 13 5.2439 -0.1387
-2 -13 14 4.1233 -0.0976
-2 -13 15 -1.2185 0.2114
-2 -12 1 -1.2856 0.5482
-2 -12 2 -1.9990 0.1616
-2 -12 3 -1.6345 -0.0657
-2 -12 4 -1.2429 0.0994
-2 -12 5 -1.4917 0.2225
-2 -12 6 -1.6408 0.0659
-2 -12 7 -1.4399 -0.0666
-2 -12 8 -1.4108 0.0194
-2 -12 9 -1.1970 0.1095
-2 -12 10 -0.4573 0.0630
-2 -12 11 -0.1785 0.0167
-2 -12 12 -0.7851 0.0452
-2 -12 13 -1.0325 0.0907
-2 -12 14 -0.1245 0.1298
-2 -12 15 1.0852 0.0495
-2 -12 16 1.3146 -0.2808
-2 -11 1 -2.3704 0.4182
-2 -11 2 -1.7530 -0.0287
-2 -11 3 0.2285 -0.1733
-2 -11 4 1.3482 0.0154
-2 -11 5 2.0118 0.0057
-2 -11 6 2.5914 -0.1078
-2 -11 7 1.1872 0.0273
-2 -11 8 -1.4549 0.1442
-2 -11 9 -1.1134 -0.0259
-2 -11 10 2.3306 -0.1390
-2 -11 11 3.8049 -0.0031
-2 -11 12 1.4832 0.0306
-2 -11 13 -0.7222 -0.1521
-2 -11 14 0.1403 -0.2008
-2 -11 15 2.3933 0.0383
-2 -11 16 3.0774 0.3181
-2 -11 17 1.6724 0.3120
-2 -10 1 -2.1625 0.4379
-2 -10 2 -1.4542 -0.0661
-2 -10 3 0.9749 -0.2155
-2 -10 4 2.6026 0.0344
-2 -10 5 2.2619 0.0931
-2 -10 6 0.6699 -0.0695
-2 -10 7 -0.7084 -0.1130
-2 -10 8 -0.6542 -0.0577
-2 -10 9 0.8111 -0.0275
-2 -10 10 2.3730 0.0269
-2 -10 11 2.7964 0.0642
-2 -10 12 1.9397 0.0211
-2 -10 13 0.6462 0.0132
-2 -10 14 0.1722 0.0849
-2 -10 15 0.9975 0.0905
-2 -10 16 1.8271 -0.0495
-2 -10 17 0.8987 -0.2553
-2 -9 1 -1.7302 0.6401
-2 -9 2 -3.3087 0.1718
-2 -9 3 -1.0774 -0.0758
-2 -9 4 1.3793 0.0698
-2 -9 5 0.5061 0.1028
-2 -9 6 -1.5314 -0.0176
-2 -9 7 -1.6185 0.0239
-2 -9 8 -1.0347 0.1308
-2 -9 9 -1.3337 0.0566
-2 -9 10 -0.7908 -0.0725
-2 -9 11 1.1869 -0.0424
-2 -9 12 2.0236 0.0562
-2 -9 13 0.7497 0.0293
-2 -9 14 -0.4618 -0.0944
-2 -9 15 -0.4058 -0.1463
-2 -9 16 -0.1581 -0.0675
-2 -9 17 -0.3762 0.0954
-2 -8 1 -1.1710 0.4526
-2 -8 2 -2.8429 -0.0878
-2 -8 3 -2.1239 -0.3163
-2 -8 4 -0.6720 -0.0295
-2 -8 5 -0.6599 0.1263
-2 -8 6 -1.2185 -0.0360
-2 -8 7 -1.3669 -0.1006
-2 -8 8 -1.5467 0.0075
-2 -8 9 -1.1631 0.0283
-2 -8 10 0.5676 -0.0270
-2 -8 11 1.9417 -0.0264
-2 -8 12 1.0497 -0.0317
-2 -8 13 -0.9874 -0.0321
-2 -8 14 -1.9144 0.1008
-2 -8 15 -1.2451 0.2286
-2 -8 16 0.2323 0.1054
-2 -8 17 1.5549 -0.1198
-2 -7 1 3.1531 0.6203
-2 -7 2 2.4384 0.0998
-2 -7 3 -0.1396 -0.1190
-2 -7 4 -1.8867 0.1129
-2 -7 5 -1.0654 0.0905
-2 -7 6 1.3944 -0.1740
-2 -7 7 2.9037 -0.1203
-2 -7 8 2.0837 0.0965
-2 -7 9 0.4079 0.0512
-2 -7 10 0.2478 -0.0543
-2 -7 11 1.5487 0.0253
-2 -7 12 1.9483 0.0732
-2 -7 13 0.4720 -0.0219
-2 -7 14 -0.9098 -0.1039
-2 -7 15 -0.4782 -0.1465
-2 -7 16 0.6128 -0.1467
-2 -7 17 0.6026 -0.0003
-2 -6 1 6.5452 0.6100
-2 -6 2 5.2194 -0.0320
-2 -6 3 -0.3878 -0.2556
-2 -6 4 -3.8317 0.0440
-2 -6 5 -1.2763 0.1531
-2 -6 6 3.7932 0.0501
-2 -6 7 5.7478 0.0751
-2 -6 8 3.3362 0.0651
-2 -6 9 -0.0701 -0.0748
-2 -6 10 -0.9993 -0.0709
-2 -6 11 0.5394 0.0491
-2 -6 12 1.9495 0.0264
-2 -6 13 1.6251 -0.0496
-2 -6 14 0.2570 0.0166
-2 -6 15 -1.1115 0.1309
-2 -6 16 -2.0663 0.1284
-2 -6 17 -1.7991 0.0111
-2 -5 1 5.4562 0.5007
-2 -5 2 1.4189 0.0140
-2 -5 3 -4.4924 -0.1390
-2 -5 4 -7.6671 0.0462
-2 -5 5 -6.2278 0.0004
-2 -5 6 -2.2144 -0.1785
-2 -5 7 1.2646 -0.0926
-2 -5 8 1.9105 0.0836
-2 -5 9 -0.6280 0.0470
-2 -5 10 -3.4132 -0.0489
-2 -5 11 -2.7689 -0.0062
-2 -5 12 0.5184 0.0499
-2 -5 13 2.1253 0.0188
-2 -5 14 0.5962 0.0191
-2 -5 15 -1.4288 0.0315
-2 -5 16 -1.8618 -0.1242
-2 -5 17 -1.0015 -0.2465
-2 -4 1 -2.9791 0.6887
-2 -4 2 -3.5340 0.0603
-2 -4 3 -2.6002 -0.2023
-2 -4 4 -5.4949 0.0541
-2 -4 5 -10.0290 0.1180
-2 -4 6 -9.1828 -0.0611
-2 -4 7 -2.0365 -0.0216
-2 -4 8 3.7134 0.0875
-2 -4 9 2.5514 -0.0288
-2 -4 10 -1.3859 -0.0831
-2 -4 11 -1.9258 0.0509
-2 -4 12 0.1664 0.0008
-2 -4 13 1.1840 -0.1796
-2 -4 14 1.2687 -0.0722
-2 -4 15 1.7548 0.1162
-2 -4 16 1.4207 0.0248
-2 -4 17 -0.2370 0.0615
-2 -3 1 -9.4553 0.5165
-2 -3 2 0.0767 -0.0873
-2 -3 3 7.8970 -0.1901
-2 -3 4 3.6957 0.1793
-2 -3 5 -6.2299 0.1712
-2 -3 6 -8.7066 -0.0940
-2 -3 7 -1.4342 -0.0323
-2 -3 8 6.1990 0.1004
-2 -3 9 6.6749 -0.0183
-2 -3 10 1.7284 -0.0520
-2 -3 11 -2.5207 0.0911
-2 -3 12 -2.5822 0.0937
-2 -3 13 0.4453 0.0315
-2 -3 14 3.1560 0.0793
-2 -3 15 3.1678 0.0266
-2 -3 16 0.8229 -0.1232
-2 -3 17 -1.5124 -0.0825
-2 -2 1 -3.1582 0.7044
-2 -2 2 -0.6570 0.1076
-2 -2 3 2.2306 -0.2379
-2 -2 4 1.0519 -0.1103
-2 -2 5 -3.2450 -0.0593
-2 -2 6 -6.2590 -0.0924
-2 -2 7 -4.7136 0.0317
-2 -2 8 0.4430 0.0725
-2 -2 9 3.8264 -0.0712
-2 -2 10 1.5551 -0.0839
-2 -2 11 -2.7343 0.0404
-2 -2 12 -3.1557 0.0052
-2 -2 13 -0.5030 -0.1437
-2 -2 14 0.6904 -0.1049
-2 -2 15 -0.1785 0.1252
-2 -2 16 -1.1658 0.1272
-2 -1 1 -7.2283 0.6286
-2 -1 2 -23.3169 0.0151
-2 -1 3 -17.9504 -0.1799
-2 -1 4 -0.8499 0.1809
-2 -1 5 7.2770 0.2450
-2 -1 6 0.5059 -0.0657
-2 -1 7 -7.8987 -0.1218
-2 -1 8 -6.1714 0.0727
-2 -1 9 1.0781 0.0671
-2 -1 10 3.5709 -0.0642
-2 -1 11 0.6550 -0.0156
-2 -1 12 -2.0604 0.0582
-2 -1 13 -2.7098 -0.0291
-2 -1 14 -2.3978 -0.0013
-2 -1 15 -1.2539 0.2218
-2 -1 16 0.1139 0.1231
-2 0 1 -20.9477 0.5601
-2 0 2 -34.5627 -0.0222
-2 0 3 -14.7866 -0.1916
-2 0 4 11.9172 0.0627
-2 0 5 18.2146 0.0407
-2 0 6 5.5927 -0.1505
-2 0 7 -6.1281 0.0005
-2 0 8 -5.7105 0.1821
-2 0 9 1.5692 -0.0057
-2 0 10 6.1522 -0.1209
-2 0 11 5.1336 0.1042
-2 0 12 1.4944 0.1595
-2 0 13 -1.2945 -0.0857
-2 0 14 -1.5905 -0.1522
-2 0 15 0.3948 -0.0637
-2 0 16 2.5683 -0.1672
-2 1 1 -12.4119 0.7025
-2 1 2 -14.4250 0.0590
-2 1 3 -3.3558 -0.3174
-2 1 4 6.8956 -0.0498
-2 1 5 8.3623 0.1406
-2 1 6 3.8156 0.0013
-2 1 7 -0.6460 -0.0812
-2 1 8 -1.2109 -0.0572
-2 1 9 1.8798 -0.0481
-2 1 10 4.7165 -0.0044
-2 1 11 4.1319 -0.0395
-2 1 12 1.3247 -0.1499
-2 1 13 -0.6374 0.0284
-2 1 14 -0.2996 0.3215
-2 1 15 1.7797 0.0024
-2 2 1 8.1266 0.7626
-2 2 2 -2.4099 0.0996
-2 2 3 -13.7573 -0.1695
-2 2 4 -14.5991 0.1181
-2 2 5 -6.0702 0.1698
-2 2 6 2.2492 -0.0735
-2 2 7 4.3850 -0.0899
-2 2 8 2.4006 0.1007
-2 2 9 0.3752 0.1557
-2 2 10 -0.5923 0.0403
-2 2 11 -0.8046 -0.0784
-2 2 12 -0.4917 -0.0505
-2 2 13 -0.3550 0.1254
-2 2 14 -0.3697 0.1636
-2 2 15 0.3377 -0.1699
-2 3 1 4.9801 0.5272
-2 3 2 -9.4465 -0.0272
-2 3 3 -18.5821 -0.2710
-2 3 4 -15.4697 -0.0265
-2 3 5 -5.2296 0.1044
-2 3 6 3.6709 -0.0359
-2 3 7 6.7374 -0.0714
-2 3 8 4.6885 0.0364
-2 3 9 1.1172 0.0139
-2 3 10 -0.6969 -0.0847
-2 3 11 -0.0725 -0.0189
-2 3 12 1.0566 0.0929
-2 3 13 0.6904 -0.0314
-2 3 14 -0.7246 -0.3210
-2 4 1 -5.0890 0.7633
-2 4 2 -5.1682 0.0843
-2 4 3 -1.4884 -0.2489
-2 4 4 1.6945 0.0623
-2 4 5 3.1986 0.1690
-2 4 6 4.2325 -0.1288
-2 4 7 4.7633 -0.1542
-2 4 8 4.0342 0.1143
-2 4 9 2.4386 0.0597
-2 4 10 0.9534 -0.2052
-2 4 11 0.2635 -0.0622
-2 4 12 0.3969 0.3212
-2 4 13 0.2714 0.2400
-2 5 1 -5.4887 0.6106
-2 5 2 1.5864 0.0135
-2 5 3 6.6456 -0.2040
-2 5 4 5.5308 0.0855
-2 5 5 1.3381 0.1516
-2 5 6 -1.0040 -0.0522
-2 5 7 -0.1757 -0.0094
-2 5 8 2.0120 0.1801
-2 5 9 3.0659 0.1091
-2 5 10 1.6352 -0.0953
-2 5 11 -1.0420 -0.1353
-2 5 12 -2.5611 -0.0392
-2 5 13 -2.4245 0.1239
-2 6 1 -4.0698 0.6262
-2 6 2 -2.1168 0.0505
-2 6 3 -2.2841 -0.2499
-2 6 4 -3.0057 -0.0237
-2 6 5 -2.4923 0.1031
-2 6 6 -1.0972 -0.0651
-2 6 7 0.3001 -0.1749
-2 6 8 1.5416 -0.0797
-2 6 9 1.8653 0.0666
-2 6 10 0.2852 0.0950
-2 6 11 -2.1671 -0.0418
-2 6 12 -3.2041 -0.1591
-2 7 1 -3.4612 0.5907
-2 7 2 -6.4325 0.0214
-2 7 3 -4.8774 -0.1625
-2 7 4 -0.1272 0.0275
-2 7 5 3.1872 0.0862
-2 7 6 3.0949 0.0125
-2 7 7 1.4653 0.0287
-2 7 8 0.0058 0.0218
-2 7 9 -1.2084 -0.0854
-2 7 10 -1.8081 -0.0317
-2 7 11 -1.1608 0.2364
-2 8 1 -5.6995 0.5595
-2 8 2 -3.6554 0.1567
-2 8 3 1.7400 -0.1023
-2 8 4 4.2902 -0.0083
-2 8 5 3.0179 0.0554
-2 8 6 1.6885 0.0215
-2 8 7 1.9259 0.0798
-2 8 8 1.9416 0.0876
-2 8 9 0.8861 -0.1026
-2 8 10 0.1231 -0.1850
-2 9 1 -1.3424 0.5976
-2 9 2 -0.2004 -0.0818
-2 9 3 -0.0315 -0.3039
-2 9 4 -0.2950 0.0167
-2 9 5 -0.1174 0.0804
-2 9 6 -0.1555 -0.2017
-2 9 7 -0.4012 -0.2269
-2 9 8 0.3463 0.0918
-2 9 9 1.4185 0.2614
-2 10 1 1.5139 0.5310
-2 10 2 -3.0114 0.0666
-2 10 3 -4.4935 -0.1040
-2 10 4 -0.9456 0.1566
-2 10 5 1.6940 0.2567
-2 10 6 -0.8356 0.0227
-2 10 7 -4.0610 -0.1352
-2 10 8 -2.9448 0.0078
-2 11 1 -0.4946 0.6701
-2 11 2 -3.5830 0.0419
-2 11 3 -2.8354 -0.2970
-2 11 4 1.3541 -0.1001
-2 11 5 3.9543 0.0659
-2 11 6 2.5446 0.0238
-2 11 7 -0.1177 0.0302
-2 12 1 -0.7909 0.3038
-2 12 2 0.5004 -0.0372
-2 12 3 0.9314 -0.0646
-2 12 4 0.8637 0.0094
-2 12 5 1.4292 -0.1486
-2 13 1 2.3078 0.6489
-2 13 2 3.3190 0.1846
-2 13 3 0.2561 -0.0032
-2 13 4 -3.0004 0.2203
-2 14 1 1.6501 0.3222
-2 14 2 -0.3343 -0.3496
-1 -16 4 -0.0977 0.2400
-1 -16 5 0.7388 0.1365
-1 -16 6 -0.2126 -0.0696
-1 -16 7 -0.8624 -0.0342
-1 -16 8 1.4417 0.0656
-1 -16 9 3.7386 0.0696
-1 -16 10 2.0411 0.1739
-1 -16 11 -1.1912 0.2724
-1 -16 12 -1.6627 0.1124
-1 -15 1 0.4245 0.2489
-1 -15 2 -0.6874 -0.1802
-1 -15 3 -1.8326 -0.2152
-1 -15 4 -0.9917 -0.0204
-1 -15 5 0.7436 0.0377
-1 -15 6 0.1819 0.0489
-1 -15 7 -1.0473 0.1479
-1 -15 8 0.7158 0.1665
-1 -15 9 3.2463 0.0292
-1 -15 10 2.5923 -0.0808
-1 -15 11 0.6677 -0.0626
-1 -15 12 0.7327 0.0100
-1 -15 13 1.5846 0.0394
-1 -15 14 1.6552 -0.0781
-1 -14 1 0.4136 0.4198
-1 -14 2 1.8165 0.0809
-1 -14 3 1.3722 -0.1146
-1 -14 4 1.8415 0.0418
-1 -14 5 3.2392 0.0937
-1 -14 6 2.8104 -0.1429
-1 -14 7 1.4873 -0.2439
-1 -14 8 2.1594 -0.0848
-1 -14 9 3.4306 -0.0487
-1 -14 10 2.4506 -0.1599
-1 -14 11 0.7253 -0.0865
-1 -14 12 0.9978 0.0407
-1 -14 13 2.2828 -0.0926
-1 -14 14 2.6590 -0.1703
-1 -14 15 2.6964 0.1703
-1 -13 1 2.3336 0.5480
-1 -13 2 2.8097 0.0960
-1 -13 3 1.5892 -0.2135
-1 -13 4 0.8728 -0.0572
-1 -13 5 0.3369 0.0453
-1 -13 6 -1.4478 -0.0533
-1 -13 7 -2.6163 0.0296
-1 -13 8 -0.0132 0.2175
-1 -13 9 4.2379 0.1559
-1 -13 10 4.5665 0.0241
-1 -13 11 0.7738 0.1064
-1 -13 12 -1.9869 0.1742
-1 -13 13 -1.5706 0.0564
-1 -13 14 -0.3497 0.0039
-1 -13 15 0.0353 0.0382
-1 -13 16 -0.0795 -0.1174
-1 -12 1 1.0247 0.3670
-1 -12 2 -0.1023 0.0096
-1 -12 3 -0.6084 -0.0767
-1 -12 4 0.7100 0.1616
-1 -12 5 2.2079 0.2383
-1 -12 6 0.2790 0.0810
-1 -12 7 -3.7573 -0.0266
-1 -12 8 -3.9865 -0.0577
-1 -12 9 -0.2093 -0.1192
-1 -12 10 1.1731 -0.1354
-1 -12 11 -1.5836 -0.0498
-1 -12 12 -3.3501 0.0085
-1 -12 13 -1.5204 -0.0586
-1 -12 14 1.0866 -0.1455
-1 -12 15 1.9186 -0.0537
-1 -12 16 1.2130 0.1924
-1 -12 17 0.1981 0.1967
-1 -11 1 0.0409 0.5334
-1 -11 2 0.9185 0.0595
-1 -11 3 1.8195 -0.2310
-1 -11 4 3.4647 -0.1930
-1 -11 5 4.3897 -0.1706
-1 -11 6 1.4166 -0.1956
-1 -11 7 -3.8664 -0.0845
-1 -11 8 -5.8067 0.0696
-1 -11 9 -3.1854 0.0774
-1 -11 10 -0.3955 -0.0029
-1 -11 11 -0.0934 -0.0200
-1 -11 12 -0.6913 0.0106
-1 -11 13 -0.5109 0.0029
-1 -11 14 0.3517 0.0141
-1 -11 15 1.3243 0.1125
-1 -11 16 1.5483 0.0970
-1 -11 17 0.3685 -0.2306
-1 -10 1 1.8991 0.4496
-1 -10 2 2.9852 -0.0304
-1 -10 3 1.0784 -0.0959
-1 -10 4 -1.4230 0.2068
-1 -10 5 -1.5862 0.2828
-1 -10 6 -0.2753 0.1092
-1 -10 7 -0.4524 0.0417
-1 -10 8 -1.8769 0.0694
-1 -10 9 -1.7863 0.0208
-1 -10 10 -0.1878 -0.0050
-1 -10 11 0.2843 0.0803
-1 -10 12 -1.1025 0.1037
-1 -10 13 -2.5944 -0.0139
-1 -10 14 -2.5923 -0.0888
-1 -10 15 -0.9944 -0.0503
-1 -10 16 0.6009 -0.0088
-1 -10 17 0.3446 0.0997
-1 -9 1 5.6399 0.6060
-1 -9 2 3.6700 0.1410
-1 -9 3 -1.4390 -0.1091
-1 -9 4 -4.1889 -0.0070
-1 -9 5 -0.8492 -0.0353
-1 -9 6 3.9540 -0.1657
-1 -9 7 2.9487 -0.1033
-1 -9 8 -2.5533 -0.0192
-1 -9 9 -5.2375 -0.0908
-1 -9 10 -3.0354 -0.1013
-1 -9 11 -0.1360 -0.0088
-1 -9 12 0.3490 -0.0378
-1 -9 13 -0.8155 -0.0930
-1 -9 14 -1.3703 0.0406
-1 -9 15 -0.2798 0.1438
-1 -9 16 1.0763 -0.0120
-1 -9 17 0.9472 -0.1700
-1 -9 18 0.0776 -0.0973
-1 -8 1 5.5823 0.5284
-1 -8 2 -0.2276 -0.2159
-1 -8 3 -5.8523 -0.4496
-1 -8 4 -4.8732 -0.0600
-1 -8 5 2.2265 0.1338
-1 -8 6 7.1918 0.0238
-1 -8 7 4.2774 0.0282
-1 -8 8 -2.4161 0.1146
-1 -8 9 -5.1244 0.0844
-1 -8 10 -1.9788 0.0169
-1 -8 11 2.5479 0.0001
-1 -8 12 3.9578 0.0185
-1 -8 13 2.1068 0.0521
-1 -8 14 0.0057 0.0239
-1 -8 15 -0.4074 -0.0706
-1 -8 16 -0.0492 -0.0814
-1 -8 17 -0.2007 0.0070
-1 -8 18 -0.4622 0.0679
-1 -7 1 5.8989 0.7081
-1 -7 2 4.4273 0.2308
-1 -7 3 2.9087 0.1293
-1 -7 4 2.7878 0.3133
-1 -7 5 2.5158 0.1508
-1 -7 6 0.4997 -0.1701
-1 -7 7 -2.5169 -0.1408
-1 -7 8 -4.3215 0.0727
-1 -7 9 -3.2081 0.0606
-1 -7 10 0.5408 -0.0774
-1 -7 11 4.3589 -0.0274
-1 -7 12 5.2402 0.0995
-1 -7 13 2.8090 -0.0003
-1 -7 14 0.0043 -0.1465
-1 -7 15 -0.4999 0.0252
-1 -7 16 0.2813 0.2431
-1 -7 17 -0.1779 0.0689
-1 -7 18 -1.5332 -0.1552
-1 -6 1 10.8890 0.4708
-1 -6 2 17.4505 -0.2164
-1 -6 3 13.6827 -0.4973
-1 -6 4 0.6199 -0.1823
-1 -6 5 -11.7656 0.0450
-1 -6 6 -14.5208 -0.0195
-1 -6 7 -8.7619 -0.0283
-1 -6 8 -2.3175 0.0280
-1 -6 9 -0.2026 -0.0521
-1 -6 10 -1.0564 -0.1107
-1 -6 11 -1.4036 0.0017
-1 -6 12 -0.4561 0.0508
-1 -6 13 0.5730 -0.0354
-1 -6 14 1.5361 -0.0035
-1 -6 15 2.5412 0.0565
-1 -6 16 2.0917 -0.1337
-1 -6 17 -0.3291 -0.2485
-1 -6 18 -2.1741 0.1050
-1 -5 1 9.2521 0.6206
-1 -5 2 14.0650 0.1034
-1 -5 3 2.8697 -0.0513
-1 -5 4 -13.6166 0.2317
-1 -5 5 -18.0447 0.2039
-1 -5 6 -7.7810 -0.0781
-1 -5 7 3.9795 -0.0539
-1 -5 8 5.7583 0.1335
-1 -5 9 -0.8584 0.1015
-1 -5 10 -6.4858 -0.0096
-1 -5 11 -5.4155 -0.0029
-1 -5 12 -0.1499 0.0290
-1 -5 13 3.6271 0.0177
-1 -5 14 3.5206 -0.0267
-1 -5 15 1.1316 -0.0418
-1 -5 16 -0.9486 0.1108
-1 -5 17 -1.3389 0.2345
-1 -4 1 0.7945 0.7665
-1 -4 2 2.3081 0.0791
-1 -4 3 0.0258 -0.1876
-1 -4 4 -2.5799 -0.0375
-1 -4 5 -0.7317 -0.0464
-1 -4 6 3.7897 -0.1174
-1 -4 7 5.2776 -0.0136
-1 -4 8 2.4085 0.0492
-1 -4 9 -0.3760 -0.0420
-1 -4 10 0.9355 -0.0936
-1 -4 11 5.1762 -0.0099
-1 -4 12 7.5800 0.0874
-1 -4 13 5.1651 0.0183
-1 -4 14 0.2339 -0.1325
-1 -4 15 -2.3919 0.0033
-1 -4 16 -1.4000 0.2531
-1 -4 17 0.2096 -0.1624
-1 -3 1 -12.4200 0.2124
-1 -3 2 0.3976 -0.1742
-1 -3 3 16.3041 -0.1918
-1 -3 4 16.2005 0.0887
-1 -3 5 0.7798 0.1694
-1 -3 6 -13.2771 -0.0023
-1 -3 7 -13.7016 -0.0899
-1 -3 8 -3.4180 0.0090
-1 -3 9 5.9491 0.0503
-1 -3 10 7.5820 -0.0499
-1 -3 11 4.4535 -0.0425
-1 -3 12 1.5586 0.0879
-1 -3 13 -0.3031 0.0250
-1 -3 14 -1.1359 -0.1433
-1 -3 15 -0.2277 -0.0339
-1 -3 16 0.3897 0.1466
-1 -3 17 -1.4249 0.0130
-1 -2 1 -9.4000 1.0054
-1 -2 2 6.2900 0.3658
-1 -2 3 15.5617 -0.1456
-1 -2 4 4.0957 -0.0673
-1 -2 5 -16.9896 0.0604
-1 -2 6 -26.6841 -0.0247
-1 -2 7 -17.8135 0.0023
-1 -2 8 -2.2222 0.1225
-1 -2 9 4.3191 0.0444
-1 -2 10 -0.0837 -0.0791
-1 -2 11 -4.8996 -0.0056
-1 -2 12 -4.0038 0.0731
-1 -2 13 -0.8909 0.0096
-1 -2 14 1.0699 -0.0304
-1 -2 15 1.9926 -0.0129
-1 -2 16 1.2395 0.0439
-1 -2 17 -1.0819 0.3234
-1 -1 1 0.0240 0.4517
-1 -1 2 0.5987 -0.1981
-1 -1 3 -0.9715 -0.3198
-1 -1 4 -4.7259 0.0652
-1 -1 5 -7.1081 0.1432
-1 -1 6 -6.1988 -0.0649
-1 -1 7 -3.1309 -0.1074
-1 -1 8 -0.2963 -0.0394
-1 -1 9 0.8342 -0.0082
-1 -1 10 1.0317 0.0286
-1 -1 11 1.6034 0.0030
-1 -1 12 2.0026 -0.0498
-1 -1 13 1.2507 0.0371
-1 -1 14 0.2462 0.0603
-1 -1 15 0.2511 -0.1646
-1 -1 16 0.7469 -0.1722
-1 0 1 2.5798 0.6441
-1 0 2 3.2390 0.1871
-1 0 3 3.3319 -0.0162
-1 0 4 4.1987 0.0165
-1 0 5 6.2546 -0.0025
-1 0 6 6.2054 -0.0218
-1 0 7 2.2704 0.0194
-1 0 8 -0.4735 0.0414
-1 0 9 2.5399 0.0252
-1 0 10 7.2753 -0.0252
-1 0 11 7.5616 -0.0603
-1 0 12 3.5496 0.0126
-1 0 13 -1.1996 0.0609
-1 0 14 -4.3916 -0.0614
-1 0 15 -4.6890 -0.0358
-1 0 16 -2.4140 0.4001
-1 1 1 14.7573 0.6862
-1 1 2 13.6637 0.0492
-1 1 3 -1.9444 -0.3355
-1 1 4 -14.2414 -0.0833
-1 1 5 -10.7650 0.2144
-1 1 6 -0.6075 0.1001
-1 1 7 2.9557 -0.0954
-1 1 8 1.4994 -0.0399
-1 1 9 1.8749 0.0564
-1 1 10 3.2944 0.0201
-1 1 11 2.7187 0.0264
-1 1 12 0.5790 0.0687
-1 1 13 -2.0548 -0.0670
-1 1 14 -3.9419 -0.1883
-1 1 15 -3.3957 0.0947
-1 2 1 17.7264 0.6269
-1 2 2 6.9053 0.0500
-1 2 3 -15.2283 -0.2035
-1 2 4 -24.3535 0.0780
-1 2 5 -13.6865 0.1017
-1 2 6 0.6660 -0.1808
-1 2 7 4.9455 -0.1447
-1 2 8 1.6834 0.1167
-1 2 9 -1.1654 0.0706
-1 2 10 -0.6760 -0.1268
-1 2 11 1.7389 -0.0481
-1 2 12 3.2336 0.1056
-1 2 13 2.2268 0.0106
-1 2 14 0.2320 -0.0975
-1 2 15 -0.7901 0.0318
-1 3 1 3.9111 0.6615
-1 3 2 3.8274 0.0183
-1 3 3 -1.0768 -0.1863
-1 3 4 -5.3553 0.0169
-1 3 5 -4.0209 0.0918
-1 3 6 0.5968 0.0233
-1 3 7 2.3287 0.0431
-1 3 8 -0.0408 0.0376
-1 3 9 -1.9520 -0.0696
-1 3 10 -0.4627 -0.0476
-1 3 11 2.3016 0.0770
-1 3 12 3.1196 -0.0094
-1 3 13 1.5134 -0.1330
-1 3 14 -0.6001 0.1828
-1 4 1 -7.3210 0.5030
-1 4 2 5.8672 0.1256
-1 4 3 8.8870 -0.1229
-1 4 4 1.8248 0.0018
-1 4 5 -2.5981 0.0958
-1 4 6 -0.8484 -0.0186
-1 4 7 0.6531 -0.0863
-1 4 8 -0.3150 -0.0095
-1 4 9 -1.1477 0.0839
-1 4 10 -1.4999 0.1307
-1 4 11 -1.9244 0.0465
-1 4 12 -1.5647 -0.2035
-1 4 13 -0.6028 -0.2397
-1 5 1 -9.4259 0.7043
-1 5 2 -0.5283 0.0580
-1 5 3 1.5432 -0.2730
-1 5 4 -1.8298 -0.0860
-1 5 5 -4.5165 0.0769
-1 5 6 -4.5319 0.0041
-1 5 7 -1.9089 -0.0612
-1 5 8 1.9061 -0.0366
-1 5 9 2.8647 -0.0514
-1 5 10 -0.0138 -0.0652
-1 5 11 -2.0814 0.0432
-1 5 12 -0.7357 0.1135
-1 5 13 1.0645 -0.0489
-1 6 1 -9.1417 0.5136
-1 6 2 -4.2158 0.1205
-1 6 3 -0.5678 -0.0954
-1 6 4 -1.9905 0.0565
-1 6 5 -6.1079 0.1695
-1 6 6 -6.5211 -0.0040
-1 6 7 -1.2920 -0.0933
-1 6 8 3.9574 0.1088
-1 6 9 4.1938 0.1429
-1 6 10 1.6505 -0.1409
-1 6 11 0.8475 -0.1482
-1 6 12 1.6032 0.2312
-1 7 1 -3.1429 0.6541
-1 7 2 1.1773 0.1018
-1 7 3 3.1860 -0.2697
-1 7 4 1.0875 -0.0561
-1 7 5 -1.3792 0.1055
-1 7 6 -1.3006 -0.1039
-1 7 7 0.5092 -0.1236
-1 7 8 2.1091 0.1747
-1 7 9 2.1983 0.1627
-1 7 10 0.9574 -0.1841
-1 7 11 0.1188 -0.1843
-1 8 1 -1.0054 0.4525
-1 8 2 -0.9675 -0.0157
-1 8 3 -0.4949 -0.1505
-1 8 4 1.0544 0.0538
-1 8 5 2.5454 0.1122
-1 8 6 1.9454 -0.0321
-1 8 7 1.0205 -0.1276
-1 8 8 1.5992 -0.1156
-1 8 9 1.4258 -0.0293
-1 8 10 -0.4997 0.1276
-1 9 1 -7.5726 0.5442
-1 9 2 -6.5255 0.2106
-1 9 3 -2.0220 -0.0604
-1 9 4 3.1266 -0.1086
-1 9 5 4.3612 0.0436
-1 9 6 1.3635 0.1921
-1 9 7 -1.2617 0.1230
-1 9 8 -1.1239 -0.0364
-1 9 9 -0.2050 -0.0288
-1 10 1 -5.0073 0.3507
-1 10 2 -1.6461 0.0208
-1 10 3 1.3997 -0.1543
-1 10 4 1.9020 -0.0808
-1 10 5 0.1471 -0.0152
-1 10 6 -1.7674 -0.0874
-1 10 7 -1.9325 -0.0893
-1 10 8 -0.3953 0.0639
-1 11 1 1.8375 0.5274
-1 11 2 1.2427 0.1237
-1 11 3 -2.1237 -0.0697
-1 11 4 -4.3208 0.0738
-1 11 5 -2.2566 0.0832
-1 11 6 1.6123 -0.1120
-1 11 7 3.4091 -0.1057
-1 12 1 1.6099 0.5492
-1 12 2 1.4086 -0.0079
-1 12 3 -0.3783 -0.2746
-1 12 4 -0.9143 -0.0068
-1 12 5 0.5898 0.3114
-1 13 1 -1.1668 0.4070
-1 13 2 1.6607 0.1631
-1 13 3 2.0662 -0.1544
-1 13 4 0.1379 -0.3256
-1 14 1 -3.1739 0.4346
-1 14 2 -1.1043 0.2828
0 -17 7 3.7934 0.0064
0 -17 8 4.5457 0.1487
0 -17 9 1.3736 0.1896
0 -17 10 -1.7698 0.1307
0 -16 3 -1.6245 -0.3067
0 -16 4 0.5762 -0.0451
0 -16 5 4.3361 0.1112
0 -16 6 5.3264 0.0120
0 -16 7 3.4434 -0.0205
0 -16 8 0.8318 0.0885
0 -16 9 -1.0298 0.1174
0 -16 10 -0.5885 0.0098
0 -16 11 2.1832 -0.0767
0 -16 12 4.2223 -0.0462
0 -16 13 3.2516 -0.0351
0 -15 1 -0.9765 0.4931
0 -15 2 -2.3247 0.0976
0 -15 3 -1.9386 -0.2115
0 -15 4 1.7677 -0.1007
0 -15 5 4.2759 0.0253
0 -15 6 2.1349 -0.0622
0 -15 7 -1.2188 -0.1534
0 -15 8 -1.5044 -0.1495
0 -15 9 -0.0679 -0.1558
0 -15 10 -0.3041 -0.1473
0 -15 11 -1.7438 -0.0408
0 -15 12 -1.3991 0.0330
0 -15 13 1.1978 -0.0365
0 -15 14 3.3890 -0.0127
0 -15 15 3.3528 0.2607
0 -14 1 -2.2591 0.4938
0 -14 2 -0.5050 0.2021
0 -14 3 0.6273 0.0020
0 -14 4 1.4616 0.0538
0 -14 5 2.2415 0.0836
0 -14 6 1.6983 0.0338
0 -14 7 0.2680 0.0855
0 -14 8 0.0850 0.1731
0 -14 9 0.6425 0.1326
0 -14 10 -0.3725 0.0939
0 -14 11 -2.1870 0.1492
0 -14 12 -1.9360 0.0920
0 -14 13 0.6698 -0.0516
0 -14 14 3.6323 0.0190
0 -14 15 5.8141 0.1215
0 -14 16 6.9973 -0.1756
0 -13 1 0.7273 0.2385
0 -13 2 3.9046 -0.0872
0 -13 3 3.5022 -0.1586
0 -13 4 1.6344 -0.0274
0 -13 5 0.8867 0.0294
0 -13 6 0.2267 0.0134
0 -13 7 -0.3137 0.0224
0 -13 8 1.0144 -0.0338
0 -13 9 3.0147 -0.1422
0 -13 10 2.8894 -0.1173
0 -13 11 0.8416 -0.0115
0 -13 12 -0.8446 -0.0368
0 -13 13 -0.8443 -0.1351
0 -13 14 0.7329 -0.1190
0 -13 15 2.4934 0.0129
0 -13 16 2.6484 0.1689
0 -12 1 1.4674 0.4683
0 -12 2 1.3413 0.1516
0 -12 3 0.8671 -0.0692
0 -12 4 1.3604 -0.0292
0 -12 5 2.3593 0.0017
0 -12 6 2.5063 -0.1049
0 -12 7 1.7216 -0.1598
0 -12 8 0.5324 -0.0369
0 -12 9 -0.7908 0.0869
0 -12 10 -1.6385 0.0320
0 -12 11 -1.4725 -0.0379
0 -12 12 -0.7486 0.0610
0 -12 13 -0.2627 0.1284
0 -12 14 -0.2480 0.0246
0 -12 15 -0.5227 0.0071
0 -12 16 -0.6752 0.0863
0 -12 17 -0.3232 -0.1053
0 -11 1 -1.9554 0.5723
0 -11 2 -3.5645 -0.0222
0 -11 3 -1.3054 -0.2566
0 -11 4 2.4120 0.0297
0 -11 5 4.1591 0.2289
0 -11 6 2.0388 0.0904
0 -11 7 -2.4508 0.0049
0 -11 8 -4.8755 0.1456
0 -11 9 -3.0226 0.1576
0 -11 10 0.1694 -0.0503
0 -11 11 1.1639 -0.0915
0 -11 12 0.0786 0.0661
0 -11 13 -1.1146 0.0455
0 -11 14 -1.1270 -0.1158
0 -11 15 0.3951 -0.1087
0 -11 16 2.3981 -0.0157
0 -11 17 2.7903 0.0328
0 -10 1 -1.9790 0.3461
0 -10 2 -2.2672 0.0653
0 -10 3 -1.0861 -0.0547
0 -10 4 0.4724 0.0730
0 -10 5 0.7116 0.0910
0 -10 6 -1.9762 -0.0891
0 -10 7 -4.9466 -0.1862
0 -10 8 -3.6671 -0.1085
0 -10 9 0.5676 -0.0334
0 -10 10 2.3666 -0.0320
0 -10 11 0.6931 -0.0446
0 -10 12 -1.1112 -0.0454
0 -10 13 -1.2567 -0.0048
0 -10 14 -0.2808 0.0733
0 -10 15 1.1774 0.0876
0 -10 16 2.2203 0.0274
0 -10 17 1.8175 0.0040
0 -10 18 0.3903 0.0077
0 -9 1 2.5607 0.6908
0 -9 2 0.6137 0.0854
0 -9 3 -0.9046 -0.3251
0 -9 4 -0.1090 -0.2381
0 -9 5 0.9380 -0.0347
0 -9 6 -0.0032 0.0293
0 -9 7 -2.1061 0.0395
0 -9 8 -3.9629 0.0860
0 -9 9 -5.0336 0.1097
0 -9 10 -4.0738 0.0392
0 -9 11 -0.6759 -0.0277
0 -9 12 2.3309 0.0295
0 -9 13 2.1824 0.0749
0 -9 14 0.2996 -0.0332
0 -9 15 -0.2579 -0.1220
0 -9 16 0.6255 -0.0743
0 -9 17 0.9179 -0.0458
0 -9 18 0.0329 -0.0275
0 -8 1 3.2807 0.2735
0 -8 2 2.7293 0.0573
0 -8 3 3.8750 0.0910
0 -8 4 4.4658 0.2518
0 -8 5 3.7274 0.2395
0 -8 6 3.2518 0.0444
0 -8 7 2.2295 -0.0934
0 -8 8 -1.0987 -0.0464
0 -8 9 -4.2557 0.0146
0 -8 10 -3.1549 -0.0332
0 -8 11 1.1236 -0.0311
0 -8 12 3.4569 0.0355
0 -8 13 1.9651 -0.0209
0 -8 14 -0.2026 -0.0604
0 -8 15 -0.3190 0.1075
0 -8 16 0.6180 0.1741
0 -8 17 0.6935 -0.0119
0 -8 18 -0.1134 -0.0250
0 -7 1 5.3981 0.8000
0 -7 2 5.9203 0.2158
0 -7 3 4.7926 -0.2927
0 -7 4 2.7869 -0.2448
0 -7 5 2.9463 -0.0463
0 -7 6 4.9713 -0.0710
0 -7 7 5.4915 -0.0956
0 -7 8 3.0119 0.0279
0 -7 9 -0.9808 0.0476
0 -7 10 -3.8819 -0.0626
0 -7 11 -3.7451 -0.0454
0 -7 12 -1.1389 0.0470
0 -7 13 1.1493 0.0154
0 -7 14 1.3155 -0.0362
0 -7 15 0.2985 -0.0214
0 -7 16 -0.0084 -0.0680
0 -7 17 0.7422 -0.1172
0 -7 18 1.1800 -0.0108
0 -6 1 -1.3553 0.2593
0 -6 2 -3.5628 -0.2743
0 -6 3 -7.4652 -0.3251
0 -6 4 -8.7075 0.0393
0 -6 5 -6.4696 0.2094
0 -6 6 -3.5955 0.0894
0 -6 7 -1.3044 0.0139
0 -6 8 -0.2586 0.0528
0 -6 9 -2.0719 0.0480
0 -6 10 -5.2339 -0.0066
0 -6 11 -5.1075 -0.0008
0 -6 12 -0.6829 0.0515
0 -6 13 3.5610 0.0197
0 -6 14 3.7823 -0.0750
0 -6 15 0.9975 -0.0310
0 -6 16 -1.4491 0.1258
0 -6 17 -1.8826 0.1056
0 -6 18 -0.8790 -0.0764
0 -5 1 7.5264 1.0592
0 -5 2 14.2222 0.7957
0 -5 3 9.2427 0.2534
0 -5 4 -1.7657 0.0087
0 -5 5 -9.3773 0.0090
0 -5 6 -9.1103 -0.0741
0 -5 7 -3.6015 -0.1832
0 -5 8 1.2790 -0.0490
0 -5 9 2.0011 0.1250
0 -5 10 0.0260 -0.0022
0 -5 11 -0.7723 -0.1468
0 -5 12 1.0498 0.0059
0 -5 13 3.4158 0.1222
0 -5 14 3.9297 0.0195
0 -5 15 2.0782 -0.0064
0 -5 16 -0.9946 -0.0176
0 -5 17 -2.9494 -0.1375
0 -4 1 29.7105 0.0923
0 -4 2 31.5596 -0.7220
0 -4 3 23.4613 -0.7964
0 -4 4 10.4606 -0.1277
0 -4 5 0.1537 0.3214
0 -4 6 -4.7129 0.0840
0 -4 7 -4.5108 -0.1644
0 -4 8 -0.9177 0.0257
0 -4 9 1.7289 0.1330
0 -4 10 0.6518 -0.0726
0 -4 11 -1.5885 -0.1019
0 -4 12 -1.8887 0.0592
0 -4 13 -0.2768 0.0018
0 -4 14 2.2982 -0.1035
0 -4 15 4.3560 -0.0319
0 -4 16 3.9018 -0.0462
0 -4 17 1.6529 0.0045
0 -3 1 -11.5537 0.7497
0 -3 2 -11.7213 0.6523
0 -3 3 1.0466 0.2309
0 -3 4 11.4509 0.0688
0 -3 5 7.3953 0.0374
0 -3 6 -6.8711 -0.0402
0 -3 7 -14.7983 -0.0188
0 -3 8 -9.6586 0.0634
0 -3 9 -1.3674 0.0315
0 -3 10 1.1599 -0.0084
0 -3 11 -0.2917 0.0560
0 -3 12 -1.6495 0.0707
0 -3 13 -1.8133 -0.0051
0 -3 14 -0.5394 0.0042
0 -3 15 1.3671 0.0946
0 -3 16 2.0966 0.0925
0 -3 17 1.3848 -0.0248
0 -2 1 -23.6882 1.4947
0 -2 2 -16.3030 0.2423
0 -2 3 -3.0434 -0.4108
0 -2 4 3.5711 -0.2579
0 -2 5 -2.2982 0.0228
0 -2 6 -12.5737 0.0535
0 -2 7 -14.4779 -0.0359
0 -2 8 -6.0457 -0.0490
0 -2 9 3.3799 -0.0279
0 -2 10 6.1842 -0.0690
0 -2 11 3.6405 -0.0501
0 -2 12 0.5363 0.0542
0 -2 13 -1.4411 -0.0139
0 -2 14 -2.7562 -0.1646
0 -2 15 -2.7054 -0.0016
0 -2 16 -0.8533 0.1493
0 -1 2 13.7667 -0.6500
0 -1 3 -12.5719 0.3331
0 -1 4 -22.0074 0.3123
0 -1 5 -10.4908 0.0362
0 -1 6 3.4717 -0.0817
0 -1 7 5.4838 -0.0550
0 -1 8 1.2445 0.0835
0 -1 9 0.0047 0.1091
0 -1 10 1.0961 -0.0496
0 -1 11 1.6966 -0.0528
0 -1 12 1.9886 0.0845
0 -1 13 1.4512 0.0019
0 -1 14 0.0188 -0.0607
0 -1 15 -0.2592 0.1858
0 -1 16 0.7956 0.1343
0 0 2 -1.4879 1.2194
0 0 3 -36.8138 -0.2414
0 0 4 -27.6500 -0.5258
0 0 5 6.9921 0.0888
0 0 6 22.7693 0.2094
0 0 7 8.3897 -0.0817
0 0 8 -9.9188 -0.0565
0 0 9 -12.6384 0.0925
0 0 10 -4.9431 0.0175
0 0 11 1.6146 -0.0345
0 0 12 2.8158 0.0388
0 0 13 0.7268 0.0279
0 0 14 -0.9872 -0.0251
0 0 15 -1.2549 -0.0507
0 0 16 -1.2096 -0.1819
0 1 1 8.1333 0.7967
0 1 2 -18.6806 -0.6599
0 1 3 -24.4450 -0.5691
0 1 4 -7.5102 0.2205
0 1 5 8.6853 0.3402
0 1 6 6.3892 -0.0977
0 1 7 -6.1548 -0.2544
0 1 8 -11.7873 -0.0427
0 1 9 -6.8871 0.0777
0 1 10 0.1345 -0.0149
0 1 11 2.3725 -0.1091
0 1 12 0.4144 -0.0774
0 1 13 -1.6103 0.0567
0 1 14 -2.0795 0.1302
0 1 15 -2.1928 -0.0905
0 2 0 -17.6430 -1.9001
0 2 1 -2.3111 -0.7380
0 2 2 7.7848 0.5764
0 2 3 2.0814 0.5444
0 2 4 -11.4535 -0.1852
0 2 5 -15.8170 -0.2695
0 2 6 -7.6200 0.1293
0 2 7 2.0475 0.1923
0 2 8 5.6132 0.0181
0 2 9 4.9210 0.0303
0 2 10 3.1950 0.0733
0 2 11 1.4946 -0.0343
0 2 12 0.2925 -0.0402
0 2 13 -0.5678 0.1625
0 2 14 -1.3953 0.1873
0 3 0 5.6600 -0.1162
0 3 1 23.6257 0.4432
0 3 2 18.7641 0.1282
0 3 3 -7.0470 -0.3947
0 3 4 -24.0983 -0.2041
0 3 5 -15.6405 0.2362
0 3 6 2.1766 0.1229
0 3 7 9.4154 -0.1983
0 3 8 6.3858 -0.1308
0 3 9 2.2812 0.0568
0 3 10 0.5189 0.0179
0 3 11 -0.0714 -0.0383
0 3 12 -0.8298 -0.0140
0 3 13 -1.5446 -0.0773
0 3 14 -0.8726 -0.1590
0 4 0 20.0888 -0.7224
0 4 1 6.4037 -0.5579
0 4 2 -7.4451 0.0326
0 4 3 -14.1432 0.3080
0 4 4 -10.0251 0.0924
0 4 5 -2.1191 -0.1716
0 4 6 1.0365 -0.1266
0 4 7 -0.4584 0.0761
0 4 8 -2.2467 0.0906
0 4 9 -2.3859 -0.0650
0 4 10 -1.0296 -0.0678
0 4 11 0.5953 0.0728
0 4 12 1.1362 0.0586
0 4 13 1.2260 0.0589
0 5 0 -5.1364 -0.5270
0 5 1 -11.4120 0.2929
0 5 2 -6.8646 0.3865
0 5 3 0.0095 -0.1526
0 5 4 0.5393 -0.2806
0 5 5 -3.0899 0.1469
0 5 6 -4.2905 0.2927
0 5 7 -2.2930 0.0034
0 5 8 -0.2133 -0.1071
0 5 9 1.1700 0.0613
0 5 10 2.5853 0.0896
0 5 11 3.1455 -0.0978
0 5 12 1.7553 -0.1626
0 6 0 -0.9338 -0.5606
0 6 1 1.0014 -0.3256
0 6 2 2.9842 -0.0323
0 6 3 1.0971 0.0392
0 6 4 -2.9495 0.0470
0 6 5 -4.1339 -0.0169
0 6 6 -1.1254 -0.1822
0 6 7 3.4717 -0.1815
0 6 8 6.1401 0.0278
0 6 9 4.9390 0.1062
0 6 10 1.5510 0.0002
0 6 11 -0.9317 -0.0568
0 6 12 -2.0302 -0.0845
0 7 0 4.6734 -0.6538
0 7 1 2.6922 0.0518
0 7 2 -1.5337 0.3586
0 7 3 -4.6848 0.0199
0 7 4 -3.8875 -0.2201
0 7 5 -0.7734 0.0148
0 7 6 2.5883 0.2337
0 7 7 5.1932 0.1108
0 7 8 4.7945 -0.0861
0 7 9 1.1988 -0.1202
0 7 10 -1.3047 0.0125
0 7 11 -0.3294 0.2294
0 8 0 3.5311 -0.3834
0 8 1 0.0544 -0.1630
0 8 2 -4.6572 0.0427
0 8 3 -5.3191 0.0242
0 8 4 -2.1793 0.0294
0 8 5 0.3674 0.0694
0 8 6 0.6321 -0.0355
0 8 7 0.0331 -0.0666
0 8 8 -0.3458 0.0824
0 8 9 -0.1273 0.0340
0 8 10 0.9033 -0.1714
0 9 0 2.1310 -0.6838
0 9 1 -0.2375 -0.0796
0 9 2 -2.0411 0.2281
0 9 3 -1.9050 -0.0254
0 9 4 -0.7711 -0.2130
0 9 5 -0.5077 -0.0933
0 9 6 -1.0661 -0.0217
0 9 7 -0.6268 -0.0537
0 9 8 0.7237 0.0348
0 9 9 1.0010 0.1588
0 10 0 0.3122 -0.3251
0 10 1 2.2592 -0.0120
0 10 2 1.3106 0.1066
0 10 3 -0.5994 -0.0050
0 10 4 -0.4093 0.0866
0 10 5 1.1571 0.2941
0 10 6 2.1284 0.1141
0 10 7 2.1422 -0.2568
0 10 8 1.1692 -0.1694
0 11 0 1.6201 -0.6484
0 11 1 2.4343 -0.0591
0 11 2 -0.4832 0.2741
0 11 3 -2.9700 -0.0605
0 11 4 -2.0317 -0.3349
0 11 5 0.5020 -0.0996
0 11 6 1.3978 0.1869
0 12 0 0.7493 -0.4257
0 12 1 -0.0921 -0.0756
0 12 2 -1.2392 0.0995
0 12 3 -2.6659 0.0183
0 12 4 -2.7667 -0.0525
0 12 5 -1.3818 -0.1030
0 13 0 -2.0381 -0.4209
0 13 1 -0.6968 -0.1826
0 13 2 1.5991 0.2305
0 13 3 1.0625 0.3904
0 14 0 -2.6637 -0.4096
0 14 1 -0.4693 -0.0886
0 14 2 1.9286 -0.1510
0 15 0 -1.0738 -0.2842
1 -17 5 -0.7164 -0.1278
1 -17 6 -0.2742 -0.0160
1 -17 7 0.4307 -0.1105
1 -17 8 -0.0417 -0.1589
1 -17 9 -0.4491 -0.1174
1 -17 10 0.6870 -0.1257
1 -17 11 1.0589 -0.1522
1 -16 2 0.6905 0.4065
1 -16 3 0.0474 0.0884
1 -16 4 -1.3087 -0.1366
1 -16 5 -0.4057 -0.0044
1 -16 6 2.0832 0.0795
1 -16 7 2.2644 -0.0455
1 -16 8 0.1589 -0.0968
1 -16 9 -0.5576 -0.0098
1 -16 10 0.0056 0.0311
1 -16 11 -1.3252 -0.0164
1 -16 12 -3.4436 -0.0700
1 -16 13 -2.4711 0.0164
1 -15 0 -1.4567 -0.4400
1 -15 1 0.9523 -0.2015
1 -15 2 1.1153 0.1032
1 -15 3 -0.9466 0.1317
1 -15 4 -0.4564 0.0443
1 -15 5 2.5982 0.0351
1 -15 6 2.9610 0.0786
1 -15 7 -0.1285 0.1164
1 -15 8 -2.1135 0.1114
1 -15 9 -1.7279 0.0856
1 -15 10 -1.8763 0.1132
1 -15 11 -2.9470 0.1335
1 -15 12 -2.2627 0.0673
1 -15 13 0.5493 0.0313
1 -15 14 2.5742 -0.0090
1 -15 15 1.9474 -0.2878
1 -14 0 -3.3053 -0.3919
1 -14 1 -1.7950 -0.1388
1 -14 2 -0.4708 0.0213
1 -14 3 0.7529 -0.0616
1 -14 4 1.8033 -0.1391
1 -14 5 1.4658 -0.0507
1 -14 6 0.6015 0.0063
1 -14 7 0.9977 -0.0867
1 -14 8 1.6712 -0.1420
1 -14 9 1.4170 -0.0880
1 -14 10 1.5992 -0.0949
1 -14 11 2.3861 -0.1444
1 -14 12 1.4667 -0.0767
1 -14 13 -0.9851 -0.0134
1 -14 14 -1.7296 -0.0573
1 -14 15 0.1214 0.0712
1 -14 16 1.9490 0.4027
1 -13 0 -3.4371 -0.2760
1 -13 1 -2.1134 0.0851
1 -13 2 1.6447 0.1720
1 -13 3 3.1339 -0.0429
1 -13 4 0.8000 -0.0782
1 -13 5 -1.2243 0.0811
1 -13 6 -0.1738 0.0174
1 -13 7 1.1386 -0.1240
1 -13 8 0.6538 0.0356
1 -13 9 0.8086 0.1745
1 -13 10 2.5425 -0.0120
1 -13 11 2.7053 -0.0742
1 -13 12 0.1018 0.1466
1 -13 13 -2.1746 0.1428
1 -13 14 -1.8895 -0.0639
1 -13 15 -0.3001 -0.0352
1 -13 16 0.7088 -0.0091
1 -12 0 0.8084 -0.5996
1 -12 1 1.5480 -0.0745
1 -12 2 2.3795 0.2123
1 -12 3 0.7550 0.0221
1 -12 4 -0.8911 -0.0334
1 -12 5 0.3552 0.1591
1 -12 6 1.9508 0.1468
1 -12 7 0.9383 0.0119
1 -12 8 -1.0791 0.0744
1 -12 9 -2.0766 0.1170
1 -12 10 -2.3428 -0.0144
1 -12 11 -1.8062 -0.0308
1 -12 12 -0.2758 0.0626
1 -12 13 0.7248 -0.0293
1 -12 14 0.3282 -0.1824
1 -12 15 -0.0789 -0.0956
1 -12 16 0.3413 0.1236
1 -12 17 0.6843 0.1397
1 -11 0 0.5280 -0.4852
1 -11 1 -0.5969 -0.0278
1 -11 2 -1.7537 0.1283
1 -11 3 -1.8745 -0.1291
1 -11 4 1.2592 -0.2294
1 -11 5 5.5572 -0.0681
1 -11 6 6.2775 -0.0579
1 -11 7 2.7712 -0.2087
1 -11 8 -1.4931 -0.1862
1 -11 9 -3.3938 -0.0366
1 -11 10 -2.0694 -0.0287
1 -11 11 0.6516 -0.0879
1 -11 12 1.5433 -0.0212
1 -11 13 0.0168 0.0686
1 -11 14 -1.0868 0.0759
1 -11 15 -0.0757 0.1273
1 -11 16 1.3924 0.1502
1 -11 17 1.5146 -0.1593
1 -10 0 -6.0450 -0.4384
1 -10 1 -4.2957 -0.1392
1 -10 2 -1.2538 0.1593
1 -10 3 1.4346 0.1191
1 -10 4 2.9321 0.0010
1 -10 5 3.0602 0.1013
1 -10 6 1.7405 0.1848
1 -10 7 -0.4775 0.0854
1 -10 8 -1.4285 0.0630
1 -10 9 0.4237 0.1390
1 -10 10 2.6703 0.0655
1 -10 11 1.7695 -0.0338
1 -10 12 -1.3051 0.0290
1 -10 13 -2.6506 0.0348
1 -10 14 -1.3329 -0.1010
1 -10 15 0.4964 -0.1367
1 -10 16 1.3840 -0.0527
1 -10 17 1.2187 0.0738
1 -9 0 -4.4644 -0.5332
1 -9 1 2.1687 -0.0586
1 -9 2 7.3807 0.2634
1 -9 3 5.4479 0.0466
1 -9 4 -0.9184 -0.1622
1 -9 5 -3.3444 -0.0082
1 -9 6 -0.0041 0.0739
1 -9 7 3.6365 -0.0628
1 -9 8 4.1039 -0.0715
1 -9 9 2.0160 0.0083
1 -9 10 -1.4580 -0.0274
1 -9 11 -4.2366 -0.0253
1 -9 12 -3.6520 0.0337
1 -9 13 -0.5575 -0.0243
1 -9 14 1.2341 -0.0398
1 -9 15 0.6766 0.0996
1 -9 16 0.1907 0.1134
1 -9 17 0.8113 -0.0357
1 -8 0 1.0626 -0.5611
1 -8 1 5.3881 -0.1721
1 -8 2 6.3204 0.0312
1 -8 3 1.0598 -0.1391
1 -8 4 -3.5316 -0.1770
1 -8 5 -0.9543 -0.0298
1 -8 6 4.8556 -0.0538
1 -8 7 5.9000 -0.1441
1 -8 8 0.8361 -0.0516
1 -8 9 -5.0170 0.0409
1 -8 10 -6.5586 -0.0185
1 -8 11 -3.2853 -0.0509
1 -8 12 1.2216 0.0123
1 -8 13 2.9240 0.0558
1 -8 14 1.1634 0.0525
1 -8 15 -0.9594 -0.0118
1 -8 16 -0.6608 -0.1498
1 -8 17 0.9751 -0.1861
1 -7 0 -4.3544 -0.5449
1 -7 1 -1.2931 0.0631
1 -7 2 2.6294 0.3550
1 -7 3 5.3715 0.1990
1 -7 4 7.2483 0.1025
1 -7 5 7.5576 0.1922
1 -7 6 4.5194 0.1773
1 -7 7 -1.3421 0.0711
1 -7 8 -5.9793 0.0876
1 -7 9 -5.5441 0.1030
1 -7 10 -0.9859 -0.0184
1 -7 11 2.9729 -0.0462
1 -7 12 3.2750 0.0620
1 -7 13 0.9230 -0.0017
1 -7 14 -1.3016 -0.1505
1 -7 15 -1.5900 -0.0099
1 -7 16 -0.3430 0.2376
1 -7 17 0.5968 0.1862
1 -6 0 -9.4234 -0.5459
1 -6 1 -2.1290 -0.1952
1 -6 2 9.1380 -0.0161
1 -6 3 16.2446 -0.1938
1 -6 4 14.2295 -0.2816
1 -6 5 5.9635 -0.1272
1 -6 6 -1.6221 -0.0682
1 -6 7 -4.0768 -0.1232
1 -6 8 -2.1042 -0.0742
1 -6 9 0.4228 -0.0330
1 -6 10 0.6524 -0.0514
1 -6 11 -0.8552 0.0363
1 -6 12 -1.8142 0.0634
1 -6 13 -1.2050 -0.0801
1 -6 14 0.0135 -0.0111
1 -6 15 0.4922 0.1797
1 -6 16 0.2551 -0.0894
1 -6 17 0.3662 -0.4026
1 -5 0 -13.9602 -0.7430
1 -5 1 -3.8741 -0.0742
1 -5 2 13.1407 0.3406
1 -5 3 19.7080 0.1432
1 -5 4 10.7213 -0.0351
1 -5 5 -1.8650 0.0591
1 -5 6 -5.0283 0.0899
1 -5 7 0.6228 0.0254
1 -5 8 4.7469 0.0231
1 -5 9 2.2331 0.0095
1 -5 10 -2.3912 -0.0115
1 -5 11 -4.0336 0.0263
1 -5 12 -2.3143 0.0052
1 -5 13 1.0972 -0.0336
1 -5 14 3.5262 0.0393
1 -5 15 2.4536 -0.0197
1 -5 16 -0.4051 -0.2103
1 -5 17 -1.0800 0.1084
1 -4 0 -13.2155 -0.4019
1 -4 1 -1.0856 0.0401
1 -4 2 17.1148 0.1838
1 -4 3 21.9296 0.0176
1 -4 4 9.9114 -0.0141
1 -4 5 -4.2825 0.0821
1 -4 6 -7.4579 0.0559
1 -4 7 -2.2736 0.0016
1 -4 8 1.5476 0.0387
1 -4 9 1.5145 0.0220
1 -4 10 0.4375 -0.0450
1 -4 11 -0.7583 0.0070
1 -4 12 -1.1421 0.0589
1 -4 13 0.8087 -0.0520
1 -4 14 2.6366 -0.0716
1 -4 15 1.0170 0.1590
1 -4 16 -1.6358 0.2259
1 -4 17 -1.3156 -0.1246
1 -3 0 0.7283 -0.8985
1 -3 1 0.7550 -0.3949
1 -3 2 6.2462 0.0476
1 -3 3 11.3177 -0.0799
1 -3 4 8.8017 -0.2570
1 -3 5 -1.2819 -0.1314
1 -3 6 -11.5912 -0.0302
1 -3 7 -14.4060 -0.0628
1 -3 8 -8.6601 -0.0369
1 -3 9 -0.7477 -0.0319
1 -3 10 2.5876 -0.0657
1 -3 11 1.1046 0.0532
1 -3 12 -1.1278 0.1101
1 -3 13 -1.8500 -0.1179
1 -3 14 -1.3851 -0.1600
1 -3 15 -0.2775 0.1484
1 -3 16 0.9625 0.0604
1 -2 0 7.0689 -0.4336
1 -2 1 -9.0614 0.3603
1 -2 2 -9.5509 0.5150
1 -2 3 6.9137 0.0383
1 -2 4 20.1793 -0.0405
1 -2 5 12.8557 0.2391
1 -2 6 -6.7451 0.1727
1 -2 7 -16.1032 -0.0403
1 -2 8 -9.1833 0.0167
1 -2 9 0.8001 0.0621
1 -2 10 4.3819 -0.0186
1 -2 11 3.2242 0.0391
1 -2 12 0.2339 0.0590
1 -2 13 -2.3429 -0.1144
1 -2 14 -1.2520 -0.0618
1 -2 15 2.5223 0.2228
1 -2 16 3.9702 0.1589
1 -1 0 1.5766 -0.7542
1 -1 1 -9.1688 -0.3212
1 -1 2 -3.1893 -0.0679
1 -1 3 15.0291 -0.0986
1 -1 4 24.8275 -0.0790
1 -1 5 14.8302 -0.0221
1 -1 6 -1.2785 -0.0588
1 -1 7 -5.7798 -0.0617
1 -1 8 -0.6009 -0.0013
1 -1 9 3.0719 -0.0012
1 -1 10 2.9555 -0.0101
1 -1 11 2.0181 0.0059
1 -1 12 0.9071 -0.0454
1 -1 13 0.4772 -0.0245
1 -1 14 1.7016 0.1621
1 -1 15 2.6293 0.0932
1 -1 16 1.5951 -0.4162
1 0 0 1.5753 -0.6576
1 0 1 1.0701 -0.0148
1 0 2 1.3998 0.3607
1 0 3 1.5458 0.0060
1 0 4 0.2935 -0.2607
1 0 5 -1.1575 0.0188
1 0 6 -0.9094 0.1862
1 0 7 -0.1823 -0.0600
1 0 8 -1.1022 -0.1567
1 0 9 -2.4126 0.0710
1 0 10 -1.6448 0.1414
1 0 11 0.6488 -0.0705
1 0 12 1.9754 -0.1617
1 0 13 1.3165 0.0394
1 0 14 -0.2071 0.1771
1 0 15 -0.9830 -0.1567
1 1 0 0.7482 -0.5214
1 1 1 1.9171 0.0939
1 1 2 -1.1936 0.2727
1 1 3 -6.8340 -0.0693
1 1 4 -7.7385 -0.0253
1 1 5 -3.6599 0.2594
1 1 6 -1.2542 0.0790
1 1 7 -2.3867 -0.1837
1 1 8 -3.2027 0.0183
1 1 9 -1.8798 0.2004
1 1 10 0.3995 -0.0065
1 1 11 2.1795 -0.1419
1 1 12 2.0185 0.0088
1 1 13 0.0698 0.1367
1 1 14 -1.1572 0.1178
1 1 15 -0.4842 -0.0460
1 2 0 -10.0687 -0.8599
1 2 1 3.9483 -0.1882
1 2 2 14.8435 0.0691
1 2 3 13.5229 -0.1009
1 2 5 -1.7017 -0.0506
1 2 6 -3.6310 -0.0754
1 2 7 -0.0596 -0.0464
1 2 8 3.9036 0.0444
1 2 9 3.7279 -0.0211
1 2 10 1.5382 -0.1006
1 2 11 0.8381 0.0150
1 2 12 0.9619 0.1095
1 2 13 0.5662 -0.0014
1 2 14 0.2198 -0.1904
1 3 0 -6.2037 -0.3404
1 3 1 12.1090 0.0103
1 3 2 23.0732 0.2305
1 3 3 17.7232 0.0605
1 3 5 -5.2183 0.0919
1 3 6 -3.9805 0.0733
1 3 7 1.8653 -0.0344
1 3 8 3.8565 0.0254
1 3 9 0.8709 0.0724
1 3 10 -2.1067 -0.0581
1 3 11 -2.2039 -0.0924
1 3 12 -0.8165 0.0821
1 3 13 0.2820 0.1105
1 4 0 -1.2270 -0.8392
1 4 1 0.1288 -0.1168
1 4 2 2.6438 0.2667
1 4 3 2.0481 -0.0148
1 4 4 -1.3578 -0.1375
1 4 5 -4.1574 0.0370
1 4 6 -4.5608 0.0093
1 4 7 -3.1251 -0.0678
1 4 8 -1.3066 0.0673
1 4 9 -0.3882 0.0749
1 4 10 -0.4576 -0.0952
1 4 11 -0.5291 -0.0320
1 4 12 0.1922 0.1625
1 4 13 1.6131 0.1197
1 5 0 -3.7832 -0.5468
1 5 1 -11.0738 0.0260
1 5 2 -8.1339 0.1272
1 5 3 -0.8874 -0.1662
1 5 4 2.4872 -0.1100
1 5 5 -0.6092 0.1114
1 5 6 -5.0160 0.0097
1 5 7 -4.6775 -0.1270
1 5 8 -0.4260 -0.0283
1 5 9 2.6661 0.0379
1 5 10 2.7154 0.0098
1 5 11 1.7094 0.0030
1 5 12 1.4936 -0.1296
1 6 0 1.0642 -0.5734
1 6 1 -3.9788 -0.0166
1 6 2 -1.0846 0.2680
1 6 3 5.1160 0.0484
1 6 4 6.4470 -0.0538
1 6 5 1.2954 0.0804
1 6 6 -3.6004 0.0809
1 6 7 -3.4187 -0.0135
1 6 8 -0.9394 -0.0036
1 6 9 -0.1313 0.0128
1 6 10 -0.5585 -0.0025
1 6 11 -0.2293 0.0197
1 7 0 4.8662 -0.6620
1 7 1 2.2440 0.0052
1 7 2 1.1715 0.2280
1 7 3 1.9684 -0.1656
1 7 4 2.0144 -0.2303
1 7 5 0.2722 0.1030
1 7 6 -1.5334 0.0922
1 7 7 -2.0484 -0.1309
1 7 8 -1.7262 -0.0088
1 7 9 -1.1408 0.1570
1 7 10 -0.2622 -0.0328
1 8 0 6.0368 -0.6174
1 8 1 0.8945 0.0084
1 8 2 -5.0290 0.2126
1 8 3 -6.1249 -0.0896
1 8 4 -2.2447 -0.0523
1 8 5 1.3509 0.1559
1 8 6 1.4531 -0.0569
1 8 7 0.2993 -0.2167
1 8 8 0.7555 0.0776
1 8 9 2.2614 0.1382
1 9 0 2.8028 -0.5072
1 9 1 -2.5421 0.0570
1 9 2 -5.4890 0.2032
1 9 3 -3.0608 -0.0742
1 9 4 1.5657 -0.0746
1 9 5 3.2662 0.1468
1 9 6 1.7258 0.1137
1 9 7 0.1445 -0.0300
1 9 8 0.1027 -0.0373
1 10 0 -0.7215 -0.5654
1 10 1 -1.4999 -0.1089
1 10 2 0.4964 0.1616
1 10 3 2.6616 -0.0582
1 10 4 2.5687 -0.1926
1 10 5 0.9270 -0.0033
1 10 6 -0.3415 0.1011
1 10 7 -0.8063 -0.0252
1 11 0 -0.1359 -0.5186
1 11 1 0.8537 -0.0017
1 11 2 1.2480 0.2432
1 11 3 0.1195 0.0157
1 11 4 -1.1320 -0.0992
1 11 5 -1.4196 0.0155
1 11 6 -0.9144 -0.0725
1 12 0 1.2160 -0.3682
1 12 1 -0.3733 -0.0144
1 12 2 -2.3651 0.0777
1 12 3 -2.2715 -0.0484
1 12 4 -0.6084 0.1221
1 13 0 -0.6397 -0.4276
1 13 1 -3.2951 -0.0336
1 13 2 -2.7984 -0.0691
1 13 3 -0.2370 -0.2329
1 14 0 -1.7533 -0.3561
1 14 1 -1.4819 0.0774
2 -17 5 2.1580 0.1217
2 -17 6 5.2212 0.2211
2 -17 7 3.1390 0.2170
2 -17 8 -1.2736 0.1992
2 -17 9 -3.3480 0.2247
2 -17 10 -3.1269 0.2175
2 -16 2 -0.8159 -0.0551
2 -16 3 -0.7891 -0.1236
2 -16 4 0.2915 0.0261
2 -16 5 0.4957 0.1709
2 -16 6 -0.0019 -0.0104
2 -16 7 -0.0051 -0.1841
2 -16 8 -0.5468 -0.0429
2 -16 9 -2.4560 0.0801
2 -16 10 -3.8226 -0.0612
2 -16 11 -3.4104 -0.1435
2 -16 12 -2.4823 -0.0057
2 -16 13 -1.5150 -0.0556
2 -15 0 -0.0717 -0.2628
2 -15 1 -0.0521 0.2626
2 -15 2 0.4872 0.1686
2 -15 3 1.1975 -0.2037
2 -15 4 0.3297 -0.2166
2 -15 5 -1.2153 -0.0514
2 -15 6 -1.2383 -0.0811
2 -15 7 -0.5193 -0.1082
2 -15 8 -0.4921 -0.0174
2 -15 9 -0.1549 -0.0744
2 -15 10 0.4630 -0.1900
2 -15 11 -0.8388 -0.0664
2 -15 12 -3.4008 0.0593
2 -15 13 -3.6406 -0.0376
2 -15 14 -1.1299 0.0436
2 -14 0 1.4827 -0.4666
2 -14 1 -0.1548 -0.0412
2 -14 2 -1.7393 0.1659
2 -14 3 -2.5505 0.0266
2 -14 4 -1.6598 0.0588
2 -14 5 0.4127 0.2294
2 -14 6 0.7621 0.1645
2 -14 7 -0.9589 0.0306
2 -14 8 -0.9067 0.1063
2 -14 9 2.0271 0.2081
2 -14 10 3.6590 0.1676
2 -14 11 1.6653 0.0967
2 -14 12 -0.8895 0.0720
2 -14 13 -0.9715 0.1034
2 -14 14 0.4417 0.1057
2 -14 15 0.8621 -0.1048
2 -13 0 -1.0170 -0.5996
2 -13 1 -2.6775 -0.0172
2 -13 2 -2.1904 0.2230
2 -13 3 -0.9026 -0.0464
2 -13 4 0.5511 -0.1593
2 -13 5 1.0281 -0.0339
2 -13 6 -0.2556 -0.0887
2 -13 7 -1.6232 -0.1988
2 -13 8 -0.9844 -0.0961
2 -13 9 1.4298 -0.0354
2 -13 10 3.5886 -0.1647
2 -13 11 3.3669 -0.1822
2 -13 12 0.7268 -0.0430
2 -13 13 -1.3570 -0.0764
2 -13 14 -0.7455 -0.2728
2 -13 15 0.5697 -0.2122
2 -13 16 0.2609 0.2245
2 -12 0 -1.3886 -0.3986
2 -12 1 -0.5548 -0.0683
2 -12 2 0.5594 0.0543
2 -12 3 0.6733 -0.1472
2 -12 4 -0.1002 -0.1032
2 -12 5 -0.3513 0.1532
2 -12 6 0.4743 0.1293
2 -12 7 0.7536 -0.0327
2 -12 8 -0.2880 0.0279
2 -12 9 -0.6199 0.1059
2 -12 10 0.4512 0.0201
2 -12 11 0.3348 0.0165
2 -12 12 -1.7375 0.1334
2 -12 13 -2.9357 0.1667
2 -12 14 -1.9679 0.1746
2 -12 15 -0.6717 0.1838
2 -12 16 -0.2133 -0.0254
2 -11 0 1.8769 -0.6242
2 -11 1 0.7173 0.0663
2 -11 2 -2.3133 0.3532
2 -11 3 -4.1193 0.0571
2 -11 4 -2.7392 -0.0528
2 -11 5 1.1815 0.0930
2 -11 6 4.0429 0.0167
2 -11 7 3.1645 -0.0906
2 -11 8 0.3919 0.0725
2 -11 9 -1.0200 0.1497
2 -11 10 -0.6449 -0.0218
2 -11 11 0.2393 -0.0786
2 -11 12 0.6735 -0.0108
2 -11 13 -0.0171 -0.0787
2 -11 14 -1.3295 -0.1556
2 -11 15 -1.5188 -0.1073
2 -11 16 -0.2982 -0.0755
2 -11 17 0.7068 -0.0378
2 -10 0 2.7658 -0.5026
2 -10 1 -1.2175 -0.0288
2 -10 2 -6.4282 0.0684
2 -10 3 -7.2403 -0.1998
2 -10 4 -2.2174 -0.1615
2 -10 5 3.6543 0.0621
2 -10 6 4.8776 -0.0210
2 -10 7 2.2303 -0.1747
2 -10 8 0.0664 -0.0957
2 -10 9 -0.0095 -0.0387
2 -10 10 0.8582 -0.0822
2 -10 11 1.4279 -0.0226
2 -10 12 0.7705 0.0151
2 -10 13 -0.8742 -0.0665
2 -10 14 -1.7023 0.0113
2 -10 15 -0.9664 0.2330
2 -10 16 -0.0785 0.2079
2 -10 17 -0.0088 -0.0523
2 -9 0 -2.2657 -0.6832
2 -9 1 -2.3883 -0.0671
2 -9 2 -2.2440 0.2510
2 -9 3 -1.5531 0.0457
2 -9 4 0.2006 -0.0120
2 -9 5 2.2522 0.1417
2 -9 6 3.4339 0.1077
2 -9 7 3.3071 0.0330
2 -9 8 2.1709 0.1253
2 -9 9 0.8782 0.1162
2 -9 10 -0.0475 -0.0182
2 -9 11 -0.9417 0.0543
2 -9 12 -1.6674 0.2100
2 -9 13 -1.3106 0.0901
2 -9 14 -0.1416 -0.1261
2 -9 15 0.3631 -0.1201
2 -9 16 -0.1036 -0.0346
2 -9 17 -0.4619 -0.0488
2 -8 0 -1.4158 -0.4343
2 -8 1 4.4300 0.0785
2 -8 2 5.3471 0.1881
2 -8 3 0.9852 -0.1063
2 -8 4 -2.8925 -0.1693
2 -8 5 -1.6999 -0.0176
2 -8 6 2.5803 -0.0455
2 -8 7 4.7192 -0.0994
2 -8 8 2.9875 0.0047
2 -8 9 -0.1227 -0.0088
2 -8 10 -1.9753 -0.1509
2 -8 11 -1.8223 -0.1161
2 -8 12 -0.3984 -0.0373
2 -8 13 0.8576 -0.1240
2 -8 14 1.2123 -0.0952
2 -8 15 1.1166 0.1136
2 -8 16 0.8644 0.1048
2 -8 17 0.3902 -0.0913
2 -7 0 0.4626 -0.7333
2 -7 1 1.7210 -0.2188
2 -7 2 0.5584 0.1488
2 -7 3 -0.5089 0.0399
2 -7 4 -0.3128 -0.0092
2 -7 5 0.4101 0.1016
2 -7 6 1.1614 0.0070
2 -7 7 2.0382 -0.1201
2 -7 8 2.1877 0.0190
2 -7 9 0.6989 0.1414
2 -7 10 -1.2487 0.0410
2 -7 11 -1.8769 -0.0125
2 -7 12 -1.4042 0.0900
2 -7 13 -0.7950 0.1596
2 -7 14 0.0405 0.1116
2 -7 15 0.9084 -0.0070
2 -7 16 0.7420 -0.0718
2 -7 17 -0.3692 0.0034
2 -6 0 -6.3134 -0.5230
2 -6 1 -5.0754 0.1155
2 -6 2 0.3417 0.2418
2 -6 3 5.4553 -0.1206
2 -6 4 5.5693 -0.1295
2 -6 5 2.0225 0.1365
2 -6 6 0.0138 0.1054
2 -6 7 1.1670 -0.0397
2 -6 8 2.6492 0.0097
2 -6 9 2.2431 0.0196
2 -6 10 0.1495 -0.0596
2 -6 11 -2.3220 0.0055
2 -6 12 -3.3735 0.0411
2 -6 13 -2.3609 -0.1573
2 -6 14 -1.0035 -0.2382
2 -6 15 -0.7682 0.0184
2 -6 16 -0.9719 0.1853
2 -6 17 -0.9093 -0.0489
2 -5 0 -6.8842 -0.6322
2 -5 1 -0.6243 -0.0765
2 -5 2 6.8788 0.1552
2 -5 3 8.5306 -0.0592
2 -5 4 4.5963 -0.1260
2 -5 5 0.4520 -0.0032
2 -5 6 -1.0902 -0.0109
2 -5 7 -0.8413 -0.0655
2 -5 8 0.3599 -0.0247
2 -5 9 1.3541 -0.0172
2 -5 10 0.3298 -0.0538
2 -5 11 -1.7067 -0.0301
2 -5 12 -1.7701 0.0051
2 -5 13 -0.2557 0.0614
2 -5 14 0.1083 0.1579
2 -5 15 -0.5849 0.0482
2 -5 16 -0.6436 -0.2026
2 -4 0 -0.1299 -0.6840
2 -4 1 4.6132 0.0305
2 -4 2 4.5399 0.2834
2 -4 3 1.4052 -0.0084
2 -4 4 -0.9051 -0.0712
2 -4 5 -1.8847 0.1054
2 -4 6 -2.3184 0.0455
2 -4 7 -1.6252 -0.0639
2 -4 8 -0.3232 0.0842
2 -4 9 -0.4257 0.1686
2 -4 10 -1.6687 -0.0029
2 -4 11 -1.7578 -0.0599
2 -4 12 -0.3809 0.1129
2 -4 13 0.9128 0.1312
2 -4 14 1.4824 -0.1412
2 -4 15 1.3999 -0.2770
2 -4 16 0.6218 0.1846
2 -3 0 9.4861 -0.5611
2 -3 1 -0.8575 -0.1016
2 -3 2 -12.3937 0.0671
2 -3 3 -11.1751 -0.0878
2 -3 4 -1.1348 -0.0356
2 -3 5 5.3634 0.0967
2 -3 6 4.9846 -0.0289
2 -3 7 1.9651 -0.1341
2 -3 8 -0.8269 -0.0230
2 -3 9 -2.0790 -0.0025
2 -3 10 -1.2606 -0.1075
2 -3 11 -0.4121 -0.0805
2 -3 12 -1.0759 -0.0246
2 -3 13 -1.4608 -0.0853
2 -3 14 -0.3819 -0.0536
2 -3 15 0.5543 0.0970
2 -3 16 0.4352 0.0830
2 -2 0 6.5192 -0.6786
2 -2 1 -3.4799 0.0961
2 -2 2 -7.5076 0.3288
2 -2 3 -0.1515 -0.0945
2 -2 4 9.3680 -0.2008
2 -2 5 11.5394 0.0993
2 -2 6 6.6965 0.1479
2 -2 7 0.6866 -0.0389
2 -2 8 -1.6973 -0.0419
2 -2 9 0.1928 0.0856
2 -2 10 2.3807 0.1109
2 -2 11 1.0834 0.0505
2 -2 12 -2.2321 0.0176
2 -2 13 -3.8341 0.0931
2 -2 14 -2.9348 0.1783
2 -2 15 -1.0559 -0.0388
2 -1 0 4.7151 -0.5955
2 -1 1 21.1148 -0.0015
2 -1 2 21.2918 0.1073
2 -1 3 8.2291 -0.1140
2 -1 4 -3.0668 -0.0276
2 -1 5 -4.7093 0.1150
2 -1 6 -1.2006 -0.0383
2 -1 7 1.0010 -0.1232
2 -1 8 1.0262 0.0347
2 -1 9 0.7220 0.0705
2 -1 10 0.3837 -0.0645
2 -1 11 -0.6622 -0.1087
2 -1 12 -1.9548 -0.0874
2 -1 13 -2.0961 -0.0561
2 -1 14 -0.7093 0.0696
2 -1 15 0.7467 0.0640
2 0 0 15.2841 -0.6402
2 0 1 35.6474 -0.0901
2 0 2 20.6836 0.2402
2 0 3 -9.0678 0.0699
2 0 4 -22.4628 -0.0873
2 0 5 -12.8278 -0.0251
2 0 6 2.7638 0.0240
2 0 7 7.8927 -0.0034
2 0 8 2.1514 -0.0192
2 0 9 -4.2011 -0.0161
2 0 10 -4.5520 0.0002
2 0 11 -1.3349 0.0135
2 0 12 1.0003 0.0170
2 0 13 1.7465 0.0721
2 0 14 1.5662 0.0687
2 1 0 15.1656 -0.5825
2 1 1 20.9916 0.0429
2 1 2 6.7169 0.1543
2 1 3 -9.3456 -0.1902
2 1 4 -10.2718 -0.0960
2 1 5 1.4455 0.2306
2 1 6 10.4299 0.0818
2 1 7 7.4202 -0.1699
2 1 8 -2.0563 0.0342
2 1 9 -6.8985 0.2229
2 1 10 -3.7899 -0.0197
2 1 11 1.6825 -0.1552
2 1 12 3.7503 0.1403
2 1 13 1.7933 0.2598
2 1 14 -1.1000 -0.1873
2 2 0 -0.8934 -0.6264
2 2 1 4.5570 -0.0256
2 2 2 8.3910 0.1518
2 2 3 8.5669 -0.0410
2 2 4 6.1685 -0.0238
2 2 5 2.7156 0.0058
2 2 6 -0.4167 -0.1538
2 2 7 -2.0764 -0.0889
2 2 8 -2.2391 0.1355
2 2 9 -1.5248 -0.0148
2 2 10 -0.1784 -0.2822
2 2 11 1.1007 -0.1020
2 2 12 0.9392 0.1661
2 2 13 -0.5039 -0.0171
2 3 0 -7.2630 -0.5788
2 3 1 5.3569 -0.0065
2 3 2 14.1939 0.2432
2 3 3 9.4421 0.0080
2 3 4 -3.7249 -0.0805
2 3 5 -12.0562 0.0686
2 3 6 -8.9990 0.1208
2 3 7 -0.4760 0.0491
2 3 8 3.8672 -0.0122
2 3 9 1.5642 0.0115
2 3 10 -2.7917 0.1316
2 3 11 -4.6239 0.1521
2 3 12 -2.8793 -0.0094
2 3 13 0.4076 0.0014
2 4 0 2.7626 -0.7102
2 4 1 8.4464 -0.1228
2 4 2 5.8924 0.1505
2 4 3 -4.0858 -0.0475
2 4 4 -11.1847 -0.1218
2 4 5 -8.5177 0.0098
2 4 6 -0.8495 0.0120
2 4 7 3.1342 -0.0827
2 4 8 1.5910 -0.0667
2 4 9 -1.6309 0.0076
2 4 10 -3.6540 -0.0049
2 4 11 -3.4399 -0.0861
2 4 12 -0.8348 -0.0490
2 5 0 5.3799 -0.4992
2 5 1 3.0021 0.0458
2 5 2 0.8586 0.2498
2 5 3 -0.0495 -0.0401
2 5 4 0.2507 -0.1382
2 5 5 0.8232 0.0555
2 5 6 0.2941 0.0983
2 5 7 -1.1532 -0.0044
2 5 8 -1.8570 -0.0190
2 5 9 -1.2907 -0.0158
2 5 10 -0.3972 -0.0587
2 5 11 0.2809 -0.0769
2 6 0 3.5313 -0.6357
2 6 1 1.8913 -0.0383
2 6 2 3.7550 0.1886
2 6 3 4.8332 -0.0228
2 6 4 1.9959 -0.0281
2 6 5 -1.8893 0.0847
2 6 6 -2.9317 0.0062
2 6 7 -1.7331 -0.0268
2 6 8 -1.1732 0.0385
2 6 9 -1.7321 0.0271
2 6 10 -1.9172 0.2399
2 7 0 1.2779 -0.5655
2 7 1 -1.0904 -0.0516
2 7 2 -1.9431 0.1064
2 7 3 -2.0135 -0.0757
2 7 4 -2.6850 -0.1172
2 7 5 -3.0421 -0.0486
2 7 6 -1.7783 -0.0097
2 7 7 -0.0464 0.0098
2 7 8 0.3033 -0.1395
2 7 9 -0.6575 -0.2711
2 8 0 0.3718 -0.4542
2 8 1 -0.6554 0.0323
2 8 2 -2.6196 0.2116
2 8 3 -3.1217 0.0237
2 8 4 -2.2362 -0.0046
2 8 5 -1.0109 0.1167
2 8 6 0.0673 0.1088
2 8 7 0.8696 0.0762
2 8 8 1.3523 0.0368
2 9 0 1.5440 -0.5540
2 9 1 2.5091 -0.0381
2 9 2 0.8053 0.0893
2 9 3 -1.1497 -0.1076
2 9 4 -1.8487 -0.0782
2 9 5 -1.7220 -0.0470
2 9 6 -1.5963 -0.2031
2 9 7 -1.4479 0.0444
2 10 0 -0.3465 -0.4991
2 10 1 1.8004 -0.0585
2 10 2 1.8471 0.1554
2 10 3 -0.4249 0.0484
2 10 4 -3.2238 0.0292
2 10 5 -4.0506 0.0013
2 10 6 -2.1617 -0.1146
2 11 0 -0.5328 -0.4183
2 11 1 1.5865 0.0437
2 11 2 1.6594 0.1862
2 11 3 -0.4002 -0.0656
2 11 4 -2.3240 -0.0574
2 12 0 0.0084 -0.4885
2 12 1 0.6797 -0.0752
2 12 2 0.3708 0.0394
2 12 3 -0.2715 -0.2138
2 13 0 0.8218 -0.2889
2 13 1 0.4139 0.1460
3 -16 3 0.3203 -0.0336
3 -16 4 -0.3158 -0.0712
3 -16 5 -1.4963 0.1506
3 -16 6 -2.3106 0.1358
3 -16 7 -2.1224 -0.0342
3 -16 8 -0.4244 -0.0274
3 -16 9 1.9206 0.1301
3 -16 10 2.8228 0.1817
3 -16 11 1.7424 0.0902
3 -16 12 0.0884 0.1686
3 -15 0 1.4564 -0.4881
3 -15 1 -0.4074 -0.1547
3 -15 2 0.2410 0.1104
3 -15 3 1.5789 0.0970
3 -15 4 1.3556 0.0945
3 -15 5 0.0519 0.1076
3 -15 6 -0.2144 0.0317
3 -15 7 1.1615 0.0589
3 -15 8 2.2940 0.1569
3 -15 9 1.7563 0.0413
3 -15 10 0.7334 -0.1247
3 -15 11 0.3994 -0.0359
3 -15 12 -0.1204 0.0323
3 -15 13 -1.1135 -0.2461
3 -14 0 1.0489 -0.4920
3 -14 1 -0.7456 -0.1258
3 -14 2 -0.8395 -0.0096
3 -14 3 0.4106 -0.2016
3 -14 4 1.5216 -0.2052
3 -14 5 1.6059 -0.0906
3 -14 6 1.2339 -0.1217
3 -14 7 0.8689 -0.1320
3 -14 8 0.2245 -0.0709
3 -14 9 -0.2656 -0.0899
3 -14 10 0.1554 -0.0812
3 -14 11 0.8817 -0.0196
3 -14 12 0.8148 -0.0843
3 -14 13 -0.0793 -0.0510
3 -14 14 -1.0884 0.2954
3 -13 0 -0.4562 -0.2773
3 -13 1 -3.5542 0.1651
3 -13 2 -4.3285 0.2340
3 -13 3 -1.7621 0.0411
3 -13 4 0.9930 0.1054
3 -13 5 1.3642 0.2235
3 -13 6 0.3676 0.0727
3 -13 7 -0.0632 -0.0453
3 -13 8 0.2996 0.0928
3 -13 9 0.7891 0.2028
3 -13 10 1.4422 0.1163
3 -13 11 2.5488 0.0282
3 -13 12 2.9673 0.1022
3 -13 13 1.1630 0.2375
3 -13 14 -1.3461 0.1394
3 -13 15 -1.1565 -0.2890
3 -12 0 -0.3203 -0.6493
3 -12 1 -2.5986 -0.1372
3 -12 2 -2.3016 0.1370
3 -12 3 -0.9033 -0.0705
3 -12 4 -0.7315 -0.1718
3 -12 5 -1.1972 -0.0058
3 -12 6 -0.1931 0.0545
3 -12 7 2.2691 -0.0355
3 -12 8 3.4808 -0.0825
3 -12 9 1.7961 -0.0993
3 -12 10 -0.4424 -0.1075
3 -12 11 -0.2482 -0.0859
3 -12 12 1.3729 -0.1467
3 -12 13 1.6650 -0.2659
3 -12 14 0.8012 -0.1856
3 -12 15 0.5511 0.1200
3 -11 0 0.7007 -0.5760
3 -11 1 0.7663 -0.0498
3 -11 2 0.6227 0.2204
3 -11 3 -0.6695 -0.0541
3 -11 4 -1.9654 -0.1713
3 -11 5 -1.2407 0.0213
3 -11 6 1.7388 0.0510
3 -11 7 4.1198 -0.0575
3 -11 8 2.5309 -0.0154
3 -11 9 -2.1410 0.0703
3 -11 10 -5.0356 0.0654
3 -11 11 -3.4979 0.0756
3 -11 12 -0.0113 0.1388
3 -11 13 1.7153 0.1884
3 -11 14 0.9049 0.1663
3 -11 15 -0.4619 0.0329
3 -11 16 -0.5407 -0.0774
3 -10 0 -0.0602 -0.4751
3 -10 1 -0.4031 -0.0311
3 -10 2 0.5257 0.2176
3 -10 3 1.9134 0.0927
3 -10 4 2.6985 0.0355
3 -10 5 2.8289 0.0537
3 -10 6 2.2784 -0.0089
3 -10 7 0.4877 0.0225
3 -10 8 -1.8915 0.1171
3 -10 9 -2.9581 0.0200
3 -10 10 -2.1719 -0.1081
3 -10 11 -0.8179 -0.0166
3 -10 12 -0.0702 0.0505
3 -10 13 -0.2906 -0.1189
3 -10 14 -1.0059 -0.2545
3 -10 15 -0.8696 -0.1581
3 -10 16 0.5234 0.0002
3 -9 0 -3.8067 -0.6703
3 -9 1 -3.5166 -0.1526
3 -9 2 0.3141 0.0990
3 -9 3 3.7587 -0.0660
3 -9 4 3.9711 -0.1344
3 -9 5 1.7221 -0.0067
3 -9 6 -0.5727 0.0112
3 -9 7 -0.9720 -0.0695
3 -9 8 0.6869 -0.0755
3 -9 9 2.2625 -0.0542
3 -9 10 1.6488 -0.0516
3 -9 11 -0.4626 -0.0335
3 -9 12 -1.8938 -0.0328
3 -9 13 -1.8832 0.0057
3 -9 14 -1.1143 0.1548
3 -9 15 -0.2982 0.2207
3 -9 16 0.2134 0.0934
3 -8 0 -5.1244 -0.4435
3 -8 1 -3.3766 0.0766
3 -8 2 -0.7934 0.2268
3 -8 3 -0.1509 -0.0799
3 -8 4 -1.9855 -0.0984
3 -8 5 -3.4365 0.1338
3 -8 6 -1.5334 0.0748
3 -8 7 2.5398 -0.0742
3 -8 8 4.4240 0.0513
3 -8 9 2.1914 0.1699
3 -8 10 -1.3931 0.0779
3 -8 11 -2.7488 0.0403
3 -8 12 -1.2641 0.1094
3 -8 13 1.0289 0.0500
3 -8 14 1.6901 -0.1182
3 -8 15 0.0523 -0.1617
3 -8 16 -1.9476 -0.0349
3 -7 0 -1.9220 -0.7213
3 -7 1 -1.3740 -0.0175
3 -7 2 -0.9479 0.2448
3 -7 3 -1.5341 -0.0377
3 -7 4 -2.7184 -0.0993
3 -7 5 -1.9711 0.0784
3 -7 6 1.2331 0.0462
3 -7 7 3.3096 -0.0813
3 -7 8 1.5193 -0.0524
3 -7 9 -1.8660 -0.0262
3 -7 10 -2.7525 -0.1092
3 -7 11 -0.3628 -0.1392
3 -7 12 2.3287 -0.0751
3 -7 13 2.3426 -0.0370
3 -7 14 0.1812 -0.0409
3 -7 15 -1.1226 -0.0039
3 -7 16 -0.3768 0.1139
3 -6 0 -0.2389 -0.5988
3 -6 1 -0.3111 -0.0071
3 -6 2 0.9186 0.1945
3 -6 3 2.5302 -0.1011
3 -6 4 3.3742 -0.1691
3 -6 5 2.8720 0.0566
3 -6 6 1.1484 0.0633
3 -6 7 -0.7087 -0.0898
3 -6 8 -1.3789 -0.0227
3 -6 9 -0.6351 0.1104
3 -6 10 0.6983 0.0504
3 -6 11 1.2258 0.0162
3 -6 12 -0.3362 0.1481
3 -6 13 -2.7774 0.1743
3 -6 14 -2.3855 0.0163
3 -6 15 1.5231 -0.0659
3 -6 16 4.3078 -0.0091
3 -5 0 -2.1544 -0.5919
3 -5 1 -4.5666 -0.0327
3 -5 2 -2.4866 0.2084
3 -5 3 2.8979 -0.0110
3 -5 4 5.9356 -0.0487
3 -5 5 3.5685 0.1100
3 -5 6 -0.5453 0.0548
3 -5 7 -1.3457 -0.0462
3 -5 8 1.0486 0.0478
3 -5 9 2.7470 0.0769
3 -5 10 1.5278 -0.0392
3 -5 11 -1.4310 -0.0651
3 -5 12 -3.2913 -0.0741
3 -5 13 -1.9995 -0.1607
3 -5 14 1.3801 -0.0803
3 -5 15 3.2639 0.1038
3 -5 16 1.9589 -0.0105
3 -4 0 -9.0362 -0.5792
3 -4 1 -14.2226 -0.0367
3 -4 2 -9.6511 0.1635
3 -4 3 0.7535 -0.0534
3 -4 4 6.8287 -0.0964
3 -4 5 4.9965 0.0303
3 -4 6 0.5536 -0.0208
3 -4 7 -1.0028 -0.1127
3 -4 8 0.5875 -0.0546
3 -4 9 2.2161 -0.0215
3 -4 10 1.4287 -0.0703
3 -4 11 -0.6655 -0.0189
3 -4 12 -0.7414 0.1128
3 -4 13 1.5703 0.1063
3 -4 14 2.8447 -0.0580
3 -4 15 1.3894 -0.0560
3 -3 0 -5.4448 -0.6327
3 -3 1 -9.0087 -0.0698
3 -3 2 -6.6810 0.1829
3 -3 3 -0.2062 -0.0358
3 -3 4 4.4780 -0.0935
3 -3 5 4.3629 0.0716
3 -3 6 1.0836 0.0840
3 -3 7 -1.8793 0.0136
3 -3 8 -2.0917 0.0809
3 -3 9 -0.2440 0.1184
3 -3 10 0.9982 0.0163
3 -3 11 0.8749 0.0229
3 -3 12 0.8742 0.1379
3 -3 13 1.4296 -0.0053
3 -3 14 1.5138 -0.2964
3 -3 15 0.9028 -0.1177
3 -2 0 12.3860 -0.6048
3 -2 1 4.7377 0.0424
3 -2 2 -4.9871 0.2595
3 -2 3 -6.3602 -0.0332
3 -2 4 0.8503 -0.1331
3 -2 5 7.7146 0.0636
3 -2 6 6.9814 0.0671
3 -2 7 0.3584 -0.1206
3 -2 8 -4.9687 -0.1170
3 -2 9 -4.8049 -0.0006
3 -2 10 -1.2025 -0.0591
3 -2 11 1.4950 -0.1713
3 -2 12 1.4539 -0.1161
3 -2 13 -0.0126 0.0494
3 -2 14 -0.9061 0.2039
3 -1 0 8.7835 -0.6305
3 -1 1 -3.0166 -0.1172
3 -1 2 -11.6816 0.1691
3 -1 3 -6.5306 -0.0521
3 -1 4 6.1249 -0.1353
3 -1 5 12.0828 0.0528
3 -1 6 6.6774 0.0565
3 -1 7 -2.4239 -0.0758
3 -1 8 -6.5590 -0.0138
3 -1 9 -4.5598 0.1277
3 -1 10 -0.7628 0.1504
3 -1 11 1.1254 0.1067
3 -1 12 0.7211 -0.0117
3 -1 13 -0.4987 -0.1501
3 -1 14 -1.1500 0.0205
3 0 0 -7.7625 -0.6526
3 0 1 -8.5719 0.0121
3 0 2 -5.4572 0.2688
3 0 3 1.4221 0.0089
3 0 4 5.5141 -0.0967
3 0 5 3.2778 0.0538
3 0 6 -0.7476 0.1329
3 0 7 -1.5259 0.0666
3 0 8 -0.0567 -0.0628
3 0 9 0.5570 -0.1286
3 0 10 0.2302 -0.0029
3 0 11 0.3683 0.1048
3 0 12 0.8590 -0.0942
3 0 13 0.8119 -0.2601
3 1 0 -0.5401 -0.5347
3 1 1 3.9124 -0.0753
3 1 2 4.5734 0.1326
3 1 3 1.9299 -0.0338
3 1 4 -1.3165 -0.1484
3 1 5 -1.9304 -0.0556
3 1 6 0.5994 0.0043
3 1 7 2.9274 -0.0748
3 1 8 2.4352 -0.1013
3 1 9 0.7328 0.0103
3 1 10 0.1283 0.0466
3 1 11 0.0383 -0.0817
3 1 12 -0.5213 -0.0606
3 1 13 -0.6467 0.3172
3 2 0 4.0806 -0.6544
3 2 1 3.3256 -0.0596
3 2 2 2.0999 0.2317
3 2 3 0.6684 0.0132
3 2 4 0.3002 -0.0513
3 2 5 0.6034 0.1346
3 2 6 -0.0591 0.1026
3 2 7 -1.5499 -0.0436
3 2 8 -1.8069 0.0908
3 2 9 -0.2896 0.2607
3 2 10 0.6912 0.0618
3 2 11 -0.5112 -0.2413
3 2 12 -2.1366 -0.1729
3 3 0 -6.4236 -0.4896
3 3 1 -4.9206 0.0158
3 3 2 0.4804 0.1109
3 3 3 4.6658 -0.1068
3 3 4 4.6181 -0.0613
3 3 5 0.6159 0.0800
3 3 6 -3.7113 -0.0404
3 3 7 -4.4463 -0.1882
3 3 8 -1.7243 -0.1374
3 3 9 0.9552 -0.0478
3 3 10 1.3442 0.0157
3 3 11 0.0616 0.0776
3 4 0 -4.8251 -0.5996
3 4 1 -2.0682 -0.0681
3 4 2 1.7488 0.1613
3 4 3 3.6342 -0.0287
3 4 4 2.5863 -0.1213
3 4 5 -0.0113 -0.0018
3 4 6 -1.5198 0.0939
3 4 7 -0.8299 0.0975
3 4 8 0.3367 0.0457
3 4 9 0.3666 -0.0134
3 4 10 -0.0426 0.0174
3 4 11 -0.1636 0.0759
3 5 0 3.6416 -0.4798
3 5 1 -1.2382 0.0428
3 5 2 -4.3303 0.2182
3 5 3 -3.3246 0.0252
3 5 4 -0.0425 -0.0128
3 5 5 2.1141 0.0779
3 5 6 2.2702 0.0185
3 5 7 1.6146 -0.0399
3 5 8 0.5726 0.0492
3 5 9 -0.6422 0.0549
3 5 10 -0.9019 -0.1252
3 6 0 1.1228 -0.5950
3 6 1 -5.3896 -0.1731
3 6 2 -6.2994 0.0549
3 6 3 -1.9538 -0.0589
3 6 4 2.0921 -0.1028
3 6 5 2.0545 -0.0630
3 6 6 -0.3389 -0.1165
3 6 7 -1.5739 -0.1108
3 6 8 -1.0016 0.0142
3 6 9 -0.1856 0.0356
3 7 0 -0.4303 -0.4790
3 7 1 -0.9211 0.0592
3 7 2 -0.4180 0.2502
3 7 3 0.8634 0.0236
3 7 4 1.3328 -0.0213
3 7 5 -0.3089 0.1555
3 7 6 -2.8526 0.2120
3 7 7 -3.2207 0.1193
3 7 8 -0.8840 -0.0413
3 8 0 3.9462 -0.5140
3 8 1 3.2916 -0.0521
3 8 2 0.6752 0.1251
3 8 3 -0.0259 -0.0649
3 8 4 1.5413 -0.1478
3 8 5 2.3454 -0.0866
3 8 6 1.4474 -0.0850
3 8 7 0.9741 -0.0800
3 9 0 3.1408 -0.5436
3 9 1 2.4139 -0.0504
3 9 2 0.5641 0.1190
3 9 3 -0.4587 -0.0705
3 9 4 0.0334 -0.0156
3 9 5 1.5048 0.1519
3 9 6 2.6142 -0.0229
3 10 0 1.0326 -0.3134
3 10 1 1.2039 0.1015
3 10 2 0.1414 0.1994
3 10 3 -1.3884 0.0000
3 10 4 -1.6593 0.0602
3 11 0 -0.3286 -0.6389
3 11 1 0.4985 -0.1807
3 11 2 1.3767 0.0942
3 11 3 2.0520 -0.1875
3 12 0 0.4633 -0.3276
3 12 1 0.2784 0.1006
4 -16 5 -0.7928 -0.2953
4 -16 6 -0.3455 -0.2717
4 -16 7 1.6708 -0.3275
4 -16 8 2.4751 -0.3521
4 -16 9 1.1993 -0.2665
4 -15 1 -2.1116 0.3779
4 -15 2 -1.2419 0.1284
4 -15 3 0.3509 -0.0464
4 -15 4 0.1715 0.1431
4 -15 5 -1.0111 0.1573
4 -15 6 -0.9725 -0.0040
4 -15 7 -0.4054 0.0625
4 -15 8 -0.9112 0.1895
4 -15 9 -1.1933 0.0828
4 -15 10 0.2724 -0.0389
4 -15 11 1.7231 0.1244
4 -14 0 0.7792 -0.4195
4 -14 1 0.3516 -0.1285
4 -14 2 0.3459 0.1673
4 -14 3 0.1177 0.1906
4 -14 4 -0.7888 0.0848
4 -14 5 -1.1662 0.0034
4 -14 6 -0.7583 0.0317
4 -14 7 -1.1073 0.1269
4 -14 8 -2.4241 0.0971
4 -14 9 -2.7496 -0.0309
4 -14 10 -1.0550 0.0129
4 -14 11 1.0968 0.1398
4 -14 12 1.4643 -0.0875
4 -14 13 -0.2219 -0.5986
4 -13 0 2.3642 -0.7751
4 -13 1 1.0474 -0.1119
4 -13 2 -1.4404 0.1305
4 -13 3 -2.6104 -0.2632
4 -13 4 -1.0540 -0.3371
4 -13 5 1.5074 -0.0167
4 -13 6 2.3749 0.0105
4 -13 7 0.9159 -0.2209
4 -13 8 -1.3649 -0.2246
4 -13 9 -2.3597 -0.0290
4 -13 10 -1.0491 0.0193
4 -13 11 0.8608 -0.1536
4 -13 12 0.4229 -0.2437
4 -13 13 -1.8226 0.0867
4 -13 14 -1.5715 0.6492
4 -12 0 0.1041 -0.4207
4 -12 1 0.0818 0.0851
4 -12 2 -0.4851 0.3159
4 -12 3 -0.5633 0.0995
4 -12 4 -0.0466 0.0276
4 -12 5 0.4837 0.1551
4 -12 6 0.9812 0.1682
4 -12 7 0.9605 0.0867
4 -12 8 -0.2860 0.0483
4 -12 9 -1.5714 0.0669
4 -12 10 -1.0920 0.1436
4 -12 11 0.1624 0.2153
4 -12 12 -0.1121 0.1822
4 -12 13 -1.2242 0.0427
4 -12 14 -0.5886 -0.1934
4 -11 0 0.2274 -0.6291
4 -11 1 1.9482 -0.0969
4 -11 2 1.3122 0.2105
4 -11 3 -1.3415 -0.0473
4 -11 4 -3.6647 -0.2323
4 -11 5 -3.2867 -0.0469
4 -11 6 -0.4032 0.0693
4 -11 7 2.0611 -0.0625
4 -11 8 1.8530 -0.1156
4 -11 9 0.0260 0.0017
4 -11 10 -0.7868 -0.0013
4 -11 11 0.1749 -0.2158
4 -11 12 1.1949 -0.3380
4 -11 13 0.7061 -0.1427
4 -11 14 -0.6112 0.1316
4 -10 0 2.4031 -0.5514
4 -10 1 2.9674 -0.0544
4 -10 2 0.8420 0.0709
4 -10 3 -2.2055 -0.1145
4 -10 4 -3.4798 -0.0067
4 -10 5 -2.0652 0.1228
4 -10 6 0.6707 -0.0918
4 -10 7 2.4669 -0.1698
4 -10 8 1.8481 0.0794
4 -10 9 -0.4322 0.1055
4 -10 10 -1.6429 -0.1053
4 -10 11 -0.1170 -0.0007
4 -10 12 2.3775 0.3313
4 -10 13 2.9487 0.3629
4 -10 14 1.5154 0.0957
4 -10 15 0.3093 -0.1078
4 -9 0 2.0255 -0.4499
4 -9 1 2.1289 0.1131
4 -9 2 0.3902 0.2331
4 -9 3 -1.8900 0.0175
4 -9 4 -2.1185 0.0153
4 -9 5 -0.2807 0.1066
4 -9 6 0.9761 0.0629
4 -9 7 0.1650 0.0505
4 -9 8 -1.2917 0.0936
4 -9 9 -1.4821 0.0589
4 -9 10 -0.3234 0.0308
4 -9 11 1.0191 0.0141
4 -9 12 1.5308 -0.1575
4 -9 13 0.9013 -0.3341
4 -9 14 -0.1850 -0.2271
4 -9 15 -0.5630 -0.0172
4 -8 0 -2.5143 -0.6153
4 -8 1 -0.1689 -0.0495
4 -8 2 0.0675 0.1149
4 -8 3 -1.5786 -0.2127
4 -8 4 -2.0510 -0.2175
4 -8 5 -0.9964 0.0842
4 -8 6 -0.5267 0.0145
4 -8 7 -0.6915 -0.2440
4 -8 8 0.1509 -0.1151
4 -8 9 1.4638 0.0759
4 -8 10 1.2074 -0.1204
4 -8 11 -0.5796 -0.2275
4 -8 12 -1.9775 0.1279
4 -8 13 -1.9036 0.3899
4 -8 14 -0.8239 0.1846
4 -8 15 0.1722 -0.0536
4 -7 0 -2.3946 -0.6356
4 -7 1 -0.7234 0.0258
4 -7 2 -0.9114 0.2870
4 -7 3 -2.5216 0.0119
4 -7 4 -3.2863 -0.0114
4 -7 5 -1.9882 0.1396
4 -7 6 0.6373 0.0080
4 -7 7 2.8403 -0.0435
4 -7 8 3.1021 0.1732
4 -7 9 1.5510 0.1522
4 -7 10 -0.1056 -0.0177
4 -7 11 -0.7238 0.1284
4 -7 12 -0.5685 0.1802
4 -7 13 -0.0366 -0.2047
4 -7 14 0.5361 -0.3427
4 -7 15 0.4177 0.0018
4 -6 0 -2.3795 -0.5113
4 -6 1 -6.2729 0.0179
4 -6 2 -6.5831 0.1728
4 -6 3 -3.9643 -0.0969
4 -6 4 -0.7922 -0.1332
4 -6 5 1.6062 0.0650
4 -6 6 2.6731 0.0803
4 -6 7 2.0740 -0.0408
4 -6 8 0.8186 -0.0826
4 -6 9 0.6423 -0.0704
4 -6 10 1.3644 -0.0823
4 -6 11 1.2876 -0.1552
4 -6 12 0.2475 -0.1822
4 -6 13 -0.4396 0.0501
4 -6 14 -0.4542 0.2989
4 -6 15 -0.4199 0.0274
4 -5 0 -4.4564 -0.6415
4 -5 1 -6.8051 -0.0916
4 -5 2 -3.6520 0.1165
4 -5 3 0.8914 -0.0842
4 -5 4 2.4348 -0.0828
4 -5 5 0.8768 0.0659
4 -5 6 -1.3467 -0.0518
4 -5 7 -2.1283 -0.1671
4 -5 8 -0.8753 0.0450
4 -5 9 0.8241 0.1720
4 -5 10 0.8293 0.0045
4 -5 11 -0.5714 0.0555
4 -5 12 -1.4341 0.3086
4 -5 13 -1.1747 0.0826
4 -5 14 -0.4484 -0.3265
4 -4 0 -1.6291 -0.4602
4 -4 1 0.4883 0.0674
4 -4 2 2.7681 0.2328
4 -4 3 2.4911 0.0170
4 -4 4 -0.0102 0.0078
4 -4 5 -1.9393 0.1240
4 -4 6 -1.8556 0.0281
4 -4 7 -0.4848 0.0091
4 -4 8 0.7136 0.1565
4 -4 9 0.6228 0.0156
4 -4 10 -0.5582 -0.2138
4 -4 11 -1.5875 -0.0373
4 -4 12 -1.7775 0.0052
4 -4 13 -1.1705 -0.3907
4 -4 14 0.0885 -0.1044
4 -3 0 0.0708 -0.6782
4 -3 1 1.3616 -0.1624
4 -3 2 1.2867 0.0843
4 -3 3 0.4239 -0.1056
4 -3 4 0.3829 -0.1137
4 -3 5 1.6407 0.0300
4 -3 6 3.0715 -0.0634
4 -3 7 3.3256 -0.1468
4 -3 8 2.0759 -0.0278
4 -3 9 0.3608 -0.0273
4 -3 10 -0.5063 -0.0920
4 -3 11 -0.4670 0.0888
4 -3 12 -0.3346 0.2563
4 -3 13 -0.3195 0.1467
4 -3 14 -0.1361 0.0205
4 -2 0 -2.1942 -0.5732
4 -2 1 -2.1674 0.0537
4 -2 2 -0.4561 0.2837
4 -2 3 1.8361 -0.0042
4 -2 4 2.8103 -0.0913
4 -2 5 2.3033 0.0770
4 -2 6 1.7047 0.0747
4 -2 7 1.1242 0.0164
4 -2 8 -0.0077 0.1320
4 -2 9 -0.6894 0.1604
4 -2 10 0.1730 -0.0285
4 -2 11 1.5040 -0.1065
4 -2 12 1.4651 -0.0175
4 -2 13 0.0876 -0.1268
4 -1 0 -5.8233 -0.5702
4 -1 1 -1.2880 -0.0856
4 -1 2 4.1002 0.1682
4 -1 3 4.7346 -0.0208
4 -1 4 -0.0174 -0.0764
4 -1 5 -4.4526 0.0788
4 -1 6 -4.3083 0.0081
4 -1 7 -1.6634 -0.1553
4 -1 8 -0.1200 -0.0599
4 -1 9 -0.0395 -0.0102
4 -1 10 -0.1334 -0.1760
4 -1 11 -0.0235 -0.0424
4 -1 12 -0.0289 0.3234
4 -1 13 -0.1477 0.1278
4 0 0 -3.8207 -0.6989
4 0 1 4.7223 -0.1128
4 0 2 8.9189 0.1923
4 0 3 4.1955 -0.0330
4 0 4 -3.9696 -0.1305
4 0 5 -7.1044 0.0002
4 0 6 -3.6672 -0.0125
4 0 7 0.9746 0.0067
4 0 8 2.1812 0.1563
4 0 9 0.3257 0.0359
4 0 10 -1.5984 -0.1379
4 0 11 -1.7497 0.1587
4 0 12 -0.4993 0.3089
4 1 0 -1.4774 -0.4716
4 1 1 5.9451 0.0685
4 1 2 7.4908 0.2271
4 1 3 2.5871 -0.0309
4 1 4 -2.5661 -0.0553
4 1 5 -2.8891 0.1132
4 1 6 0.6786 0.0831
4 1 7 3.2007 -0.0131
4 1 8 2.0657 0.0025
4 1 9 -0.4032 -0.0202
4 1 10 -1.2273 -0.0834
4 1 11 -0.4459 -0.0857
4 1 12 0.4949 -0.1435
4 2 0 -1.8613 -0.6603
4 2 1 1.6056 -0.0928
4 2 2 2.3299 0.1506
4 2 3 0.9844 -0.0629
4 2 4 -0.3238 -0.1269
4 2 5 -0.2202 0.0238
4 2 6 0.8857 -0.0352
4 2 7 1.3465 -0.1930
4 2 8 0.7106 -0.0589
4 2 9 0.1952 0.1471
4 2 10 0.3684 0.0912
4 2 11 0.5189 0.1247
4 3 0 -3.5106 -0.5624
4 3 1 -4.1124 0.0134
4 3 2 -1.9981 0.2429
4 3 3 0.9822 -0.0651
4 3 4 1.5205 -0.1253
4 3 5 -0.6881 0.1549
4 3 6 -1.9736 0.1832
4 3 7 -0.1873 0.0293
4 3 8 2.1302 0.0221
4 3 9 2.1942 -0.0982
4 3 10 0.8393 -0.2788
4 4 0 -4.0262 -0.5534
4 4 1 -3.4761 0.0249
4 4 2 0.8736 0.2025
4 4 3 4.6270 -0.0668
4 4 4 3.6179 -0.0868
4 4 5 -0.1928 0.0342
4 4 6 -1.3969 -0.0785
4 4 7 0.4689 -0.0910
4 4 8 1.4426 0.1323
4 4 9 0.5339 0.1167
4 5 0 -0.0238 -0.5358
4 5 1 1.2466 -0.0604
4 5 2 3.1267 0.0981
4 5 3 3.6514 -0.0619
4 5 4 2.6064 -0.0430
4 5 5 1.5047 0.0629
4 5 6 0.7158 -0.0448
4 5 7 -0.5187 -0.1718
4 5 8 -1.4336 -0.0304
4 6 0 0.8788 -0.4792
4 6 1 0.3400 -0.0040
4 6 2 -1.2103 0.2109
4 6 3 -1.7189 -0.0248
4 6 4 -0.0548 -0.0667
4 6 5 1.6725 0.2303
4 6 6 1.2625 0.2471
4 6 7 -0.2804 -0.1268
4 7 0 0.6848 -0.5406
4 7 1 -0.5678 -0.0188
4 7 2 -1.3653 0.2147
4 7 3 -0.2076 -0.1160
4 7 4 1.1307 -0.2874
4 7 5 0.7300 -0.1075
4 7 6 -0.3541 0.0328
4 8 0 0.9144 -0.5717
4 8 1 1.5605 -0.0527
4 8 2 3.3141 0.1815
4 8 3 3.8856 0.1086
4 8 4 1.3698 0.0797
4 8 5 -2.1268 -0.0740
4 9 0 0.0431 -0.2556
4 9 1 0.9530 0.0617
4 9 2 1.3494 0.0104
4 9 3 0.7927 -0.0901
4 9 4 -0.7778 0.1910
4 10 0 -0.7489 -0.4704
4 10 1 -1.7954 0.0338
4 10 2 -1.8414 -0.0343
4 11 0 -1.8543 -0.4315
5 -15 5 0.5092 -0.2701
5 -15 6 -0.8681 -0.4338
5 -15 7 -1.5053 -0.4514
5 -14 1 -0.5898 0.5853
5 -14 2 -0.6074 0.0852
5 -14 3 0.8199 -0.3220
5 -14 4 2.0668 0.0306
5 -14 5 1.4432 0.2367
5 -14 6 -0.1477 -0.0092
5 -14 7 -0.4278 -0.0061
5 -14 8 0.9376 0.2221
5 -14 9 2.1125 0.0946
5 -14 10 1.7132 -0.0297
5 -13 0 1.5392 -0.5207
5 -13 1 0.4687 0.0509
5 -13 2 -0.4554 0.3133
5 -13 3 -0.5621 0.1674
5 -13 4 0.0472 0.0571
5 -13 5 0.7387 0.0804
5 -13 6 0.6761 0.1269
5 -13 7 -0.1227 0.1590
5 -13 8 -0.3509 0.1066
5 -13 9 0.5758 0.0142
5 -13 10 1.1674 0.0273
5 -13 11 0.3930 -0.0782
5 -12 0 0.9843 -0.9874
5 -12 1 -0.2187 -0.1478
5 -12 2 -1.6344 0.2534
5 -12 3 -1.5943 -0.1719
5 -12 4 0.0848 -0.3797
5 -12 5 1.7289 -0.1431
5 -12 6 1.5281 -0.0717
5 -12 7 -0.2420 -0.1976
5 -12 8 -1.4248 -0.2112
5 -12 9 -0.8304 -0.1882
5 -12 10 0.5037 -0.1991
5 -12 11 1.2657 -0.0107
5 -12 12 1.1860 0.4045
5 -11 0 -0.6451 -0.2440
5 -11 1 -0.5154 -0.0071
5 -11 2 0.4170 0.0448
5 -11 3 0.7449 0.0401
5 -11 4 0.2635 0.1844
5 -11 5 0.2518 0.2017
5 -11 6 0.8187 0.0796
5 -11 7 0.6963 0.1382
5 -11 8 -0.2102 0.2694
5 -11 9 -0.6838 0.2051
5 -11 10 -0.4171 0.1401
5 -11 11 -0.3513 0.2331
5 -11 12 -0.9995 0.1098
5 -11 13 -1.6272 -0.4594
5 -10 0 -0.6637 -0.5079
5 -10 1 1.2106 0.0303
5 -10 2 1.3662 0.2562
5 -10 3 -0.4350 -0.0145
5 -10 4 -1.6166 -0.1740
5 -10 5 -0.9225 -0.0408
5 -10 6 0.0475 -0.0212
5 -10 7 -0.0592 -0.1552
5 -10 8 -0.6308 -0.1674
5 -10 9 -0.9641 -0.1395
5 -10 10 -1.3239 -0.2486
5 -10 11 -1.7209 -0.3179
5 -10 12 -1.4182 -0.1470
5 -10 13 -0.1369 0.2087
5 -9 0 1.7387 -0.6925
5 -9 1 0.6531 0.0449
5 -9 2 -1.3222 0.1136
5 -9 3 -1.4648 -0.2995
5 -9 4 0.0002 -0.1425
5 -9 5 0.8023 0.2242
5 -9 6 0.3876 0.0589
5 -9 7 -0.1202 -0.1379
5 -9 8 -0.1692 0.0753
5 -9 9 0.0127 0.2253
5 -9 10 0.0513 0.1984
5 -9 11 -0.2952 0.2957
5 -9 12 -0.4439 0.2587
5 -9 13 0.4119 -0.0908
5 -8 0 0.5622 -0.4912
5 -8 1 -1.4231 0.1331
5 -8 2 -0.7585 0.2972
5 -8 3 1.3289 0.0410
5 -8 4 1.9555 0.0168
5 -8 5 1.0771 0.1162
5 -8 6 0.3441 0.0553
5 -8 7 0.0531 0.0021
5 -8 8 0.2528 -0.0027
5 -8 9 1.3083 -0.0748
5 -8 10 1.8718 -0.1383
5 -8 11 0.5197 -0.2233
5 -8 12 -0.9836 -0.3591
5 -8 13 -0.3791 -0.2180
5 -7 0 -2.2907 -0.5538
5 -7 1 -1.5436 -0.1120
5 -7 2 1.3798 0.0728
5 -7 3 2.7479 -0.1536
5 -7 4 1.3003 -0.1931
5 -7 5 -0.5334 -0.0075
5 -7 6 -0.9375 -0.0368
5 -7 7 -0.2637 -0.1620
5 -7 8 0.6749 -0.0533
5 -7 9 1.0006 0.0837
5 -7 10 0.3072 0.0507
5 -7 11 -0.1933 0.1239
5 -7 12 0.6079 0.3558
5 -7 13 1.6422 0.3104
5 -6 0 -1.7530 -0.6224
5 -6 1 -1.2937 -0.0585
5 -6 2 -0.5690 0.2425
5 -6 3 -0.5208 0.0610
5 -6 4 -0.5050 0.0255
5 -6 5 0.0342 0.1493
5 -6 6 0.6083 0.0777
5 -6 7 0.4269 0.0363
5 -6 8 -1.0063 0.1438
5 -6 9 -2.6854 0.0722
5 -6 10 -2.2423 -0.0645
5 -6 11 0.3726 -0.0469
5 -6 12 1.9255 -0.2319
5 -6 13 0.9692 -0.4455
5 -5 0 2.3603 -0.4501
5 -5 1 -0.7456 0.0927
5 -5 2 -4.0721 0.1438
5 -5 3 -3.4901 -0.1885
5 -5 4 0.3681 -0.1347
5 -5 5 2.8556 0.0832
5 -5 6 1.7230 -0.0595
5 -5 7 -1.0912 -0.2207
5 -5 8 -2.7629 -0.1101
5 -5 9 -1.9640 -0.0286
5 -5 10 0.2499 -0.0332
5 -5 11 1.1933 -0.0106
5 -5 12 0.0053 -0.0247
5 -5 13 -1.0931 0.2238
5 -4 0 2.9922 -0.6581
5 -4 1 -0.7242 -0.1154
5 -4 2 -2.9480 0.1132
5 -4 3 -1.4350 -0.0255
5 -4 4 1.3120 0.0308
5 -4 5 2.0428 0.1079
5 -4 6 0.5972 -0.0250
5 -4 7 -0.8432 0.0335
5 -4 8 -0.5641 0.2610
5 -4 9 0.7249 0.1573
5 -4 10 1.0482 -0.0591
5 -4 11 0.2760 0.0871
5 -4 12 -0.1044 0.2030
5 -3 0 2.2605 -0.5846
5 -3 1 2.5663 0.0896
5 -3 2 0.9586 0.3177
5 -3 3 -1.6157 -0.0418
5 -3 4 -2.5994 -0.1613
5 -3 5 -1.0464 0.0344
5 -3 6 0.7163 0.0236
5 -3 7 0.7584 -0.1034
5 -3 8 -0.2899 -0.0946
5 -3 9 -1.4357 -0.1584
5 -3 10 -1.9007 -0.2449
5 -3 11 -0.7523 -0.0418
5 -3 12 1.0082 0.1084
5 -2 0 4.3880 -0.6182
5 -2 1 3.5531 -0.0855
5 -2 2 -0.5152 0.1147
5 -2 3 -4.6254 -0.1323
5 -2 4 -4.8217 -0.0672
5 -2 5 -1.2276 0.1562
5 -2 6 2.1241 -0.0080
5 -2 7 2.4348 -0.1089
5 -2 8 0.2649 0.1793
5 -2 9 -2.1603 0.2505
5 -2 10 -2.6096 0.0423
5 -2 11 -0.6765 0.1079
5 -2 12 1.3811 0.1546
5 -1 0 1.3188 -0.5934
5 -1 1 -0.4319 0.0387
5 -1 2 -2.8843 0.2693
5 -1 3 -4.2096 -0.0086
5 -1 4 -2.9521 -0.0711
5 -1 5 0.3291 0.0637
5 -1 6 2.7982 0.0317
5 -1 7 2.1900 -0.0214
5 -1 8 -0.2606 -0.0556
5 -1 9 -1.5435 -0.1724
5 -1 10 -0.7928 -0.0773
5 -1 11 0.5532 0.1257
5 0 0 0.5475 -0.5239
5 0 1 -0.8306 -0.0261
5 0 2 -2.2520 0.1215
5 0 3 -2.5497 -0.1329
5 0 4 -1.6121 -0.1440
5 0 5 -0.0563 0.0599
5 0 6 0.3412 0.0287
5 0 7 -0.9181 -0.1029
5 0 8 -1.4974 -0.0237
5 0 9 -0.2359 0.0887
5 0 10 0.8928 0.0272
5 1 0 1.2442 -0.6122
5 1 1 0.5633 0.0026
5 1 2 0.0615 0.2485
5 1 3 -0.2371 0.0094
5 1 4 -0.4435 -0.0058
5 1 5 -0.1376 0.1425
5 1 6 0.5560 0.0250
5 1 7 1.1644 -0.0251
5 1 8 1.3478 0.1751
5 1 9 0.6587 0.1151
5 1 10 -0.5271 -0.0228
5 2 0 -0.0314 -0.4726
5 2 1 0.4753 0.0004
5 2 2 1.0259 0.0731
5 2 3 1.3470 -0.1732
5 2 4 1.0319 -0.1135
5 2 5 1.2631 0.0426
5 2 6 2.6798 -0.0764
5 2 7 3.2291 -0.1931
5 2 8 1.2800 -0.2038
5 2 9 -1.3947 -0.1922
5 3 0 -1.3587 -0.5497
5 3 1 -1.7756 -0.0365
5 3 2 -0.6384 0.2246
5 3 3 0.9756 0.0615
5 3 4 1.8163 -0.0293
5 3 5 2.3564 0.0744
5 3 6 2.2599 0.2047
5 3 7 0.4611 0.2484
5 3 8 -1.5085 0.0827
5 4 0 -1.1413 -0.5091
5 4 1 -0.9998 0.0204
5 4 2 -0.1255 0.1798
5 4 3 1.5617 -0.0645
5 4 4 3.0407 -0.1651
5 4 5 2.7466 -0.1003
5 4 6 0.4906 -0.1475
5 4 7 -1.3934 -0.1185
5 5 0 1.3912 -0.4604
5 5 1 1.5419 -0.0885
5 5 2 0.6883 0.0101
5 5 3 0.1050 -0.0584
5 5 4 -0.1332 0.1659
5 5 5 -0.3215 0.2262
5 5 6 -0.0054 -0.1897
5 6 0 1.1152 -0.3418
5 6 1 0.5230 0.1659
5 6 2 -1.8913 0.1452
5 6 3 -3.5026 -0.1086
5 6 4 -2.1174 0.0127
5 6 5 1.0979 0.1907
5 7 0 -0.1272 -0.5483
5 7 1 0.5978 -0.0989
5 7 2 0.0163 0.0853
5 7 3 -0.2286 -0.1354
5 7 4 0.9436 -0.3915
5 8 0 0.5058 -0.3786
5 8 1 3.6007 0.0115
5 8 2 3.5502 0.3124
5 8 3 -0.0098 0.3931
5 9 0 -1.0615 -0.2997
5 9 1 1.2782 -0.2384
6 -13 2 -0.2080 0.4915
6 -13 3 -0.3445 0.0545
6 -13 4 -0.4808 0.1073
6 -13 5 0.0587 0.3096
6 -13 6 0.3316 0.3059
6 -13 7 -0.6941 0.1893
6 -12 0 -2.0489 -0.6198
6 -12 1 -1.0904 -0.1326
6 -12 2 0.4929 0.2724
6 -12 3 1.2644 0.1874
6 -12 4 1.0278 0.0653
6 -12 5 0.4325 0.0839
6 -12 6 -0.0632 -0.0453
6 -12 7 -0.2916 -0.2024
6 -12 8 -0.5042 -0.1184
6 -12 9 -1.0230 -0.2126
6 -11 0 -1.0576 -0.7618
6 -11 1 -0.9079 -0.2508
6 -11 2 0.2405 -0.2469
6 -11 3 1.1682 -0.4466
6 -11 4 0.3017 -0.2377
6 -11 5 -1.2718 -0.0455
6 -11 6 -1.0551 -0.1511
6 -11 7 0.6233 -0.1192
6 -11 8 0.9555 0.0477
6 -11 9 -0.4961 0.1381
6 -11 10 -1.1244 0.4661
6 -10 0 -1.1667 0.1314
6 -10 1 -1.9688 0.2925
6 -10 2 0.0515 0.3295
6 -10 3 1.2975 0.4097
6 -10 4 -0.3469 0.3323
6 -10 5 -1.8612 0.0601
6 -10 6 -0.7778 0.0937
6 -10 7 0.8298 0.3339
6 -10 8 0.7927 0.1610
6 -10 9 0.1244 -0.1598
6 -10 10 0.0917 -0.1451
6 -9 0 -0.8210 -1.0031
6 -9 1 0.0204 -0.2950
6 -9 2 1.3457 0.0715
6 -9 3 0.8542 -0.2111
6 -9 4 -0.1197 -0.4255
6 -9 5 0.3397 -0.2246
6 -9 6 0.6543 -0.0399
6 -9 7 -0.5166 -0.1563
6 -9 8 -1.2433 -0.2959
6 -9 9 -0.5148 -0.1954
6 -9 10 -0.0163 0.0510
6 -9 11 -0.2598 0.3188
6 -8 0 0.8787 -0.3521
6 -8 1 0.6100 0.1887
6 -8 2 -0.0665 0.1855
6 -8 3 -0.4772 -0.0457
6 -8 4 0.2998 0.1648
6 -8 5 0.6660 0.3396
6 -8 6 -0.9483 0.0991
6 -8 7 -2.4688 0.0412
6 -8 8 -1.5075 0.3178
6 -8 9 0.5479 0.3204
6 -8 10 1.2970 0.0110
6 -8 11 0.7616 -0.1783
6 -7 0 -0.4708 -0.5215
6 -7 1 -0.0253 0.0095
6 -7 2 1.3154 0.2361
6 -7 3 2.1625 -0.0489
6 -7 4 0.8738 -0.1804
6 -7 5 -1.7707 -0.0810
6 -7 6 -2.7857 -0.0772
6 -7 7 -1.1232 -0.1518
6 -7 8 1.0661 -0.2168
6 -7 9 1.8046 -0.2565
6 -7 10 1.0858 -0.1740
6 -7 11 -0.2156 -0.0000
6 -6 0 0.0028 -0.8417
6 -6 1 0.4980 0.0204
6 -6 2 2.4745 0.1677
6 -6 3 2.6425 -0.2565
6 -6 4 -0.1865 -0.1691
6 -6 5 -2.1605 0.2079
6 -6 6 -1.0746 0.1632
6 -6 7 0.3526 -0.0212
6 -6 8 0.3052 0.0803
6 -6 9 0.1505 0.2629
6 -6 10 0.2567 0.2965
6 -6 11 -0.3232 0.1267
6 -5 0 -0.4370 -0.2482
6 -5 1 -1.6010 0.1578
6 -5 2 -0.7927 0.2266
6 -5 3 -0.2611 0.0833
6 -5 4 -0.0289 0.1052
6 -5 5 0.8477 0.0767
6 -5 6 0.8019 -0.0605
6 -5 7 -0.7443 -0.0662
6 -5 8 -1.1285 -0.0673
6 -5 9 0.6163 -0.1453
6 -5 10 1.8809 -0.0949
6 -4 0 -0.6900 -0.7785
6 -4 1 -1.6112 -0.2641
6 -4 2 -1.1365 0.0364
6 -4 3 0.1515 -0.1465
6 -4 4 1.2032 -0.2368
6 -4 5 0.6669 -0.0706
6 -4 6 -0.7729 0.0172
6 -4 7 -0.7777 -0.0258
6 -4 8 0.5585 -0.0200
6 -4 9 1.0743 0.0903
6 -4 10 0.6396 0.2193
6 -3 0 0.6700 -0.4087
6 -3 1 0.3672 0.1428
6 -3 2 0.2113 0.3108
6 -3 3 0.1808 0.0697
6 -3 4 -0.7964 0.0916
6 -3 5 -1.9274 0.1855
6 -3 6 -1.0722 0.0436
6 -3 7 0.8826 0.0553
6 -3 8 0.9434 0.1460
6 -3 9 -0.6680 -0.1557
6 -3 10 -1.1532 -0.3364
6 -2 0 0.5274 -0.5718
6 -2 1 -1.1490 -0.0996
6 -2 2 -1.6118 0.0407
6 -2 3 -0.9965 -0.0968
6 -2 4 -0.2855 -0.1104
6 -2 5 0.3964 -0.1728
6 -2 6 0.6386 -0.2086
6 -2 7 0.3248 0.0407
6 -2 8 0.5564 0.0897
6 -2 9 1.4470 -0.2285
6 -1 0 -1.0407 -0.5045
6 -1 1 -1.4615 -0.0626
6 -1 2 -0.7625 0.1012
6 -1 3 -0.1403 0.0198
6 -1 4 0.7357 0.0697
6 -1 5 1.1271 0.1475
6 -1 6 0.0917 0.1068
6 -1 7 -0.3024 0.0548
6 -1 8 1.4625 -0.0261
6 -1 9 2.7005 -0.0548
6 0 0 0.3602 -0.3975
6 0 1 1.0393 0.1231
6 0 2 0.4640 0.2526
6 0 3 -0.8064 -0.0720
6 0 4 -0.9649 -0.1340
6 0 5 -0.5030 0.0256
6 0 6 -0.6175 -0.0248
6 0 7 -0.9310 -0.0832
6 0 8 -1.0589 0.0098
6 1 0 -2.5742 -0.6995
6 1 1 -1.8872 -0.0702
6 1 2 0.2653 0.0977
6 1 3 1.0185 -0.1655
6 1 4 0.0066 -0.1497
6 1 5 -0.8766 0.0374
6 1 6 -1.1763 0.0735
6 1 7 -1.7504 0.0967
6 2 0 -4.6133 -0.3597
6 2 1 -1.7835 0.0631
6 2 2 1.7613 0.2745
6 2 3 2.1859 0.1499
6 2 4 0.8626 0.0327
6 2 5 0.3984 0.0364
6 2 6 -0.0058 0.0694
6 2 7 -1.1297 -0.0048
6 3 0 1.1617 -0.4795
6 3 1 0.2711 -0.1841
6 3 2 -0.2913 -0.0101
6 3 3 -0.1938 -0.1187
6 3 4 0.3237 -0.1709
6 3 5 0.1136 -0.0843
6 3 6 -1.3803 0.0238
6 4 0 1.2923 -0.4345
6 4 1 -0.8814 0.0436
6 4 2 -1.3276 0.1586
6 4 3 -1.1494 0.0663
6 4 4 -1.6543 0.1118
6 4 5 -2.2080 -0.0202
6 5 0 -0.2091 -0.1693
6 5 1 -0.4084 0.0841
6 5 2 -0.4445 -0.0235
6 5 3 -0.3366 -0.0903
6 6 0 -0.5173 -0.6533
6 6 1 -1.5783 -0.1684
6 6 2 -1.2246 0.0833
6 7 0 -0.0294 -0.2880
6 7 1 -0.3259 0.4424
7 -10 0 0.1922 -0.1326
7 -10 1 -0.2292 0.2893
7 -10 2 0.1249 0.2647
7 -10 3 0.8769 0.0875
7 -10 4 0.7649 0.1289
7 -10 5 -0.3318 0.2233
7 -10 6 -0.8483 0.2169
7 -9 0 -0.1187 -0.1287
7 -9 1 0.3426 0.0798
7 -9 2 0.9181 0.0449
7 -9 3 0.9775 -0.0199
7 -9 4 0.4764 0.0469
7 -9 5 0.0505 0.0179
7 -9 6 0.3716 -0.1098
7 -9 7 1.2748 -0.2202
7 -8 0 1.7096 -0.8033
7 -8 1 0.7719 -0.2939
7 -8 2 -0.2053 -0.0839
7 -8 3 -0.3765 -0.0291
7 -8 4 0.0887 -0.0042
7 -8 5 0.3262 -0.1539
7 -8 6 -0.0430 -0.2290
7 -8 7 -0.4225 0.0615
7 -7 0 0.3904 0.0132
7 -7 1 -0.2529 0.0107
7 -7 2 -0.2602 0.1812
7 -7 3 -0.2378 0.2872
7 -7 4 -0.2033 0.1199
7 -7 5 -0.0894 -0.0363
7 -7 6 -0.5055 0.1768
7 -7 7 -1.2741 0.3385
7 -6 0 0.7280 -0.8690
7 -6 1 1.6644 -0.3216
7 -6 2 1.4366 0.1180
7 -6 3 0.1841 -0.0310
7 -6 4 -0.0363 -0.2970
7 -6 5 0.7579 -0.2264
7 -6 6 0.7505 -0.0571
7 -6 7 -0.0404 -0.1146
7 -5 0 1.7460 -0.2573
7 -5 1 2.5539 0.1769
7 -5 2 0.7379 0.2333
7 -5 3 -1.6128 0.0615
7 -5 4 -1.9270 0.0865
7 -5 5 -0.7801 0.1429
7 -5 6 -0.0039 0.1077
7 -5 7 -0.0793 0.1992
7 -4 0 0.9764 -0.6146
7 -4 1 0.5651 -0.1824
7 -4 2 -0.8280 0.0210
7 -4 3 -1.9720 -0.0590
7 -4 4 -2.0387 -0.0910
7 -4 5 -1.3814 -0.1362
7 -4 6 -1.2580 -0.1325
7 -4 7 -1.9098 0.0177
7 -3 0 -0.6362 -0.4072
7 -3 1 0.3567 0.1293
7 -3 2 1.2502 0.2325
7 -3 3 0.3740 0.0190
7 -3 4 -0.7228 -0.0666
7 -3 5 -0.8654 0.0320
7 -3 6 -1.0375 0.2031
7 -3 7 -1.0870 0.1969
7 -2 0 0.2694 -0.5354
7 -2 1 2.2529 -0.1510
7 -2 2 1.6534 0.1801
7 -2 3 -0.4909 -0.0226
7 -2 4 -1.1627 -0.2401
7 -2 5 -0.5308 0.0209
7 -2 6 0.1169 0.2305
7 -1 0 1.1910 -0.6006
7 -1 1 1.9349 0.0410
7 -1 2 1.3978 0.2595
7 -1 3 -0.0491 -0.1223
7 -1 4 -1.4518 -0.1470
7 -1 5 -1.7510 0.2542
7 -1 6 -0.6821 0.2426
7 0 0 0.0556 -0.3463
7 0 1 1.2093 -0.0050
7 0 2 1.5399 0.1285
7 0 3 -0.4633 0.0279
7 0 4 -2.1913 -0.0461
7 0 5 -1.2968 -0.1218
7 1 0 -1.6395 -0.6649
7 1 1 -0.7292 -0.1211
7 1 2 0.2581 0.1774
7 1 3 -0.0714 -0.0435
7 1 4 -0.3645 -0.2472
7 2 0 -0.8648 -0.1709
7 2 1 0.8260 0.1244
7 2 2 2.2658 0.1938
7 2 3 1.1916 -0.0202
7 3 0 1.4524 -0.7886
7 3 1 1.8627 -0.2185
7 3 2 1.5024 0.1549
7 4 0 0.7394 -0.2475
0 0 0 0.0 0.0
;
_shelx_fab_checksum              76971
_olex2_submission_special_instructions 'No special instructions were received'
loop_
_space_group_symop_operation_xyz
'x, y, z'
'-x, -y, -z'
loop_
_atom_site_label
_atom_site_type_symbol
_atom_site_fract_x
_atom_site_fract_y
_atom_site_fract_z
_atom_site_U_iso_or_equiv
_atom_site_adp_type
_atom_site_occupancy
_atom_site_site_symmetry_order
_atom_site_calc_flag
_atom_site_refinement_flags_posn
_atom_site_refinement_flags_adp
_atom_site_refinement_flags_occupancy
_atom_site_disorder_assembly
_atom_site_disorder_group
Pt1 Pt 0.500000 0.500000 0.000000 0.03047(7) Uani 1 2 d S T P . .
Ni1 Ni 1.000000 0.500000 0.500000 0.01631(11) Uani 1 2 d S T P . .
Ni2 Ni 0.000000 1.000000 0.500000 0.01892(12) Uani 1 2 d S T P . .
S1 S 0.68458(13) 0.57262(9) 0.17003(7) 0.0332(2) Uani 1 1 d . . . . .
S2 S 0.23947(13) 0.56329(9) 0.11095(7) 0.0325(2) Uani 1 1 d . . . . .
O1 O 0.8192(3) 0.60352(18) 0.47720(18) 0.0204(4) Uani 1 1 d . . . . .
O2 O 0.5362(4) 0.48068(18) 0.35546(19) 0.0223(5) Uani 1 1 d . . . . .
O3 O 0.0781(4) 0.8456(2) 0.4400(2) 0.0352(6) Uani 1 1 d . . . . .
O4 O 0.3504(4) 0.8549(2) 0.3479(2) 0.0262(5) Uani 1 1 d . . . . .
O5 O 0.7229(3) 0.37250(19) 0.44156(18) 0.0209(4) Uani 1 1 d . . . . .
H5A H 0.753935 0.307271 0.402571 0.031 Uiso 1 1 d GR . . . .
H5B H 0.638406 0.380031 0.396499 0.031 Uiso 1 1 d GR . . . .
O6 O 1.0880(4) 0.4462(2) 0.35031(18) 0.0235(5) Uani 1 1 d . . . . .
H6A H 1.032214 0.373227 0.309222 0.035 Uiso 1 1 d GR . . . .
H6B H 1.230402 0.450962 0.352424 0.035 Uiso 1 1 d GR . . . .
O7 O 0.2426(4) 1.05612(19) 0.43404(19) 0.0234(5) Uani 1 1 d . . . . .
H7A H 0.191434 1.084601 0.394105 0.035 Uiso 1 1 d GR . . . .
H7B H 0.294606 0.999346 0.385248 0.035 Uiso 1 1 d GR . . . .
O8 O -0.2222(4) 0.9487(3) 0.3652(2) 0.0383(6) Uani 1 1 d . . . . .
H8A H -0.342889 0.908350 0.368550 0.057 Uiso 1 1 d GR . . . .
H8B H -0.167342 0.899096 0.314647 0.057 Uiso 1 1 d GR . . . .
O9 O 0.7117(5) 0.1434(2) 0.3406(3) 0.0431(7) Uani 1 1 d . . . . .
H9A H 0.618858 0.095838 0.285888 0.065 Uiso 1 1 d G . . . .
H9B H 0.717045 0.111065 0.378818 0.065 Uiso 1 1 d G . . . .
O10 O 1.1593(5) 0.1888(2) 0.3385(2) 0.0401(7) Uani 1 1 d . . . . .
H10A H 1.022547 0.161411 0.318091 0.060 Uiso 1 1 d G . . . .
H10B H 1.169572 0.255285 0.389583 0.060 Uiso 1 1 d G . . . .
N1 N 0.4174(4) 0.6479(2) 0.3166(2) 0.0160(5) Uani 1 1 d . . . . .
C1 C 0.6530(5) 0.5774(3) 0.4101(2) 0.0168(6) Uani 1 1 d . . . . .
C2 C 0.6010(5) 0.6772(2) 0.3987(2) 0.0164(6) Uani 1 1 d . . . . .
H2A H 0.568423 0.732999 0.467980 0.020 Uiso 1 1 calc R . . . .
H2B H 0.732512 0.713935 0.381941 0.020 Uiso 1 1 calc R . . . .
C3 C 0.2194(5) 0.8056(3) 0.3832(3) 0.0190(6) Uani 1 1 d . . . . .
C4 C 0.2138(5) 0.6824(3) 0.3519(2) 0.0174(6) Uani 1 1 d . . . . .
H4A H 0.186147 0.669695 0.413675 0.021 Uiso 1 1 calc R . . . .
H4B H 0.091209 0.634486 0.293686 0.021 Uiso 1 1 calc R . . . .
C5 C 0.4421(5) 0.6023(3) 0.2160(3) 0.0232(7) Uani 1 1 d . . . . .
loop_
_atom_site_aniso_label
_atom_site_aniso_U_11
_atom_site_aniso_U_22
_atom_site_aniso_U_33
_atom_site_aniso_U_23
_atom_site_aniso_U_13
_atom_site_aniso_U_12
Pt1 0.01707(10) 0.05351(14) 0.01700(10) 0.00983(9) 0.00488(6) 0.01777(8)
Ni1 0.0127(2) 0.0175(3) 0.0216(3) 0.0110(2) 0.0025(2) 0.00527(19)
Ni2 0.0144(3) 0.0156(3) 0.0274(3) 0.0090(2) 0.0082(2) 0.0066(2)
S1 0.0166(4) 0.0589(6) 0.0190(4) 0.0103(4) 0.0048(3) 0.0187(4)
S2 0.0172(4) 0.0578(6) 0.0192(4) 0.0119(4) 0.0043(3) 0.0181(4)
O1 0.0157(10) 0.0214(11) 0.0245(11) 0.0111(9) 0.0002(8) 0.0052(8)
O2 0.0177(11) 0.0182(11) 0.0301(12) 0.0102(10) 0.0005(9) 0.0058(8)
O3 0.0392(15) 0.0204(12) 0.0564(17) 0.0206(12) 0.0341(13) 0.0171(11)
O4 0.0199(11) 0.0267(12) 0.0428(14) 0.0221(11) 0.0158(10) 0.0120(9)
O5 0.0198(11) 0.0195(11) 0.0259(12) 0.0125(9) 0.0019(9) 0.0052(8)
O6 0.0184(11) 0.0261(12) 0.0235(12) 0.0100(10) 0.0045(9) 0.0034(9)
O7 0.0224(11) 0.0199(11) 0.0309(13) 0.0123(10) 0.0106(9) 0.0091(9)
O8 0.0208(12) 0.0546(18) 0.0360(15) 0.0216(14) 0.0041(11) -0.0023(11)
O9 0.0480(18) 0.0294(14) 0.0506(19) 0.0171(14) -0.0004(14) 0.0125(12)
O10 0.0451(16) 0.0311(14) 0.0386(16) 0.0102(12) -0.0013(13) 0.0155(12)
N1 0.0127(11) 0.0200(12) 0.0183(12) 0.0094(10) 0.0041(9) 0.0095(9)
C1 0.0119(13) 0.0233(15) 0.0197(14) 0.0118(12) 0.0068(11) 0.0090(11)
C2 0.0141(13) 0.0168(14) 0.0170(14) 0.0060(11) 0.0019(11) 0.0060(11)
C3 0.0150(14) 0.0190(15) 0.0235(15) 0.0095(12) 0.0024(11) 0.0070(11)
C4 0.0137(13) 0.0204(15) 0.0234(15) 0.0122(13) 0.0089(11) 0.0099(11)
C5 0.0162(14) 0.0314(17) 0.0211(15) 0.0092(14) 0.0043(12) 0.0123(13)
loop_
_atom_type_symbol
_atom_type_description
_atom_type_scat_dispersion_real
_atom_type_scat_dispersion_imag
_atom_type_scat_source
C C 0.0033 0.0016 'International Tables Vol C Tables 4.2.6.8 and 6.1.1.4'
H H 0.0000 0.0000 'International Tables Vol C Tables 4.2.6.8 and 6.1.1.4'
N N 0.0061 0.0033 'International Tables Vol C Tables 4.2.6.8 and 6.1.1.4'
Ni Ni 0.3393 1.1124 'International Tables Vol C Tables 4.2.6.8 and 6.1.1.4'
O O 0.0106 0.0060 'International Tables Vol C Tables 4.2.6.8 and 6.1.1.4'
Pt Pt -1.7033 8.3905 'International Tables Vol C Tables 4.2.6.8 and 6.1.1.4'
S S 0.1246 0.1234 'International Tables Vol C Tables 4.2.6.8 and 6.1.1.4'
loop_
_citation_id
_citation_doi
_citation_year
1 10.26434/chemrxiv.12966737 2020
loop_
_geom_angle_atom_site_label_1
_geom_angle_atom_site_label_2
_geom_angle_atom_site_label_3
_geom_angle
_geom_angle_site_symmetry_1
_geom_angle_site_symmetry_3
_geom_angle_publ_flag
S1 Pt1 S1 180.0 2_665 . ?
S1 Pt1 S2 104.45(3) 2_665 . ?
S1 Pt1 S2 75.55(3) 2_665 2_665 ?
S1 Pt1 S2 104.45(3) . 2_665 ?
S1 Pt1 S2 75.55(3) . . ?
S2 Pt1 S2 180.0 2_665 . ?
O1 Ni1 O1 180.00(13) . 2_766 ?
O5 Ni1 O1 90.96(9) . 2_766 ?
O5 Ni1 O1 89.04(9) . . ?
O5 Ni1 O1 89.04(9) 2_766 2_766 ?
O5 Ni1 O1 90.96(9) 2_766 . ?
O5 Ni1 O5 180.0 . 2_766 ?
O6 Ni1 O1 88.96(9) . 2_766 ?
O6 Ni1 O1 91.04(9) 2_766 2_766 ?
O6 Ni1 O1 88.96(9) 2_766 . ?
O6 Ni1 O1 91.04(9) . . ?
O6 Ni1 O5 88.71(9) 2_766 . ?
O6 Ni1 O5 88.71(9) . 2_766 ?
O6 Ni1 O5 91.29(9) . . ?
O6 Ni1 O5 91.29(9) 2_766 2_766 ?
O6 Ni1 O6 180.0 . 2_766 ?
O3 Ni2 O3 180.0 . 2_576 ?
O3 Ni2 O7 88.46(9) . 2_576 ?
O3 Ni2 O7 91.54(9) . . ?
O3 Ni2 O7 88.46(9) 2_576 . ?
O3 Ni2 O7 91.54(9) 2_576 2_576 ?
O3 Ni2 O8 88.37(13) . 2_576 ?
O3 Ni2 O8 91.63(13) . . ?
O3 Ni2 O8 88.37(13) 2_576 . ?
O3 Ni2 O8 91.63(13) 2_576 2_576 ?
O7 Ni2 O7 180.0 . 2_576 ?
O7 Ni2 O8 90.62(10) 2_576 2_576 ?
O7 Ni2 O8 90.62(10) . . ?
O7 Ni2 O8 89.38(10) 2_576 . ?
O7 Ni2 O8 89.38(10) . 2_576 ?
O8 Ni2 O8 180.0 2_576 . ?
C5 S1 Pt1 87.20(11) . . ?
C5 S2 Pt1 86.65(11) . . ?
C1 O1 Ni1 129.3(2) . . ?
C3 O3 Ni2 131.6(2) . . ?
Ni1 O5 H5A 111.3 . . ?
Ni1 O5 H5B 109.9 . . ?
H5A O5 H5B 102.3 . . ?
Ni1 O6 H6A 110.8 . . ?
Ni1 O6 H6B 111.1 . . ?
H6A O6 H6B 103.9 . . ?
Ni2 O7 H7A 111.8 . . ?
Ni2 O7 H7B 112.1 . . ?
H7A O7 H7B 100.7 . . ?
Ni2 O8 H8A 109.1 . . ?
Ni2 O8 H8B 103.6 . . ?
H8A O8 H8B 103.0 . . ?
H9A O9 H9B 104.0 . . ?
H10A O10 H10B 105.7 . . ?
C2 N1 C4 117.6(2) . . ?
C5 N1 C2 120.6(2) . . ?
C5 N1 C4 121.4(3) . . ?
O1 C1 C2 113.5(3) . . ?
O2 C1 O1 126.1(3) . . ?
O2 C1 C2 120.4(3) . . ?
N1 C2 C1 114.5(2) . . ?
N1 C2 H2A 108.6 . . ?
N1 C2 H2B 108.6 . . ?
C1 C2 H2A 108.6 . . ?
C1 C2 H2B 108.6 . . ?
H2A C2 H2B 107.6 . . ?
O3 C3 C4 113.9(3) . . ?
O4 C3 O3 126.5(3) . . ?
O4 C3 C4 119.6(3) . . ?
N1 C4 C3 112.7(2) . . ?
N1 C4 H4A 109.0 . . ?
N1 C4 H4B 109.0 . . ?
C3 C4 H4A 109.0 . . ?
C3 C4 H4B 109.0 . . ?
H4A C4 H4B 107.8 . . ?
S1 C5 S2 110.58(18) . . ?
N1 C5 S1 124.0(2) . . ?
N1 C5 S2 125.5(2) . . ?
loop_
_geom_bond_atom_site_label_1
_geom_bond_atom_site_label_2
_geom_bond_distance
_geom_bond_site_symmetry_2
_geom_bond_publ_flag
Pt1 S1 2.3099(9) 2_665 ?
Pt1 S1 2.3099(9) . ?
Pt1 S2 2.3203(8) . ?
Pt1 S2 2.3203(8) 2_665 ?
Ni1 O1 2.066(2) 2_766 ?
Ni1 O1 2.066(2) . ?
Ni1 O5 2.066(2) 2_766 ?
Ni1 O5 2.066(2) . ?
Ni1 O6 2.053(2) 2_766 ?
Ni1 O6 2.053(2) . ?
Ni2 O3 2.030(2) . ?
Ni2 O3 2.030(2) 2_576 ?
Ni2 O7 2.049(2) . ?
Ni2 O7 2.049(2) 2_576 ?
Ni2 O8 2.073(3) 2_576 ?
Ni2 O8 2.073(3) . ?
S1 C5 1.721(3) . ?
S2 C5 1.730(3) . ?
O1 C1 1.261(4) . ?
O2 C1 1.252(4) . ?
O3 C3 1.251(4) . ?
O4 C3 1.244(4) . ?
O5 H5A 0.8666 . ?
O5 H5B 0.8634 . ?
O6 H6A 0.8864 . ?
O6 H6B 0.8820 . ?
O7 H7A 0.8940 . ?
O7 H7B 0.8948 . ?
O8 H8A 0.8764 . ?
O8 H8B 0.8657 . ?
O9 H9A 0.8570 . ?
O9 H9B 0.8443 . ?
O10 H10A 0.8539 . ?
O10 H10B 0.8527 . ?
N1 C2 1.461(4) . ?
N1 C4 1.464(3) . ?
N1 C5 1.306(4) . ?
C1 C2 1.521(4) . ?
C2 H2A 0.9900 . ?
C2 H2B 0.9900 . ?
C3 C4 1.518(4) . ?
C4 H4A 0.9900 . ?
C4 H4B 0.9900 . ?
loop_
_geom_hbond_atom_site_label_D
_geom_hbond_atom_site_label_H
_geom_hbond_atom_site_label_A
_geom_hbond_distance_DH
_geom_hbond_distance_HA
_geom_hbond_distance_DA
_geom_hbond_angle_DHA
_geom_hbond_site_symmetry_A
_geom_hbond_publ_flag
O5 H5A O9 0.87 1.95 2.760(4) 154.7 . yes
O5 H5B O2 0.86 1.90 2.664(3) 147.0 . yes
O6 H6B O2 0.88 1.89 2.762(3) 171.7 1_655 yes
O7 H7A O10 0.89 1.94 2.803(4) 160.7 1_465 yes
O7 H7B O4 0.89 1.89 2.660(3) 143.7 . yes
O8 H8A O4 0.88 1.90 2.719(3) 155.4 1_455 yes
O9 H9B O3 0.84 2.58 3.257(5) 137.5 2_666 yes
O10 H10A O9 0.85 1.98 2.776(5) 153.9 . yes
O10 H10B O1 0.85 1.98 2.822(4) 170.3 2_766 yes
loop_
_smtbx_masks_void_nr
_smtbx_masks_void_average_x
_smtbx_masks_void_average_y
_smtbx_masks_void_average_z
_smtbx_masks_void_volume
_smtbx_masks_void_count_electrons
_smtbx_masks_void_content
1 -0.524 0.000 0.000 414.5 115.8 ?
