#------------------------------------------------------------------------------
#$Date: 2021-02-05 01:04:31 +0200 (Fri, 05 Feb 2021) $
#$Revision: 261628 $
#$URL: file:///home/coder/svn-repositories/cod/cif/7/24/18/7241837.cif $
#------------------------------------------------------------------------------
#
# This file is available in the Crystallography Open Database (COD),
# http://www.crystallography.net/
#
# All data on this site have been placed in the public domain by the
# contributors.
#
data_7241837
loop_
_publ_author_name
'Gu\'nka, Piotr A.'
'Hanfland, Michael'
'Chen, Yu-Sheng'
'Zachara, Janusz'
_publ_section_title
;
 High-pressure and low-temperature structural study of claudetite I, a
 monoclinic layered As2O3 polymorph
;
_journal_issue                   3
_journal_name_full               CrystEngComm
_journal_page_first              638
_journal_page_last               644
_journal_paper_doi               10.1039/D0CE01401J
_journal_volume                  23
_journal_year                    2021
_chemical_formula_moiety         'As2 O3'
_chemical_formula_sum            'As2 O3'
_chemical_formula_weight         197.84
_chemical_name_common            'claudetite I'
_chemical_name_systematic
;
arsenic(III) oxide
;
_space_group_IT_number           14
_space_group_name_Hall           '-P 2yn'
_space_group_name_H-M_alt        'P 1 21/n 1'
_symmetry_cell_setting           monoclinic
_symmetry_space_group_name_H-M   'P 1 21/n 1'
_audit_creation_date             2020-10-21T14:43
_audit_creation_method           'created in GSAS-II'
_audit_update_record
;
2020-10-22 deposited with the CCDC.	2020-12-10 downloaded from the CCDC.
;
_cell_angle_alpha                90
_cell_angle_beta                 94.792(4)
_cell_angle_gamma                90
_cell_formula_units_Z            4
_cell_length_a                   4.5713(5)
_cell_length_b                   11.4696(7)
_cell_length_c                   4.0070(3)
_cell_measurement_pressure       2.991e7(5)
_cell_measurement_temperature    293
_cell_volume                     209.36(3)
_computing_data_reduction        Fit2D
_computing_structure_refinement
'GSAS-II (Toby & Von Dreele, J. Appl. Cryst. 46, 544-549, 2013)'
_diffrn_ambient_pressure         2.991e7(5)
_diffrn_ambient_temperature      293
_diffrn_detector                 'Mar555 flat panel'
_diffrn_detector_type            'Mar555 flat panel'
_diffrn_measurement_device_type  'ESRF ID09A beamline'
_diffrn_radiation_monochromator  Si
_diffrn_radiation_polarisn_ratio 0.9900
_diffrn_radiation_probe          x-ray
_diffrn_radiation_wavelength     0.41421
_diffrn_source                   'ESRF ID09A'
_diffrn_source_type              synchrotron
_exptl_crystal_colour            colourless
_exptl_crystal_density_diffrn    6.2768
_exptl_crystal_description       'white powder'
_pd_block_id                     2020-10-21T14:43|clau1_023rietveld||id09b
_pd_calc_method                  'Rietveld Refinement'
_pd_meas_number_of_points        4000
_pd_phase_name                   claudetiteI
_pd_prep_pressure                100.0(1)
_pd_prep_temperature             293
_pd_proc_info_datetime           2020-10-21T14:43
_pd_proc_ls_background_function
;
Background function: "chebyschev" function with 36 terms:
    739.5(8), 568.3(25), 246(9), -18520(16), 2.732(3)e4, 760270(20), 
    -1.701090(19)e6, -1.7960600(14)e7, 4.365050(3)e7, 2.52008875(9)e8, 
    -6.16616102(17)e8, -2.253956149(15)e9, 5.417623816(15)e9, 
    1.3699140890(16)e10, -3.1920693341(31)e10, -5.9211716996(13)e10, 
    1.3232117405(3)e11, 1.87561929225(10)e11, -3.97695635359(25)e11, 
    -4.43568516508(9)e11, 8.81828511978(10)e11, 7.90636157300(11)e11, 
    -1.452872671178(17)e12, -1.063728737919(15)e12, 1.77409040462(3)e12, 
    1.072921755561(17)e12, -1.58395027067(4)e12, -7.97705727907(17)e11, 
    1.00468485637(4)e12, 4.23594644540(13)e11, -4.28744516851(20)e11, 
    -1.51770630242(7)e11, 1.10362893038(16)e11, 3.2819870535(12)e10, 
    -1.294703744(7)e10, -3.229002626(30)e9, 
;
_pd_proc_ls_pref_orient_corr
;
Simple spherical harmonic correction Order = 6
    Coefficients:  0:0:C(6,6) = -0.123(23); 0:0:C(4,4) = 0.207(20); 
    0:0:C(6,-2) = 0.066(25); 0:0:C(2,-2) = 0.026(16); 0:0:C(4,-4) = -0.186(19); 
    0:0:C(2,2) = 0.375(13); 0:0:C(4,0) = 0.045(19); 0:0:C(6,-6) = -0.158(26); 
    0:0:C(6,4) = -0.081(25); 0:0:C(4,2) = -0.015(18); 0:0:C(6,2) = 0.029(26); 
    0:0:C(6,-4) = 0.009(17); 0:0:C(6,0) = -0.238(26); 0:0:C(2,0) = -0.374(13); 
    0:0:C(4,-2) = 0.023(22); 
;
_pd_proc_ls_profile_function
;
Finger-Cox-Jephcoat function parameters U, V, W, X, Y, SH/L:
  peak variance(Gauss) = Utan(Th)^2^+Vtan(Th)+W:
  peak HW(Lorentz) = X/cos(Th)+Ytan(Th); SH/L = S/L+H/L
  U, V, W in (centideg)^2^, X & Y in centideg
    4.9(5)e3, -6.2(8)e2, 26(4), 3.8(4), -6(12), 0.002, 
  Crystallite size in microns with "isotropic" model:
  parameters: Size, G/L mix
    1.000, 1.000, 
  Microstrain, "isotropic" model (10^6^ * delta Q/Q)
    parameters: Mustrain, G/L mix
    1000.000, 1.000, 

;
_pd_proc_ls_prof_R_factor        0.00640
_pd_proc_ls_prof_wR_expected     0.03584
_pd_proc_ls_prof_wR_factor       0.00978
_refine_ls_goodness_of_fit_all   0.278
_refine_ls_matrix_type           full
_refine_ls_number_parameters     78
_refine_ls_R_Fsqd_factor         0.03785
_refine_ls_shift/su_max          0.0079
_refine_ls_wR_factor_obs         0.00979
_reflns_d_resolution_high        1.112
_reflns_d_resolution_low         5.735
_reflns_limit_h_max              4
_reflns_limit_h_min              0
_reflns_limit_k_max              10
_reflns_limit_k_min              0
_reflns_limit_l_max              3
_reflns_limit_l_min              -3
_reflns_number_total             161
_cod_data_source_file            d0ce01401j3.cif
_cod_data_source_block           clau1_023rietveld
_cod_depositor_comments
'Adding full bibliography for 7241824--7241862.cif.'
_cod_original_cell_volume        209.358(15)
_cod_database_code               7241837
_refine_ls_r_f_factor            0.02172
_gsas_proc_ls_prof_r_b_factor    0.01025
_gsas_proc_ls_prof_wr_b_factor   0.01970
loop_
_space_group_symop_id
_space_group_symop_operation_xyz
1 x,y,z
2 1/2-x,1/2+y,1/2-z
3 -x,-y,-z
4 1/2+x,1/2-y,1/2+z
loop_
_atom_site_label
_atom_site_type_symbol
_atom_site_fract_x
_atom_site_fract_y
_atom_site_fract_z
_atom_site_occupancy
_atom_site_adp_type
_atom_site_U_iso_or_equiv
_atom_site_symmetry_multiplicity
As1 As 0.2896(7) 0.08350(29) 0.0854(7) 1.000 Uiso 0.0163(16) 4
As2 As 0.3108(6) 0.3565(3) 0.0420(7) 1.000 Uiso 0.0163 4
O3 O 0.4764(19) 0.2187(3) 0.122(5) 1.000 Uiso 0.0163 4
O4 O 0.6510(21) 0.4249(12) 0.1600(14) 1.000 Uiso 0.0163 4
O5 O -0.0796(16) 0.1231(20) 0.1319(12) 1.000 Uiso 0.0163 4
loop_
_atom_type_symbol
_atom_type_number_in_cell
_atom_type_scat_Cromer_Mann_a1
_atom_type_scat_Cromer_Mann_a2
_atom_type_scat_Cromer_Mann_a3
_atom_type_scat_Cromer_Mann_a4
_atom_type_scat_Cromer_Mann_b1
_atom_type_scat_Cromer_Mann_b2
_atom_type_scat_Cromer_Mann_b3
_atom_type_scat_Cromer_Mann_b4
_atom_type_scat_Cromer_Mann_c
_atom_type_scat_length_neutron
_atom_type_scat_source
_atom_type_scat_dispersion_real
_atom_type_scat_dispersion_imag
_atom_type_scat_dispersion_source
As 8 16.6723 6.0701 3.4313 4.2779 2.6345 0.2647 12.9479 47.7972 2.531 0.658
https://subversion.xray.aps.anl.gov/pyGSAS/trunk/atmdata.py 0.283 0.775
https://subversion.xray.aps.anl.gov/pyGSAS/trunk/atmdata.py
O 12 3.0485 2.2868 1.5463 0.867 13.2771 5.7011 0.3239 32.9089 0.2508 0.5805
https://subversion.xray.aps.anl.gov/pyGSAS/trunk/atmdata.py 0.002 0.002
https://subversion.xray.aps.anl.gov/pyGSAS/trunk/atmdata.py
loop_
_geom_angle_atom_site_label_1
_geom_angle_atom_site_label_2
_geom_angle_atom_site_label_3
_geom_angle
_geom_angle_site_symmetry_1
_geom_angle_site_symmetry_2
_geom_angle_site_symmetry_3
_geom_angle_publ_flag
O3 As1 O4 105.1(9) 1_555 1_555 4_454 yes
O3 As1 O5 102.9(9) 1_555 1_555 1_555 yes
O4 As1 O5 81.3(3) 4_454 1_555 1_555 yes
O3 As2 O4 89.7(5) 1_555 1_555 1_555 yes
O3 As2 O5 97.9(12) 1_555 1_555 4_554 yes
O4 As2 O5 83.1(4) 1_555 1_555 4_554 yes
As1 O3 As2 124.8(4) 1_555 1_555 1_555 yes
As1 O4 As2 117.9(3) 4_555 1_555 1_555 yes
As1 O5 As2 118.5(4) 1_555 1_555 4_455 yes
loop_
_geom_bond_atom_site_label_1
_geom_bond_atom_site_label_2
_geom_bond_distance
_geom_bond_site_symmetry_1
_geom_bond_site_symmetry_2
_geom_bond_publ_flag
As1 O3 1.7706(27) 1_555 1_555 yes
As1 O4 1.7710(27) 1_555 4_454 yes
As1 O5 1.7726(27) 1_555 1_555 yes
As2 O3 1.7698(27) 1_555 1_555 yes
As2 O4 1.7710(27) 1_555 1_555 yes
As2 O5 1.7729(27) 1_555 4_554 yes
loop_
_pd_meas_2theta_scan
_pd_meas_intensity_total
_pd_calc_intensity_total
_pd_proc_intensity_bkg_calc
_pd_proc_ls_weight
0.00440 95.524864 0 0 0
0.01320 103.02696 0 0 0
0.02201 104.31866 0 0 0
0.03081 103.2064 0 0 0
0.03961 104.65709 0 0 0
0.04841 106.20078 0 0 0
0.05721 108.35927 0 0 0
0.06602 105.78908 0 0 0
0.07482 104.25505 0 0 0
0.08362 104.83366 0 0 0
0.09242 105.2725 0 0 0
0.10122 105.23575 0 0 0
0.11003 105.45938 0 0 0
0.11883 106.82294 0 0 0
0.12763 107.92567 0 0 0
0.13643 106.56269 0 0 0
0.14523 104.04794 0 0 0
0.15404 103.05857 0 0 0
0.16284 103.57489 0 0 0
0.17164 103.94489 0 0 0
0.18044 103.18652 0 0 0
0.18925 102.73659 0 0 0
0.19805 102.63361 0 0 0
0.20685 103.27813 0 0 0
0.21565 103.23989 0 0 0
0.22445 103.2403 0 0 0
0.23326 103.61095 0 0 0
0.24206 103.83231 0 0 0
0.25086 104.97433 0 0 0
0.25966 107.03839 0 0 0
0.26846 108.58363 0 0 0
0.27727 109.39164 0 0 0
0.28607 109.14308 0 0 0
0.29487 109.71113 0 0 0
0.30367 110.26747 0 0 0
0.31248 112.48012 0 0 0
0.32128 113.54959 0 0 0
0.33008 112.60326 0 0 0
0.33888 112.14464 0 0 0
0.34768 110.9668 0 0 0
0.35649 109.81675 0 0 0
0.36529 110.06441 0 0 0
0.37409 110.88988 0 0 0
0.38289 111.13554 0 0 0
0.39169 110.79829 0 0 0
0.40050 109.61102 0 0 0
0.40930 109.97478 0 0 0
0.41810 110.23029 0 0 0
0.42690 109.32365 0 0 0
0.43570 108.6346 0 0 0
0.44451 107.96569 0 0 0
0.45331 108.02777 0 0 0
0.46211 107.98222 0 0 0
0.47091 108.55309 0 0 0
0.47972 107.71623 0 0 0
0.48852 107.73545 0 0 0
0.49732 107.60883 0 0 0
0.50612 108.55103 0 0 0
0.51492 108.9343 0 0 0
0.52373 109.90749 0 0 0
0.53253 110.7861 0 0 0
0.54133 112.13705 0 0 0
0.55013 111.45277 0 0 0
0.55893 110.59183 0 0 0
0.56774 109.37689 0 0 0
0.57654 109.32433 0 0 0
0.58534 109.77191 0 0 0
0.59414 109.71748 0 0 0
0.60295 109.34055 0 0 0
0.61175 108.53143 0 0 0
0.62055 108.86305 0 0 0
0.62935 108.57357 0 0 0
0.63815 109.49001 0 0 0
0.64696 109.62348 0 0 0
0.65576 109.86954 0 0 0
0.66456 109.60497 0 0 0
0.67336 109.76912 0 0 0
0.68216 109.57886 0 0 0
0.69097 109.29729 0 0 0
0.69977 109.03514 0 0 0
0.70857 109.87283 0 0 0
0.71737 110.25163 0 0 0
0.72617 111.06288 0 0 0
0.73498 110.88171 0 0 0
0.74378 110.19349 0 0 0
0.75258 110.30465 0 0 0
0.76138 111.42386 0 0 0
0.77019 110.89861 0 0 0
0.77899 110.36984 0 0 0
0.78779 110.46142 0 0 0
0.79659 111.1848 0 0 0
0.80539 111.72149 0 0 0
0.81420 112.93638 0 0 0
0.82300 114.4275 0 0 0
0.83180 114.78034 0 0 0
0.84060 114.55882 0 0 0
0.84940 114.42881 0 0 0
0.85821 114.33478 0 0 0
0.86701 115.73683 0 0 0
0.87581 116.27716 0 0 0
0.88461 116.19932 0 0 0
0.89342 117.56718 0 0 0
0.90222 119.51996 0 0 0
0.91102 121.33525 0 0 0
0.91982 121.83204 0 0 0
0.92862 125.42686 0 0 0
0.93743 128.08565 0 0 0
0.94623 129.53102 0 0 0
0.95503 129.83376 0 0 0
0.96383 127.09517 0 0 0
0.97263 127.07951 0 0 0
0.98144 128.39383 0 0 0
0.99024 131.44267 0 0 0
0.99904 131.78238 0 0 0
1.00784 139.90106 0 0 0
1.01664 145.08635 0 0 0
1.02545 149.67017 0 0 0
1.03425 157.64597 0 0 0
1.04305 165.2812 0 0 0
1.05185 172.72932 0 0 0
1.06066 177.61014 0 0 0
1.06946 187.67146 0 0 0
1.07826 193.2728 0 0 0
1.08706 199.76308 0 0 0
1.09586 205.8566 0 0 0
1.10467 211.48419 0 0 0
1.11347 218.7188 0 0 0
1.12227 223.81149 0 0 0
1.13107 228.08575 0 0 0
1.13987 232.20209 0 0 0
1.14868 236.0636 0 0 0
1.15748 240.24915 0 0 0
1.16628 242.72801 0 0 0
1.17508 245.20108 0 0 0
1.18389 246.03979 0 0 0
1.19269 248.50905 0 0 0
1.20149 250.16475 0 0 0
1.21029 251.73074 0 0 0
1.21909 254.53667 0 0 0
1.22790 256.76456 0 0 0
1.23670 258.4021 0 0 0
1.24550 260.34555 0 0 0
1.25430 263.39822 0 0 0
1.26310 264.72739 0 0 0
1.27191 265.77448 0 0 0
1.28071 266.94568 0 0 0
1.28951 267.06015 0 0 0
1.29831 267.17545 0 0 0
1.30711 269.60974 0 0 0
1.31592 272.81323 0 0 0
1.32472 274.83447 0 0 0
1.33352 276.49084 0 0 0
1.34232 278.39954 0 0 0
1.35113 279.91388 0 0 0
1.35993 280.67654 0 0 0
1.36873 282.37793 0 0 0
1.37753 284.19516 0 0 0
1.38633 284.81305 0 0 0
1.39514 286.14304 0 0 0
1.40394 286.50012 0 0 0
1.41274 287.01505 0 0 0
1.42154 288.14685 0 0 0
1.43034 289.57465 0 0 0
1.43915 290.32056 0 0 0
1.44795 291.39255 0 0 0
1.45675 292.95261 0 0 0
1.46555 293.6937 0 0 0
1.47436 295.26877 0 0 0
1.48316 295.89523 0 0 0
1.49196 297.18771 0 0 0
1.50076 297.586 0 0 0
1.50956 298.51682 0 0 0
1.51837 299.34109 0 0 0
1.52717 299.97122 0 0 0
1.53597 300.98529 0 0 0
1.54477 303.48959 0 0 0
1.55357 304.98334 0 0 0
1.56238 305.08078 0 0 0
1.57118 305.29025 0 0 0
1.57998 306.01364 0 0 0
1.58878 307.48218 0 0 0
1.59758 308.73911 0 0 0
1.60639 309.03799 0 0 0
1.61519 309.0657 0 0 0
1.62399 309.51132 0 0 0
1.63279 310.0639 0 0 0
1.64160 311.14758 0 0 0
1.65040 312.56467 0 0 0
1.65920 313.30786 0 0 0
1.66800 314.49881 0 0 0
1.67680 314.41873 0 0 0
1.68561 314.59756 0 0 0
1.69441 315.32129 0 0 0
1.70321 316.81543 0 0 0
1.71201 317.88406 0 0 0
1.72081 318.72656 0 0 0
1.72962 319.87112 0 0 0
1.73842 320.19235 0 0 0
1.74722 320.37738 0 0 0
1.75602 321.45901 0 0 0
1.76483 323.54318 0 0 0
1.77363 324.16171 0 0 0
1.78243 324.44714 0 0 0
1.79123 324.90292 0 0 0
1.80003 325.08588 0 0 0
1.80884 325.69034 0 0 0
1.81764 327.41687 0 0 0
1.82644 327.82498 0 0 0
1.83524 328.26373 0 0 0
1.84404 329.25345 0 0 0
1.85285 330.81018 0 0 0
1.86165 330.62262 0 0 0
1.87045 330.48642 0 0 0
1.87925 331.44574 0 0 0
1.88805 331.78815 0 0 0
1.89686 331.94498 0 0 0
1.90566 332.62616 0 0 0
1.91446 333.50967 0 0 0
1.92326 334.51407 0 0 0
1.93207 335.02515 0 0 0
1.94087 335.35684 0 0 0
1.94967 336.43945 0 0 0
1.95847 337.17639 0 0 0
1.96727 337.95941 0 0 0
1.97608 338.75165 0 0 0
1.98488 339.68613 0 0 0
1.99368 339.61032 0 0 0
2.00248 339.80954 0 0 0
2.01128 340.24799 0 0 0
2.02009 340.93552 0 0 0
2.02889 341.12247 0 0 0
2.03769 341.46515 0 0 0
2.04649 342.71115 0 0 0
2.05530 343.66068 0 0 0
2.06410 344.45764 0 0 0
2.07290 344.90186 0 0 0
2.08170 344.47443 0 0 0
2.09050 344.92087 0 0 0
2.09931 345.13376 0 0 0
2.10811 345.63498 0 0 0
2.11691 346.93729 0 0 0
2.12571 347.58231 0 0 0
2.13451 347.87976 0 0 0
2.14332 348.14581 0 0 0
2.15212 349.27002 0 0 0
2.16092 349.55865 0 0 0
2.16972 349.64499 0 0 0
2.17852 350.25623 0 0 0
2.18733 350.20798 0 0 0
2.19613 350.34137 0 0 0
2.20493 351.8089 0 0 0
2.21373 353.2056 0 0 0
2.22254 353.92175 0 0 0
2.23134 355.38147 0 0 0
2.24014 355.77161 0 0 0
2.24894 355.29749 0 0 0
2.25774 354.63751 0 0 0
2.26655 354.51642 351.858512 351.709848 0.00282074
2.27535 354.59735 354.25034 354.101129 0.0028201
2.28415 354.68539 356.0666 355.916837 0.0028194
2.29295 356.02448 357.421347 357.271029 0.0028088
2.30175 357.776 358.411699 358.260821 0.00279504
2.31056 359.3981 359.118486 358.967045 0.00278243
2.31936 360.01456 359.611811 359.459803 0.00277767
2.32816 359.91299 359.950405 359.797826 0.00277845
2.33696 359.15991 360.181613 360.028459 0.00278428
2.34576 360.32541 360.345012 360.191278 0.00277527
2.35457 360.75537 360.472215 360.317898 0.00277196
2.36337 361.79987 360.589407 360.434503 0.00276396
2.37217 361.93927 360.715399 360.559904 0.00276289
2.38097 361.99527 360.865825 360.709734 0.00276247
2.38978 361.66275 361.050506 360.893815 0.00276501
2.39858 362.73941 361.276788 361.119493 0.0027568
2.40738 362.8349 361.549114 361.39121 0.00275607
2.41618 362.94998 361.869389 361.710871 0.0027552
2.42498 362.53671 362.237509 362.078373 0.00275834
2.43379 362.60968 362.664633 362.491429 0.00275779
2.44259 363.56699 363.131735 362.948002 0.00275052
2.45139 363.99927 363.628077 363.443656 0.00274726
2.46019 364.41443 364.158893 363.97378 0.00274413
2.46899 365.18341 364.71972 364.533909 0.00273835
2.47780 365.70837 365.304666 365.118152 0.00273442
2.48660 365.87363 365.90831 365.721087 0.00273318
2.49540 365.96039 366.52615 366.338214 0.00273254
2.50420 366.39862 367.151996 366.963341 0.00272927
2.51301 366.67465 367.781305 367.591925 0.00272721
2.52181 368.06076 368.409152 368.219043 0.00271694
2.53061 368.75256 369.031704 368.84086 0.00271185
2.53941 368.51892 369.643989 369.452404 0.00271356
2.54821 369.22687 370.243088 370.050756 0.00270836
2.55702 369.73099 370.825431 370.632347 0.00270467
2.56582 369.75076 371.388915 371.195072 0.00270452
2.57462 369.74228 371.930569 371.735963 0.00270459
2.58342 370.0878 372.448745 372.253368 0.00270206
2.59222 370.5296 372.942129 372.745975 0.00269884
2.60103 371.64774 373.409337 373.2124 0.00269072
2.60983 372.09613 373.850261 373.652535 0.00268748
2.61863 372.591 374.264339 374.065818 0.00268391
2.62743 372.52451 374.651184 374.45186 0.00268439
2.63624 373.16635 375.011926 374.811794 0.00267977
2.64504 373.74802 375.346293 375.145345 0.0026756
2.65384 374.19019 375.655797 375.454026 0.00267244
2.66264 374.95172 375.941258 375.738658 0.00266701
2.67144 375.45847 376.204177 376.000741 0.00266341
2.68025 375.41864 376.446597 376.241534 0.00266369
2.68905 374.84552 376.668462 376.462546 0.00266777
2.69785 374.37186 376.872409 376.665633 0.00267114
2.70665 375.51782 377.060178 376.852533 0.00266299
2.71545 376.78601 377.233522 377.025002 0.00265403
2.72426 376.70309 377.394322 377.184918 0.00265461
2.73306 376.54623 377.54464 377.334345 0.00265572
2.74186 377.46298 377.68627 377.475076 0.00264927
2.75066 377.9093 377.830875 377.608948 0.00264614
2.75946 377.77411 377.960727 377.737861 0.00264708
2.76827 377.65198 378.087673 377.863859 0.00264794
2.77707 378.62003 378.212938 377.988168 0.00264117
2.78587 378.9888 378.338555 378.112819 0.0026386
2.79467 378.66968 378.466227 378.239517 0.00264082
2.80348 377.82925 378.597174 378.36948 0.0026467
2.81228 377.98422 378.740851 378.504187 0.00264561
2.82108 379.03488 378.882559 378.644874 0.00263828
2.82988 379.82309 379.031511 378.792795 0.0026328
2.83868 380.20651 379.18889 378.949133 0.00263015
2.84749 381.84589 379.355492 379.114683 0.00261886
2.85629 382.2814 379.532037 379.290166 0.00261587
2.86509 382.13654 379.71948 379.476536 0.00261687
2.87389 381.80795 379.918582 379.674554 0.00261912
2.88269 383.08984 380.129187 379.884065 0.00261035
2.89150 383.21378 380.352329 380.1061 0.00260951
2.90030 383.33508 380.587874 380.340527 0.00260868
2.90910 382.84625 380.836225 380.587749 0.00261201
2.91790 384.16211 381.09743 380.847812 0.00260307
2.92670 384.33566 381.376842 381.120386 0.00260189
2.93551 383.93573 381.663374 381.405738 0.0026046
2.94431 384.39246 381.962096 381.703267 0.00260151
2.95311 386.08588 382.273074 382.013039 0.0025901
2.96191 386.76517 382.595579 382.334325 0.00258555
2.97072 386.32144 382.929455 382.666968 0.00258852
2.97952 386.14703 383.27409 383.010355 0.00258969
2.98832 385.7905 383.628915 383.363918 0.00259208
2.99712 386.17276 383.993267 383.726993 0.00258951
3.00592 386.86331 384.366535 384.098969 0.00258489
3.01473 387.79614 384.74805 384.479176 0.00257867
3.02353 387.84021 385.136966 384.866768 0.00257838
3.03233 387.21118 385.532711 385.261174 0.00258257
3.04113 387.45612 385.934261 385.661367 0.00258094
3.04993 388.47751 386.341063 386.066795 0.00257415
3.05874 389.74887 386.752239 386.47658 0.00256575
3.06754 389.25916 387.166815 386.889747 0.00256898
3.07634 388.75668 387.584263 387.305767 0.0025723
3.08514 388.91977 388.003598 387.723655 0.00257122
3.09395 389.19122 388.423993 388.142583 0.00256943
3.10275 389.26089 388.844805 388.561909 0.00256897
3.11155 389.86374 389.265241 388.980837 0.002565
3.12035 390.2139 389.684571 389.398639 0.0025627
3.12915 390.78058 390.101923 389.814441 0.00255898
3.13796 390.96097 390.51675 390.227695 0.0025578
3.14676 391.16638 390.928413 390.637762 0.00255646
3.15556 390.81174 391.336283 391.044012 0.00255878
3.16436 391.16205 391.739684 391.445769 0.00255649
3.17316 391.12708 392.138139 391.842554 0.00255671
3.18197 391.77936 392.531106 392.233827 0.00255246
3.19077 392.63968 392.918091 392.61909 0.00254686
3.19957 393.78915 393.298742 392.997991 0.00253943
3.20837 394.01306 393.672619 393.37009 0.00253799
3.21717 393.28979 394.03938 393.735043 0.00254265
3.22598 392.50201 394.398687 394.092513 0.00254776
3.23478 392.79697 394.750328 394.442284 0.00254584
3.24358 392.8215 395.095298 394.784091 0.00254569
3.25238 393.13245 395.430907 395.117761 0.00254367
3.26119 393.81033 395.758289 395.443171 0.00253929
3.26999 394.10291 396.07738 395.760253 0.00253741
3.27879 394.62622 396.388108 396.068936 0.00253404
3.28759 394.8515 396.690428 396.369171 0.0025326
3.29639 395.017 396.984374 396.660994 0.00253154
3.30520 395.06451 397.269994 396.944448 0.00253123
3.31400 394.75833 397.547377 397.219622 0.0025332
3.32280 395.11465 397.816714 397.486707 0.00253091
3.33160 395.4292 398.07804 397.745733 0.0025289
3.34040 396.28912 398.331625 397.996971 0.00252341
3.34921 396.19492 398.577689 398.240638 0.00252401
3.35801 396.14459 398.816447 398.476947 0.00252433
3.36681 396.37723 399.048122 398.706118 0.00252285
3.37561 396.37943 399.273057 398.928493 0.00252284
3.38442 397.14319 399.491567 399.144385 0.00251798
3.39322 397.71548 399.70396 399.354099 0.00251436
3.40202 397.58987 399.910541 399.557936 0.00251515
3.41082 398.21902 400.111729 399.756315 0.00251118
3.41962 398.91559 400.30804 399.949562 0.0025068
3.42843 399.23441 400.499478 400.138048 0.00250479
3.43723 399.45514 400.686637 400.322179 0.00250341
3.44603 400.07477 400.869872 400.502306 0.00249953
3.45483 400.37851 401.04965 400.678892 0.00249764
3.46363 400.6557 401.228029 400.852223 0.00249591
3.47244 400.58524 401.401986 401.022806 0.00249635
3.48124 400.9762 401.573627 401.190977 0.00249391
3.49004 401.24808 401.743332 401.357111 0.00249222
3.49884 401.84604 401.912358 401.521649 0.00248852
3.50764 401.98212 402.079454 401.684955 0.00248767
3.51645 402.01505 402.245786 401.847379 0.00248747
3.52525 402.30191 402.411771 402.009332 0.0024857
3.53405 402.37271 402.577708 402.171107 0.00248526
3.54285 402.1658 402.744014 402.333113 0.00248654
3.55166 402.60437 402.910981 402.495635 0.00248383
3.56046 403.14105 403.078967 402.659021 0.00248052
3.56926 404.13684 403.253556 402.823547 0.00247441
3.57806 403.86728 403.424472 402.989517 0.00247606
3.58686 403.23047 403.598211 403.157212 0.00247997
3.59567 402.67343 403.773187 403.326863 0.0024834
3.60447 403.1702 403.950581 403.498726 0.00248034
3.61327 403.73618 404.130631 403.673025 0.00247686
3.62207 404.77289 404.313535 403.849945 0.00247052
3.63087 405.18915 404.499514 404.029691 0.00246798
3.63968 404.90799 404.688718 404.212396 0.0024697
3.64848 405.12085 404.890565 404.398228 0.0024684
3.65728 405.39108 405.086758 404.587315 0.00246675
3.66608 405.63477 405.286614 404.779739 0.00246527
3.67489 406.25296 405.491695 404.975628 0.00246152
3.68369 406.63162 405.699224 405.174998 0.00245923
3.69249 406.99472 405.910746 405.377957 0.00245703
3.70129 407.28412 406.126269 405.584484 0.00245529
3.71009 407.88528 406.345868 405.794619 0.00245167
3.71890 408.26416 406.569559 406.008338 0.00244939
3.72770 407.90079 406.797368 406.225628 0.00245158
3.73650 408.45508 407.029314 406.446462 0.00244825
3.74530 408.95969 407.265431 406.670772 0.00244523
3.75410 409.53952 407.505598 406.898482 0.00244177
3.76291 409.0043 407.749841 407.129503 0.00244496
3.77171 409.11087 407.998133 407.363741 0.00244433
3.78051 409.88522 408.250422 407.601064 0.00243971
3.78931 409.91315 408.506679 407.841355 0.00243954
3.79811 410.23825 408.766854 408.084468 0.00243761
3.80692 410.11768 409.031262 408.33027 0.00243832
3.81572 410.30316 409.299161 408.578565 0.00243722
3.82452 410.35178 409.570881 408.829204 0.00243693
3.83332 410.00543 409.846372 409.08198 0.00243899
3.84213 410.02359 410.125651 409.336726 0.00243888
3.85093 409.82971 410.408715 409.593231 0.00244004
3.85973 409.69543 410.6956 409.851287 0.00244084
3.86853 409.96783 410.98639 410.110705 0.00243922
3.87733 411.27362 411.281307 410.37125 0.00243147
3.88614 411.43372 411.580248 410.632708 0.00243053
3.89494 411.70444 411.883559 410.894848 0.00242893
3.90374 412.17151 412.191574 411.157464 0.00242617
3.91254 412.76349 412.504735 411.420334 0.00242269
3.92134 412.26874 412.823628 411.683213 0.0024256
3.93015 412.29071 413.149128 411.945896 0.00242547
3.93895 412.68118 413.482443 412.208144 0.00242318
3.94775 412.90582 413.826396 412.469756 0.00242186
3.95655 413.07227 414.18134 412.73049 0.00242088
3.96535 413.50461 414.551913 412.990146 0.00241835
3.97416 414.43652 414.943147 413.248516 0.00241291
3.98296 414.32748 415.362211 413.5054 0.00241355
3.99176 414.24854 415.817963 413.760584 0.00241401
4.00056 414.32602 416.322791 414.013884 0.00241356
4.00937 415.00528 416.891895 414.265103 0.00240961
4.01817 415.34943 417.543571 414.514093 0.00240761
4.02697 415.98212 418.298417 414.760641 0.00240395
4.03577 415.78201 419.178507 415.004613 0.00240511
4.04457 415.93732 420.20543 415.245871 0.00240421
4.05338 416.68674 421.397559 415.484232 0.00239988
4.06218 418.08502 422.767381 415.719584 0.00239186
4.07098 418.87137 424.317649 415.951819 0.00238737
4.07978 420.4693 426.036682 416.180791 0.00237829
4.08858 422.62845 427.893333 416.406427 0.00236614
4.09739 425.02994 429.829287 416.628614 0.00235278
4.10619 428.41251 431.752153 416.847286 0.0023342
4.11499 432.18839 433.523169 417.062374 0.00231381
4.12379 436.31967 434.971627 417.273807 0.0022919
4.13260 440.25677 435.920247 417.481557 0.0022714
4.14140 440.57602 436.24414 417.685594 0.00226976
4.15020 438.2803 435.920338 417.885871 0.00228164
4.15900 433.93387 435.041754 418.082406 0.0023045
4.16780 429.96091 433.775555 418.275178 0.00232579
4.17661 426.18021 432.30333 418.4642 0.00234643
4.18541 424.0683 430.770325 418.649526 0.00235811
4.19421 422.57404 429.287731 418.831161 0.00236645
4.20301 421.94812 427.9252 419.009161 0.00236996
4.21181 420.60245 426.722796 419.183584 0.00237754
4.22062 420.47287 425.702593 419.354497 0.00237827
4.22942 419.91589 424.857526 419.521994 0.00238143
4.23822 419.86972 424.182681 419.686136 0.00238169
4.24702 419.92737 423.662426 419.84704 0.00238136
4.25582 420.71204 423.273525 420.004819 0.00237692
4.26463 421.00491 422.995114 420.15958 0.00237527
4.27343 421.0481 422.806869 420.311458 0.00237503
4.28223 421.41702 422.687382 420.460573 0.00237295
4.29103 421.54443 422.621382 420.607083 0.00237223
4.29984 421.91461 422.595597 420.75114 0.00237015
4.30864 421.7356 422.599705 420.892887 0.00237115
4.31744 422.52896 422.625933 421.032506 0.0023667
4.32624 423.05106 422.668597 421.170154 0.00236378
4.33504 424.00586 422.72362 421.306011 0.00235846
4.34385 424.13635 422.788138 421.440271 0.00235773
4.35265 424.52271 422.860129 421.573106 0.00235559
4.36145 424.41489 422.93821 421.704704 0.00235619
4.37025 424.54266 423.021327 421.835282 0.00235548
4.37905 424.58075 423.108787 421.965013 0.00235526
4.38786 425.17352 423.200093 422.094123 0.00235198
4.39666 425.57797 423.294853 422.22279 0.00234975
4.40546 425.98639 423.393622 422.351231 0.00234749
4.41426 426.25821 423.494581 422.479659 0.002346
4.42307 426.27753 423.598403 422.608268 0.00234589
4.43187 425.61655 423.705016 422.737279 0.00234953
4.44067 425.83469 423.814361 422.866882 0.00234833
4.44947 426.46896 423.926704 422.997298 0.00234484
4.45827 426.73212 424.041526 423.128728 0.00234339
4.46708 426.72086 424.159196 423.26137 0.00234345
4.47588 426.56076 424.279627 423.395428 0.00234433
4.48468 426.32333 424.402969 423.531111 0.00234564
4.49348 426.65717 424.529288 423.668597 0.0023438
4.50228 427.22427 424.658687 423.808091 0.00234069
4.51109 428.55884 424.791254 423.949771 0.0023334
4.51989 428.49347 424.927098 424.093826 0.00233376
4.52869 428.95099 425.066332 424.240439 0.00233127
4.53749 429.22391 425.209116 424.389773 0.00232979
4.54630 429.7327 425.355452 424.54201 0.00232703
4.55510 429.63449 425.505494 424.697293 0.00232756
4.56390 429.97369 425.659363 424.855789 0.00232572
4.57270 430.65939 425.81718 425.01766 0.00232202
4.58150 430.76947 425.979025 425.183024 0.00232143
4.59031 431.14951 426.145013 425.352028 0.00231938
4.59911 431.85815 426.315252 425.524811 0.00231558
4.60791 432.42004 426.489819 425.701476 0.00231257
4.61671 432.81262 426.668817 425.882152 0.00231047
4.62551 432.53168 426.852311 426.066925 0.00231197
4.63432 432.59018 427.04215 426.255904 0.00231166
4.64312 432.76129 427.234894 426.449185 0.00231074
4.65192 432.73184 427.432342 426.646825 0.0023109
4.66072 433.35797 427.634602 426.848911 0.00230756
4.66952 433.18066 427.841659 427.055513 0.00230851
4.67833 432.6857 428.05357 427.266663 0.00231115
4.68713 432.58783 428.270389 427.482428 0.00231167
4.69593 433.32062 428.492126 427.702824 0.00230776
4.70473 433.86423 428.718805 427.927886 0.00230487
4.71354 434.68689 428.950926 428.157645 0.00230051
4.72234 433.79868 429.187518 428.392085 0.00230522
4.73114 433.45078 429.430604 428.631235 0.00230707
4.73994 433.66599 429.677092 428.875056 0.00230592
4.74874 434.40341 429.928497 429.123545 0.00230201
4.75755 434.8793 430.184806 429.376691 0.00229949
4.76635 434.565 430.445956 429.634433 0.00230115
4.77515 434.06006 430.711911 429.896737 0.00230383
4.78395 433.97073 430.982769 430.163569 0.0023043
4.79275 434.22046 431.258177 430.434844 0.00230298
4.80156 433.75317 431.540283 430.710517 0.00230546
4.81036 433.3671 431.824873 430.990486 0.00230751
4.81916 433.72079 432.113938 431.274686 0.00230563
4.82796 434.10666 432.4074 431.563037 0.00230358
4.83676 435.08499 432.705134 431.855411 0.0022984
4.84557 436.04297 433.007816 432.151739 0.00229335
4.85437 435.90509 433.313824 432.451878 0.00229408
4.86317 435.15601 433.623797 432.755721 0.00229803
4.87197 435.83386 433.939904 433.063165 0.00229445
4.88078 436.75476 434.25746 433.37405 0.00228961
4.88958 436.95386 434.578609 433.68825 0.00228857
4.89838 437.15021 434.903242 434.005648 0.00228754
4.90718 436.90604 435.231184 434.326061 0.00228882
4.91598 437.3205 435.562335 434.64938 0.00228665
4.92479 437.45145 435.896528 434.975407 0.00228597
4.93359 437.58826 436.233593 435.304006 0.00228525
4.94239 437.63663 436.573421 435.635034 0.002285
4.95119 438.09836 436.915824 435.96829 0.00228259
4.95999 438.48886 437.26068 436.303638 0.00228056
4.96880 438.91891 437.608241 436.640873 0.00227833
4.97760 439.20929 437.957485 436.979844 0.00227682
4.98640 439.21185 438.308711 437.320389 0.00227681
4.99520 439.66049 438.661724 437.662295 0.00227448
5.00401 440.61517 439.017067 438.005408 0.00226955
5.01281 440.82971 439.373242 438.349561 0.00226845
5.02161 440.63092 439.730732 438.694539 0.00226947
5.03041 440.32581 440.089424 439.040202 0.00227105
5.03921 440.61359 440.449129 439.386336 0.00226956
5.04802 441.40433 440.809709 439.732772 0.0022655
5.05682 442.0643 441.173779 440.079357 0.00226211
5.06562 442.12125 441.535687 440.425874 0.00226182
5.07442 441.96359 441.898076 440.77219 0.00226263
5.08322 441.65289 442.261423 441.118086 0.00226422
5.09203 441.63947 442.624296 441.463412 0.00226429
5.10083 442.18201 442.987282 441.808019 0.00226151
5.10963 442.87906 443.350183 442.151705 0.00225795
5.11843 443.31192 443.712928 442.494318 0.00225575
5.12723 443.46335 444.075443 442.835721 0.00225498
5.13604 443.87683 444.437601 443.175721 0.00225288
5.14484 444.12347 444.799359 443.514199 0.00225163
5.15364 444.63681 445.160609 443.850969 0.00224903
5.16244 445.17966 445.52132 444.185909 0.00224628
5.17125 445.10397 445.881463 444.518892 0.00224667
5.18005 444.68503 446.240974 444.849748 0.00224878
5.18885 444.58701 446.59986 445.178366 0.00224928
5.19765 445.2605 446.958152 445.504643 0.00224588
5.20645 445.64401 447.315826 445.828414 0.00224394
5.21526 446.04218 447.672975 446.149607 0.00224194
5.22406 446.25 448.02963 446.46808 0.0022409
5.23286 446.57928 448.386061 446.783743 0.00223924
5.24166 446.3306 448.742096 447.096519 0.00224049
5.25046 446.61542 449.098132 447.406283 0.00223906
5.25927 446.92688 449.454525 447.712992 0.0022375
5.26807 447.45471 449.810881 448.016525 0.00223486
5.27687 448.48154 450.168149 448.316834 0.00222975
5.28567 448.61652 450.526094 448.61387 0.00222908
5.29448 447.72052 450.885467 448.907547 0.00223354
5.30328 447.68011 451.247616 449.197824 0.00223374
5.31208 448.86438 451.61107 449.484677 0.00222784
5.32088 449.99219 451.977498 449.76804 0.00222226
5.32968 450.92496 452.347695 450.047909 0.00221766
5.33849 451.83447 452.722433 450.324234 0.0022132
5.34729 451.59631 453.102787 450.597016 0.00221437
5.35609 452.04385 453.489951 450.866255 0.00221217
5.36489 451.73154 453.885293 451.131923 0.0022137
5.37369 451.25024 454.292231 451.394055 0.00221607
5.38250 450.95325 454.70931 451.652634 0.00221752
5.39130 451.62531 455.140674 451.907688 0.00221422
5.40010 452.45288 455.589464 452.15926 0.00221017
5.40890 453.07767 456.059366 452.407353 0.00220713
5.41770 452.94754 456.555536 452.652021 0.00220776
5.42651 453.53073 457.084888 452.893317 0.00220492
5.43531 454.70816 457.656862 453.131268 0.00219921
5.44411 455.84363 458.28483 453.365958 0.00219373
5.45291 456.51462 458.98807 453.597425 0.00219051
5.46172 457.05847 459.791492 453.825748 0.0021879
5.47052 457.7428 460.731265 454.051015 0.00218463
5.47932 458.88837 461.854784 454.273285 0.00217918
5.48812 459.94638 463.220968 454.492663 0.00217417
5.49692 461.4978 464.902831 454.709218 0.00216686
5.50573 463.8298 466.983453 454.923062 0.00215596
5.51453 466.54053 469.551854 455.134302 0.00214344
5.52333 468.8728 472.693781 455.343023 0.00213277
5.53213 471.12158 476.481361 455.549347 0.00212259
5.54093 474.771 480.958082 455.753402 0.00210628
5.54974 480.41562 486.119176 455.95528 0.00208153
5.55854 487.42255 491.889393 456.155128 0.00205161
5.56734 494.39737 498.086976 456.353053 0.00202266
5.57614 502.70187 504.375799 456.549189 0.00198925
5.58495 511.92505 510.228711 456.743685 0.00195341
5.59375 519.95398 514.932117 456.936652 0.00192325
5.60255 527.61249 517.723478 457.128255 0.00189533
5.61135 528.89899 518.074773 457.318607 0.00189072
5.62015 523.0705 515.95303 457.507864 0.00191179
5.62896 510.60712 511.839948 457.696184 0.00195845
5.63776 497.95959 506.485422 457.883692 0.0020082
5.64656 487.52914 500.617724 458.070544 0.00205116
5.65536 480.86099 494.791199 458.256903 0.0020796
5.66416 475.32401 489.362421 458.442898 0.00210383
5.67297 470.56778 484.52862 458.6287 0.00212509
5.68177 468.26044 480.37734 458.814439 0.00213556
5.69057 466.49319 476.91997 459.000282 0.00214365
5.69937 465.46188 474.120149 459.186386 0.0021484
5.70817 464.85889 471.904381 459.372884 0.00215119
5.71698 464.05423 470.190134 459.559937 0.00215492
5.72578 463.68384 468.889347 459.747709 0.00215664
5.73458 463.38965 467.917333 459.936323 0.00215801
5.74338 463.58997 467.200168 460.125951 0.00215708
5.75219 464.05527 466.677187 460.316719 0.00215492
5.76099 464.32281 466.300115 460.508784 0.00215367
5.76979 464.13278 466.032382 460.702297 0.00215456
5.77859 464.16656 465.847204 460.897377 0.0021544
5.78739 464.30209 465.725331 461.094187 0.00215377
5.79620 464.1485 465.653058 461.292843 0.00215448
5.80500 464.47144 465.620737 461.493483 0.00215298
5.81380 465.38995 465.621448 461.696253 0.00214874
5.82260 465.75513 465.65031 461.90126 0.00214705
5.83140 466.39145 465.703199 462.108633 0.00214412
5.84021 467.01706 465.777366 462.318508 0.00214125
5.84901 467.08868 465.870499 462.53098 0.00214092
5.85781 467.63107 465.980741 462.746182 0.00213844
5.86661 467.5809 466.10656 462.9642 0.00213867
5.87541 467.40308 466.246706 463.185151 0.00213948
5.88422 467.55093 466.400744 463.409152 0.0021388
5.89302 467.71262 466.566588 463.636268 0.00213807
5.90182 468.01556 466.744139 463.866619 0.00213668
5.91062 467.96655 466.933021 464.100268 0.0021369
5.91943 468.51358 467.132841 464.337305 0.00213441
5.92823 468.66269 467.342405 464.577824 0.00213373
5.93703 468.94858 467.561898 464.82187 0.00213243
5.94583 468.81143 467.791001 465.069526 0.00213305
5.95463 469.23929 468.02964 465.320863 0.00213111
5.96344 469.39957 468.277715 465.575912 0.00213038
5.97224 469.5228 468.535166 465.834755 0.00212982
5.98104 469.76144 468.802013 466.09741 0.00212874
5.98984 470.34314 469.078347 466.363927 0.00212611
5.99864 470.58313 469.365394 466.634361 0.00212502
6.00745 471.13312 469.6612 466.908714 0.00212254
6.01625 470.90546 469.967139 467.187035 0.00212357
6.02505 471.26172 470.283588 467.469315 0.00212196
6.03385 471.72299 470.610911 467.755586 0.00211989
6.04266 472.47827 470.949723 468.045869 0.0021165
6.05146 473.30322 471.300658 468.340134 0.00211281
6.06026 473.36224 471.664547 468.638397 0.00211255
6.06906 473.10818 472.042635 468.94067 0.00211368
6.07786 473.62695 472.435644 469.246899 0.00211137
6.08667 474.8208 472.845366 469.557103 0.00210606
6.09547 474.72171 473.273683 469.871225 0.0021065
6.10427 473.95831 473.723141 470.189256 0.00210989
6.11307 474.35156 474.197477 470.511173 0.00210814
6.12187 475.24945 474.700604 470.836905 0.00210416
6.13068 476.10913 475.239593 471.166445 0.00210036
6.13948 476.43069 475.824571 471.499712 0.00209894
6.14828 477.05939 476.466255 471.836662 0.00209618
6.15708 477.47821 477.184096 472.177262 0.00209434
6.16589 478.04086 478.003477 472.521415 0.00209187
6.17469 478.57098 478.955243 472.869065 0.00208955
6.18349 479.33044 480.080292 473.220166 0.00208624
6.19229 480.14429 481.426805 473.574608 0.00208271
6.20109 481.45703 483.048981 473.932343 0.00207703
6.20990 482.98108 485.000605 474.293253 0.00207047
6.21870 484.86722 487.33223 474.657272 0.00206242
6.22750 486.93228 490.080759 475.024335 0.00205367
6.23630 489.80252 493.258386 475.3943 0.00204164
6.24510 492.77896 496.839604 475.767096 0.00202931
6.25391 496.98215 500.740587 476.14265 0.00201214
6.26271 502.17502 504.789923 476.520809 0.00199134
6.27151 508.21396 508.698518 476.901515 0.00196768
6.28031 513.09814 512.046802 477.28462 0.00194894
6.28911 517.00305 514.346786 477.67004 0.00193422
6.29792 519.74615 515.205319 478.057677 0.00192402
6.30672 520.30676 514.516567 478.44738 0.00192194
6.31552 517.02179 512.522372 478.839079 0.00193415
6.32432 511.53967 509.679839 479.232617 0.00195488
6.33313 506.31223 506.462504 479.627891 0.00197507
6.34193 502.14194 503.237861 480.02481 0.00199147
6.35073 498.16479 500.244067 480.423215 0.00200737
6.35953 494.42401 497.612265 480.823 0.00202256
6.36833 492.31497 495.397273 481.224072 0.00203122
6.37714 491.66809 493.608367 481.626271 0.00203389
6.38594 490.35074 492.221079 482.029512 0.00203936
6.39474 488.69348 491.192175 482.433635 0.00204627
6.40354 488.45563 490.468226 482.838544 0.00204727
6.41234 489.11166 489.994085 483.244146 0.00204452
6.42115 489.02686 489.717908 483.65027 0.00204488
6.42995 489.03479 489.594323 484.056848 0.00204484
6.43875 489.4353 489.586206 484.463718 0.00204317
6.44755 489.72183 489.664048 484.870795 0.00204198
6.45636 489.53845 489.805976 485.277979 0.00204274
6.46516 488.25143 489.995905 485.685118 0.00204813
6.47396 488.18033 490.222313 486.092131 0.00204842
6.48276 489.01489 490.477019 486.498924 0.00204493
6.49156 490.10864 490.754152 486.905352 0.00204036
6.50037 490.73798 491.049505 487.311359 0.00203775
6.50917 491.36612 491.35997 487.716806 0.00203514
6.51797 491.75803 491.683011 488.121609 0.00203352
6.52677 492.42886 492.016826 488.525703 0.00203075
6.53557 492.36179 492.359858 488.928957 0.00203103
6.54438 492.53415 492.711111 489.331321 0.00203032
6.55318 493.11234 493.069114 489.732672 0.00202794
6.56198 493.18442 493.433241 490.132953 0.00202764
6.57078 493.4447 493.802751 490.532117 0.00202657
6.57958 494.49814 494.177014 490.930038 0.00202225
6.58839 495.53577 494.555492 491.326676 0.00201802
6.59719 496.21576 494.937717 491.721992 0.00201525
6.60599 497.15179 495.323204 492.115885 0.00201146
6.61479 497.64362 495.7117 492.508339 0.00200947
6.62360 497.22968 496.102101 492.899265 0.00201114
6.63240 497.02466 496.494033 493.288645 0.00201197
6.64120 498.21994 496.886698 493.676452 0.00200715
6.65000 499.20932 497.2792 494.062613 0.00200317
6.65880 500.13211 497.67202 494.447142 0.00199947
6.66761 500.7496 498.062553 494.829975 0.00199701
6.67641 500.7847 498.45214 495.211108 0.00199687
6.68521 500.33362 498.841764 495.590551 0.00199867
6.69401 500.71817 499.231136 495.968258 0.00199713
6.70281 501.32239 499.620821 496.344238 0.00199472
6.71162 501.16165 500.011339 496.718521 0.00199536
6.72042 501.21246 500.402602 497.091074 0.00199516
6.72922 500.89343 500.795028 497.461946 0.00199643
6.73802 500.73999 501.188093 497.831118 0.00199704
6.74682 501.23187 501.582045 498.198635 0.00199508
6.75563 502.23712 501.97688 498.564553 0.00199109
6.76443 502.86884 502.372521 498.928857 0.00198859
6.77323 503.68713 502.768982 499.291613 0.00198536
6.78203 504.45728 503.166295 499.652889 0.00198233
6.79084 504.46884 503.564451 500.012701 0.00198228
6.79964 504.13815 503.963574 500.371139 0.00198358
6.80844 504.12891 504.363651 500.72823 0.00198362
6.81724 504.17096 504.76485 501.084068 0.00198345
6.82604 505.01855 505.167497 501.438738 0.00198013
6.83485 506.03629 505.571627 501.792285 0.00197614
6.84365 507.35794 505.977625 502.144833 0.001971
6.85245 508.12885 506.384852 502.496438 0.001968
6.86125 508.68893 506.794089 502.847205 0.00196584
6.87005 508.87509 507.20561 503.197261 0.00196512
6.87886 508.70013 507.619647 503.546674 0.00196579
6.88766 508.70609 508.036515 503.895567 0.00196577
6.89646 509.16937 508.456569 504.24408 0.00196398
6.90526 509.8645 508.880125 504.592292 0.00196131
6.91407 510.31854 509.307632 504.940373 0.00195956
6.92287 510.33191 509.739472 505.288403 0.00195951
6.93167 510.71671 510.176148 505.63654 0.00195803
6.94047 511.27118 510.618225 505.984942 0.00195591
6.94927 512.42169 511.066246 506.333715 0.00195152
6.95808 513.11237 511.520907 506.683036 0.00194889
6.96688 513.97992 511.982899 507.03302 0.0019456
6.97568 514.6319 512.453075 507.383843 0.00194314
6.98448 514.62671 512.932384 507.735676 0.00194316
6.99328 514.72296 513.421825 508.088641 0.00194279
7.00209 515.25153 513.922642 508.442927 0.0019408
7.01089 516.05487 514.436233 508.798712 0.00193778
7.01969 517.13214 514.96415 509.156129 0.00193374
7.02849 517.9306 515.508351 509.515392 0.00193076
7.03729 518.60876 516.071036 509.876638 0.00192824
7.04610 518.92255 516.654995 510.240056 0.00192707
7.05490 519.38281 517.263748 510.60585 0.00192536
7.06370 519.63159 517.901761 510.974165 0.00192444
7.07250 520.46918 518.575156 511.345216 0.00192134
7.08131 520.68542 519.2922 511.71915 0.00192055
7.09011 521.2514 520.064602 512.096174 0.00191846
7.09891 522.57843 520.90877 512.476501 0.00191359
7.10771 523.71356 521.847328 512.860267 0.00190944
7.11651 524.23566 522.911233 513.247687 0.00190754
7.12532 525.14551 524.141271 513.638973 0.00190423
7.13412 526.02075 525.58868 514.034275 0.00190107
7.14292 527.57526 527.315268 514.433818 0.00189546
7.15172 529.479 529.390184 514.837751 0.00188865
7.16052 530.7428 531.885594 515.246292 0.00188415
7.16933 532.70795 534.86858 515.659644 0.0018772
7.17813 535.20709 538.38969 516.077953 0.00186844
7.18693 538.29822 542.470491 516.501455 0.00185771
7.19573 542.00745 547.08319 516.930293 0.00184499
7.20453 546.16229 552.126124 517.364667 0.00183096
7.21334 552.09064 557.385493 517.80479 0.0018113
7.22214 559.00385 562.490633 518.2508 0.0017889
7.23094 565.7251 566.898949 518.702892 0.00176764
7.23974 570.57172 569.971492 519.161276 0.00175263
7.24855 573.45355 571.188821 519.626074 0.00174382
7.25735 573.84686 570.41102 520.09752 0.00174263
7.26615 570.54675 567.958464 520.575718 0.0017527
7.27495 565.19427 564.433431 521.06087 0.0017693
7.28375 560.30176 560.454876 521.553167 0.00178475
7.29256 556.28302 556.499057 522.052722 0.00179765
7.30136 551.73181 552.868432 522.559708 0.00181247
7.31016 548.20862 549.727052 523.074316 0.00182412
7.31896 545.75208 547.14413 523.596642 0.00183233
7.32777 544.77844 545.12535 524.126881 0.00183561
7.33657 543.77148 543.637049 524.665121 0.00183901
7.34537 542.65375 542.621417 525.211535 0.0018428
7.35417 541.60712 542.009621 525.766278 0.00184636
7.36297 542.08173 541.731442 526.32942 0.00184474
7.37178 543.32202 541.721676 526.901149 0.00184053
7.38058 544.474 541.924385 527.481526 0.00183663
7.38938 545.50397 542.294382 528.070684 0.00183317
7.39818 546.09412 542.797237 528.668772 0.00183119
7.40698 546.66156 543.407961 529.275831 0.00182929
7.41579 546.76208 544.109488 529.891979 0.00182895
7.42459 546.83179 544.891166 530.51735 0.00182872
7.43339 548.17365 545.747008 531.151959 0.00182424
7.44219 550.0791 546.675211 531.795966 0.00181792
7.45099 551.26538 547.676939 532.449355 0.00181401
7.45980 552.63031 548.756278 533.112239 0.00180953
7.46860 553.54456 549.919637 533.784718 0.00180654
7.47740 553.75452 551.175094 534.466776 0.00180585
7.48620 553.93665 552.532132 535.158526 0.00180526
7.49501 554.61334 554.000177 535.859937 0.00180306
7.50381 555.94281 555.587927 536.571092 0.00179875
7.51261 556.53839 557.30158 537.292045 0.00179682
7.52141 557.46588 559.142475 538.022743 0.00179383
7.53021 558.84808 561.10495 538.763251 0.0017894
7.53902 559.77295 563.17203 539.513602 0.00178644
7.54782 561.328 565.309986 540.273721 0.00178149
7.55662 562.30603 567.46613 541.043688 0.00177839
7.56542 564.19684 569.573619 541.82341 0.00177243
7.57422 565.85797 571.574375 542.612895 0.00176723
7.58303 568.08398 573.450093 543.412168 0.0017603
7.59183 569.1084 575.238433 544.221105 0.00175713
7.60063 570.79785 577.019483 545.039765 0.00175193
7.60943 573.27612 578.884067 545.867989 0.00174436
7.61823 576.88562 580.912454 546.705776 0.00173345
7.62704 579.71741 583.16823 547.553111 0.00172498
7.63584 583.35767 585.701905 548.409838 0.00171421
7.64464 588.62439 588.558375 549.275908 0.00169888
7.65344 594.89185 591.783275 550.151298 0.00168098
7.66225 600.64636 595.428877 551.035825 0.00166487
7.67105 606.51984 599.563568 551.929473 0.00164875
7.67985 614.75916 604.280405 552.832045 0.00162665
7.68865 624.22034 609.713164 553.74349 0.001602
7.69745 635.45813 616.054546 554.663721 0.00157367
7.70626 647.32086 623.578678 555.592517 0.00154483
7.71506 661.13416 632.672012 556.529853 0.00151255
7.72386 677.58832 643.857849 557.475493 0.00147582
7.73266 697.05707 657.823849 558.429324 0.0014346
7.74146 719.85339 675.43105 559.39126 0.00138917
7.75027 744.54449 697.694977 560.361042 0.0013431
7.75907 773.12134 725.743688 561.338541 0.00129346
7.76787 805.41034 760.725187 562.323651 0.0012416
7.77667 844.42212 803.662498 563.316085 0.00118424
7.78548 886.78558 855.290636 564.315784 0.00112767
7.79428 935.68323 915.799864 565.322423 0.00106874
7.80308 986.72656 984.548645 566.335875 0.00101345
7.81188 1040.8711 1059.612107 567.356 0.00096073
7.82068 1096.7563 1137.145281 568.382488 0.00091178
7.82949 1153.647 1210.756467 569.415162 0.00086682
7.83829 1209.9591 1271.365076 570.453878 0.00082647
7.84709 1275.0992 1308.791985 571.498309 0.00078425
7.85589 1315.4841 1315.417163 572.548325 0.00076018
7.86469 1311.7415 1290.083349 573.603588 0.00076235
7.87350 1261.1631 1238.749609 574.663936 0.00079292
7.88230 1194.6873 1171.292216 575.729164 0.00083704
7.89110 1101.5997 1097.393039 576.798922 0.00090777
7.89990 1027.3262 1024.333592 577.873084 0.0009734
7.90870 958.1283 956.672654 578.951288 0.0010437
7.91751 898.67316 896.870402 580.033317 0.00111275
7.92631 846.13879 845.916365 581.118986 0.00118184
7.93511 806.13757 803.845519 582.20791 0.00124048
7.94391 772.76532 770.076756 583.299899 0.00129405
7.95272 747.10822 743.67355 584.394722 0.00133849
7.96152 726.29803 723.533444 585.491996 0.00137685
7.97032 709.15295 708.53847 586.591575 0.00141013
7.97912 695.88068 697.665303 587.693069 0.00143703
7.98792 686.15033 690.049595 588.79624 0.00145741
7.99673 678.77631 685.004899 589.900882 0.00147324
8.00553 673.47583 682.024554 591.006665 0.00148483
8.01433 669.93652 680.756698 592.113154 0.00149268
8.02313 668.54132 680.974843 593.22033 0.00149579
8.03193 668.81677 682.546286 594.327781 0.00149518
8.04074 670.62036 685.40037 595.435109 0.00149116
8.04954 674.70758 689.505935 596.542252 0.00148212
8.05834 680.66364 694.847223 597.64881 0.00146915
8.06714 688.76794 701.406676 598.754382 0.00145187
8.07594 698.92322 709.146171 599.858906 0.00143077
8.08475 711.41241 717.986245 600.96198 0.00140565
8.09355 724.75018 727.809736 602.063204 0.00137979
8.10235 740.72577 738.536247 603.162517 0.00135003
8.11115 756.37585 750.284606 604.259519 0.00132209
8.11996 771.85663 763.584626 605.353923 0.00129558
8.12876 785.49591 779.449896 606.445335 0.00127308
8.13756 801.37457 799.242069 607.533693 0.00124786
8.14636 821.09442 824.397217 608.618605 0.00121789
8.15516 847.03882 856.195786 609.699678 0.00118058
8.16397 883.17188 895.615456 610.776857 0.00113228
8.17277 927.95972 943.153674 611.849753 0.00107763
8.18157 979.1424 998.636698 612.917983 0.0010213
8.19037 1039.2142 1060.928374 613.981495 0.00096227
8.19917 1101.5336 1127.429537 615.039909 0.00090783
8.20798 1169.9277 1193.608553 616.09284 0.00085475
8.21678 1232.9777 1252.95697 617.140276 0.00081104
8.22558 1293.38 1298.047968 618.181812 0.00077317
8.23438 1339.3567 1323.153351 619.217204 0.00074663
8.24319 1367.8949 1326.848785 620.246081 0.00073105
8.25199 1361.8425 1312.229724 621.268438 0.0007343
8.26079 1329.536 1284.41931 622.283891 0.00075214
8.26959 1279.3071 1247.669058 623.292094 0.00078167
8.27839 1223.047 1204.247049 624.293037 0.00081763
8.28720 1166.3765 1155.377476 625.286385 0.00085736
8.29600 1110.6398 1102.737195 626.271774 0.00090038
8.30480 1048.8209 1049.01284 627.249214 0.00095345
8.31360 988.93024 997.314046 628.218374 0.00101119
8.32240 933.16547 950.219655 629.178941 0.00107162
8.33121 883.7005 909.317961 630.1309 0.00113161
8.34001 846.18176 875.332118 631.07395 0.00118178
8.34881 820.12964 848.392249 632.00789 0.00121932
8.35761 805.37048 828.324519 632.932432 0.00124166
8.36641 796.0163 814.857293 633.847577 0.00125626
8.37522 793.42926 807.753455 634.753047 0.00126035
8.38402 797.82007 806.87219 635.648573 0.00125342
8.39282 809.82611 812.181793 636.534167 0.00123483
8.40162 828.82428 823.742099 637.409571 0.00120653
8.41043 856.5036 841.641273 638.274538 0.00116754
8.41923 886.33923 865.896354 639.129092 0.00112824
8.42803 921.94086 896.324337 639.972996 0.00108467
8.43683 960.71887 932.366535 640.806024 0.00104089
8.44563 999.93347 972.871884 641.628212 0.00100007
8.45444 1040.2568 1015.743428 642.439347 0.0009613
8.46324 1073.009 1057.598722 643.239306 0.00093196
8.47204 1094.8984 1093.665193 644.027893 0.00091333
8.48084 1113.7241 1118.455625 644.805162 0.00089789
8.48964 1122.0254 1127.583956 645.570929 0.00089125
8.49845 1118.8998 1119.93262 646.325022 0.00089374
8.50725 1101.7395 1098.367153 647.067506 0.00090766
8.51605 1064.9647 1068.317336 647.798222 0.000939
8.52485 1020.7646 1035.513528 648.51702 0.00097966
8.53366 977.46515 1004.469407 649.22398 0.00102305
8.54246 939.6579 978.106963 649.918965 0.00106422
8.55126 917.51318 957.9092 650.601843 0.0010899
8.56006 908.85718 944.158681 651.272729 0.00110028
8.56886 912.32776 936.112008 651.931488 0.0010961
8.57767 925.1131 932.043881 652.578091 0.00108095
8.58647 938.92474 929.367445 653.212441 0.00106505
8.59527 950.63397 925.07624 653.834666 0.00105193
8.60407 953.90356 916.636868 654.444665 0.00104832
8.61287 944.84277 902.931789 655.04237 0.00105838
8.62168 921.98907 884.533409 655.627916 0.00108461
8.63048 891.07245 863.105084 656.201246 0.00112224
8.63928 857.25293 840.524089 656.762295 0.00116652
8.64808 823.43597 818.314155 657.311215 0.00121442
8.65689 793.3783 797.533157 657.847969 0.00126043
8.66569 768.20337 778.812074 658.372532 0.00130174
8.67449 748.67853 762.45325 658.885051 0.00133569
8.68329 733.24823 748.520123 659.385516 0.00136379
8.69209 721.35657 736.905297 659.873975 0.00138628
8.70090 711.65234 727.39085 660.350438 0.00140518
8.70970 705.13208 719.699325 660.815064 0.00141817
8.71850 698.72076 713.53566 661.267872 0.00143119
8.72730 692.97205 708.613317 661.708892 0.00144306
8.73610 689.8067 704.674605 662.138294 0.00144968
8.74491 688.3064 701.501769 662.556117 0.00145284
8.75371 685.83044 698.918511 662.962413 0.00145809
8.76251 683.64337 696.786458 663.357361 0.00146275
8.77131 682.94525 695.001836 663.741021 0.00146425
8.78011 682.64502 693.487589 664.113464 0.00146489
8.78892 682.60126 692.186643 664.474877 0.00146498
8.79772 681.95074 691.057703 664.82534 0.00146638
8.80652 681.4964 690.069984 665.164975 0.00146736
8.81532 680.72675 689.200424 665.493878 0.00146902
8.82413 680.13104 688.430868 665.812246 0.0014703
8.83293 680.48663 687.747271 666.120184 0.00146954
8.84173 680.70105 687.138195 666.417801 0.00146907
8.85053 680.46002 686.593956 666.705304 0.00146959
8.85933 680.03485 686.106636 666.982813 0.00147051
8.86814 680.56866 685.669465 667.250452 0.00146936
8.87694 680.99103 685.276476 667.508435 0.00146845
8.88574 680.27631 684.922668 667.756895 0.00146999
8.89454 680.35638 684.603703 667.99597 0.00146982
8.90334 680.44061 684.31565 668.225884 0.00146964
8.91215 680.68091 684.055218 668.446778 0.00146912
8.92095 681.10022 683.819473 668.658827 0.00146821
8.92975 680.93726 683.605872 668.862187 0.00146856
8.93855 680.20276 683.412079 669.057086 0.00147015
8.94736 681.13489 683.23614 669.243681 0.00146814
8.95616 681.09863 683.076318 669.422138 0.00146822
8.96496 680.97321 682.93101 669.592687 0.00146849
8.97376 680.95172 682.798876 669.755498 0.00146853
8.98256 681.97919 682.678726 669.910744 0.00146632
8.99137 682.61932 682.569454 670.058655 0.00146495
9.00017 682.50421 682.470147 670.19941 0.00146519
9.00897 682.40558 682.379999 670.333193 0.0014654
9.01777 683.14703 682.298253 670.46023 0.00146381
9.02657 683.36877 682.224298 670.580707 0.00146334
9.03538 684.3512 682.157591 670.694827 0.00146124
9.04418 685.28271 682.09767 670.80278 0.00145925
9.05298 686.10364 682.044111 670.904792 0.00145751
9.06178 686.60901 681.996587 671.001055 0.00145643
9.07058 687.16449 681.954831 671.091765 0.00145526
9.07939 687.92737 681.918595 671.177145 0.00145364
9.08819 688.64075 681.887715 671.257391 0.00145214
9.09699 689.36548 681.86207 671.332699 0.00145061
9.10579 690.55865 681.841572 671.403291 0.0014481
9.11460 691.08203 681.826177 671.469362 0.00144701
9.12340 691.02325 681.815884 671.531111 0.00144713
9.13220 690.78845 681.810724 671.588754 0.00144762
9.14100 691.09149 681.810748 671.642488 0.00144699
9.14980 691.02008 681.816035 671.692509 0.00144714
9.15861 691.18616 681.826689 671.739029 0.00144679
9.16741 690.53296 681.842816 671.782243 0.00144816
9.17621 690.56543 681.864519 671.822349 0.00144809
9.18501 690.98792 681.891895 671.859541 0.0014472
9.19381 690.87933 681.925036 671.894022 0.00144743
9.20262 690.00244 681.963996 671.925984 0.00144927
9.21142 689.46313 682.008853 671.955614 0.0014504
9.22022 689.37036 682.059792 671.98311 0.0014506
9.22902 689.64508 682.117132 672.008658 0.00145002
9.23782 689.65436 682.181333 672.03244 0.00145
9.24663 689.41284 682.253006 672.054646 0.00145051
9.25543 688.44629 682.332755 672.075455 0.00145255
9.26423 688.35626 682.421178 672.095044 0.00145274
9.27303 687.77454 682.518907 672.113594 0.00145396
9.28184 686.93378 682.626532 672.131278 0.00145574
9.29064 686.68744 682.744677 672.148265 0.00145627
9.29944 686.51654 682.873968 672.164722 0.00145663
9.30824 686.02917 683.015136 672.180818 0.00145766
9.31704 685.33173 683.168894 672.196713 0.00145915
9.32585 685.0791 683.336022 672.212565 0.00145969
9.33465 684.57172 683.517431 672.228533 0.00146077
9.34345 684.44592 683.714041 672.244767 0.00146104
9.35225 684.65326 683.926851 672.261415 0.00146059
9.36105 684.49689 684.157055 672.278625 0.00146093
9.36986 684.61261 684.405865 672.296537 0.00146068
9.37866 685.22577 684.674612 672.315289 0.00145937
9.38746 686.01959 684.964852 672.335018 0.00145768
9.39626 686.63489 685.278226 672.355853 0.00145638
9.40507 686.99402 685.616556 672.377922 0.00145562
9.41387 686.86719 685.981808 672.401345 0.00145589
9.42267 687.00226 686.376328 672.426246 0.0014556
9.43147 687.04852 686.80256 672.452738 0.0014555
9.44027 688.80115 687.263228 672.48093 0.0014518
9.44908 689.95209 687.761524 672.510934 0.00144938
9.45788 690.66864 688.300907 672.542852 0.00144787
9.46668 690.80365 688.885205 672.576778 0.00144759
9.47548 690.91016 689.518956 672.612816 0.00144737
9.48428 690.99963 690.207063 672.651051 0.00144718
9.49309 691.31537 690.955162 672.691568 0.00144652
9.50189 692.16858 691.76975 672.734457 0.00144473
9.51069 692.79779 692.658202 672.779792 0.00144342
9.51949 693.69446 693.62891 672.827647 0.00144156
9.52829 694.61389 694.691554 672.878089 0.00143965
9.53710 695.82178 695.857659 672.931192 0.00143715
9.54590 696.4856 697.140332 672.987014 0.00143578
9.55470 697.15533 698.555217 673.045606 0.0014344
9.56350 698.16626 700.121271 673.107034 0.00143232
9.57231 699.27057 701.861644 673.17134 0.00143006
9.58111 701.30792 703.805041 673.238564 0.00142591
9.58991 703.62256 705.989535 673.308761 0.00142122
9.59871 706.80829 708.464786 673.38196 0.00141481
9.60751 711.26917 711.298442 673.458185 0.00140594
9.61632 716.22723 714.585021 673.537484 0.0013962
9.62512 720.73267 718.45576 673.619874 0.00138748
9.63392 726.16278 723.092857 673.705373 0.0013771
9.64272 733.6546 728.745318 673.79399 0.00136304
9.65152 743.75134 735.749573 673.885759 0.00134454
9.66033 756.28564 744.540308 673.98068 0.00132225
9.66913 769.6283 755.661565 674.078746 0.00129933
9.67793 785.56958 769.767331 674.179982 0.00127296
9.68673 803.86346 787.598027 674.284376 0.00124399
9.69553 826.1004 809.935932 674.391911 0.00121051
9.70434 851.32086 837.546621 674.502602 0.00117465
9.71314 880.16962 871.078 674.616425 0.00113614
9.72194 913.45404 910.940428 674.733353 0.00109475
9.73074 952.1413 957.184777 674.853391 0.00105026
9.73955 994.97382 1009.302274 674.976507 0.00100505
9.74835 1042.5369 1066.022111 675.102673 0.0009592
9.75715 1095.4048 1124.994397 675.23185 0.0009129
9.76595 1148.3934 1182.503639 675.364033 0.00087078
9.77475 1203.9897 1233.311922 675.499174 0.00083057
9.78356 1253.7555 1271.14718 675.637223 0.0007976
9.79236 1296.3546 1290.174618 675.778168 0.00077139
9.80116 1313.0354 1287.05486 675.921952 0.00076159
9.80996 1304.7657 1262.423874 676.068517 0.00076642
9.81876 1262.4656 1220.578785 676.217845 0.0007921
9.82757 1201.7103 1167.686164 676.36987 0.00083215
9.83637 1128.3669 1109.795748 676.524526 0.00088624
9.84517 1056.4203 1051.690608 676.681789 0.00094659
9.85397 987.75488 996.662235 676.841589 0.0010124
9.86278 930.26599 946.706575 677.003865 0.00107496
9.87158 883.23663 902.845785 677.168542 0.0011322
9.88038 845.8197 865.396024 677.33559 0.00118229
9.88918 817.06909 834.195361 677.50493 0.00122389
9.89798 793.80225 808.748042 677.676478 0.00125976
9.90679 774.98138 788.359382 677.850203 0.00129035
9.91559 758.55591 772.256229 678.026018 0.00131829
9.92439 746.56317 759.664305 678.203834 0.00133947
9.93319 737.50848 749.864479 678.383622 0.00135592
9.94199 730.58295 742.238553 678.565287 0.00136877
9.95080 723.73181 736.276831 678.748735 0.00138173
9.95960 718.1134 731.575328 678.933936 0.00139254
9.96840 714.08618 727.82916 679.120796 0.00140039
9.97720 710.35419 724.812674 679.309234 0.00140775
9.98600 707.07166 722.363475 679.499157 0.00141428
9.99481 704.56726 720.365271 679.690529 0.00141931
10.00361 702.31323 718.737209 679.883262 0.00142387
10.01241 700.41541 717.422728 680.07723 0.00142772
10.02121 699.38751 716.381865 680.272439 0.00142982
10.03002 698.84375 715.588539 680.468745 0.00143094
10.03882 698.41827 715.025803 680.666071 0.00143181
10.04762 697.90485 714.685085 680.864406 0.00143286
10.05642 697.71027 714.565371 681.063607 0.00143326
10.06522 697.52899 714.672681 681.263617 0.00143363
10.07403 697.8385 715.020102 681.464361 0.001433
10.08283 699.0116 715.627301 681.665786 0.00143059
10.09163 700.89606 716.520281 681.867771 0.00142675
10.10043 702.87103 717.730211 682.070239 0.00142274
10.10923 704.68176 719.293142 682.273186 0.00141908
10.11804 707.19836 721.247219 682.476471 0.00141403
10.12684 711.06671 723.632487 682.680043 0.00140634
10.13564 716.45789 726.48999 682.883831 0.00139576
10.14444 722.2066 729.860903 683.087787 0.00138465
10.15325 727.49683 733.784654 683.291774 0.00137458
10.16205 733.39105 738.30045 683.495794 0.00136353
10.17085 739.66229 743.440758 683.699778 0.00135197
10.17965 745.6604 749.229999 683.903593 0.00134109
10.18845 753.11511 755.700543 684.107268 0.00132782
10.19726 761.74902 762.921756 684.310671 0.00131277
10.20606 771.55652 771.061404 684.513788 0.00129608
10.21486 783.88312 780.425638 684.716491 0.0012757
10.22366 797.7558 791.446526 684.918792 0.00125352
10.23246 813.13556 804.594102 685.120635 0.00122981
10.24127 829.0578 820.258261 685.321898 0.00120619
10.25007 847.69849 838.670603 685.522622 0.00117966
10.25887 866.6936 859.81376 685.722689 0.00115381
10.26767 888.72449 883.35818 685.922073 0.00112521
10.27647 911.08832 908.58845 686.120729 0.00109759
10.28528 933.60504 934.276466 686.318615 0.00107112
10.29408 951.34509 958.624072 686.515689 0.00105114
10.30288 970.8161 979.365501 686.711912 0.00103006
10.31168 984.64233 994.18884 686.90727 0.0010156
10.32048 995.2641 1001.526379 687.101663 0.00100476
10.32929 998.86206 1001.288249 687.295146 0.00100114
10.33809 994.10162 994.987419 687.487625 0.00100593
10.34689 986.29773 985.144815 687.679094 0.00101389
10.35569 973.25525 974.430939 687.869528 0.00102748
10.36450 965.73688 965.015912 688.058905 0.00103548
10.37330 953.55145 958.344906 688.247227 0.00104871
10.38210 952.59735 955.101382 688.434412 0.00104976
10.39090 947.88757 955.248192 688.620532 0.00105498
10.39971 952.29657 958.04841 688.805509 0.00105009
10.40851 954.26947 962.074822 688.989336 0.00104792
10.41731 962.54199 965.319008 689.172066 0.00103892
10.42611 964.08087 965.53214 689.353634 0.00103726
10.43491 965.22577 960.853973 689.534058 0.00103603
10.44371 955.5249 950.473936 689.713339 0.00104655
10.45252 938.203 934.897678 689.8915 0.00106587
10.46132 918.19635 915.614827 690.068506 0.00108909
10.47012 896.9295 894.466769 690.244366 0.00111491
10.47892 879.66864 873.121256 690.419151 0.00113679
10.48773 861.51837 852.871651 690.592813 0.00116074
10.49653 846.72595 834.624238 690.76539 0.00118102
10.50533 835.34491 818.969651 690.936899 0.00119711
10.51413 825.17596 806.281571 691.107361 0.00121186
10.52293 817.85583 796.761498 691.276799 0.00122271
10.53174 813.94507 790.492155 691.44524 0.00122858
10.54054 811.75702 787.459289 691.61273 0.0012319
10.54934 811.25043 787.569934 691.779243 0.00123266
10.55814 813.36047 790.661039 691.944887 0.00122947
10.56695 814.76166 796.497141 692.109641 0.00122735
10.57575 819.36969 804.755298 692.273562 0.00122045
10.58455 825.29291 815.003262 692.436689 0.00121169
10.59335 833.48328 826.64785 692.599064 0.00119978
10.60215 840.50189 838.880138 692.76075 0.00118977
10.61096 848.55573 850.61696 692.921737 0.00117847
10.61976 855.51929 860.511917 693.082147 0.00116888
10.62856 861.24115 867.099754 693.241976 0.00116111
10.63736 863.10797 869.154833 693.401293 0.0011586
10.64616 860.23523 866.118253 693.560155 0.00116247
10.65497 850.90485 858.322234 693.718615 0.00117522
10.66377 835.81708 846.833256 693.876733 0.00119643
10.67257 819.3476 833.026224 694.034567 0.00122048
10.68137 803.6546 818.204756 694.192197 0.00124432
10.69017 789.69202 803.394954 694.349651 0.00126632
10.69898 776.98737 789.314256 694.50701 0.00128702
10.70778 766.45624 776.418115 694.66434 0.00130471
10.71658 757.42914 764.953869 694.82171 0.00132026
10.72538 749.09167 755.023268 694.979187 0.00133495
10.73419 741.70337 746.609979 695.136843 0.00134825
10.74299 736.29865 739.622286 695.294766 0.00135814
10.75179 731.51001 733.915925 695.452976 0.00136704
10.76059 726.95355 729.316396 695.611617 0.0013756
10.76939 723.76044 725.64634 695.770711 0.00138167
10.77820 720.79901 722.732176 695.930333 0.00138735
10.78700 718.58032 720.419019 696.090614 0.00139163
10.79580 716.62323 718.575486 696.251578 0.00139543
10.80460 715.32495 717.094099 696.413339 0.00139797
10.81340 713.42157 715.89046 696.575921 0.0014017
10.82221 711.69672 714.899784 696.739458 0.00140509
10.83101 711.01178 714.074299 696.904031 0.00140645
10.83981 710.41815 713.378901 697.069664 0.00140762
10.84861 709.40228 712.787913 697.236513 0.00140964
10.85741 709.05066 712.282866 697.404604 0.00141034
10.86622 709.64514 711.850188 697.574035 0.00140916
10.87502 709.58258 711.479771 697.744889 0.00140928
10.88382 709.24628 711.163747 697.917246 0.00140995
10.89262 709.78522 710.896203 698.09119 0.00140888
10.90142 709.76843 710.672167 698.266801 0.00140891
10.91023 710.00385 710.487789 698.444181 0.00140844
10.91903 710.14185 710.339784 698.623371 0.00140817
10.92783 710.38458 710.225496 698.804471 0.00140769
10.93663 710.66113 710.142732 698.987563 0.00140714
10.94544 711.85535 710.089604 699.172726 0.00140478
10.95424 712.49438 710.064747 699.36004 0.00140352
10.96304 712.58051 710.066955 699.549583 0.00140335
10.97184 712.85846 710.095495 699.741456 0.0014028
10.98064 713.86505 710.149856 699.935671 0.00140082
10.98945 714.85498 710.229964 700.132391 0.00139889
10.99825 714.75183 710.336163 700.331628 0.00139909
11.00705 714.74121 710.469268 700.533477 0.00139911
11.01585 715.91766 710.630861 700.738013 0.00139681
11.02465 717.31848 710.823416 700.945308 0.00139408
11.03346 718.10913 711.050741 701.155457 0.00139255
11.04226 718.7348 711.31825 701.36846 0.00139133
11.05106 719.58679 711.63384 701.584481 0.00138969
11.05986 720.67267 712.008234 701.803517 0.00138759
11.06867 720.93768 712.455822 702.025656 0.00138708
11.07747 721.14069 712.995297 702.250965 0.00138669
11.08627 721.73804 713.650214 702.479506 0.00138554
11.09507 722.85693 714.448761 702.711342 0.0013834
11.10387 724.11572 715.423719 702.946532 0.00138099
11.11268 724.71954 716.610658 703.185163 0.00137984
11.12148 726.18811 718.045746 703.427208 0.00137705
11.13028 727.4519 719.763384 703.672805 0.00137466
11.13908 729.06104 721.791043 703.922009 0.00137163
11.14789 730.93915 724.144928 704.174813 0.0013681
11.15669 732.71167 726.824447 704.431296 0.00136479
11.16549 734.03333 729.807174 704.691503 0.00136234
11.17429 736.07544 733.039909 704.955512 0.00135856
11.18309 739.02484 736.430349 705.223275 0.00135313
11.19190 741.68414 739.838511 705.494923 0.00134828
11.20070 744.7041 743.065447 705.770496 0.00134282
11.20950 747.18176 745.857193 706.049938 0.00133836
11.21830 749.04431 747.935289 706.333409 0.00133503
11.22710 750.34412 749.057138 706.620846 0.00133272
11.23591 750.93036 749.097505 706.912311 0.00133168
11.24471 750.60089 748.097511 707.207833 0.00133227
11.25351 748.41779 746.247165 707.507436 0.00133615
11.26231 745.33484 743.816349 707.811179 0.00134168
11.27111 742.08893 741.078472 708.118978 0.00134755
11.27992 739.59399 738.261959 708.430993 0.00135209
11.28872 737.16919 735.537946 708.747132 0.00135654
11.29752 734.65906 733.02288 709.067446 0.00136118
11.30632 733.13574 730.789467 709.391946 0.001364
11.31513 732.73889 728.875087 709.72064 0.00136474
11.32393 732.01843 727.292077 710.053536 0.00136609
11.33273 730.84387 726.031993 710.390637 0.00136828
11.34153 730.2691 725.073243 710.731983 0.00136936
11.35033 730.82074 724.385097 711.077458 0.00136832
11.35914 730.78876 723.932242 711.427215 0.00136838
11.36794 730.17975 723.67923 711.781129 0.00136953
11.37674 729.90533 723.592066 712.139233 0.00137004
11.38554 730.26874 723.641077 712.501516 0.00136936
11.39434 730.86133 723.80112 712.867964 0.00136825
11.40315 731.35718 724.052416 713.238605 0.00136732
11.41195 731.10852 724.379795 713.613294 0.00136779
11.42075 730.76117 724.772912 713.992181 0.00136844
11.42955 731.37952 725.224982 714.375116 0.00136728
11.43835 731.77686 725.7327 714.762072 0.00136654
11.44716 732.40515 726.29589 715.153155 0.00136536
11.45596 732.60797 726.916588 715.548202 0.00136499
11.46476 733.1897 727.599568 715.947227 0.0013639
11.47356 734.12463 728.351815 716.350196 0.00136217
11.48237 735.61206 729.182915 716.757118 0.00135941
11.49117 736.63153 730.104405 717.167816 0.00135753
11.49997 738.2525 731.131187 717.582389 0.00135455
11.50877 739.94672 732.280818 718.000795 0.00135145
11.51757 741.32721 733.573644 718.422896 0.00134893
11.52638 743.02039 735.033896 718.848691 0.00134586
11.53518 744.61438 736.688796 719.278132 0.00134298
11.54398 747.70941 738.569291 719.711217 0.00133742
11.55278 750.50775 740.706687 720.147745 0.00133243
11.56158 753.43231 743.133772 720.587811 0.00132726
11.57039 756.35742 745.879715 721.031359 0.00132213
11.57919 759.68781 748.965505 721.478178 0.00131633
11.58799 762.90466 752.407569 721.928413 0.00131078
11.59679 766.47595 756.211638 722.381848 0.00130467
11.60559 770.85846 760.384129 722.838472 0.00129726
11.61440 774.69305 764.929487 723.298219 0.00129083
11.62320 778.33929 769.84603 723.761022 0.00128479
11.63200 781.48315 775.113013 724.226867 0.00127962
11.64080 784.95074 780.661648 724.695526 0.00127397
11.64961 789.08539 786.366099 725.167139 0.00126729
11.65841 793.6369 792.013933 725.641475 0.00126002
11.66721 797.60455 797.3187 726.118514 0.00125375
11.67601 801.0636 801.950881 726.598181 0.00124834
11.68481 803.30182 805.610142 727.080401 0.00124486
11.69362 805.88428 808.121912 727.565095 0.00124087
11.70242 807.81647 809.500016 728.052186 0.0012379
11.71122 808.12238 809.934868 728.541651 0.00123744
11.72002 807.01251 809.713097 729.033243 0.00123914
11.72883 806.46063 809.122496 729.527104 0.00123999
11.73763 805.9433 808.387409 730.022985 0.00124078
11.74643 805.7854 807.662043 730.520858 0.00124103
11.75523 806.66003 807.057542 731.020642 0.00123968
11.76403 808.08759 806.701732 731.522252 0.00123749
11.77284 810.08582 806.780642 732.025662 0.00123444
11.78164 812.39185 807.550302 732.530614 0.00123093
11.79044 816.07996 809.309203 733.037254 0.00122537
11.79924 820.22888 812.354243 733.545322 0.00121917
11.80804 825.13477 816.937665 734.054734 0.00121192
11.81685 831.2793 823.245599 734.565575 0.00120297
11.82565 838.39038 831.3796 735.077587 0.00119276
11.83445 845.90881 841.342792 735.590741 0.00118216
11.84325 855.17767 853.032808 736.104951 0.00116935
11.85206 866.58514 866.212196 736.620187 0.00115395
11.86086 880.45007 880.489495 737.136248 0.00113578
11.86966 894.33215 895.282894 737.653046 0.00111815
11.87846 908.20624 909.81081 738.170672 0.00110107
11.88726 921.99786 923.095007 738.688863 0.0010846
11.89607 933.42163 934.077609 739.207593 0.00107133
11.90487 943.57178 941.832002 739.726776 0.0010598
11.91367 950.56671 945.822598 740.246387 0.001052
11.92247 951.58478 946.088653 740.766165 0.00105088
11.93127 948.99677 943.219831 741.286202 0.00105374
11.94008 944.44482 938.16399 741.806417 0.00105882
11.94888 937.54974 931.991327 742.326548 0.00106661
11.95768 929.73523 925.750402 742.846751 0.00107558
11.96648 924.68915 920.412361 743.366767 0.00108144
11.97528 921.46979 916.846845 743.886635 0.00108522
11.98409 921.75275 915.794428 744.406098 0.00108489
11.99289 924.69501 917.826277 744.925254 0.00108144
12.00169 928.92273 923.319711 745.444026 0.00107652
12.01049 937.87592 932.413739 745.962162 0.00106624
12.01929 948.16101 945.017441 746.479821 0.00105467
12.02810 962.13831 960.776441 746.996752 0.00103935
12.03690 978.92145 979.051745 747.512941 0.00102153
12.04570 998.83594 998.897736 748.028317 0.00100117
12.05450 1017.7213 1019.005876 748.542809 0.00098259
12.06330 1035.67 1037.741964 749.056347 0.00096556
12.07211 1051.0951 1053.237034 749.568863 0.00095139
12.08091 1061.3049 1063.686848 750.08035 0.00094224
12.08971 1066.7289 1067.766378 750.590624 0.00093745
12.09851 1063.9775 1065.005619 751.099682 0.00093987
12.10732 1055.3525 1055.886402 751.60746 0.00094755
12.11612 1037.5143 1041.595395 752.113898 0.00096384
12.12492 1017.1548 1023.600271 752.618936 0.00098313
12.13372 994.49316 1003.266287 753.122516 0.00100554
12.14252 974.10614 981.701728 753.624641 0.00102658
12.15133 952.40906 959.749728 754.125083 0.00104997
12.16013 932.58118 938.063181 754.624017 0.00107229
12.16893 912.76172 917.197507 755.121223 0.00109558
12.17773 895.40308 897.622518 755.616651 0.00111682
12.18653 878.59406 879.695068 756.110422 0.00113818
12.19534 864.19879 863.650528 756.602321 0.00115714
12.20414 850.05243 849.587741 757.092416 0.0011764
12.21294 838.06329 837.490507 757.580497 0.00119323
12.22174 828.44135 827.251139 758.066745 0.00120709
12.23055 819.90533 818.71104 758.550956 0.00121965
12.23935 813.26587 811.681097 759.033092 0.00122961
12.24815 807.31274 805.959862 759.513283 0.00123868
12.25695 803.10571 801.352819 759.99133 0.00124517
12.26575 797.99481 797.678082 760.467257 0.00125314
12.27456 794.17108 794.770057 760.941034 0.00125917
12.28336 791.36749 792.48589 761.412685 0.00126364
12.29216 789.62213 790.704911 761.882024 0.00126643
12.30096 787.00006 789.329487 762.349187 0.00127065
12.30977 785.24744 788.286095 762.814151 0.00127348
12.31857 784.26843 787.521928 763.276789 0.00127507
12.32737 783.59607 787.001037 763.737134 0.00127617
12.33617 782.80542 786.698637 764.195169 0.00127746
12.34497 781.87744 786.596836 764.650932 0.00127897
12.35378 780.9541 786.680087 765.104252 0.00128048
12.36258 781.2207 786.932667 765.555272 0.00128005
12.37138 780.90912 787.336187 766.003983 0.00128056
12.38018 781.13519 787.867418 766.450223 0.00128019
12.38898 781.66235 788.496792 766.894187 0.00127932
12.39779 782.31805 789.185697 767.335719 0.00127825
12.40659 781.59473 789.885699 767.774867 0.00127944
12.41539 780.70001 790.538734 768.211629 0.0012809
12.42419 780.67688 791.081981 768.646003 0.00128094
12.43299 781.54883 791.457567 769.077993 0.00127951
12.44180 782.68073 791.626584 769.507601 0.00127766
12.45060 783.2016 791.580615 769.934881 0.00127681
12.45940 783.2005 791.343863 770.359741 0.00127681
12.46820 782.65979 790.96519 770.782237 0.00127769
12.47701 782.68195 790.504265 771.20238 0.00127766
12.48581 782.11072 790.018879 771.620179 0.00127859
12.49461 781.46729 789.559012 772.035648 0.00127964
12.50341 780.86206 789.163338 772.448799 0.00128064
12.51221 780.40576 788.860822 772.859693 0.00128138
12.52102 780.24976 788.670859 773.268208 0.00128164
12.52982 780.85211 788.605126 773.674546 0.00128065
12.53862 781.80194 788.668727 774.078587 0.0012791
12.54742 782.41638 788.860412 774.480352 0.00127809
12.55622 782.84381 789.174522 774.879998 0.00127739
12.56503 783.30133 789.600551 775.277411 0.00127665
12.57383 784.13287 790.125193 775.672705 0.00127529
12.58263 786.21863 790.731735 776.065769 0.00127191
12.59143 787.93188 791.402936 776.456808 0.00126915
12.60023 789.35138 792.122224 776.845714 0.00126686
12.60904 790.85626 792.878695 777.232515 0.00126445
12.61784 792.49646 793.672601 777.617371 0.00126184
12.62664 793.64355 794.51829 778.000178 0.00126001
12.63544 795.50293 795.446184 778.381012 0.00125707
12.64424 797.40887 796.497259 778.759901 0.00125406
12.65305 798.98724 797.717519 779.136921 0.00125158
12.66185 799.83325 799.149118 779.511974 0.00125026
12.67065 801.38867 800.827169 779.885222 0.00124783
12.67945 803.09253 802.774918 780.256696 0.00124519
12.68826 805.10388 804.999191 780.626346 0.00124208
12.69706 807.37921 807.490958 780.994248 0.00123858
12.70586 809.5802 810.218853 781.360437 0.00123521
12.71466 811.70789 813.129044 781.724989 0.00123197
12.72346 813.95398 816.136315 782.087815 0.00122857
12.73227 816.88318 819.125718 782.449075 0.00122417
12.74107 819.31744 821.949358 782.808803 0.00122053
12.74987 821.61523 824.432715 783.166914 0.00121711
12.75867 823.41113 826.402505 783.523607 0.00121446
12.76747 824.35449 827.715702 783.878795 0.00121307
12.77628 825.1839 828.301716 784.232556 0.00121185
12.78508 825.61084 828.178876 784.584926 0.00121122
12.79388 824.90924 827.445152 784.935941 0.00121225
12.80268 824.24988 826.241592 785.285679 0.00121322
12.81148 823.5238 824.716618 785.634055 0.00121429
12.82029 822.4502 822.993652 785.981264 0.00121588
12.82909 820.51093 821.16676 786.327224 0.00121875
12.83789 818.86676 819.298938 786.67201 0.0012212
12.84669 817.80005 817.436451 787.015657 0.00122279
12.85550 816.13611 815.619243 787.358201 0.00122529
12.86430 813.95209 813.886657 787.699676 0.00122857
12.87310 811.87036 812.27946 788.040117 0.00123172
12.88190 810.04779 810.832792 788.379596 0.0012345
12.89070 809.74451 809.574709 788.718032 0.00123496
12.89951 809.6051 808.520732 789.055611 0.00123517
12.90831 808.78882 807.677538 789.392251 0.00123642
12.91711 807.91925 807.043897 789.728022 0.00123775
12.92591 807.25562 806.614033 790.062956 0.00123876
12.93472 807.19733 806.38075 790.397084 0.00123885
12.94352 807.599 806.336846 790.730473 0.00123824
12.95232 807.92328 806.477697 791.06304 0.00123774
12.96112 808.06909 806.802014 791.394965 0.00123752
12.96992 808.08783 807.312916 791.726163 0.00123749
12.97873 810.00549 808.018785 792.056662 0.00123456
12.98753 812.37585 808.933773 792.3866 0.00123096
12.99633 813.79181 810.076935 792.71589 0.00122882
13.00513 815.58002 811.472791 793.044597 0.00122612
13.01393 817.72845 813.149376 793.372743 0.0012229
13.02274 819.59076 815.137736 793.700388 0.00122012
13.03154 821.01282 817.467756 794.027482 0.00121801
13.04034 823.8017 820.168159 794.354046 0.00121388
13.04914 826.40674 823.263264 794.680212 0.00121006
13.05795 829.26587 826.767122 795.005887 0.00120589
13.06675 832.48303 830.685248 795.331128 0.00120123
13.07555 836.58002 835.007459 795.655953 0.00119534
13.08435 840.13379 839.707991 795.980415 0.00119029
13.09315 844.59009 844.735601 796.30442 0.00118401
13.10196 849.59308 850.016217 796.628092 0.00117703
13.11076 854.9762 855.444656 796.951446 0.00116962
13.11956 860.68457 860.882818 797.274385 0.00116187
13.12836 866.0882 866.180058 797.597066 0.00115462
13.13716 870.99628 871.18822 797.919391 0.00114811
13.14597 875.19904 875.810171 798.241443 0.0011426
13.15477 879.78082 880.03062 798.563121 0.00113665
13.16357 883.88263 883.937537 798.884543 0.00113137
13.17237 887.18719 887.695868 799.205714 0.00112716
13.18117 890.19708 891.508002 799.526532 0.00112335
13.18998 893.9411 895.56101 799.847147 0.00111864
13.19878 898.02222 899.988631 800.167453 0.00111356
13.20758 902.90826 904.846757 800.48749 0.00110753
13.21638 909.31604 910.105563 800.80726 0.00109973
13.22518 915.33429 915.65768 801.126763 0.0010925
13.23399 922.14459 921.330615 801.445999 0.00108443
13.24279 928.55328 926.933863 801.764968 0.00107694
13.25159 936.08136 932.299576 802.083703 0.00106828
13.26039 943.38898 937.331072 802.402129 0.00106001
13.26920 950.85632 942.021511 802.720278 0.00105168
13.27800 956.15332 946.445787 803.038147 0.00104586
13.28680 961.09143 950.721775 803.355728 0.00104048
13.29560 966.7851 954.956472 803.673016 0.00103436
13.30440 971.40985 959.20219 803.990004 0.00102943
13.31321 977.72168 963.429025 804.306718 0.00102279
13.32201 982.48383 967.543898 804.623044 0.00101783
13.33081 988.37921 971.438337 804.939114 0.00101176
13.33961 990.2652 975.061061 805.254811 0.00100983
13.34841 993.11652 978.469357 805.570123 0.00100693
13.35722 993.33624 981.839592 805.885147 0.00100671
13.36602 994.94843 985.413376 806.199762 0.00100508
13.37482 995.04578 989.414899 806.514027 0.00100498
13.38362 997.18671 993.97442 806.82782 0.00100282
13.39243 997.91547 999.07162 807.141271 0.00100209
13.40123 999.74628 1004.510251 807.454258 0.00100025
13.41003 1002.1129 1009.910441 807.766765 0.00099789
13.41883 1005.6646 1014.749759 808.078883 0.00099437
13.42763 1009.1345 1018.428321 808.39049 0.00099095
13.43644 1011.0255 1020.386631 808.701603 0.00098909
13.44524 1012.5286 1020.236696 809.012207 0.00098763
13.45404 1011.5042 1017.845393 809.322318 0.00098863
13.46284 1009.6597 1013.34322 809.631814 0.00099043
13.47164 1005.9647 1007.039968 809.940781 0.00099407
13.48045 1001.2781 999.322252 810.249202 0.00099872
13.48925 993.68121 990.571384 810.556952 0.00100636
13.49805 986.76501 981.126663 810.864153 0.00101341
13.50685 977.18524 971.292128 811.170681 0.00102335
13.51566 967.0459 961.335155 811.476587 0.00103408
13.52446 956.99841 951.476778 811.781748 0.00104493
13.53326 946.05389 941.86838 812.086248 0.00105702
13.54206 934.88641 932.589599 812.390068 0.00106965
13.55086 923.94391 923.653977 812.693086 0.00108232
13.55967 914.62421 915.035235 812.995421 0.00109335
13.56847 906.07098 906.714489 813.296949 0.00110367
13.57727 898.43311 898.699623 813.597687 0.00111305
13.58607 889.59991 891.035362 813.897617 0.0011241
13.59487 881.42755 883.788975 814.196719 0.00113452
13.60368 873.54083 877.031455 814.494976 0.00114477
13.61248 867.47516 870.816863 814.792369 0.00115277
13.62128 861.4339 865.177817 815.088915 0.00116086
13.63008 855.5473 860.127341 815.38453 0.00116884
13.63889 850.30157 855.656884 815.679229 0.00117605
13.64769 846.10773 851.746967 815.972998 0.00118188
13.65649 843.13721 848.367567 816.265819 0.00118605
13.66529 840.09888 845.484215 816.557677 0.00119034
13.67409 836.87793 843.057422 816.848558 0.00119492
13.68290 834.18213 841.046517 817.13848 0.00119878
13.69170 833.05273 839.411642 817.42733 0.0012004
13.70050 832.48712 838.111919 817.715226 0.00120122
13.70930 831.11542 837.111246 818.002059 0.0012032
13.71810 830.94659 836.376012 818.287815 0.00120345
13.72691 830.75439 835.87737 818.572582 0.00120373
13.73571 830.79218 835.592137 818.856252 0.00120367
13.74451 830.4361 835.501809 819.138879 0.00120419
13.75331 830.2807 835.593641 819.420358 0.00120441
13.76211 830.81873 835.859318 819.70081 0.00120363
13.77092 832.28595 836.294587 819.980132 0.00120151
13.77972 833.50702 836.898651 820.258316 0.00119975
13.78852 834.27521 837.673341 820.535453 0.00119865
13.79732 835.60345 838.622174 820.811444 0.00119674
13.80612 837.38654 839.749503 821.086316 0.00119419
13.81493 838.12238 841.058876 821.360066 0.00119314
13.82373 838.65875 842.5517 821.632724 0.00119238
13.83253 839.43524 844.222249 821.904197 0.00119128
13.84133 840.36261 846.058733 822.174577 0.00118996
13.85014 841.52985 848.03713 822.443865 0.00118831
13.85894 842.47675 850.120795 822.712002 0.00118698
13.86774 843.52234 852.258065 822.979023 0.00118551
13.87654 844.96399 854.380243 823.244932 0.00118348
13.88534 846.41437 856.402932 823.509764 0.00118145
13.89415 847.30811 858.226386 823.773436 0.00118021
13.90295 848.33838 859.749429 824.036046 0.00117877
13.91175 849.50726 860.881619 824.297601 0.00117715
13.92055 850.35638 861.564267 824.558023 0.00117598
13.92935 851.17371 861.786051 824.817442 0.00117485
13.93816 851.17108 861.585165 825.07578 0.00117485
13.94696 850.45349 861.038837 825.33308 0.00117584
13.95576 849.47394 860.244313 825.589357 0.0011772
13.96456 848.39917 859.297937 825.844626 0.00117869
13.97337 846.9939 858.283283 826.098932 0.00118065
13.98217 846.25574 857.261916 826.352206 0.00118168
13.99097 845.31171 856.272245 826.604583 0.001183
13.99977 843.89221 855.331075 826.855996 0.00118499
14.00857 843.40594 854.434756 827.106494 0.00118567
14.01738 843.75031 853.566485 827.356099 0.00118518
14.02618 844.112 852.701518 827.604835 0.00118468
14.03498 843.97339 851.817245 827.852726 0.00118487
14.04378 843.42279 850.899286 828.099796 0.00118564
14.05259 843.49213 849.944937 828.3461 0.00118555
14.06139 843.35168 848.964679 828.591581 0.00118574
14.07019 843.16876 847.976299 828.836379 0.001186
14.07899 843.92865 847.0031 829.08044 0.00118493
14.08779 845.90814 846.068232 829.323822 0.00118216
14.09660 849.75531 845.192557 829.566555 0.00117681
14.10540 854.42755 844.393539 829.808672 0.00117037
14.11420 859.50775 843.683909 830.050234 0.00116346
14.12300 862.72327 843.073062 830.291191 0.00115912
14.13180 862.62811 842.56598 830.531689 0.00115925
14.14061 858.60034 842.164787 830.77168 0.00116469
14.14941 851.52075 841.868624 831.011201 0.00117437
14.15821 845.65503 841.673814 831.250371 0.00118252
14.16701 842.30579 841.574794 831.489146 0.00118722
14.17581 840.16779 841.563822 831.727592 0.00119024
14.18462 838.67584 841.631711 831.965749 0.00119236
14.19342 838.31085 841.76798 832.203683 0.00119287
14.20222 839.34674 841.961077 832.441381 0.0011914
14.21102 839.42487 842.198769 832.678885 0.00119129
14.21983 839.71478 842.468519 832.916316 0.00119088
14.22863 839.93719 842.75782 833.153637 0.00119057
14.23743 841.56036 843.0554 833.390917 0.00118827
14.24623 841.36853 843.352392 833.6282 0.00118854
14.25503 841.47955 843.643851 833.865529 0.00118838
14.26384 840.92548 843.929618 834.102949 0.00118917
14.27264 840.99432 844.214734 834.340504 0.00118907
14.28144 840.55811 844.508589 834.578266 0.00118969
14.29024 841.20111 844.824027 834.816199 0.00118878
14.29904 841.42255 845.176609 835.054457 0.00118846
14.30785 842.67871 845.583591 835.293003 0.00118669
14.31665 844.0882 846.064637 835.531911 0.00118471
14.32545 844.82684 846.64129 835.771226 0.00118367
14.33425 845.27441 847.337974 836.010995 0.00118305
14.34305 846.00665 848.181523 836.25129 0.00118202
14.35186 847.02734 849.201352 836.492076 0.0011806
14.36066 848.36237 850.429692 836.733508 0.00117874
14.36946 849.56763 851.899039 836.975549 0.00117707
14.37826 851.52466 853.643217 837.218273 0.00117436
14.38706 853.91528 855.693451 837.461725 0.00117108
14.39587 856.42896 858.078187 837.705951 0.00116764
14.40467 858.46368 860.818764 837.950995 0.00116487
14.41347 860.8197 863.92727 838.196903 0.00116168
14.42227 863.14954 867.405479 838.443746 0.00115855
14.43108 866.0014 871.237088 838.691513 0.00115473
14.43988 868.72168 875.391234 838.940275 0.00115112
14.44868 872.71478 879.813853 839.190075 0.00114585
14.45748 877.57709 884.42944 839.440957 0.0011395
14.46628 882.5592 889.134118 839.692962 0.00113307
14.47509 887.47833 893.794647 839.946132 0.00112679
14.48389 892.33673 898.24986 840.200537 0.00112065
14.49269 896.0733 902.307023 840.45613 0.00111598
14.50149 899.77808 905.764027 840.713066 0.00111139
14.51029 902.51599 908.420379 840.971297 0.00110801
14.51910 905.23474 910.118458 841.230862 0.00110469
14.52790 907.63446 910.772972 841.491885 0.00110177
14.53670 909.10583 910.393573 841.754315 0.00109998
14.54550 908.32385 909.084904 842.018216 0.00110093
14.55430 907.00128 907.024868 842.283623 0.00110253
14.56311 905.40283 904.429683 842.55057 0.00110448
14.57191 902.77692 901.524881 842.81912 0.00110769
14.58071 900.99353 898.522899 843.089213 0.00110989
14.58951 899.50024 895.610815 843.361002 0.00111173
14.59832 896.96191 892.951818 843.634424 0.00111487
14.60712 893.69757 890.678655 843.909539 0.00111895
14.61592 891.15179 888.900349 844.186373 0.00112214
14.62472 890.30658 887.699318 844.464954 0.00112321
14.63352 889.70325 887.134306 844.745305 0.00112397
14.64233 889.125 887.240162 845.027451 0.0011247
14.65113 889.84857 888.027013 845.311446 0.00112379
14.65993 890.37103 889.482089 845.597214 0.00112313
14.66873 891.09882 891.569597 845.884905 0.00112221
14.67754 893.53931 894.228874 846.174441 0.00111914
14.68634 895.96936 897.378086 846.465871 0.00111611
14.69514 898.19611 900.912872 846.75921 0.00111334
14.70394 901.33191 904.711088 847.054474 0.00110947
14.71274 905.65753 908.639625 847.351709 0.00110417
14.72155 909.71606 912.557446 847.650827 0.00109924
14.73035 914.24078 916.330594 847.951972 0.0010938
14.73915 918.97998 919.825827 848.255052 0.00108816
14.74795 923.07745 922.919335 848.560109 0.00108333
14.75675 926.87665 925.492125 848.867149 0.00107889
14.76556 930.51575 927.436613 849.176176 0.00107467
14.77436 933.47968 928.672858 849.487194 0.00107126
14.78316 934.39917 929.168877 849.800204 0.00107021
14.79196 934.20831 928.959626 850.115243 0.00107043
14.80077 933.61597 928.15579 850.432239 0.0010711
14.80957 932.31079 926.92935 850.751188 0.0010726
14.81837 930.25604 925.490605 851.072195 0.00107497
14.82717 928.34259 924.060946 851.395146 0.00107719
14.83597 927.46759 922.844282 851.72007 0.0010782
14.84478 925.98553 922.01787 852.046959 0.00107993
14.85358 924.67926 921.716852 852.375841 0.00108146
14.86238 925.18323 922.038945 852.706593 0.00108087
14.87118 925.49139 923.037661 853.039313 0.00108051
14.87998 926.48859 924.723323 853.37399 0.00107934
14.88879 928.25604 927.066815 853.710492 0.00107729
14.89759 930.3996 929.995087 854.048958 0.00107481
14.90639 932.83124 933.396183 854.389253 0.00107201
14.91519 935.79388 937.115838 854.731435 0.00106861
14.92399 939.46735 940.965188 855.075367 0.00106443
14.93280 943.44812 944.72657 855.421145 0.00105994
14.94160 947.43634 948.16494 855.768744 0.00105548
14.95040 952.55884 951.052615 856.118022 0.0010498
14.95920 957.73627 953.199202 856.469113 0.00104413
14.96800 961.65942 954.484452 856.821869 0.00103987
14.97681 963.53821 954.883631 857.176302 0.00103784
14.98561 964.71863 954.476319 857.532384 0.00103657
14.99441 965.2785 953.427473 857.890084 0.00103597
15.00321 965.70306 951.957931 858.24937 0.00103551
15.01201 966.49304 950.306681 858.61021 0.00103467
15.02082 964.48859 948.701984 858.972611 0.00103682
15.02962 960.00293 947.341387 859.336458 0.00104166
15.03842 956.17303 946.380438 859.701754 0.00104584
15.04722 953.94794 945.931202 860.068465 0.00104828
15.05603 953.35345 946.054825 860.436552 0.00104893
15.06483 954.31714 946.768464 860.805978 0.00104787
15.07363 955.24133 948.046435 861.176704 0.00104686
15.08243 956.12756 949.827789 861.548731 0.00104589
15.09123 957.97296 952.027177 861.921894 0.00104387
15.10004 960.01471 954.547469 862.296319 0.00104165
15.10884 961.50055 957.28793 862.671839 0.00104004
15.11764 963.51782 960.142938 863.04841 0.00103786
15.12644 965.39679 963.000351 863.426118 0.00103584
15.13524 966.47784 965.727186 863.80479 0.00103468
15.14405 965.97662 968.163079 864.18447 0.00103522
15.15285 965.63855 970.118819 864.564982 0.00103558
15.16165 965.13623 971.388874 864.946456 0.00103612
15.17045 964.03632 971.774647 865.328715 0.00103731
15.17925 961.95807 971.119756 865.711716 0.00103955
15.18806 961.16473 969.344124 866.095541 0.0010404
15.19686 960.02704 966.464911 866.480016 0.00104164
15.20566 957.48651 962.595885 866.865136 0.0010444
15.21446 954.93048 957.922282 867.250858 0.0010472
15.22327 951.28644 952.670473 867.637177 0.00105121
15.23207 946.45953 947.07412 868.023916 0.00105657
15.24087 942.41943 941.348422 868.41116 0.0010611
15.24967 939.28271 935.682256 868.798864 0.00106464
15.25848 935.59033 930.230827 869.186894 0.00106884
15.26728 931.21667 925.117588 869.575246 0.00107386
15.27608 927.43268 920.434793 869.963877 0.00107825
15.28488 924.12207 916.249637 870.352784 0.00108211
15.29368 921.37299 912.605076 870.741791 0.00108534
15.30249 918.72711 909.522284 871.130984 0.00108846
15.31129 916.58307 907.005839 871.520319 0.00109101
15.32009 915.46552 905.045062 871.909621 0.00109234
15.32889 914.44971 903.616915 872.299021 0.00109355
15.33769 914.32233 902.6895 872.688345 0.00109371
15.34650 913.43335 902.225021 873.077595 0.00109477
15.35530 913.30481 902.180547 873.466728 0.00109492
15.36410 912.87878 902.510013 873.855703 0.00109544
15.37290 913.091 903.165349 874.244525 0.00109518
15.38170 913.32642 904.096395 874.633021 0.0010949
15.39051 914.43781 905.252228 875.021328 0.00109357
15.39931 915.10297 906.579196 875.409276 0.00109277
15.40811 916.28796 908.024755 875.796872 0.00109136
15.41691 917.41803 909.536831 876.184078 0.00109002
15.42572 919.17944 911.069399 876.570861 0.00108793
15.43452 920.53796 912.586448 876.957184 0.00108632
15.44332 921.5777 914.067358 877.343014 0.0010851
15.45212 922.08319 915.511064 877.728362 0.0010845
15.46092 922.66125 916.932752 878.113066 0.00108382
15.46973 923.78943 918.363327 878.497269 0.0010825
15.47853 923.56146 919.838649 878.88081 0.00108276
15.48733 923.75806 921.396398 879.263706 0.00108253
15.49613 923.9989 923.068834 879.645928 0.00108225
15.50493 924.83649 924.880089 880.027451 0.00108127
15.51374 925.15973 926.845748 880.408292 0.00108089
15.52254 926.12006 928.970097 880.788298 0.00107977
15.53134 926.99707 931.253211 881.167619 0.00107875
15.54014 928.57532 933.68923 881.546104 0.00107692
15.54894 930.08203 936.278672 881.923734 0.00107517
15.55775 932.72357 939.03305 882.300618 0.00107213
15.56655 935.45728 941.979264 882.676609 0.001069
15.57535 937.99078 945.164547 883.051735 0.00106611
15.58415 940.44836 948.646985 883.425979 0.00106332
15.59296 943.7326 952.489368 883.799371 0.00105962
15.60176 946.72443 956.741237 884.171771 0.00105627
15.61056 950.61298 961.434545 884.543295 0.00105195
15.61936 954.94476 966.571667 884.913932 0.00104718
15.62816 959.59393 972.115883 885.28359 0.00104211
15.63697 964.97992 977.995077 885.652303 0.00103629
15.64577 970.95502 984.091148 886.020065 0.00102991
15.65457 977.29797 990.24548 886.386914 0.00102323
15.66337 984.06757 996.24954 886.75272 0.00101619
15.67217 992.50385 1001.862374 887.117606 0.00100755
15.68098 1001.3875 1006.816576 887.481572 0.00099861
15.68978 1008.5728 1010.84138 887.844493 0.0009915
15.69858 1013.7836 1013.703567 888.206535 0.0009864
15.70738 1018.5271 1015.233102 888.567579 0.00098181
15.71618 1020.1711 1015.355805 888.927668 0.00098023
15.72499 1020.2632 1014.095471 889.286809 0.00098014
15.73379 1017.0211 1011.561203 889.645007 0.00098326
15.74259 1011.9246 1007.912911 890.002311 0.00098822
15.75139 1003.4552 1003.339087 890.358606 0.00099656
15.76020 996.56964 998.020331 890.714066 0.00100344
15.76900 989.44897 992.134911 891.068578 0.00101066
15.77780 981.9975 985.843546 891.422196 0.00101833
15.78660 972.68207 979.302062 891.774932 0.00102809
15.79540 964.89819 972.66001 892.126799 0.00103638
15.80421 957.11188 966.056361 892.477813 0.00104481
15.81301 950.48578 959.620955 892.827988 0.00105209
15.82181 944.52271 953.460804 893.177382 0.00105874
15.83061 939.23468 947.667197 893.525892 0.0010647
15.83942 934.15942 942.300836 893.873694 0.00107048
15.84822 929.91974 937.404227 894.220689 0.00107536
15.85702 926.61407 932.997318 894.566936 0.0010792
15.86582 923.79205 929.082124 894.912455 0.00108249
15.87462 921.5603 925.648159 895.257267 0.00108512
15.88343 918.75421 922.671824 895.601432 0.00108843
15.89223 916.21149 920.125217 895.944856 0.00109145
15.90103 914.6239 917.971971 896.287716 0.00109335
15.90983 914.25665 916.175662 896.629919 0.00109378
15.91863 913.34979 914.698039 896.971489 0.00109487
15.92744 913.44122 913.500966 897.312564 0.00109476
15.93624 914.14777 912.549691 897.653054 0.00109392
15.94504 915.44531 911.810604 897.993021 0.00109236
15.95384 917.39716 911.254031 898.33249 0.00109004
15.96265 920.30933 910.853319 898.671523 0.00108659
15.97145 924.52332 910.585627 899.010069 0.00108164
15.98025 931.42938 910.431429 899.348152 0.00107362
15.98905 940.68939 910.374556 899.685913 0.00106305
15.99785 952.44043 910.401191 900.02326 0.00104993
16.00665 960.82996 910.503488 900.360258 0.00104077
16.01546 961.77802 910.673234 900.69693 0.00103974
16.02426 954.12048 910.905728 901.03334 0.00104809
16.03306 942.91077 911.198424 901.369434 0.00106055
16.04186 933.53534 911.550843 901.705275 0.0010712
16.05066 927.14484 911.964193 902.040848 0.00107858
16.05947 922.5155 912.44136 902.376252 0.00108399
16.06827 920.32806 912.986537 902.71151 0.00108657
16.07707 919.8197 913.604827 903.046567 0.00108717
16.08588 919.71466 914.302593 903.381521 0.00108729
16.09468 919.70068 915.086499 903.716317 0.00108731
16.10348 919.20996 915.96371 904.050937 0.00108789
16.11228 920.25745 916.942223 904.38559 0.00108665
16.12108 921.93573 918.028916 904.720143 0.00108467
16.12989 923.49756 919.230892 905.05469 0.00108284
16.13869 924.48627 920.553875 905.389171 0.00108168
16.14749 926.27094 922.002849 905.723679 0.0010796
16.15629 928.24182 923.580435 906.058152 0.00107731
16.16509 929.61969 925.287016 906.392567 0.00107571
16.17390 930.6076 927.12151 906.727127 0.00107457
16.18270 932.37219 929.077966 907.061691 0.00107253
16.19150 935.3233 931.148486 907.396347 0.00106915
16.20030 938.78851 933.321626 907.731028 0.0010652
16.20911 941.32831 935.584802 908.065818 0.00106233
16.21790 942.93024 937.923285 908.400572 0.00106052
16.22671 944.38104 940.32489 908.735486 0.00105889
16.23551 946.52222 942.77669 909.070528 0.0010565
16.24431 948.05359 945.266458 909.405623 0.00105479
16.25312 950.40417 947.782768 909.74085 0.00105218
16.26192 952.86932 950.312381 910.076133 0.00104946
16.27072 955.61157 952.840904 910.411546 0.00104645
16.27952 957.3324 955.350247 910.746936 0.00104457
16.28832 959.21704 957.822769 911.082489 0.00104252
16.29713 961.8924 960.238216 911.41816 0.00103962
16.30593 963.7616 962.577766 911.753866 0.0010376
16.31473 965.34009 964.826643 912.089676 0.0010359
16.32353 966.46564 966.974649 912.425502 0.0010347
16.33233 968.3764 969.017058 912.761332 0.00103266
16.34114 969.2312 970.954987 913.097231 0.00103175
16.34994 970.55902 972.790574 913.433143 0.00103033
16.35874 970.85828 974.525245 913.769091 0.00103002
16.36754 971.84662 976.155587 914.10498 0.00102897
16.37635 971.54041 977.669532 914.440866 0.00102929
16.38515 972.32727 979.044553 914.776652 0.00102846
16.39395 972.54382 980.246925 915.112315 0.00102823
16.40275 973.41278 981.236266 915.447905 0.00102731
16.41155 973.75159 981.969017 915.783358 0.00102696
16.42036 975.6579 982.407739 916.118685 0.00102495
16.42916 976.32648 982.530211 916.453779 0.00102425
16.43796 977.12061 982.337997 916.788684 0.00102342
16.44676 976.32025 981.861832 917.123217 0.00102425
16.45556 976.58685 981.161648 917.457571 0.00102397
16.46437 975.78143 980.32232 917.791558 0.00102482
16.47317 975.69812 979.44352 918.125178 0.00102491
16.48197 974.89331 978.630747 918.45843 0.00102575
16.49077 974.97205 977.982734 918.791197 0.00102567
16.49958 974.21417 977.590644 919.123515 0.00102647
16.50838 974.5036 977.525771 919.455187 0.00102616
16.51718 974.60242 977.842768 919.786396 0.00102606
16.52598 975.00873 978.576358 920.116946 0.00102563
16.53478 976.34119 979.739702 920.446825 0.00102423
16.54359 978.2265 981.326567 920.776023 0.00102226
16.55239 980.48138 983.304843 921.104416 0.00101991
16.56119 982.57043 985.623421 921.431951 0.00101774
16.56999 986.30182 988.206355 921.758652 0.00101389
16.57879 989.31061 990.955411 922.084465 0.0010108
16.58760 991.98029 993.750799 922.409261 0.00100808
16.59640 993.87378 996.453571 922.733023 0.00100616
16.60520 996.96436 998.913631 923.055729 0.00100304
16.61400 999.672 1000.974452 923.377251 0.00100033
16.62280 1002.9215 1002.493086 923.697529 0.00099709
16.63161 1004.0719 1003.352895 924.016579 0.00099594
16.64041 1004.3267 1003.480848 924.334339 0.00099569
16.64921 1004.6524 1002.857696 924.650679 0.00099537
16.65801 1004.7672 1001.519635 924.965572 0.00099526
16.66681 1002.1712 999.54841 925.278994 0.00099783
16.67562 998.18494 997.059996 925.590741 0.00100182
16.68442 993.8786 994.183329 925.900963 0.00100616
16.69322 988.90179 991.052013 926.209456 0.00101122
16.70202 983.72351 987.792719 926.516228 0.00101655
16.71082 979.4765 984.520494 926.821146 0.00102095
16.71963 975.2536 981.337879 927.124182 0.00102537
16.72843 970.77985 978.331584 927.425307 0.0010301
16.73723 967.58813 975.578612 927.724323 0.0010335
16.74603 964.50336 973.137973 928.02137 0.0010368
16.75483 962.16028 971.057664 928.31625 0.00103933
16.76364 960.00488 969.370863 928.608968 0.00104166
16.77244 958.74829 968.096806 928.899395 0.00104303
16.78124 957.47858 967.241414 929.187504 0.00104441
16.79004 956.20563 966.79686 929.4732 0.0010458
16.79885 955.76862 966.744614 929.756488 0.00104628
16.80765 955.78564 967.054577 930.037309 0.00104626
16.81645 955.98505 967.686818 930.315538 0.00104604
16.82525 957.32361 968.592447 930.591182 0.00104458
16.83405 958.5329 969.714821 930.864119 0.00104326
16.84286 959.52289 970.991248 931.134326 0.00104218
16.85166 960.99182 972.3553 931.401717 0.00104059
16.86046 962.03766 973.741536 931.666299 0.00103946
16.86926 963.63544 975.088254 931.928017 0.00103774
16.87806 965.54706 976.343143 932.186762 0.00103568
16.88687 966.78625 977.466712 932.44254 0.00103435
16.89567 967.77972 978.432952 932.695246 0.00103329
16.90447 968.35315 979.227831 932.944805 0.00103268
16.91327 969.34082 979.84597 933.191313 0.00103163
16.92207 970.70477 980.284548 933.434613 0.00103018
16.93088 971.25977 980.540946 933.674717 0.00102959
16.93968 970.71887 980.609994 933.911531 0.00103016
16.94848 970.95801 980.485471 934.145069 0.00102991
16.95728 971.81958 980.162077 934.375243 0.001029
16.96608 972.13605 979.640544 934.601993 0.00102866
16.97489 971.64539 978.930233 934.825414 0.00102918
16.98369 971.06848 978.052274 935.045374 0.00102979
16.99249 971.27698 977.039629 935.261893 0.00102957
17.00129 972.32391 975.934062 935.474898 0.00102846
17.01010 972.8374 974.784075 935.684411 0.00102792
17.01890 971.87469 973.641014 935.890319 0.00102894
17.02770 971.33783 972.556164 936.092718 0.00102951
17.03650 971.39777 971.581318 936.291569 0.00102944
17.04530 971.35864 970.765705 936.486811 0.00102949
17.05411 970.96765 970.15714 936.678476 0.0010299
17.06291 971.10059 969.799733 936.866514 0.00102976
17.07171 970.83344 969.735146 937.050938 0.00103004
17.08051 971.02966 970.00011 937.231724 0.00102983
17.08931 971.40271 970.627029 937.408913 0.00102944
17.09812 973.18127 971.643841 937.582505 0.00102756
17.10692 974.96661 973.071156 937.752464 0.00102568
17.11572 977.68719 974.925185 937.918835 0.00102282
17.12452 979.63196 977.213086 938.081592 0.00102079
17.13333 981.9187 979.936187 938.240746 0.00101841
17.14213 985.09167 983.08733 938.39635 0.00101513
17.15093 988.79364 986.649962 938.548403 0.00101133
17.15973 992.49701 990.599606 938.696943 0.00100756
17.16853 996.83997 994.898752 938.841959 0.00100317
17.17734 1001.5267 999.502447 938.983511 0.00099848
17.18614 1005.7853 1004.350623 939.121595 0.00099425
17.19494 1011.1558 1009.374162 939.256245 0.00098897
17.20374 1016.8882 1014.493286 939.387526 0.00098339
17.21254 1021.8505 1019.619088 939.51546 0.00097862
17.22135 1027.7087 1024.660928 939.640101 0.00097304
17.23015 1033.051 1029.530182 939.761463 0.00096801
17.23895 1037.7021 1034.153467 939.87962 0.00096367
17.24775 1041.6185 1038.474592 939.994567 0.00096004
17.25656 1044.9381 1042.467893 940.106434 0.00095699
17.26536 1047.8279 1046.126456 940.215222 0.00095436
17.27416 1051.1273 1049.466033 940.320999 0.00095136
17.28296 1053.9156 1052.512673 940.423836 0.00094884
17.29177 1055.697 1055.295349 940.523771 0.00094724
17.30057 1056.5314 1057.842394 940.620868 0.00094649
17.30937 1057.7267 1060.180494 940.715214 0.00094542
17.31817 1058.8823 1062.337037 940.806876 0.00094439
17.32697 1060.0082 1064.340763 940.895905 0.00094339
17.33578 1062.9658 1066.225187 940.982382 0.00094076
17.34458 1064.3375 1068.024995 941.066393 0.00093955
17.35338 1066.723 1069.770288 941.147993 0.00093745
17.36218 1068.184 1071.479016 941.227264 0.00093617
17.37098 1070.887 1073.15107 941.304303 0.00093381
17.37979 1071.6788 1074.762654 941.379191 0.00093312
17.38859 1075.5354 1076.269209 941.451996 0.00092977
17.39739 1076.5803 1077.604543 941.522812 0.00092887
17.40619 1080.0127 1078.692703 941.591734 0.00092592
17.41499 1079.8765 1079.451237 941.658819 0.00092603
17.42380 1082.9319 1079.808959 941.724204 0.00092342
17.43260 1083.3932 1079.709275 941.78795 0.00092303
17.44140 1084.9595 1079.121696 941.850163 0.00092169
17.45020 1081.6887 1078.047531 941.910923 0.00092448
17.45901 1081.1254 1076.522038 941.970332 0.00092496
17.46781 1077.6838 1074.615093 942.028492 0.00092792
17.47661 1074.9587 1072.432021 942.085473 0.00093027
17.48541 1070.4133 1070.10196 942.141411 0.00093422
17.49421 1068.1421 1067.773674 942.196377 0.00093621
17.50302 1063.4137 1065.602098 942.250482 0.00094037
17.51182 1060.828 1063.733809 942.303812 0.00094266
17.52062 1057.6793 1062.302038 942.356473 0.00094547
17.52942 1057.276 1061.412448 942.408555 0.00094583
17.53822 1056.5139 1061.143417 942.460171 0.00094651
17.54703 1057.4688 1061.54335 942.511418 0.00094565
17.55583 1059.4644 1062.622697 942.562383 0.00094387
17.56463 1062.7615 1064.362869 942.613175 0.00094094
17.57343 1065.7559 1066.705208 942.663881 0.0009383
17.58224 1069.9358 1069.56215 942.714604 0.00093464
17.59104 1074.6765 1072.807802 942.765433 0.00093051
17.59984 1080.2167 1076.288103 942.816476 0.00092574
17.60864 1087.119 1079.82266 942.867827 0.00091986
17.61744 1092.8781 1083.207632 942.919569 0.00091502
17.62625 1098.1672 1086.236476 942.971798 0.00091061
17.63505 1102.3729 1088.707859 943.024613 0.00090713
17.64385 1105.0526 1090.44841 943.078079 0.00090493
17.65265 1106.4463 1091.32851 943.132319 0.00090379
17.66145 1107.1277 1091.273003 943.187398 0.00090324
17.67026 1107.2701 1090.264984 943.24341 0.00090312
17.67906 1104.4882 1088.339531 943.300428 0.0009054
17.68786 1099.181 1085.5681 943.358539 0.00090977
17.69666 1091.8573 1082.043582 943.417827 0.00091587
17.70546 1083.3784 1077.866176 943.478343 0.00092304
17.71427 1075.8263 1073.127229 943.540202 0.00092952
17.72307 1068.9618 1067.915479 943.60345 0.00093549
17.73187 1062.438 1062.306243 943.668169 0.00094123
17.74067 1056.0039 1056.375961 943.734414 0.00094697
17.74948 1049.6816 1050.197461 943.802255 0.00095267
17.75828 1043.098 1043.851315 943.871747 0.00095868
17.76708 1036.1814 1037.420866 943.942965 0.00096508
17.77588 1028.6619 1030.993144 944.015965 0.00097214
17.78468 1022.3265 1024.65807 944.090785 0.00097816
17.79349 1016.243 1018.495233 944.167491 0.00098402
17.80229 1010.2029 1012.579423 944.246113 0.0009899
17.81109 1004.1346 1006.969108 944.326704 0.00099588
17.81989 998.65594 1001.711481 944.409295 0.00100135
17.82869 993.19434 996.838257 944.493943 0.00100685
17.83750 988.46558 992.369137 944.580682 0.00101167
17.84630 984.01349 988.3147 944.669524 0.00101625
17.85510 980.73267 984.673035 944.760515 0.00101965
17.86390 978.1449 981.43717 944.853659 0.00102234
17.87270 975.41589 978.592115 944.948977 0.0010252
17.88151 972.22876 976.117572 945.046505 0.00102856
17.89031 970.46051 973.991037 945.146246 0.00103044
17.89911 969.09949 972.18627 945.248223 0.00103189
17.90791 967.61523 970.676725 945.352417 0.00103347
17.91672 965.89954 969.434091 945.458855 0.0010353
17.92552 965.11304 968.431448 945.56751 0.00103615
17.93432 964.23828 967.642015 945.678379 0.00103709
17.94312 963.34802 967.040165 945.791476 0.00103805
17.95192 962.85413 966.602279 945.906777 0.00103858
17.96073 962.6604 966.305619 946.024281 0.00103879
17.96953 962.88684 966.129361 946.14394 0.00103854
17.97833 963.16772 966.053918 946.265758 0.00103824
17.98713 962.85803 966.061582 946.389654 0.00103857
17.99593 963.66589 966.137006 946.515682 0.0010377
18.00474 964.17395 966.26742 946.64375 0.00103716
18.01354 963.93793 966.430311 946.773837 0.00103741
18.02234 964.38678 966.648153 946.905916 0.00103693
18.03114 965.39398 966.907509 947.039915 0.00103585
18.03995 965.82367 967.213745 947.175816 0.00103539
18.04875 965.79779 967.576414 947.313506 0.00103541
18.05755 966.08191 968.008938 947.453027 0.00103511
18.06635 967.0943 968.526788 947.594258 0.00103403
18.07515 967.75366 969.146056 947.737156 0.00103332
18.08396 968.44946 969.882962 947.881674 0.00103258
18.09276 969.32495 970.751546 948.027715 0.00103165
18.10156 969.59454 971.764082 948.175209 0.00103136
18.11036 969.88647 972.930132 948.32412 0.00103105
18.11916 971.59186 974.255396 948.474375 0.00102924
18.12797 973.09021 975.742195 948.625863 0.00102765
18.13677 973.80109 977.388179 948.778524 0.0010269
18.14557 975.01367 979.187485 948.932294 0.00102563
18.15437 976.086 981.127724 949.087057 0.0010245
18.16317 978.08069 983.192313 949.242728 0.00102241
18.17198 979.80627 985.359259 949.399254 0.00102061
18.18078 982.0097 987.60017 949.55655 0.00101832
18.18958 983.77484 989.88187 949.714489 0.00101649
18.19838 985.69055 992.166936 949.872998 0.00101452
18.20719 987.42944 994.416672 950.032002 0.00101273
18.21599 989.74835 996.591022 950.191335 0.00101036
18.22479 992.3136 998.656293 950.351012 0.00100775
18.23359 994.81244 1000.582997 950.510864 0.00100521
18.24239 996.4953 1002.350335 950.670812 0.00100352
18.25120 997.91083 1003.945978 950.830777 0.00100209
18.26000 999.185 1005.363088 950.990626 0.00100082
18.26880 1000.4117 1006.599205 951.150297 0.00099959
18.27760 1002.4748 1007.651436 951.309619 0.00099753
18.28640 1003.6401 1008.515998 951.468602 0.00099637
18.29521 1004.4 1009.184616 951.627076 0.00099562
18.30401 1005.2985 1009.646337 951.78496 0.00099473
18.31281 1006.2195 1009.8881 951.942176 0.00099382
18.32161 1006.4969 1009.89693 952.098591 0.00099355
18.33041 1006.8276 1009.665135 952.254108 0.00099322
18.33922 1006.6346 1009.189501 952.408668 0.00099341
18.34802 1006.1912 1008.476617 952.562175 0.00099385
18.35682 1005.6941 1007.543367 952.714502 0.00099434
18.36562 1005.1415 1006.417719 952.865574 0.00099488
18.37443 1004.5687 1005.136567 953.015317 0.00099545
18.38323 1003.5162 1003.745182 953.163609 0.0009965
18.39203 1002.8995 1002.292688 953.310362 0.00099711
18.40083 1002.3264 1000.829893 953.455526 0.00099768
18.40963 1001.1854 999.407846 953.599015 0.00099882
18.41844 999.88593 998.075129 953.740715 0.00100011
18.42724 998.99255 996.876927 953.880565 0.00100101
18.43604 997.93469 995.853531 954.018503 0.00100207
18.44484 997.64081 995.04053 954.154393 0.00100236
18.45364 997.8559 994.466215 954.288257 0.00100215
18.46245 996.9184 994.152777 954.419962 0.00100309
18.47125 997.03223 994.104337 954.549475 0.00100298
18.48005 997.38104 994.347425 954.676701 0.00100263
18.48885 998.46509 994.869824 954.801597 0.00100154
18.49766 999.11682 995.661806 954.924118 0.00100088
18.50646 999.80432 996.704205 955.044157 0.0010002
18.51526 1000.961 997.971209 955.161744 0.00099904
18.52406 1002.3134 999.428078 955.276779 0.00099769
18.53286 1003.3961 1001.0282 955.389245 0.00099662
18.54167 1005.7216 1002.730089 955.499075 0.00099431
18.55047 1007.8925 1004.472181 955.606246 0.00099217
18.55927 1010.6465 1006.191468 955.710713 0.00098947
18.56807 1013.5353 1007.820124 955.812472 0.00098665
18.57687 1016.8351 1009.287679 955.911496 0.00098344
18.58568 1019.6144 1010.525337 956.00774 0.00098076
18.59448 1021.7076 1011.470673 956.101208 0.00097875
18.60328 1023.4104 1012.072943 956.191866 0.00097713
18.61208 1025.8203 1012.298429 956.279714 0.00097483
18.62088 1026.7791 1012.133928 956.364735 0.00097392
18.62969 1026.9304 1011.587588 956.446946 0.00097378
18.63849 1025.8091 1010.687494 956.526348 0.00097484
18.64729 1024.5232 1009.47724 956.602927 0.00097606
18.65609 1021.5236 1008.010859 956.676709 0.00097893
18.66490 1017.9838 1006.347189 956.74769 0.00098233
18.67370 1014.1479 1004.546077 956.815886 0.00098605
18.68250 1010.3837 1002.664366 956.881334 0.00098972
18.69130 1006.1272 1000.754141 956.944047 0.00099391
18.70010 1002.764 998.86308 957.00406 0.00099724
18.70891 999.9917 997.032608 957.061389 0.00100001
18.71771 998.07233 995.298734 957.116081 0.00100193
18.72651 995.74292 993.691424 957.16816 0.00100428
18.73531 994.06458 992.235399 957.217667 0.00100597
18.74411 992.23969 990.949359 957.264656 0.00100782
18.75292 991.35992 989.846212 957.309168 0.00100872
18.76172 990.86292 988.934311 957.351256 0.00100922
18.77052 990.89728 988.216564 957.390963 0.00100919
18.77932 990.99188 987.692154 957.428351 0.00100909
18.78812 991.66516 987.35655 957.463463 0.0010084
18.79693 992.1853 987.203285 957.496377 0.00100788
18.80573 992.83429 987.217779 957.52715 0.00100722
18.81453 992.78931 987.409005 957.555838 0.00100726
18.82333 992.94415 987.765737 957.582515 0.00100711
18.83214 993.5611 988.286904 957.60724 0.00100648
18.84094 994.52832 988.976347 957.630089 0.0010055
18.84974 995.46838 989.840238 957.651123 0.00100455
18.85854 996.97949 990.889215 957.670425 0.00100303
18.86734 998.91974 992.135041 957.688064 0.00100108
18.87615 1000.8276 993.589145 957.704111 0.00099917
18.88495 1002.003 995.263729 957.718646 0.000998
18.89375 1003.662 997.167045 957.731737 0.00099635
18.90255 1006.7793 999.305784 957.743462 0.00099327
18.91135 1010.1129 1001.682417 957.753899 0.00098999
18.92016 1012.5623 1004.294351 957.763122 0.00098759
18.92896 1016.1304 1007.135574 957.771208 0.00098413
18.93776 1019.5547 1010.193105 957.778229 0.00098082
18.94656 1022.5254 1013.452354 957.784263 0.00097797
18.95537 1025.8029 1016.888983 957.78938 0.00097485
18.96417 1028.8884 1020.487825 957.793655 0.00097192
18.97297 1031.8022 1024.221021 957.797161 0.00096918
18.98177 1035.4675 1028.061028 957.799967 0.00096575
18.99057 1038.0909 1031.978561 957.802141 0.00096331
18.99938 1041.0958 1035.93786 957.803751 0.00096053
19.00818 1045.1635 1039.9009 957.804862 0.00095679
19.01698 1049.0754 1043.819369 957.805538 0.00095322
19.02578 1051.6377 1047.643078 957.805838 0.0009509
19.03458 1053.6206 1051.310983 957.805823 0.00094911
19.04339 1055.6417 1054.760084 957.805547 0.00094729
19.05219 1058.1934 1057.925545 957.805065 0.00094501
19.06099 1060.9628 1060.744569 957.804425 0.00094254
19.06979 1063.043 1063.162289 957.803677 0.0009407
19.07859 1063.7476 1065.134358 957.802863 0.00094007
19.08740 1064.1061 1066.632584 957.802024 0.00093976
19.09620 1063.4166 1067.640017 957.801198 0.00094037
19.10500 1063.5948 1068.155396 957.800418 0.00094021
19.11380 1063.274 1068.184051 957.799713 0.00094049
19.12261 1062.2633 1067.739214 957.799112 0.00094139
19.13141 1060.2472 1066.834519 957.798634 0.00094318
19.14021 1058.575 1065.486259 957.7983 0.00094467
19.14901 1056.1965 1063.713915 957.798122 0.00094679
19.15781 1054.3147 1061.540596 957.79811 0.00094848
19.16662 1052.0726 1058.99819 957.79827 0.0009505
19.17542 1049.5796 1056.124749 957.798604 0.00095276
19.18422 1046.6929 1052.969522 957.799108 0.00095539
19.19302 1043.6434 1049.585005 957.799776 0.00095818
19.20182 1040.1188 1046.026293 957.800595 0.00096143
19.21063 1035.8018 1042.347257 957.801549 0.00096544
19.21943 1032.2588 1038.597173 957.802617 0.00096875
19.22823 1028.7626 1034.817058 957.803776 0.00097204
19.23703 1025.3031 1031.039013 957.804995 0.00097532
19.24583 1021.9253 1027.289674 957.806241 0.00097855
19.25464 1018.4543 1023.584508 957.807476 0.00098188
19.26344 1015.0026 1019.939105 957.808658 0.00098522
19.27224 1011.6494 1016.363827 957.809741 0.00098848
19.28104 1008.3438 1012.871417 957.810676 0.00099173
19.28985 1005.4294 1009.473717 957.811404 0.0009946
19.29865 1002.7247 1006.184906 957.811872 0.00099728
19.30745 999.68073 1003.021511 957.812018 0.00100032
19.31625 996.72009 999.996675 957.811772 0.00100329
19.32505 995.03912 997.126594 957.811071 0.00100499
19.33386 992.67883 994.422197 957.809839 0.00100738
19.34266 989.76263 991.894392 957.808001 0.00101034
19.35146 986.9837 989.54901 957.805481 0.00101319
19.36026 984.89178 987.390528 957.802197 0.00101534
19.36906 982.72919 985.419992 957.798064 0.00101757
19.37787 980.65881 983.636101 957.792998 0.00101972
19.38667 978.52441 982.036999 957.786911 0.00102195
19.39547 976.88574 980.617395 957.77971 0.00102366
19.40427 975.7002 979.372314 957.771307 0.0010249
19.41307 975.33484 978.294526 957.761612 0.00102529
19.42188 974.5318 977.375739 957.750525 0.00102613
19.43068 972.85547 976.608151 957.737952 0.0010279
19.43948 971.05927 975.982301 957.723799 0.0010298
19.44828 970.8053 975.489335 957.707972 0.00103007
19.45709 971.38428 975.119543 957.69037 0.00102946
19.46589 970.93768 974.864028 957.670902 0.00102993
19.47469 970.4162 974.713705 957.649481 0.00103049
19.48349 969.80377 974.66034 957.62599 0.00103114
19.49229 969.8222 974.696868 957.600357 0.00103112
19.50110 969.97345 974.817349 957.572479 0.00103096
19.50990 970.54358 975.017986 957.542274 0.00103035
19.51870 970.76337 975.297228 957.509645 0.00103012
19.52750 970.87177 975.656344 957.474523 0.00103
19.53630 971.49664 976.100105 957.436808 0.00102934
19.54511 971.56024 976.635877 957.396423 0.00102927
19.55391 971.71637 977.274189 957.353301 0.00102911
19.56271 972.22949 978.027622 957.307353 0.00102856
19.57151 972.38336 978.910229 957.258531 0.0010284
19.58032 972.61377 979.937005 957.206755 0.00102816
19.58912 973.54791 981.121989 957.151987 0.00102717
19.59792 975.30627 982.479396 957.094141 0.00102532
19.60672 976.98145 984.020984 957.033173 0.00102356
19.61552 978.54315 985.755891 956.969058 0.00102193
19.62433 980.93506 987.691073 956.901738 0.00101944
19.63313 983.72626 989.829189 956.831186 0.00101654
19.64193 985.70367 992.169513 956.757386 0.0010145
19.65073 987.76245 994.707131 956.680298 0.00101239
19.65953 990.31641 997.432023 956.599911 0.00100978
19.66834 994.10669 1000.328795 956.516206 0.00100593
19.67714 998.2312 1003.375349 956.429215 0.00100177
19.68594 1002.2596 1006.544024 956.338905 0.00099775
19.69474 1006.5858 1009.799116 956.245324 0.00099346
19.70354 1011.246 1013.098326 956.148484 0.00098888
19.71235 1016.0358 1016.392819 956.048393 0.00098422
19.72115 1020.7687 1019.627367 955.945099 0.00097965
19.72995 1025.1826 1022.741314 955.838627 0.00097544
19.73875 1029.3079 1025.670271 955.729058 0.00097153
19.74756 1032.467 1028.348899 955.616423 0.00096855
19.75636 1034.8436 1030.711613 955.500835 0.00096633
19.76516 1037.1892 1032.698303 955.382288 0.00096414
19.77396 1040.25 1034.251143 955.260926 0.00096131
19.78276 1041.0773 1035.322688 955.136813 0.00096054
19.79157 1041.2775 1035.87473 955.010034 0.00096036
19.80037 1041.049 1035.883201 954.880722 0.00096057
19.80917 1041.343 1035.339273 954.748954 0.0009603
19.81797 1039.9637 1034.252798 954.614911 0.00096157
19.82678 1037.8507 1032.650083 954.47863 0.00096353
19.83558 1034.4058 1030.575268 954.340292 0.00096674
19.84438 1031.3037 1028.085056 954.200031 0.00096965
19.85318 1027.2239 1025.245148 954.057966 0.0009735
19.86198 1022.6623 1022.126645 953.914283 0.00097784
19.87079 1018.0338 1018.800606 953.76914 0.00098229
19.87959 1014.7169 1015.334685 953.622662 0.0009855
19.88839 1011.4781 1011.791285 953.475012 0.00098865
19.89719 1008.0892 1008.228437 953.326406 0.00099198
19.90599 1004.2048 1004.69468 953.176974 0.00099581
19.91480 1000.415 1001.232612 953.026917 0.00099959
19.92360 996.65601 997.878321 952.876414 0.00100336
19.93240 993.44495 994.661253 952.725678 0.0010066
19.94120 990.7207 991.604154 952.574857 0.00100937
19.95001 988.00171 988.724047 952.424119 0.00101214
19.95881 985.27917 986.034259 952.273728 0.00101494
19.96761 982.67657 983.540826 952.123824 0.00101763
19.97641 979.94336 981.245733 951.974594 0.00102047
19.98521 977.96967 979.147124 951.826309 0.00102253
19.99402 976.12238 977.236761 951.67906 0.00102446
20.00282 974.15167 975.505402 951.533087 0.00102653
20.01162 972.53625 973.93916 951.388577 0.00102824
20.02042 971.30878 972.523319 951.245722 0.00102954
20.02922 970.60913 971.241056 951.104706 0.00103028
20.03803 970.66895 970.075613 950.965694 0.00103022
20.04683 969.84491 969.01135 950.828916 0.00103109
20.05563 968.68195 968.032906 950.694471 0.00103233
20.06443 968.2597 967.128214 950.562577 0.00103278
20.07324 968.66156 966.286723 950.433359 0.00103235
20.08204 968.01086 965.501016 950.307022 0.00103305
20.09084 966.22308 964.765518 950.183692 0.00103496
20.09964 965.12634 964.076968 950.06351 0.00103613
20.10844 965.31335 963.433588 949.946617 0.00103593
20.11725 965.11816 962.83486 949.833122 0.00103614
20.12605 964.72754 962.281419 949.723161 0.00103656
20.13485 963.96631 961.774106 949.616837 0.00103738
20.14365 963.45117 961.314453 949.514255 0.00103794
20.15245 962.80273 960.9039 949.415502 0.00103863
20.16126 962.23468 960.544037 949.320649 0.00103925
20.17006 962.04187 960.236291 949.22979 0.00103946
20.17886 961.87054 959.981891 949.142933 0.00103964
20.18766 961.92719 959.781915 949.060188 0.00103958
20.19646 961.60419 959.636869 948.981501 0.00103993
20.20527 961.62671 959.546998 948.906962 0.0010399
20.21407 961.78479 959.511868 948.836591 0.00103973
20.22287 961.82208 959.530607 948.770349 0.00103969
20.23167 962.15326 959.601535 948.708229 0.00103934
20.24047 962.06 959.722517 948.650211 0.00103944
20.24928 961.67944 959.890563 948.596249 0.00103985
20.25808 961.41675 960.102184 948.546295 0.00104013
20.26688 961.89258 960.353388 948.500282 0.00103962
20.27568 962.61365 960.63968 948.458167 0.00103884
20.28449 963.18042 960.956791 948.419801 0.00103823
20.29329 963.88641 961.299918 948.38514 0.00103747
20.30209 964.27258 961.664778 948.354053 0.00103705
20.31089 964.89374 962.046932 948.326433 0.00103638
20.31969 965.14185 962.44218 948.302131 0.00103612
20.32850 964.68579 962.846267 948.281049 0.00103661
20.33730 965.04498 963.254891 948.262951 0.00103622
20.34610 965.68579 963.663425 948.24775 0.00103553
20.35490 965.72107 964.066554 948.235323 0.0010355
20.36370 965.77759 964.458434 948.225357 0.00103544
20.37251 965.6134 964.833069 948.217797 0.00103561
20.38131 965.66864 965.184047 948.212443 0.00103555
20.39011 966.61084 965.505037 948.209043 0.00103454
20.39891 967.8783 965.790708 948.207454 0.00103319
20.40771 968.36255 966.036775 948.207465 0.00103267
20.41652 968.12903 966.240732 948.208853 0.00103292
20.42532 968.54803 966.402638 948.211446 0.00103247
20.43412 968.44476 966.525047 948.215053 0.00103258
20.44292 968.36591 966.613221 948.219409 0.00103267
20.45172 967.9057 966.674894 948.224412 0.00103316
20.46053 968.29486 966.719687 948.229838 0.00103274
20.46933 968.90845 966.758857 948.235454 0.00103209
20.47813 969.66626 966.804379 948.241086 0.00103128
20.48693 969.88483 966.869259 948.246576 0.00103105
20.49574 970.20862 966.966076 948.251803 0.00103071
20.50454 970.19214 967.107843 948.256488 0.00103072
20.51334 970.38129 967.306984 948.260534 0.00103052
20.52214 970.86328 967.575813 948.263848 0.00103001
20.53094 971.50195 967.925267 948.266209 0.00102933
20.53975 971.98016 968.366603 948.267629 0.00102883
20.54855 972.7738 968.909065 948.267868 0.00102799
20.55735 972.67834 969.561835 948.266901 0.00102809
20.56615 973.08606 970.333014 948.264665 0.00102766
20.57495 973.95361 971.229005 948.26111 0.00102674
20.58376 974.78589 972.255712 948.256099 0.00102587
20.59256 975.59637 973.417659 948.249749 0.00102501
20.60136 977.10931 974.71774 948.241996 0.00102343
20.61016 978.53833 976.157468 948.232768 0.00102193
20.61896 979.9751 977.736674 948.222303 0.00102043
20.62777 981.21466 979.454728 948.21046 0.00101914
20.63657 982.04919 981.30733 948.197313 0.00101828
20.64537 983.48474 983.290789 948.183138 0.00101679
20.65417 985.43738 985.39931 948.16795 0.00101478
20.66298 987.99786 987.62548 948.151792 0.00101215
20.67178 990.54834 989.962072 948.134925 0.00100954
20.68058 992.05414 992.401202 948.117415 0.00100801
20.68938 993.82434 994.929076 948.099547 0.00100621
20.69818 996.20343 997.54785 948.081444 0.00100381
20.70699 998.61584 1000.237786 948.0634 0.00100139
20.71579 1000.4249 1002.994469 948.045491 0.00099958
20.72459 1001.8917 1005.799956 948.028247 0.00099811
20.73339 1003.7534 1008.633824 948.011524 0.00099626
20.74219 1005.926 1011.473917 947.995898 0.00099411
20.75100 1008.0728 1014.292712 947.981453 0.00099199
20.75980 1010.2445 1017.055523 947.968557 0.00098986
20.76860 1013.6059 1019.725397 947.95743 0.00098658
20.77741 1016.7776 1022.261057 947.948339 0.0009835
20.78620 1019.5726 1024.617305 947.941573 0.0009808
20.79501 1023.0223 1026.752684 947.937598 0.0009775
20.80381 1025.9529 1028.623775 947.936276 0.0009747
20.81261 1027.8618 1030.195515 947.938083 0.00097289
20.82141 1030.4871 1031.43834 947.943293 0.00097041
20.83022 1032.2726 1032.332925 947.952035 0.00096874
20.83902 1033.0033 1032.86972 947.964481 0.00096805
20.84782 1033.8901 1033.047942 947.980785 0.00096722
20.85662 1034.234 1032.876651 948.001398 0.0009669
20.86542 1032.9917 1032.369997 948.025934 0.00096806
20.87423 1030.235 1031.547539 948.054825 0.00097065
20.88303 1028.0442 1030.432308 948.087995 0.00097272
20.89183 1026.8542 1029.049101 948.125557 0.00097385
20.90063 1024.8923 1027.424 948.167287 0.00097571
20.90943 1022.4291 1025.585145 948.213356 0.00097806
20.91824 1020.6968 1023.560489 948.263235 0.00097972
20.92704 1018.6373 1021.381675 948.317234 0.0009817
20.93584 1016.2722 1019.077423 948.374735 0.00098399
20.94465 1013.8189 1016.679413 948.435662 0.00098637
20.95345 1011.9925 1014.215506 948.499627 0.00098815
20.96225 1008.85 1011.713704 948.566164 0.00099123
20.97105 1005.5122 1009.198225 948.634977 0.00099452
20.97985 1002.9316 1006.689322 948.705255 0.00099708
20.98866 1000.8497 1004.206415 948.776626 0.00099915
20.99746 997.95355 1001.762449 948.848828 0.00100205
21.00626 995.28339 999.368585 948.920495 0.00100474
21.01506 993.10889 997.031674 948.991103 0.00100694
21.02386 991.42999 994.755043 949.0601 0.00100864
21.03267 988.91797 992.54227 949.126536 0.00101121
21.04147 986.78033 990.393063 949.189702 0.0010134
21.05027 985.79907 988.308416 949.248373 0.00101441
21.05907 984.10217 986.287743 949.301584 0.00101615
21.06788 982.07025 984.33285 949.348969 0.00101826
21.07668 980.61676 982.445937 949.388999 0.00101977
21.08548 979.62354 980.629456 949.421169 0.0010208
21.09428 978.48541 978.888764 949.44389 0.00102199
21.10308 977.44873 977.228991 949.45684 0.00102307
21.11189 976.29059 975.657289 949.459044 0.00102429
21.12069 975.03607 974.179207 949.449346 0.0010256
21.12949 974.18604 972.802096 949.427281 0.0010265
21.13829 973.01117 971.531995 949.39176 0.00102774
21.14709 971.64703 970.375451 949.342635 0.00102918
21.15590 970.71185 969.339149 949.279126 0.00103017
21.16470 970.146 968.428868 949.20124 0.00103077
21.17350 969.90924 967.650419 949.108066 0.00103102
21.18230 969.76697 967.009359 948.999975 0.00103118
21.19110 969.76331 966.511585 948.877124 0.00103118
21.19991 969.92181 966.161943 948.739588 0.00103101
21.20871 969.74457 965.965009 948.587991 0.0010312
21.21751 969.42786 965.925677 948.423369 0.00103154
21.22631 969.45087 966.046593 948.246163 0.00103151
21.23512 969.58789 966.33125 948.058174 0.00103137
21.24392 970.47394 966.78086 947.860817 0.00103042
21.25272 971.82086 967.395833 947.655808 0.001029
21.26152 972.62079 968.175063 947.445167 0.00102815
21.27032 973.28638 969.116161 947.231834 0.00102745
21.27913 973.82184 970.213848 947.017792 0.00102688
21.28793 975.58325 971.461791 946.806398 0.00102503
21.29673 977.09009 972.851107 946.600864 0.00102345
21.30553 978.12268 974.37024 946.40467 0.00102237
21.31433 978.95618 976.005944 946.221137 0.0010215
21.32314 980.19299 977.742175 946.054322 0.00102021
21.33194 981.47986 979.560453 945.908317 0.00101887
21.34074 982.71155 981.438105 945.786276 0.00101759
21.34954 983.54584 983.353562 945.693578 0.00101673
21.35834 984.99182 985.277955 945.632744 0.00101524
21.36715 986.10925 987.183128 945.60707 0.00101409
21.37595 987.41577 989.037419 945.620229 0.00101274
21.38475 988.85596 990.807608 945.674317 0.00101127
21.39355 990.32037 992.459847 945.771413 0.00100977
21.40236 991.43536 993.958896 945.911845 0.00100864
21.41116 992.5426 995.270547 946.094388 0.00100751
21.41996 993.22791 996.363093 946.317669 0.00100682
21.42876 993.84338 997.207156 946.576511 0.00100619
21.43756 994.5343 997.778112 946.865444 0.0010055
21.44637 995.57507 998.055781 947.175341 0.00100444
21.45517 996.44983 998.023936 947.493035 0.00100356
21.46397 997.12128 997.671567 947.801781 0.00100289
21.47277 996.17761 996.994294 948.083192 0.00100384
21.48157 995.06342 995.986214 948.309992 0.00100496
21.49038 993.64685 994.6432 948.450676 0.00100639
21.49918 991.99414 992.959824 948.466973 0.00100807
21.50798 990.25006 990.924758 948.3128 0.00100985
21.51678 988.82751 988.521399 947.935166 0.0010113
21.52558 987.10492 985.720958 947.26828 0.00101306
21.53439 985.10089 982.476403 946.236116 0
21.54319 984.14844 0 0 0
21.55199 982.77551 0 0 0
21.56079 980.65729 0 0 0
21.56959 979.56433 0 0 0
21.57840 979.10742 0 0 0
21.58720 978.51105 0 0 0
21.59600 977.39398 0 0 0
21.60480 976.74353 0 0 0
21.61360 977.01697 0 0 0
21.62241 976.64343 0 0 0
21.63121 976.48376 0 0 0
21.64001 976.81531 0 0 0
21.64881 976.48901 0 0 0
21.65762 976.38263 0 0 0
21.66642 976.12354 0 0 0
21.67522 975.58612 0 0 0
21.68402 975.18823 0 0 0
21.69282 975.51276 0 0 0
21.70163 975.96051 0 0 0
21.71043 976.36188 0 0 0
21.71923 976.31659 0 0 0
21.72803 976.16327 0 0 0
21.73683 976.40448 0 0 0
21.74564 975.9906 0 0 0
21.75444 975.32904 0 0 0
21.76324 974.72028 0 0 0
21.77204 974.06616 0 0 0
21.78085 973.44531 0 0 0
21.78965 973.08734 0 0 0
21.79845 973.07104 0 0 0
21.80725 972.94769 0 0 0
21.81605 972.56268 0 0 0
21.82486 972.47058 0 0 0
21.83366 972.28479 0 0 0
21.84246 971.94397 0 0 0
21.85126 971.87262 0 0 0
21.86006 971.45557 0 0 0
21.86887 970.68945 0 0 0
21.87767 970.16516 0 0 0
21.88647 969.77972 0 0 0
21.89527 969.27405 0 0 0
21.90408 968.5332 0 0 0
21.91288 967.91528 0 0 0
21.92168 967.17175 0 0 0
21.93048 966.37738 0 0 0
21.93928 965.5191 0 0 0
21.94809 963.95306 0 0 0
21.95689 961.98944 0 0 0
21.96569 961.42072 0 0 0
21.97449 961.00861 0 0 0
21.98329 960.63477 0 0 0
21.99210 959.74231 0 0 0
22.00090 959.77783 0 0 0
22.00970 959.7262 0 0 0
22.01850 958.79065 0 0 0
22.02731 957.58521 0 0 0
22.03611 957.20654 0 0 0
22.04491 957.15875 0 0 0
22.05371 956.94293 0 0 0
22.06251 956.91608 0 0 0
22.07132 956.41174 0 0 0
22.08012 955.61536 0 0 0
22.08892 955.61725 0 0 0
22.09772 955.91833 0 0 0
22.10652 955.21277 0 0 0
22.11533 953.92438 0 0 0
22.12413 953.24011 0 0 0
22.13293 952.97882 0 0 0
22.14173 953.29639 0 0 0
22.15054 953.547 0 0 0
22.15934 953.02081 0 0 0
22.16814 951.9231 0 0 0
22.17694 951.45648 0 0 0
22.18574 951.1308 0 0 0
22.19455 951.07837 0 0 0
22.20335 951.21686 0 0 0
22.21215 950.90857 0 0 0
22.22095 950.24506 0 0 0
22.22975 949.73163 0 0 0
22.23856 948.51727 0 0 0
22.24736 947.97485 0 0 0
22.25616 948.59027 0 0 0
22.26496 948.30078 0 0 0
22.27376 946.99139 0 0 0
22.28257 946.06891 0 0 0
22.29137 945.96484 0 0 0
22.30017 945.7049 0 0 0
22.30897 944.98706 0 0 0
22.31778 944.95605 0 0 0
22.32658 944.82111 0 0 0
22.33538 944.35687 0 0 0
22.34418 944.08704 0 0 0
22.35298 944.14282 0 0 0
22.36179 944.04993 0 0 0
22.37059 943.82947 0 0 0
22.37939 943.25824 0 0 0
22.38819 943.41235 0 0 0
22.39699 943.41888 0 0 0
22.40580 942.78363 0 0 0
22.41460 942.63428 0 0 0
22.42340 942.96777 0 0 0
22.43220 943.29822 0 0 0
22.44100 944.13501 0 0 0
22.44981 944.09888 0 0 0
22.45861 943.50165 0 0 0
22.46741 943.24225 0 0 0
22.47621 942.9079 0 0 0
22.48502 943.36011 0 0 0
22.49382 943.69733 0 0 0
22.50262 944.16949 0 0 0
22.51142 944.20801 0 0 0
22.52022 944.1543 0 0 0
22.52903 943.93024 0 0 0
22.53783 943.66095 0 0 0
22.54663 944.73718 0 0 0
22.55543 945.8999 0 0 0
22.56423 945.67676 0 0 0
22.57304 945.80225 0 0 0
22.58184 946.4339 0 0 0
22.59064 946.50964 0 0 0
22.59944 946.32709 0 0 0
22.60825 946.92981 0 0 0
22.61705 948.24622 0 0 0
22.62585 948.32196 0 0 0
22.63465 947.24634 0 0 0
22.64345 946.90082 0 0 0
22.65226 947.1886 0 0 0
22.66106 947.57404 0 0 0
22.66986 948.43097 0 0 0
22.67866 949.2439 0 0 0
22.68746 949.27338 0 0 0
22.69627 949.33606 0 0 0
22.70507 949.9245 0 0 0
22.71387 950.48181 0 0 0
22.72267 950.67456 0 0 0
22.73147 951.12476 0 0 0
22.74028 951.56213 0 0 0
22.74908 951.48224 0 0 0
22.75788 952.27771 0 0 0
22.76668 953.60956 0 0 0
22.77549 954.34613 0 0 0
22.78429 954.3313 0 0 0
22.79309 955.03406 0 0 0
22.80189 955.70184 0 0 0
22.81069 955.76636 0 0 0
22.81950 956.15198 0 0 0
22.82830 956.56622 0 0 0
22.83710 956.99762 0 0 0
22.84590 958.31616 0 0 0
22.85470 959.43835 0 0 0
22.86351 960.5094 0 0 0
22.87231 961.38562 0 0 0
22.88111 961.98108 0 0 0
22.88991 963.05054 0 0 0
22.89871 963.72968 0 0 0
22.90752 964.38373 0 0 0
22.91632 965.67273 0 0 0
22.92512 966.78918 0 0 0
22.93392 967.47321 0 0 0
22.94273 968.50385 0 0 0
22.95153 969.55945 0 0 0
22.96033 970.19006 0 0 0
22.96913 970.65179 0 0 0
22.97793 971.88892 0 0 0
22.98674 972.59082 0 0 0
22.99554 972.52484 0 0 0
23.00434 973.05078 0 0 0
23.01314 974.03241 0 0 0
23.02194 974.89673 0 0 0
23.03075 975.50739 0 0 0
23.03955 976.20752 0 0 0
23.04835 977.28937 0 0 0
23.05715 978.19653 0 0 0
23.06596 977.49695 0 0 0
23.07476 976.97083 0 0 0
23.08356 977.3299 0 0 0
23.09236 977.49731 0 0 0
23.10116 976.862 0 0 0
23.10997 976.02423 0 0 0
23.11877 974.586 0 0 0
23.12757 972.82452 0 0 0
23.13637 971.16351 0 0 0
23.14517 970.0094 0 0 0
23.15398 969.01086 0 0 0
23.16278 967.98352 0 0 0
23.17158 966.88794 0 0 0
23.18038 964.4621 0 0 0
23.18918 962.09198 0 0 0
23.19799 961.1153 0 0 0
23.20679 959.55731 0 0 0
23.21559 957.97925 0 0 0
23.22439 956.71869 0 0 0
23.23320 955.72577 0 0 0
23.24200 954.71857 0 0 0
23.25080 952.98083 0 0 0
23.25960 951.43988 0 0 0
23.26840 950.88245 0 0 0
23.27721 950.35706 0 0 0
23.28601 950.00006 0 0 0
23.29481 949.19287 0 0 0
23.30361 948.0968 0 0 0
23.31241 947.17346 0 0 0
23.32122 946.77167 0 0 0
23.33002 946.75037 0 0 0
23.33882 946.18762 0 0 0
23.34762 945.83722 0 0 0
23.35642 945.48505 0 0 0
23.36523 944.81183 0 0 0
23.37403 944.09106 0 0 0
23.38283 943.93616 0 0 0
23.39163 943.66833 0 0 0
23.40044 943.25079 0 0 0
23.40924 943.28992 0 0 0
23.41804 943.49036 0 0 0
23.42684 943.02643 0 0 0
23.43564 942.52704 0 0 0
23.44445 942.14362 0 0 0
23.45325 941.70959 0 0 0
23.46205 941.38666 0 0 0
23.47085 941.70648 0 0 0
23.47965 941.61676 0 0 0
23.48846 942.21832 0 0 0
23.49726 943.14276 0 0 0
23.50606 942.81329 0 0 0
23.51486 942.01514 0 0 0
23.52367 941.62183 0 0 0
23.53247 942.30157 0 0 0
23.54127 942.89398 0 0 0
23.55007 943.37213 0 0 0
23.55887 943.36389 0 0 0
23.56768 943.27338 0 0 0
23.57648 943.02643 0 0 0
23.58528 942.72516 0 0 0
23.59408 943.49658 0 0 0
23.60288 944.44391 0 0 0
23.61169 944.98413 0 0 0
23.62049 945.96301 0 0 0
23.62929 946.15277 0 0 0
23.63809 946.97107 0 0 0
23.64689 948.21155 0 0 0
23.65570 948.05914 0 0 0
23.66450 948.57031 0 0 0
23.67330 949.45587 0 0 0
23.68210 950.61859 0 0 0
23.69091 950.92798 0 0 0
23.69971 951.11334 0 0 0
23.70851 951.66522 0 0 0
23.71731 952.78528 0 0 0
23.72611 954.29468 0 0 0
23.73492 954.39789 0 0 0
23.74372 954.27625 0 0 0
23.75252 954.81226 0 0 0
23.76132 955.08502 0 0 0
23.77012 954.48682 0 0 0
23.77893 954.39459 0 0 0
23.78773 954.67035 0 0 0
23.79653 954.86353 0 0 0
23.80533 954.61963 0 0 0
23.81414 954.53186 0 0 0
23.82294 954.52985 0 0 0
23.83174 954.81818 0 0 0
23.84054 954.97998 0 0 0
23.84934 954.45874 0 0 0
23.85815 953.51996 0 0 0
23.86695 952.60748 0 0 0
23.87575 951.79755 0 0 0
23.88455 950.7417 0 0 0
23.89335 950.48279 0 0 0
23.90216 951.20526 0 0 0
23.91096 951.52191 0 0 0
23.91976 951.66718 0 0 0
23.92856 950.96436 0 0 0
23.93736 949.67029 0 0 0
23.94617 948.91589 0 0 0
23.95497 948.41193 0 0 0
23.96377 948.71771 0 0 0
23.97257 949.04749 0 0 0
23.98137 949.41132 0 0 0
23.99018 949.26355 0 0 0
23.99898 949.23395 0 0 0
24.00778 949.39435 0 0 0
24.01658 949.81323 0 0 0
24.02539 950.25104 0 0 0
24.03419 950.06189 0 0 0
24.04299 950.22351 0 0 0
24.05179 950.39893 0 0 0
24.06059 949.77191 0 0 0
24.06940 949.44434 0 0 0
24.07820 949.66901 0 0 0
24.08700 949.39355 0 0 0
24.09580 949.02423 0 0 0
24.10460 948.7323 0 0 0
24.11341 948.33362 0 0 0
24.12221 947.98895 0 0 0
24.13101 947.5979 0 0 0
24.13981 947.78491 0 0 0
24.14862 948.21051 0 0 0
24.15742 947.99255 0 0 0
24.16622 947.41406 0 0 0
24.17502 947.87415 0 0 0
24.18382 948.67346 0 0 0
24.19263 949.12366 0 0 0
24.20143 948.94043 0 0 0
24.21023 948.45844 0 0 0
24.21903 948.39447 0 0 0
24.22783 948.87048 0 0 0
24.23664 948.66595 0 0 0
24.24544 948.67096 0 0 0
24.25424 949.34344 0 0 0
24.26304 949.58063 0 0 0
24.27184 950.30054 0 0 0
24.28065 951.71661 0 0 0
24.28945 951.52795 0 0 0
24.29825 951.44904 0 0 0
24.30705 952.04791 0 0 0
24.31586 952.50226 0 0 0
24.32466 952.96381 0 0 0
24.33346 953.60284 0 0 0
24.34226 953.77002 0 0 0
24.35106 954.00677 0 0 0
24.35987 954.51813 0 0 0
24.36867 954.63678 0 0 0
24.37747 955.76373 0 0 0
24.38627 957.22723 0 0 0
24.39507 958.17291 0 0 0
24.40388 957.50134 0 0 0
24.41268 957.48315 0 0 0
24.42148 958.55957 0 0 0
24.43029 959.19781 0 0 0
24.43908 959.67218 0 0 0
24.44789 960.02509 0 0 0
24.45669 959.86304 0 0 0
24.46549 960.40765 0 0 0
24.47430 960.33282 0 0 0
24.48310 959.83575 0 0 0
24.49190 960.43225 0 0 0
24.50070 960.24725 0 0 0
24.50950 960.14948 0 0 0
24.51831 960.43573 0 0 0
24.52711 960.42639 0 0 0
24.53591 960.29047 0 0 0
24.54471 959.66425 0 0 0
24.55351 958.57794 0 0 0
24.56232 958.17688 0 0 0
24.57112 959.21033 0 0 0
24.57992 959.83167 0 0 0
24.58872 959.77771 0 0 0
24.59753 959.40912 0 0 0
24.60633 959.38806 0 0 0
24.61513 959.73798 0 0 0
24.62393 959.63019 0 0 0
24.63273 959.51782 0 0 0
24.64154 959.10657 0 0 0
24.65034 959.06049 0 0 0
24.65914 960.2533 0 0 0
24.66794 961.54022 0 0 0
24.67674 962.01129 0 0 0
24.68555 961.96429 0 0 0
24.69435 962.37976 0 0 0
24.70315 963.45166 0 0 0
24.71195 964.44342 0 0 0
24.72076 964.92932 0 0 0
24.72956 966.04877 0 0 0
24.73836 967.25195 0 0 0
24.74716 967.06323 0 0 0
24.75596 967.62164 0 0 0
24.76477 968.38324 0 0 0
24.77357 969.81537 0 0 0
24.78237 971.77289 0 0 0
24.79117 972.82245 0 0 0
24.79997 974.22253 0 0 0
24.80878 974.94873 0 0 0
24.81758 974.97723 0 0 0
24.82638 975.21002 0 0 0
24.83518 975.08533 0 0 0
24.84398 974.30347 0 0 0
24.85279 974.6485 0 0 0
24.86159 974.43549 0 0 0
24.87039 973.39178 0 0 0
24.87919 972.36017 0 0 0
24.88800 970.88562 0 0 0
24.89680 969.67584 0 0 0
24.90560 968.71582 0 0 0
24.91440 967.65778 0 0 0
24.92320 966.98572 0 0 0
24.93201 966.57428 0 0 0
24.94081 965.383 0 0 0
24.94961 963.80566 0 0 0
24.95841 962.30157 0 0 0
24.96721 961.40375 0 0 0
24.97602 960.87213 0 0 0
24.98482 960.46289 0 0 0
24.99362 959.52124 0 0 0
25.00242 958.92358 0 0 0
25.01122 957.60602 0 0 0
25.02003 957.02386 0 0 0
25.02883 956.9989 0 0 0
25.03763 957.02771 0 0 0
25.04643 957.01965 0 0 0
25.05523 956.29871 0 0 0
25.06404 955.99353 0 0 0
25.07284 956.05945 0 0 0
25.08164 955.79181 0 0 0
25.09044 955.50549 0 0 0
25.09924 956.56183 0 0 0
25.10805 957.03027 0 0 0
25.11685 957.15118 0 0 0
25.12565 958.1698 0 0 0
25.13445 958.8161 0 0 0
25.14325 958.9303 0 0 0
25.15206 959.07733 0 0 0
25.16086 959.53308 0 0 0
25.16966 960.10059 0 0 0
25.17846 960.88605 0 0 0
25.18727 961.27179 0 0 0
25.19607 961.5213 0 0 0
25.20487 960.96307 0 0 0
25.21367 961.20886 0 0 0
25.22247 961.4942 0 0 0
25.23128 961.25165 0 0 0
25.24008 961.34924 0 0 0
25.24888 961.48199 0 0 0
25.25768 960.49976 0 0 0
25.26648 959.16321 0 0 0
25.27529 958.43225 0 0 0
25.28409 957.39954 0 0 0
25.29289 957.3183 0 0 0
25.30169 956.65228 0 0 0
25.31049 954.69055 0 0 0
25.31930 952.6275 0 0 0
25.32810 951.56207 0 0 0
25.33690 950.75372 0 0 0
25.34570 949.76196 0 0 0
25.35451 948.4505 0 0 0
25.36331 947.7323 0 0 0
25.37211 946.64111 0 0 0
25.38091 944.85577 0 0 0
25.38971 943.82489 0 0 0
25.39852 942.94397 0 0 0
25.40732 942.08905 0 0 0
25.41612 941.24683 0 0 0
25.42492 940.29913 0 0 0
25.43372 938.80695 0 0 0
25.44253 937.99982 0 0 0
25.45133 937.63422 0 0 0
25.46013 936.72015 0 0 0
25.46893 934.95972 0 0 0
25.47774 934.52979 0 0 0
25.48654 935.61829 0 0 0
25.49534 936.13831 0 0 0
25.50414 935.85803 0 0 0
25.51294 935.21442 0 0 0
25.52175 935.02716 0 0 0
25.53055 934.95795 0 0 0
25.53935 934.33893 0 0 0
25.54815 934.6178 0 0 0
25.55695 936.01141 0 0 0
25.56576 936.50763 0 0 0
25.57456 936.61493 0 0 0
25.58336 937.43109 0 0 0
25.59216 937.05988 0 0 0
25.60096 936.95978 0 0 0
25.60977 937.56122 0 0 0
25.61857 938.24158 0 0 0
25.62737 938.20917 0 0 0
25.63618 939.17865 0 0 0
25.64498 940.34778 0 0 0
25.65378 940.81207 0 0 0
25.66258 941.02893 0 0 0
25.67138 940.5368 0 0 0
25.68019 940.37274 0 0 0
25.68899 940.87115 0 0 0
25.69779 940.64423 0 0 0
25.70659 940.31 0 0 0
25.71539 941.12659 0 0 0
25.72420 940.99078 0 0 0
25.73300 941.17719 0 0 0
25.74180 941.85724 0 0 0
25.75060 941.25061 0 0 0
25.75940 940.43835 0 0 0
25.76821 940.71198 0 0 0
25.77701 940.54474 0 0 0
25.78581 939.89935 0 0 0
25.79461 940.02979 0 0 0
25.80342 939.58759 0 0 0
25.81222 938.66779 0 0 0
25.82102 938.10077 0 0 0
25.82982 937.75372 0 0 0
25.83862 937.14233 0 0 0
25.84743 936.89276 0 0 0
25.85623 936.43451 0 0 0
25.86503 935.74884 0 0 0
25.87383 935.37762 0 0 0
25.88263 934.38843 0 0 0
25.89144 933.62732 0 0 0
25.90024 933.10742 0 0 0
25.90904 931.6225 0 0 0
25.91784 930.1615 0 0 0
25.92664 930.1665 0 0 0
25.93545 930.02258 0 0 0
25.94425 929.68005 0 0 0
25.95305 929.22247 0 0 0
25.96185 928.65387 0 0 0
25.97066 929.08972 0 0 0
25.97946 929.33215 0 0 0
25.98826 928.80762 0 0 0
25.99706 927.862 0 0 0
26.00586 928.24567 0 0 0
26.01467 929.67194 0 0 0
26.02347 929.72852 0 0 0
26.03227 929.54736 0 0 0
26.04107 929.20117 0 0 0
26.04987 929.36957 0 0 0
26.05868 930.08228 0 0 0
26.06748 930.34875 0 0 0
26.07628 931.87592 0 0 0
26.08508 933.06866 0 0 0
26.09388 934.18231 0 0 0
26.10269 934.5882 0 0 0
26.11149 935.00085 0 0 0
26.12029 936.01624 0 0 0
26.12909 936.59546 0 0 0
26.13790 937.479 0 0 0
26.14670 937.57867 0 0 0
26.15550 938.09686 0 0 0
26.16430 939.18884 0 0 0
26.17310 939.97552 0 0 0
26.18191 939.58002 0 0 0
26.19071 939.21588 0 0 0
26.19951 939.24365 0 0 0
26.20831 938.84308 0 0 0
26.21711 938.47699 0 0 0
26.22592 938.22906 0 0 0
26.23472 938.31561 0 0 0
26.24352 938.63989 0 0 0
26.25232 938.82684 0 0 0
26.26113 938.98035 0 0 0
26.26993 938.79449 0 0 0
26.27873 938.79425 0 0 0
26.28753 938.4245 0 0 0
26.29633 936.82092 0 0 0
26.30514 935.36163 0 0 0
26.31394 935.33643 0 0 0
26.32274 934.99677 0 0 0
26.33154 934.24127 0 0 0
26.34034 933.01007 0 0 0
26.34915 932.79834 0 0 0
26.35795 932.71704 0 0 0
26.36675 931.9469 0 0 0
26.37555 931.12646 0 0 0
26.38435 929.84387 0 0 0
26.39316 929.18518 0 0 0
26.40196 928.35333 0 0 0
26.41076 927.87354 0 0 0
26.41956 927.72247 0 0 0
26.42837 926.97388 0 0 0
26.43717 926.32007 0 0 0
26.44597 925.77777 0 0 0
26.45477 924.94879 0 0 0
26.46357 924.47064 0 0 0
26.47238 924.22028 0 0 0
26.48118 923.95532 0 0 0
26.48998 923.48926 0 0 0
26.49878 922.40576 0 0 0
26.50758 921.31323 0 0 0
26.51639 920.50226 0 0 0
26.52519 921.10168 0 0 0
26.53399 922.13855 0 0 0
26.54279 922.43066 0 0 0
26.55159 921.93604 0 0 0
26.56040 921.52289 0 0 0
26.56920 920.71558 0 0 0
26.57800 919.97205 0 0 0
26.58680 920.63385 0 0 0
26.59561 920.93347 0 0 0
26.60441 921.38818 0 0 0
26.61321 920.49408 0 0 0
26.62201 919.4126 0 0 0
26.63081 919.85297 0 0 0
26.63962 920.34552 0 0 0
26.64842 920.37341 0 0 0
26.65722 919.85956 0 0 0
26.66602 919.55341 0 0 0
26.67482 919.78546 0 0 0
26.68363 919.83173 0 0 0
26.69243 919.1557 0 0 0
26.70123 919.20221 0 0 0
26.71003 918.7702 0 0 0
26.71884 917.81073 0 0 0
26.72764 918.51154 0 0 0
26.73644 918.53986 0 0 0
26.74524 918.09064 0 0 0
26.75404 917.86377 0 0 0
26.76285 917.38464 0 0 0
26.77165 917.47949 0 0 0
26.78045 918.0293 0 0 0
26.78925 917.86713 0 0 0
26.79805 917.46735 0 0 0
26.80686 917.41052 0 0 0
26.81566 916.71906 0 0 0
26.82446 915.93488 0 0 0
26.83326 916.68414 0 0 0
26.84206 916.4386 0 0 0
26.85087 915.45508 0 0 0
26.85967 916.01569 0 0 0
26.86847 916.63013 0 0 0
26.87727 916.41022 0 0 0
26.88608 916.22052 0 0 0
26.89488 917.07623 0 0 0
26.90368 917.80048 0 0 0
26.91248 917.66071 0 0 0
26.92128 918.93719 0 0 0
26.93009 920.26904 0 0 0
26.93889 920.06433 0 0 0
26.94769 919.45575 0 0 0
26.95649 919.35986 0 0 0
26.96529 920.16644 0 0 0
26.97410 921.22858 0 0 0
26.98290 921.82153 0 0 0
26.99170 922.05939 0 0 0
27.00050 922.93225 0 0 0
27.00930 924.62384 0 0 0
27.01811 925.25677 0 0 0
27.02691 925.26312 0 0 0
27.03571 925.92603 0 0 0
27.04451 926.51282 0 0 0
27.05332 926.27948 0 0 0
27.06212 926.31964 0 0 0
27.07092 926.88611 0 0 0
27.07972 926.01447 0 0 0
27.08852 925.66614 0 0 0
27.09733 926.52881 0 0 0
27.10613 925.95776 0 0 0
27.11493 924.46875 0 0 0
27.12373 924.62109 0 0 0
27.13253 926.11707 0 0 0
27.14134 925.83746 0 0 0
27.15014 924.32092 0 0 0
27.15894 924.23737 0 0 0
27.16774 924.16101 0 0 0
27.17655 923.90277 0 0 0
27.18535 923.81213 0 0 0
27.19415 923.51343 0 0 0
27.20295 924.0332 0 0 0
27.21175 923.87561 0 0 0
27.22056 923.05151 0 0 0
27.22936 923.5105 0 0 0
27.23816 923.88629 0 0 0
27.24696 922.13367 0 0 0
27.25576 920.45612 0 0 0
27.26457 920.06604 0 0 0
27.27337 920.13074 0 0 0
27.28217 919.4184 0 0 0
27.29097 918.58301 0 0 0
27.29977 918.5047 0 0 0
27.30858 918.34027 0 0 0
27.31738 917.5036 0 0 0
27.32618 916.40356 0 0 0
27.33498 916.40778 0 0 0
27.34379 916.67267 0 0 0
27.35259 916.31042 0 0 0
27.36139 915.57452 0 0 0
27.37019 915.2077 0 0 0
27.37899 915.04126 0 0 0
27.38780 914.01672 0 0 0
27.39660 912.89539 0 0 0
27.40540 912.16748 0 0 0
27.41420 911.34119 0 0 0
27.42300 911.73956 0 0 0
27.43181 912.01526 0 0 0
27.44061 910.72388 0 0 0
27.44941 909.25043 0 0 0
27.45821 908.89276 0 0 0
27.46701 909.30951 0 0 0
27.47582 908.73273 0 0 0
27.48462 908.85956 0 0 0
27.49342 909.88092 0 0 0
27.50222 909.32794 0 0 0
27.51103 907.83655 0 0 0
27.51983 906.94379 0 0 0
27.52863 907.75116 0 0 0
27.53743 908.69745 0 0 0
27.54623 908.44385 0 0 0
27.55504 908.66168 0 0 0
27.56384 909.19647 0 0 0
27.57264 908.48462 0 0 0
27.58144 908.90991 0 0 0
27.59024 909.66748 0 0 0
27.59905 909.97595 0 0 0
27.60785 909.70624 0 0 0
27.61665 909.39636 0 0 0
27.62545 909.64166 0 0 0
27.63426 909.37183 0 0 0
27.64306 909.37909 0 0 0
27.65186 909.02448 0 0 0
27.66066 908.45239 0 0 0
27.66946 908.49298 0 0 0
27.67827 908.8963 0 0 0
27.68707 908.97925 0 0 0
27.69587 908.70062 0 0 0
27.70467 908.05219 0 0 0
27.71347 907.35651 0 0 0
27.72228 907.27399 0 0 0
27.73108 907.41553 0 0 0
27.73988 907.81647 0 0 0
27.74868 908.08234 0 0 0
27.75748 907.87244 0 0 0
27.76629 907.38812 0 0 0
27.77509 907.6084 0 0 0
27.78389 908.96326 0 0 0
27.79269 909.02911 0 0 0
27.80150 908.70447 0 0 0
27.81030 908.4787 0 0 0
27.81910 908.04004 0 0 0
27.82790 907.6908 0 0 0
27.83670 907.8183 0 0 0
27.84551 908.00623 0 0 0
27.85431 907.4895 0 0 0
27.86311 908.36951 0 0 0
27.87191 909.02106 0 0 0
27.88071 907.83661 0 0 0
27.88952 907.07361 0 0 0
27.89832 907.69141 0 0 0
27.90712 908.99292 0 0 0
27.91592 910.09882 0 0 0
27.92472 909.96564 0 0 0
27.93353 908.97955 0 0 0
27.94233 907.95184 0 0 0
27.95113 907.92407 0 0 0
27.95993 908.276 0 0 0
27.96874 908.03546 0 0 0
27.97754 908.26508 0 0 0
27.98634 909.43909 0 0 0
27.99514 909.84338 0 0 0
28.00394 908.09241 0 0 0
28.01275 906.74591 0 0 0
28.02155 907.21417 0 0 0
28.03035 907.66864 0 0 0
28.03915 908.15607 0 0 0
28.04796 908.01593 0 0 0
28.05676 907.90765 0 0 0
28.06556 908.61346 0 0 0
28.07436 908.35907 0 0 0
28.08316 907.2287 0 0 0
28.09196 907.45691 0 0 0
28.10077 908.64581 0 0 0
28.10957 910.12769 0 0 0
28.11837 910.98785 0 0 0
28.12717 910.73029 0 0 0
28.13598 911.30896 0 0 0
28.14478 912.42151 0 0 0
28.15358 912.77405 0 0 0
28.16238 912.95691 0 0 0
28.17119 912.96973 0 0 0
28.17999 912.05469 0 0 0
28.18879 912.71979 0 0 0
28.19759 914.07776 0 0 0
28.20639 914.35181 0 0 0
28.21520 913.91467 0 0 0
28.22400 913.35632 0 0 0
28.23280 913.69611 0 0 0
28.24160 913.67584 0 0 0
28.25040 912.82867 0 0 0
28.25921 913.17462 0 0 0
28.26801 914.08984 0 0 0
28.27681 914.07062 0 0 0
28.28561 914.14514 0 0 0
28.29442 914.07562 0 0 0
28.30322 913.56512 0 0 0
28.31202 912.81439 0 0 0
28.32082 912.42694 0 0 0
28.32962 907.42865 0 0 0
28.33843 890.05688 0 0 0
28.34723 885.22986 0 0 0
28.35603 893.95288 0 0 0
28.36483 896.00714 0 0 0
28.37363 898.25116 0 0 0
28.38244 900.5719 0 0 0
28.39124 900.36646 0 0 0
28.40004 900.27264 0 0 0
28.40884 899.64575 0 0 0
28.41765 898.61957 0 0 0
28.42645 898.41425 0 0 0
28.43525 898.33911 0 0 0
28.44405 898.39545 0 0 0
28.45285 897.95972 0 0 0
28.46166 898.05969 0 0 0
28.47046 898.13385 0 0 0
28.47926 897.18909 0 0 0
28.48806 897.24719 0 0 0
28.49686 897.86914 0 0 0
28.50567 896.76709 0 0 0
28.51447 895.53986 0 0 0
28.52327 895.75995 0 0 0
28.53207 896.05212 0 0 0
28.54087 895.46057 0 0 0
28.54968 895.60175 0 0 0
28.55848 895.12494 0 0 0
28.56728 894.32056 0 0 0
28.57608 895.00287 0 0 0
28.58488 895.25647 0 0 0
28.59369 896.203 0 0 0
28.60249 896.35352 0 0 0
28.61129 894.62506 0 0 0
28.62009 892.97021 0 0 0
28.62889 892.82532 0 0 0
28.63770 892.56659 0 0 0
28.64650 892.98779 0 0 0
28.65530 894.65039 0 0 0
28.66410 893.87292 0 0 0
28.67291 893.20575 0 0 0
28.68171 894.35071 0 0 0
28.69051 894.46576 0 0 0
28.69931 893.1507 0 0 0
28.70811 893.2793 0 0 0
28.71692 894.73651 0 0 0
28.72572 894.39417 0 0 0
28.73452 892.63928 0 0 0
28.74332 892.13452 0 0 0
28.75212 892.84296 0 0 0
28.76093 894.08734 0 0 0
28.76973 895.05591 0 0 0
28.77853 894.75848 0 0 0
28.78733 893.82086 0 0 0
28.79613 894.74103 0 0 0
28.80494 894.61652 0 0 0
28.81374 893.15936 0 0 0
28.82254 894.41205 0 0 0
28.83134 895.27277 0 0 0
28.84014 894.09406 0 0 0
28.84895 893.37036 0 0 0
28.85775 894.37769 0 0 0
28.86655 896.23492 0 0 0
28.87535 897.29633 0 0 0
28.88416 897.02582 0 0 0
28.89296 896.36871 0 0 0
28.90176 897.57111 0 0 0
28.91056 898.82043 0 0 0
28.91936 898.88562 0 0 0
28.92817 899.16339 0 0 0
28.93697 899.24084 0 0 0
28.94577 900.22864 0 0 0
28.95457 900.71704 0 0 0
28.96337 899.65503 0 0 0
28.97218 899.01532 0 0 0
28.98098 898.58783 0 0 0
28.98978 898.16162 0 0 0
28.99858 898.62402 0 0 0
29.00738 898.38422 0 0 0
29.01619 898.28802 0 0 0
29.02499 896.91162 0 0 0
29.03379 895.84204 0 0 0
29.04259 895.45319 0 0 0
29.05140 895.10461 0 0 0
29.06020 895.87689 0 0 0
29.06900 896.1134 0 0 0
29.07780 895.49683 0 0 0
29.08660 894.06177 0 0 0
29.09541 894.42871 0 0 0
29.10421 893.64569 0 0 0
29.11301 892.13489 0 0 0
29.12181 892.63239 0 0 0
29.13061 892.63287 0 0 0
29.13942 891.60809 0 0 0
29.14822 891.92761 0 0 0
29.15702 893.40643 0 0 0
29.16583 891.47729 0 0 0
29.17463 888.85388 0 0 0
29.18343 889.71521 0 0 0
29.19223 891.15881 0 0 0
29.20103 889.69543 0 0 0
29.20984 888.64154 0 0 0
29.21864 889.79547 0 0 0
29.22744 889.66998 0 0 0
29.23624 888.70203 0 0 0
29.24504 889.02972 0 0 0
29.25384 889.70123 0 0 0
29.26265 889.77856 0 0 0
29.27145 889.27386 0 0 0
29.28025 888.33008 0 0 0
29.28906 888.34143 0 0 0
29.29785 888.69275 0 0 0
29.30666 887.99261 0 0 0
29.31546 887.58539 0 0 0
29.32426 887.45325 0 0 0
29.33307 887.87231 0 0 0
29.34187 888.00281 0 0 0
29.35067 888.66553 0 0 0
29.35947 888.23401 0 0 0
29.36827 887.71234 0 0 0
29.37708 888.72839 0 0 0
29.38588 887.99591 0 0 0
29.39468 887.66547 0 0 0
29.40348 888.05304 0 0 0
29.41228 888.31653 0 0 0
29.42109 888.16595 0 0 0
29.42989 886.84131 0 0 0
29.43869 886.16046 0 0 0
29.44749 886.91742 0 0 0
29.45630 886.76086 0 0 0
29.46510 886.6618 0 0 0
29.47390 888.28015 0 0 0
29.48270 888.31622 0 0 0
29.49150 886.15161 0 0 0
29.50031 885.30969 0 0 0
29.50911 885.15527 0 0 0
29.51791 885.26611 0 0 0
29.52671 885.42395 0 0 0
29.53551 886.36847 0 0 0
29.54432 886.83685 0 0 0
29.55312 885.57635 0 0 0
29.56192 885.33496 0 0 0
29.57072 885.76538 0 0 0
29.57952 886.03662 0 0 0
29.58833 886.79309 0 0 0
29.59713 886.56122 0 0 0
29.60593 886.28314 0 0 0
29.61473 885.66736 0 0 0
29.62354 885.40472 0 0 0
29.63234 884.87634 0 0 0
29.64114 883.90131 0 0 0
29.64994 884.43707 0 0 0
29.65874 884.85504 0 0 0
29.66755 885.36127 0 0 0
29.67635 888.5376 0 0 0
29.68515 895.00677 0 0 0
29.69395 904.14679 0 0 0
29.70275 932.94543 0 0 0
29.71156 971.43774 0 0 0
29.72036 987.75781 0 0 0
29.72916 994.38751 0 0 0
29.73796 999.39307 0 0 0
29.74676 1009.4174 0 0 0
29.75557 1020.4818 0 0 0
29.76437 1024.0955 0 0 0
29.77317 1018.9724 0 0 0
29.78197 1005.6497 0 0 0
29.79078 981.15637 0 0 0
29.79958 949.82831 0 0 0
29.80838 928.16907 0 0 0
29.81718 907.98456 0 0 0
29.82598 895.03204 0 0 0
29.83479 890.29846 0 0 0
29.84359 887.13715 0 0 0
29.85239 886.23029 0 0 0
29.86119 886.51227 0 0 0
29.86999 886.047 0 0 0
29.87880 885.54358 0 0 0
29.88760 887.13086 0 0 0
29.89640 886.56299 0 0 0
29.90520 886.06348 0 0 0
29.91400 887.65436 0 0 0
29.92281 889.81842 0 0 0
29.93161 891.67249 0 0 0
29.94041 891.1983 0 0 0
29.94921 890.44287 0 0 0
29.95801 889.69135 0 0 0
29.96682 891.1958 0 0 0
29.97562 891.47357 0 0 0
29.98442 890.89941 0 0 0
29.99322 893.34094 0 0 0
30.00203 894.2995 0 0 0
30.01083 893.41534 0 0 0
30.01963 892.15167 0 0 0
30.02843 892.25861 0 0 0
30.03723 894.81909 0 0 0
30.04604 896.27051 0 0 0
30.05484 895.81848 0 0 0
30.06364 895.92432 0 0 0
30.07244 896.10522 0 0 0
30.08124 897.29694 0 0 0
30.09005 899.40582 0 0 0
30.09885 898.99585 0 0 0
30.10765 898.22876 0 0 0
30.11645 897.44336 0 0 0
30.12526 896.03149 0 0 0
30.13406 896.71423 0 0 0
30.14286 897.48151 0 0 0
30.15166 897.68982 0 0 0
30.16046 898.70721 0 0 0
30.16927 897.94562 0 0 0
30.17807 897.02185 0 0 0
30.18687 897.47772 0 0 0
30.19567 895.9588 0 0 0
30.20447 894.16467 0 0 0
30.21328 895.69208 0 0 0
30.22208 897.83887 0 0 0
30.23088 898.43195 0 0 0
30.23968 898.0177 0 0 0
30.24849 896.89282 0 0 0
30.25729 895.7663 0 0 0
30.26609 896.61444 0 0 0
30.27489 896.76776 0 0 0
30.28369 894.74786 0 0 0
30.29250 893.78107 0 0 0
30.30130 894.3833 0 0 0
30.31010 896.33374 0 0 0
30.31890 896.30023 0 0 0
30.32770 894.49896 0 0 0
30.33651 893.66833 0 0 0
30.34531 892.73273 0 0 0
30.35411 892.99994 0 0 0
30.36291 893.55029 0 0 0
30.37172 893.74426 0 0 0
30.38052 892.7345 0 0 0
30.38932 892.16052 0 0 0
30.39812 892.21033 0 0 0
30.40692 893.02563 0 0 0
30.41573 893.73962 0 0 0
30.42453 894.98401 0 0 0
30.43333 895.53467 0 0 0
30.44213 895.12067 0 0 0
30.45093 893.97229 0 0 0
30.45974 894.53619 0 0 0
30.46854 895.27161 0 0 0
30.47734 893.52032 0 0 0
30.48614 891.46985 0 0 0
30.49494 891.69861 0 0 0
30.50375 891.12708 0 0 0
30.51255 891.31488 0 0 0
30.52135 892.01672 0 0 0
30.53015 892.20099 0 0 0
30.53896 892.54193 0 0 0
30.54776 893.22382 0 0 0
30.55656 893.78864 0 0 0
30.56536 893.52319 0 0 0
30.57416 890.91632 0 0 0
30.58297 892.03857 0 0 0
30.59177 893.7569 0 0 0
30.60057 893.78473 0 0 0
30.60937 895.00879 0 0 0
30.61817 894.75049 0 0 0
30.62698 894.18604 0 0 0
30.63578 894.34589 0 0 0
30.64458 895.3913 0 0 0
30.65338 895.37805 0 0 0
30.66218 894.03021 0 0 0
30.67099 894.44458 0 0 0
30.67979 893.85834 0 0 0
30.68859 891.84583 0 0 0
30.69739 891.16681 0 0 0
30.70620 891.36163 0 0 0
30.71500 889.79681 0 0 0
30.72380 889.56158 0 0 0
30.73260 890.16522 0 0 0
30.74140 890.39978 0 0 0
30.75021 891.39276 0 0 0
30.75901 889.71106 0 0 0
30.76781 887.47028 0 0 0
30.77661 887.39252 0 0 0
30.78541 887.15137 0 0 0
30.79422 887.41101 0 0 0
30.80302 888.19623 0 0 0
30.81182 889.34436 0 0 0
30.82062 887.28619 0 0 0
30.82943 883.258 0 0 0
30.83823 884.1463 0 0 0
30.84703 885.42664 0 0 0
30.85583 885.63666 0 0 0
30.86463 886.52405 0 0 0
30.87344 886.87531 0 0 0
30.88224 887.18439 0 0 0
30.89104 887.04022 0 0 0
30.89984 885.90955 0 0 0
30.90864 885.45374 0 0 0
30.91745 888.23346 0 0 0
30.92625 889.37128 0 0 0
30.93505 888.46301 0 0 0
30.94385 889.04999 0 0 0
30.95265 887.58014 0 0 0
30.96146 886.54156 0 0 0
30.97026 888.0174 0 0 0
30.97906 888.75958 0 0 0
30.98786 889.84418 0 0 0
30.99667 889.22919 0 0 0
31.00547 886.63623 0 0 0
31.01427 887.03503 0 0 0
31.02307 890.80969 0 0 0
31.03187 890.90497 0 0 0
31.04068 889.48834 0 0 0
31.04948 890.11029 0 0 0
31.05828 889.42682 0 0 0
31.06708 888.22852 0 0 0
31.07588 886.87488 0 0 0
31.08469 884.75446 0 0 0
31.09349 885.15106 0 0 0
31.10229 888.01428 0 0 0
31.11109 889.04053 0 0 0
31.11989 887.94934 0 0 0
31.12870 885.71167 0 0 0
31.13750 884.84143 0 0 0
31.14630 883.33746 0 0 0
31.15510 880.99634 0 0 0
31.16391 879.17065 0 0 0
31.17271 878.34473 0 0 0
31.18151 881.36902 0 0 0
31.19031 884.26099 0 0 0
31.19911 882.06342 0 0 0
31.20792 877.07233 0 0 0
31.21672 877.81726 0 0 0
31.22552 879.00092 0 0 0
31.23432 877.08789 0 0 0
31.24312 876.57715 0 0 0
31.25193 878.49438 0 0 0
31.26073 879.76013 0 0 0
31.26953 877.5202 0 0 0
31.27833 875.29785 0 0 0
31.28714 876.45215 0 0 0
31.29594 875.25867 0 0 0
31.30474 872.42377 0 0 0
31.31354 873.06134 0 0 0
31.32234 873.16742 0 0 0
31.33115 874.87048 0 0 0
31.33995 875.45038 0 0 0
31.34875 875.61353 0 0 0
31.35755 876.23138 0 0 0
31.36635 876.64319 0 0 0
31.37516 873.2887 0 0 0
31.38396 870.98053 0 0 0
31.39276 871.28351 0 0 0
31.40156 870.20123 0 0 0
31.41036 869.75964 0 0 0
31.41917 870.67535 0 0 0
31.42797 870.16211 0 0 0
31.43677 869.03949 0 0 0
31.44557 871.00916 0 0 0
31.45438 872.28729 0 0 0
31.46318 872.58063 0 0 0
31.47198 870.703 0 0 0
31.48078 869.96149 0 0 0
31.48958 870.51904 0 0 0
31.49839 871.05505 0 0 0
31.50719 871.4422 0 0 0
31.51599 871.45105 0 0 0
31.52479 870.9173 0 0 0
31.53359 869.06396 0 0 0
31.54240 868.26752 0 0 0
31.55120 869.96082 0 0 0
31.56000 870.30737 0 0 0
31.56880 869.72858 0 0 0
31.57760 868.84741 0 0 0
31.58641 870.49097 0 0 0
31.59521 870.9342 0 0 0
31.60401 866.20929 0 0 0
31.61281 866.26752 0 0 0
31.62162 867.13641 0 0 0
31.63042 866.8869 0 0 0
31.63922 868.66541 0 0 0
31.64802 866.0332 0 0 0
31.65682 863.32281 0 0 0
31.66563 864.00769 0 0 0
31.67443 864.81415 0 0 0
31.68323 866.38184 0 0 0
31.69203 864.56219 0 0 0
31.70083 863.17584 0 0 0
31.70964 861.80048 0 0 0
31.71844 862.76648 0 0 0
31.72724 865.70343 0 0 0
31.73604 863.16254 0 0 0
31.74485 860.22266 0 0 0
31.75365 860.38263 0 0 0
31.76245 860.35217 0 0 0
31.77125 860.03693 0 0 0
31.78005 862.53082 0 0 0
31.78886 863.88513 0 0 0
31.79766 863.1424 0 0 0
31.80646 862.45325 0 0 0
31.81526 862.68469 0 0 0
31.82406 862.07928 0 0 0
31.83287 860.8205 0 0 0
31.84167 858.74072 0 0 0
31.85047 859.80444 0 0 0
31.85927 857.01855 0 0 0
31.86807 859.01385 0 0 0
31.87688 864.91113 0 0 0
31.88568 861.98132 0 0 0
31.89448 860.3858 0 0 0
31.90328 861.67889 0 0 0
31.91209 856.06653 0 0 0
31.92089 854.9483 0 0 0
31.92969 854.76282 0 0 0
31.93849 854.37836 0 0 0
31.94729 858.37189 0 0 0
31.95610 858.92206 0 0 0
31.96490 859.9303 0 0 0
31.97370 856.61041 0 0 0
31.98250 854.30615 0 0 0
31.99130 858.66956 0 0 0
32.00011 859.03125 0 0 0
32.00891 857.02075 0 0 0
32.01771 854.3576 0 0 0
32.02651 849.31506 0 0 0
32.03532 849.93878 0 0 0
32.04412 854.97034 0 0 0
32.05292 852.63483 0 0 0
32.06172 850.02246 0 0 0
32.07052 852.11945 0 0 0
32.07933 854.11603 0 0 0
32.08813 853.42358 0 0 0
32.09693 848.76227 0 0 0
32.10573 845.13354 0 0 0
32.11454 847.02954 0 0 0
32.12334 848.08423 0 0 0
32.13214 847.99689 0 0 0
32.14094 844.53851 0 0 0
32.14974 843.63239 0 0 0
32.15855 844.75305 0 0 0
32.16735 844.31152 0 0 0
32.17615 846.67542 0 0 0
32.18495 841.45099 0 0 0
32.19375 837.23407 0 0 0
32.20256 840.17896 0 0 0
32.21136 837.46356 0 0 0
32.22016 831.04187 0 0 0
32.22896 833.86859 0 0 0
32.23776 842.1355 0 0 0
32.24657 849.05255 0 0 0
32.25537 845.82605 0 0 0
32.26417 838.94745 0 0 0
32.27297 842.07172 0 0 0
32.28178 845.22052 0 0 0
32.29058 841.00397 0 0 0
32.29938 840.43597 0 0 0
32.30818 838.47284 0 0 0
32.31698 833.97107 0 0 0
32.32579 829.69196 0 0 0
32.33459 835.52625 0 0 0
32.34339 837.39703 0 0 0
32.35219 836.19568 0 0 0
32.36099 827.97784 0 0 0
32.36980 823.35791 0 0 0
32.37860 829.54596 0 0 0
32.38740 830.50806 0 0 0
32.39620 829.29742 0 0 0
32.40500 831.39209 0 0 0
32.41381 831.83972 0 0 0
32.42261 827.36945 0 0 0
32.43141 822.25146 0 0 0
32.44021 812.81378 0 0 0
32.44902 818.86237 0 0 0
32.45782 827.3288 0 0 0
32.46662 829.55255 0 0 0
32.47542 824.3324 0 0 0
32.48422 822.07239 0 0 0
32.49303 824.25885 0 0 0
32.50183 821.20294 0 0 0
32.51063 811.39301 0 0 0
32.51943 802.659 0 0 0
32.52823 796.2066 0 0 0
32.53704 809.70319 0 0 0
32.54584 820.73633 0 0 0
32.55464 815.91345 0 0 0
32.56344 802.62207 0 0 0
32.57225 796.1358 0 0 0
32.58105 795.26392 0 0 0
32.58985 805.07129 0 0 0
32.59865 799.32056 0 0 0
32.60745 794.58252 0 0 0
32.61626 794.61304 0 0 0
32.62506 786.4187 0 0 0
32.63386 772.65228 0 0 0
32.64266 776.10956 0 0 0
32.65146 781.09235 0 0 0
32.66027 779.04626 0 0 0
32.66907 779.82898 0 0 0
32.67787 772.76349 0 0 0
32.68667 758.79492 0 0 0
32.69547 744.60742 0 0 0
32.70428 741.59204 0 0 0
32.71308 744.18964 0 0 0
32.72188 741.6402 0 0 0
32.73068 734.00623 0 0 0
32.73949 723.27411 0 0 0
32.74829 721.87488 0 0 0
32.75709 710.4212 0 0 0
32.76589 695.4884 0 0 0
32.77469 683.68018 0 0 0
32.78350 657.25079 0 0 0
32.79230 629.28223 0 0 0
32.80110 594.36755 0 0 0
32.80990 547.86224 0 0 0
32.81870 498.16989 0 0 0
32.82751 417.76825 0 0 0
32.83631 274.58356 0 0 0
32.84511 183.12489 0 0 0
32.85391 183.79233 0 0 0
32.86271 182.96692 0 0 0
32.87152 189.02737 0 0 0
32.88032 198.17754 0 0 0
32.88912 198.88559 0 0 0
32.89792 196.55748 0 0 0
32.90673 199.56023 0 0 0
32.91553 199.17293 0 0 0
32.92433 188.21968 0 0 0
32.93313 178.09756 0 0 0
32.94193 189.42223 0 0 0
32.95074 194.85846 0 0 0
32.95954 191.77049 0 0 0
32.96834 193.00385 0 0 0
32.97714 191.19339 0 0 0
32.98594 185.02995 0 0 0
32.99475 184.30815 0 0 0
33.00355 191.07813 0 0 0
33.01235 195.77998 0 0 0
33.02115 188.50418 0 0 0
33.02996 183.18137 0 0 0
33.03876 178.44177 0 0 0
33.04756 185.12645 0 0 0
33.05636 195.45609 0 0 0
33.06516 191.08757 0 0 0
33.07397 189.28635 0 0 0
33.08277 194.23532 0 0 0
33.09157 207.07385 0 0 0
33.10037 211.89339 0 0 0
33.10917 207.45799 0 0 0
33.11798 195.02513 0 0 0
33.12678 185.63731 0 0 0
33.13558 183.95979 0 0 0
33.14438 189.13959 0 0 0
33.15318 190.88336 0 0 0
33.16199 196.90851 0 0 0
33.17079 193.07312 0 0 0
33.17959 192.18208 0 0 0
33.18839 195.5649 0 0 0
33.19720 195.35931 0 0 0
33.20600 196.4333 0 0 0
33.21480 205.81169 0 0 0
33.22360 204.0733 0 0 0
33.23240 186.8287 0 0 0
33.24121 181.05466 0 0 0
33.25001 194.89378 0 0 0
33.25881 207.6523 0 0 0
33.26761 207.78085 0 0 0
33.27641 203.29547 0 0 0
33.28522 200.35899 0 0 0
33.29402 197.86592 0 0 0
33.30282 198.90671 0 0 0
33.31162 198.18875 0 0 0
33.32042 186.96025 0 0 0
33.32923 182.50981 0 0 0
33.33803 179.34294 0 0 0
33.34683 178.93346 0 0 0
33.35563 179.83507 0 0 0
33.36444 185.1991 0 0 0
33.37324 183.2811 0 0 0
33.38204 171.71005 0 0 0
33.39084 176.39876 0 0 0
33.39964 183.83948 0 0 0
33.40845 179.0092 0 0 0
33.41725 184.87697 0 0 0
33.42605 189.79306 0 0 0
33.43485 185.7627 0 0 0
33.44365 183.31477 0 0 0
33.45246 185.71577 0 0 0
33.46126 192.35962 0 0 0
33.47006 194.01294 0 0 0
33.47886 194.13623 0 0 0
33.48766 191.45744 0 0 0
33.49647 192.77818 0 0 0
33.50527 194.22141 0 0 0
33.51407 189.53758 0 0 0
33.52287 188.82332 0 0 0
33.53168 192.01196 0 0 0
33.54048 200.52623 0 0 0
33.54928 201.26451 0 0 0
33.55808 199.05566 0 0 0
33.56688 198.13857 0 0 0
33.57569 194.31961 0 0 0
33.58449 187.12158 0 0 0
33.59329 181.25975 0 0 0
33.60209 183.73402 0 0 0
33.61089 181.95064 0 0 0
33.61970 176.77885 0 0 0
33.62850 177.42149 0 0 0
33.63730 181.90335 0 0 0
33.64610 186.2085 0 0 0
33.65491 186.23804 0 0 0
33.66371 189.72279 0 0 0
33.67251 201.93968 0 0 0
33.68131 210.38478 0 0 0
33.69011 208.89185 0 0 0
33.69892 201.47592 0 0 0
33.70772 203.07327 0 0 0
33.71652 197.57463 0 0 0
33.72532 187.11308 0 0 0
33.73412 189.50105 0 0 0
33.74293 191.93025 0 0 0
33.75173 186.95335 0 0 0
33.76053 183.25893 0 0 0
33.76933 197.16681 0 0 0
33.77813 207.45911 0 0 0
33.78694 210.26794 0 0 0
33.79574 202.97542 0 0 0
33.80454 191.86653 0 0 0
33.81334 186.27484 0 0 0
33.82215 191.49051 0 0 0
33.83095 199.80992 0 0 0
33.83975 209.96185 0 0 0
33.84855 213.45628 0 0 0
33.85735 211.91589 0 0 0
33.86616 194.99486 0 0 0
33.87496 188.15558 0 0 0
33.88376 188.47981 0 0 0
33.89256 194.82686 0 0 0
33.90136 202.63655 0 0 0
33.91017 196.32149 0 0 0
33.91897 185.94612 0 0 0
33.92777 183.41042 0 0 0
33.93657 185.61337 0 0 0
33.94537 194.16289 0 0 0
33.95418 196.46211 0 0 0
33.96298 202.43575 0 0 0
33.97178 210.35582 0 0 0
33.98058 202.38956 0 0 0
33.98939 195.45085 0 0 0
33.99819 192.49713 0 0 0
34.00699 188.05287 0 0 0
34.01579 192.12741 0 0 0
34.02459 195.81573 0 0 0
34.03340 196.96991 0 0 0
34.04220 194.03546 0 0 0
34.05100 194.31868 0 0 0
34.05980 199.53549 0 0 0
34.06860 204.71039 0 0 0
34.07741 204.12154 0 0 0
34.08621 206.74263 0 0 0
34.09501 213.89101 0 0 0
34.10381 202.23268 0 0 0
34.11262 187.54031 0 0 0
34.12142 178.73334 0 0 0
34.13022 180.57169 0 0 0
34.13902 192.80644 0 0 0
34.14782 193.66013 0 0 0
34.15663 205.33585 0 0 0
34.16543 207.87503 0 0 0
34.17423 195.79424 0 0 0
34.18303 189.42387 0 0 0
34.19183 192.06566 0 0 0
34.20064 199.08926 0 0 0
34.20944 204.67491 0 0 0
34.21824 211.73123 0 0 0
34.22704 211.48395 0 0 0
34.23584 204.18033 0 0 0
34.24465 193.48401 0 0 0
34.25345 182.8327 0 0 0
34.26225 183.89091 0 0 0
34.27105 192.00761 0 0 0
34.27986 209.3694 0 0 0
34.28866 209.96667 0 0 0
34.29746 200.92477 0 0 0
34.30626 208.4975 0 0 0
34.31506 204.22383 0 0 0
34.32387 200.26721 0 0 0
34.33267 199.59552 0 0 0
34.34147 202.1288 0 0 0
34.35027 203.74908 0 0 0
34.35907 198.72467 0 0 0
34.36788 193.47061 0 0 0
34.37668 189.87607 0 0 0
34.38548 190.65582 0 0 0
34.39428 198.8006 0 0 0
34.40308 203.91165 0 0 0
34.41189 203.01479 0 0 0
34.42069 192.94543 0 0 0
34.42949 190.43655 0 0 0
34.43829 203.40422 0 0 0
34.44710 215.78629 0 0 0
34.45590 212.72339 0 0 0
34.46470 199.10956 0 0 0
34.47350 195.88515 0 0 0
34.48230 197.4379 0 0 0
34.49111 201.31123 0 0 0
34.49991 211.44731 0 0 0
34.50871 216.61969 0 0 0
34.51751 218.06955 0 0 0
34.52631 208.25323 0 0 0
34.53512 207.1899 0 0 0
34.54392 212.54012 0 0 0
34.55272 214.36192 0 0 0
34.56152 212.64371 0 0 0
34.57033 214.98157 0 0 0
34.57913 215.18159 0 0 0
34.58793 207.06891 0 0 0
34.59673 198.97571 0 0 0
34.60553 195.77441 0 0 0
34.61434 193.0289 0 0 0
34.62314 198.46378 0 0 0
34.63194 201.95906 0 0 0
34.64074 198.45401 0 0 0
34.64954 197.48047 0 0 0
34.65835 202.99162 0 0 0
34.66715 203.51886 0 0 0
34.67595 196.58788 0 0 0
34.68475 199.2618 0 0 0
34.69355 210.79553 0 0 0
34.70236 221.38554 0 0 0
34.71116 219.93289 0 0 0
34.71996 219.33305 0 0 0
34.72876 214.13214 0 0 0
34.73757 186.79074 0 0 0
34.74637 172.6716 0 0 0
34.75517 184.83305 0 0 0
34.76397 190.68495 0 0 0
34.77277 191.76317 0 0 0
34.78158 203.6133 0 0 0
34.79038 214.10388 0 0 0
34.79918 203.98979 0 0 0
34.80798 192.29996 0 0 0
34.81678 199.2977 0 0 0
34.82559 214.67528 0 0 0
34.83439 213.23004 0 0 0
34.84319 195.78632 0 0 0
34.85199 197.67174 0 0 0
34.86079 200.13042 0 0 0
34.86960 197.0208 0 0 0
34.87840 199.06169 0 0 0
34.88720 202.76657 0 0 0
34.89600 222.01871 0 0 0
34.90481 230.51768 0 0 0
34.91361 232.95673 0 0 0
34.92241 223.46333 0 0 0
34.93121 214.15761 0 0 0
34.94001 219.41507 0 0 0
34.94882 222.45355 0 0 0
34.95762 217.22035 0 0 0
34.96642 210.47404 0 0 0
34.97522 203.13741 0 0 0
34.98402 196.84781 0 0 0
34.99283 200.25604 0 0 0
35.00163 205.62408 0 0 0
35.01043 208.59055 0 0 0
35.01923 209.67601 0 0 0
35.02804 211.84383 0 0 0
35.03684 210.75725 0 0 0
35.04564 206.87979 0 0 0
35.05444 198.06523 0 0 0
35.06324 205.90271 0 0 0
35.07205 212.43581 0 0 0
35.08085 213.5907 0 0 0
35.08965 213.75685 0 0 0
35.09845 223.19142 0 0 0
35.10725 226.82002 0 0 0
35.11606 226.2093 0 0 0
35.12486 224.94536 0 0 0
35.13366 221.64099 0 0 0
35.14246 214.96097 0 0 0
35.15126 218.21695 0 0 0
35.16007 214.92023 0 0 0
35.16887 216.53397 0 0 0
35.17767 218.36627 0 0 0
35.18647 209.80695 0 0 0
35.19528 207.10396 0 0 0
35.20408 208.38385 0 0 0
loop_
_gsas_i100_meas
2.34
7.18
4.72
0.01
6.01
0.67
100.00
4.70
73.61
30.60
57.44
24.65
1.09
0.00
49.72
36.39
2.87
38.26
32.39
23.00
6.05
0.30
1.03
8.69
3.90
25.44
4.40
43.86
6.68
0.22
1.14
0.00
0.57
5.28
1.19
0.04
7.63
6.82
5.11
14.55
24.66
6.68
6.02
0.17
3.68
1.44
0.44
0.33
10.73
0.23
3.14
10.30
0.94
14.65
5.33
16.27
0.19
3.62
4.84
19.98
0.03
5.05
0.01
0.19
0.45
1.03
1.00
2.92
2.40
0.78
1.50
6.76
0.27
0.03
13.41
0.62
0.00
3.72
3.89
0.02
0.67
10.76
0.13
8.93
0.57
10.12
12.43
1.73
21.05
2.22
5.07
0.96
3.12
0.33
1.37
5.29
0.01
1.96
0.22
0.31
5.00
0.59
0.81
0.26
0.03
12.07
0.59
1.86
0.71
3.85
1.62
13.22
8.62
2.16
0.26
3.02
1.49
0.09
0.04
0.06
0.61
0.46
0.55
0.03
0.03
5.10
13.95
1.06
1.47
0.02
0.21
0.01
0.04
0.04
0.89
2.69
0.15
0.36
0.19
0.41
3.29
0.04
0.02
0.09
4.92
8.64
5.58
0.00
1.49
0.42
1.10
2.93
0.10
0.35
0.02
1.05
1.03
3.01
2.12
2.88
0.26
