#------------------------------------------------------------------------------
#$Date: 2020-12-06 16:52:11 +0200 (Sun, 06 Dec 2020) $
#$Revision: 259624 $
#$URL: file:///home/coder/svn-repositories/cod/cif/7/24/13/7241362.cif $
#------------------------------------------------------------------------------
#
# This file is available in the Crystallography Open Database (COD),
# http://www.crystallography.net/
#
# All data on this site have been placed in the public domain by the
# contributors.
#
data_7241362
loop_
_publ_author_name
'Brown, John T.'
'Zeller, Matthias'
'Rosokha, Sergiy V.'
_publ_section_title
;
 Effects of structural variations on \p-dimer formation: long-distance
 multicenter bonding of cation-radicals of tetrathiafulvalene analogues.
;
_journal_issue                   43
_journal_name_full               'Physical chemistry chemical physics : PCCP'
_journal_page_first              25054
_journal_page_last               25065
_journal_paper_doi               10.1039/d0cp04891g
_journal_volume                  22
_journal_year                    2020
_chemical_formula_moiety         'C H6 B11 Br6, C6 H4 S4'
_chemical_formula_sum            'C7 H10 B11 Br6 S4'
_chemical_formula_weight         820.76
_space_group_crystal_system      monoclinic
_space_group_IT_number           11
_space_group_name_Hall           '-P 2yb'
_space_group_name_H-M_alt        'P 1 21/m 1'
_atom_sites_solution_hydrogens   geom
_atom_sites_solution_primary     direct
_atom_sites_solution_secondary   difmap
_audit_creation_method           SHELXL-2018/3
_audit_update_record
;
2020-06-22 deposited with the CCDC.	2020-10-06 downloaded from the CCDC.
;
_cell_angle_alpha                90
_cell_angle_beta                 92.209(3)
_cell_angle_gamma                90
_cell_formula_units_Z            2
_cell_length_a                   8.1423(6)
_cell_length_b                   13.7726(10)
_cell_length_c                   10.2776(7)
_cell_measurement_reflns_used    9097
_cell_measurement_temperature    150(2)
_cell_measurement_theta_max      32.4794
_cell_measurement_theta_min      2.4740
_cell_volume                     1151.68(14)
_computing_cell_refinement       'SAINT V8.38A (Bruker, 2016)'
_computing_data_collection       'Apex3 v2018.1-0 (Bruker, 2018)'
_computing_data_reduction        'SAINT V8.38A (Bruker, 2016)'
_computing_structure_refinement
;  
SHELXL-2018/3 (Sheldrick, 2015, 2018), 
SHELXLE Rev988 (H\"ubschle et al., 2011)
;
_computing_structure_solution    'SHELXS-97 (Sheldrick, 2008)'
_diffrn_ambient_temperature      150(2)
_diffrn_detector_area_resol_mean 10.4167
_diffrn_measured_fraction_theta_full 1.000
_diffrn_measured_fraction_theta_max 0.992
_diffrn_measurement_device_type  'Bruker AXS D8 Quest CMOS diffractometer'
_diffrn_measurement_method       'omega and phi scans'
_diffrn_radiation_monochromator  'Triumph curved graphite crystal'
_diffrn_radiation_type           MoK\a
_diffrn_radiation_wavelength     0.71073
_diffrn_reflns_av_R_equivalents  0.0607
_diffrn_reflns_av_unetI/netI     0.0583
_diffrn_reflns_Laue_measured_fraction_full 1.000
_diffrn_reflns_Laue_measured_fraction_max 0.992
_diffrn_reflns_limit_h_max       10
_diffrn_reflns_limit_h_min       -12
_diffrn_reflns_limit_k_max       21
_diffrn_reflns_limit_k_min       -21
_diffrn_reflns_limit_l_max       15
_diffrn_reflns_limit_l_min       -14
_diffrn_reflns_number            24760
_diffrn_reflns_point_group_measured_fraction_full 1.000
_diffrn_reflns_point_group_measured_fraction_max 0.992
_diffrn_reflns_theta_full        25.242
_diffrn_reflns_theta_max         33.189
_diffrn_reflns_theta_min         2.474
_diffrn_source                   'fine focus sealed tube X-ray source'
_diffrn_source_current           '30 mA'
_diffrn_source_voltage           '50 kV'
_exptl_absorpt_coefficient_mu    10.817
_exptl_absorpt_correction_T_max  0.7465
_exptl_absorpt_correction_T_min  0.4190
_exptl_absorpt_correction_type   multi-scan
_exptl_absorpt_process_details
;
 SADABS 2016/2: Krause, L., Herbst-Irmer, R., Sheldrick G.M. & Stalke D.,
 J. Appl. Cryst. 48 (2015) 3-10
;
_exptl_crystal_colour            red
_exptl_crystal_density_diffrn    2.367
_exptl_crystal_description       prism
_exptl_crystal_F_000             762
_exptl_crystal_size_max          0.310
_exptl_crystal_size_mid          0.240
_exptl_crystal_size_min          0.110
_refine_diff_density_max         1.334
_refine_diff_density_min         -1.325
_refine_diff_density_rms         0.185
_refine_ls_extinction_method     none
_refine_ls_goodness_of_fit_ref   1.007
_refine_ls_hydrogen_treatment    constr
_refine_ls_matrix_type           full
_refine_ls_number_parameters     136
_refine_ls_number_reflns         4530
_refine_ls_number_restraints     0
_refine_ls_restrained_S_all      1.007
_refine_ls_R_factor_all          0.0689
_refine_ls_R_factor_gt           0.0371
_refine_ls_shift/su_max          0.001
_refine_ls_shift/su_mean         0.000
_refine_ls_structure_factor_coef Fsqd
_refine_ls_weighting_details
'w=1/[\s^2^(Fo^2^)+(0.0400P)^2^] where P=(Fo^2^+2Fc^2^)/3'
_refine_ls_weighting_scheme      calc
_refine_ls_wR_factor_gt          0.0735
_refine_ls_wR_factor_ref         0.0821
_reflns_Friedel_coverage         0.000
_reflns_number_gt                3233
_reflns_number_total             4530
_reflns_threshold_expression     'I > 2\s(I)'
_cod_data_source_file            d0cp04891g2.cif
_cod_data_source_block           RS142_0m
_cod_depositor_comments
'Adding full bibliography for 7241361--7241370.cif.'
_cod_original_sg_symbol_H-M      'P 21/m'
_cod_database_code               7241362
_shelx_shelxl_version_number     2018/3
_shelx_space_group_comment
;
The symmetry employed for this shelxl refinement is uniquely defined
by the following loop, which should always be used as a source of
symmetry information in preference to the above space-group names.
They are only intended as comments.
;
_shelx_estimated_absorpt_t_min   0.134
_shelx_estimated_absorpt_t_max   0.382
_shelx_res_file
;
TITL RS142_0m in P21/m
    RS142_0m.res
    created by SHELXL-2018/3 at 19:25:39 on 16-Nov-2019
CELL  0.71073    8.1423   13.7726   10.2776   90.0000   92.2089   90.0000
ZERR        2    0.0006    0.0010    0.0007    0.0000    0.0028    0.0000
LATT   1
SYMM             - X ,    0.50000 + Y ,            - Z
SFAC  C  H  B Br  S
UNIT 14 20 22 12 8
LIST 6 ! automatically inserted. Change 6 to 4 for CHECKCIF!!
TEMP -123.150
SIZE 0.31 0.24 0.11

L.S. 5
FMAP 2
PLAN 20
ACTA
CONF
BOND $H
WGHT    0.040000
FVAR       0.29726
BR1   4    0.347836    0.250000    0.823418    10.50000    0.01337    0.01870 =
         0.01633    0.00000   -0.00128    0.00000
BR2   4   -0.109900    0.250000    0.955516    10.50000    0.01838    0.03114 =
         0.01562    0.00000    0.00516    0.00000
BR3   4    0.065867    0.473734    0.791643    11.00000    0.01655    0.01519 =
         0.02710   -0.00473    0.00111   -0.00030
BR4   4    0.333141    0.389758    0.506873    11.00000    0.02364    0.02488 =
         0.02051    0.00430    0.00633   -0.00489
S1    5    0.601450    0.367895    0.208830    11.00000    0.01448    0.02242 =
         0.02885   -0.00201   -0.00069   -0.00179
S2    5    0.255208    0.367198    0.129820    11.00000    0.01586    0.01901 =
         0.02724   -0.00316   -0.00292    0.00134
C1    1    0.428809    0.300482    0.169361    11.00000    0.01325    0.02103 =
         0.01287   -0.00074    0.00271    0.00038
C2    1    0.348872    0.478704    0.147072    11.00000    0.02468    0.01497 =
         0.02655   -0.00452    0.00287    0.00015
AFIX  43
H2    2    0.290114    0.537307    0.130673    11.00000   -1.20000
AFIX   0
C3    1    0.508323    0.479276    0.184651    11.00000    0.02570    0.01668 =
         0.02752   -0.00175    0.00604   -0.00321
AFIX  43
H3    2    0.567288    0.538251    0.197374    11.00000   -1.20000
AFIX   0
C4    1   -0.172703    0.250000    0.517058    10.50000    0.02056    0.02078 =
         0.01627    0.00000   -0.00415    0.00000
AFIX 153
H4    2   -0.283884    0.250000    0.449409    10.50000   -1.20000
AFIX   0
B1    3    0.147056    0.250000    0.711896    10.50000    0.01098    0.01508 =
         0.01327    0.00000   -0.00117    0.00000
B2    3   -0.057836    0.250000    0.771759    10.50000    0.01259    0.01722 =
         0.01464    0.00000    0.00032    0.00000
B3    3    0.020047    0.354892    0.691985    11.00000    0.01425    0.01317 =
         0.01529   -0.00064   -0.00028   -0.00020
B4    3    0.143235    0.315272    0.561403    11.00000    0.01703    0.01668 =
         0.01528    0.00147    0.00123   -0.00178
B5    3   -0.184487    0.314873    0.657593    11.00000    0.01644    0.01728 =
         0.01768   -0.00052   -0.00093    0.00099
AFIX 153
H5    2   -0.294100    0.357462    0.687240    11.00000   -1.20000
AFIX   0
B6    3   -0.060799    0.355367    0.528410    11.00000    0.01840    0.02004 =
         0.01829    0.00191   -0.00327    0.00011
AFIX 153
H6    2   -0.088910    0.424195    0.473950    11.00000   -1.20000
AFIX   0
B7    3    0.013663    0.250000    0.448526    10.50000    0.02334    0.01919 =
         0.01729    0.00000   -0.00065    0.00000
AFIX 153
H7    2    0.033608    0.250000    0.341310    10.50000   -1.20000
AFIX   0
HKLF 4




REM  RS142_0m in P21/m
REM wR2 = 0.0821, GooF = S = 1.007, Restrained GooF = 1.007 for all data
REM R1 = 0.0371 for 3233 Fo > 4sig(Fo) and 0.0689 for all 4530 data
REM 136 parameters refined using 0 restraints

END

WGHT      0.0400      0.0000

REM Highest difference peak  1.334,  deepest hole -1.325,  1-sigma level  0.185
Q1    1  -0.1053  0.1894  0.9594  11.00000  0.05    1.33
Q2    1   0.3308  0.3312  0.5061  11.00000  0.05    1.11
Q3    1   0.3305  0.4544  0.5069  11.00000  0.05    1.06
Q4    1   0.3460  0.1930  0.8207  11.00000  0.05    1.01
Q5    1   0.0766  0.4103  0.7955  11.00000  0.05    0.98
Q6    1   0.0721  0.5320  0.7963  11.00000  0.05    0.93
Q7    1   0.1930  0.2500  0.9038  10.50000  0.05    0.78
Q8    1  -0.0613  0.4843  0.7792  11.00000  0.05    0.73
Q9    1   0.3664  0.2500  0.7757  10.50000  0.05    0.71
Q10   1   0.2530  0.2500  0.7343  10.50000  0.05    0.70
Q11   1  -0.2193  0.2015  0.9785  11.00000  0.05    0.70
Q12   1   0.3048  0.4335  0.1326  11.00000  0.05    0.68
Q13   1   0.5000  0.5000  0.5000  10.50000  0.05    0.68
Q14   1   0.1923  0.4632  0.8029  11.00000  0.05    0.65
Q15   1   0.1251  0.2500  0.9713  10.50000  0.05    0.64
Q16   1   0.0018  0.2099  0.9401  11.00000  0.05    0.63
Q17   1   0.3409  0.2500  0.6289  10.50000  0.05    0.63
Q18   1   0.3684  0.3223  0.1782  11.00000  0.05    0.63
Q19   1  -0.0789  0.2500  1.1283  10.50000  0.05    0.63
Q20   1  -0.1447  0.5249  0.6798  11.00000  0.05    0.62
;
_shelx_res_checksum              25416
_shelx_hkl_file
;
   1   0   0 158.059 9.82893   2
  -1   0   0 179.204 9.99960   1
  -2   0   0 20.5382 1.47961   3
   2   0   0 19.7740 2.66160   4
   2   0   0 25.1212 3.13175   2
  -2   0   0 27.0313 3.48265   1
  -2   0   0 20.4468 2.93829   2
   3   0   0 2403.09 145.640   4
  -3   0   0 2608.02 145.826   2
  -3   0   0 2787.35 146.474   1
  -4   0   0 1444.31 81.9248   2
   4   0   0 1414.96 81.6308   4
  -4   0   0 1476.07 82.6271   1
  -5   0   0 659.431 39.7954   1
   5   0   0 666.032 38.7319   4
  -5   0   0 668.456 39.3012   2
   6   0   0 -5.6107 5.29557   1
  -6   0   0 5.74870 5.20378   1
  -6   0   0 11.3805 7.37920   2
   6   0   0 13.4517 5.86964   4
  -7   0   0 974.645 59.4059   2
   7   0   0 1036.38 58.4357   4
  -8   0   0 94.9476 12.6712   2
  -8   0   0 68.3194 9.91861   1
   8   0   0 50.1635 11.2597   1
  -9   0   0 23.7500 12.5125   2
   9   0   0 33.1432 9.12772   4
 -10   0   0 199.276 19.9777   2
  10   0   0 181.649 20.0845   4
 -11   0   0 16.2523 16.2459   2
 -12   0   0 164.426 22.0050   2
   1  -1   0 913.626 54.2798   2
  -1  -1   0 1003.49 54.3873   1
  -1  -1   0 912.496 54.2043   4
   1   1   0 970.254 54.2198   4
  -1   1   0 1029.73 54.6730   1
  -1   1   0 978.721 54.1394   3
   2  -1   0 2172.03 112.709   1
   2  -1   0 1931.31 111.652   3
  -2  -1   0 2110.59 112.310   1
   2  -1   0 1905.73 112.030   2
  -2  -1   0 1878.35 111.913   4
   2   1   0 2106.14 112.390   1
   2   1   0 1956.36 111.896   4
  -2   1   0 1951.31 112.109   2
  -2   1   0 1978.36 111.638   3
  -3  -1   0 316.307 18.4568   1
   3  -1   0 298.355 17.2339   3
   3  -1   0 301.916 18.3458   2
   3  -1   0 308.716 19.0806   1
  -3  -1   0 320.118 18.3601   2
  -3  -1   0 273.951 17.0420   3
  -3  -1   0 251.701 17.9773   4
   3   1   0 330.684 18.7315   1
  -3   1   0 318.696 18.8805   1
   3   1   0 304.636 17.9835   4
  -3   1   0 321.913 18.5428   2
   4  -1   0 582.423 37.6100   4
  -4  -1   0 655.599 38.2847   1
   4  -1   0 613.817 36.6994   3
   4  -1   0 662.675 38.9942   1
   4  -1   0 667.033 37.9543   2
  -4  -1   0 647.762 37.9040   2
  -4   1   0 669.925 38.0798   2
   4   1   0 660.623 37.5279   4
   4   1   0 709.033 38.7290   1
  -4   1   0 652.832 38.6679   1
   5  -1   0 121.531 13.0464   1
  -5  -1   0 139.536 11.8721   2
   5  -1   0 133.108 8.03275   3
  -5  -1   0 142.058 11.2372   1
   5  -1   0 160.976 11.2455   4
   5   1   0 129.339 10.8482   4
   5   1   0 136.966 12.4037   1
  -5   1   0 125.079 11.6238   1
  -5   1   0 129.161 12.3979   2
  -6  -1   0 67.7055 9.25600   1
   6  -1   0 70.0187 7.73753   4
   6  -1   0 72.6614 12.5674   1
  -6  -1   0 88.4378 8.98489   2
  -6   1   0 50.0386 7.64477   1
  -6   1   0 74.0579 9.47419   2
   6   1   0 61.7371 8.73058   1
  -7  -1   0 509.411 31.4600   2
  -7  -1   0 445.563 30.9625   1
   7   1   0 469.920 32.7229   1
   7   1   0 481.386 30.0709   4
  -7   1   0 484.331 31.8556   1
  -7   1   0 527.812 31.9170   2
   8  -1   0 132.828 14.9245   4
   8  -1   0 84.5827 19.5078   1
  -8  -1   0 149.649 15.4832   1
  -8  -1   0 133.672 14.4803   2
   8   1   0 214.214 15.6465   4
   8   1   0 161.816 19.0714   1
  -8   1   0 129.219 14.9614   2
  -8   1   0 158.396 16.5547   1
  -9  -1   0 232.361 23.1391   2
   9  -1   0 224.770 20.0014   4
   9   1   0 259.318 20.0771   4
  -9   1   0 214.555 23.6616   2
  10  -1   0 46.8285 10.8006   4
 -10  -1   0 6.83297 13.5938   2
 -10   1   0 33.8913 15.1134   2
 -11  -1   0 400.371 35.7158   2
 -11   1   0 431.933 35.5107   2
 -12  -1   0 -0.5297 17.3189   2
 -12   1   0 32.0849 18.1045   2
   0  -2   0 127.031 7.11493   2
   0  -2   0 121.375 7.32996   1
   0   2   0 134.572 7.25097   3
   0   2   0 106.520 7.27934   1
  -1  -2   0 67.5344 4.44982   1
  -1  -2   0 74.2231 4.34857   3
   1  -2   0 68.2120 4.46972   3
   1  -2   0 67.6275 4.61610   2
  -1  -2   0 63.9599 4.51117   2
  -1   2   0 65.0812 4.40173   3
   1   2   0 67.3025 4.49312   1
  -1   2   0 66.4279 5.10121   1
  -1   2   0 68.7406 4.67596   2
   1   2   0 68.8609 4.61336   2
   2  -2   0 505.594 28.7371   3
   2  -2   0 514.397 29.8517   1
   2  -2   0 484.334 29.1062   2
  -2  -2   0 530.548 28.6372   3
  -2  -2   0 499.062 28.9535   4
  -2  -2   0 511.338 29.1407   1
  -2   2   0 500.489 29.7997   1
   2   2   0 533.150 29.3495   1
  -2   2   0 496.851 28.7136   3
   3  -2   0 121.138 9.71447   2
   3  -2   0 125.268 7.96166   3
  -3  -2   0 128.084 7.59296   3
  -3  -2   0 128.309 8.92262   1
  -3  -2   0 133.573 7.72467   3
  -3  -2   0 121.751 8.88916   4
   3  -2   0 130.872 10.1408   1
   3   2   0 134.622 8.89904   4
   3   2   0 133.789 9.38268   1
  -3   2   0 129.240 9.79157   2
  -4  -2   0 448.109 24.8050   3
   4  -2   0 434.626 25.1606   3
  -4  -2   0 445.025 26.4531   1
   4  -2   0 416.502 26.3918   2
  -4  -2   0 443.384 26.4356   2
   4  -2   0 438.187 27.6512   1
  -4  -2   0 401.176 26.0593   4
   4   2   0 461.320 27.0570   1
  -4   2   0 444.561 26.8161   2
  -4   2   0 468.832 27.4833   1
   4   2   0 451.503 26.0023   4
   5  -2   0 64.6099 7.67989   2
  -5  -2   0 67.6587 6.98037   4
  -5  -2   0 60.1378 7.57769   2
   5  -2   0 69.0345 8.35678   1
   5  -2   0 61.9709 5.51884   3
   5  -2   0 60.2590 6.75637   4
  -5  -2   0 65.1989 7.71582   1
  -5   2   0 65.6144 9.23422   1
   5   2   0 71.8219 8.13692   1
  -5   2   0 71.0182 8.48940   2
   5   2   0 60.8561 6.43259   4
   6  -2   0 184.685 15.7631   4
   6  -2   0 162.132 11.1859   3
  -6  -2   0 184.490 16.1394   2
   6  -2   0 182.792 15.4034   2
   6  -2   0 189.612 17.0007   1
  -6  -2   0 189.076 14.1222   1
   6   2   0 177.557 13.9158   4
  -6   2   0 193.282 16.2565   2
  -6   2   0 198.136 15.8130   1
   6   2   0 186.130 15.8875   1
   7  -2   0 283.363 23.5448   1
  -7  -2   0 236.943 20.6115   2
   7  -2   0 318.756 19.6138   4
  -7  -2   0 256.309 19.5088   1
  -7   2   0 314.654 22.9534   2
  -7   2   0 262.207 20.9400   1
   7   2   0 252.386 21.9500   1
   7   2   0 272.992 19.1890   4
  -8  -2   0 438.738 30.6533   2
   8  -2   0 491.526 29.0165   4
  -8  -2   0 420.497 29.8018   1
   8  -2   0 380.562 33.4221   1
   8   2   0 422.699 32.4296   1
  -8   2   0 435.461 31.0300   1
   8   2   0 493.280 28.9231   4
  -8   2   0 502.634 32.5303   2
  -9  -2   0 326.982 28.3317   2
   9  -2   0 390.294 25.8686   4
  -9   2   0 378.230 31.1174   2
  10  -2   0 11.6085 10.4543   4
 -10  -2   0 10.5914 12.9366   2
 -10   2   0 18.3276 14.9922   2
 -11  -2   0 43.6495 15.7513   2
 -11   2   0 51.2838 17.0533   2
 -12  -2   0 14.2719 16.9544   2
 -12   2   0 -4.7245 18.8906   2
   0  -3   0 0.50953 1.61432   3
   0  -3   0 1.60932 1.42541   2
   0  -3   0 0.36912 1.26691   1
   0   3   0 1.91905 1.58664   3
   0   3   0 -0.0043 1.47015   2
   0   3   0 -0.8914 1.23890   1
  -1  -3   0 1223.13 66.2308   3
   1  -3   0 1191.22 66.2579   3
   1  -3   0 1159.57 66.2147   2
  -1  -3   0 1141.04 66.2034   2
  -1  -3   0 1167.26 66.3271   1
   1   3   0 1235.83 66.3400   1
   1   3   0 1122.89 66.2029   2
  -1   3   0 1166.62 66.2474   2
  -1   3   0 1215.16 66.2693   3
  -2  -3   0 686.688 38.4763   1
   2  -3   0 640.657 38.4110   2
  -2  -3   0 648.368 38.3563   2
  -2  -3   0 701.521 38.1228   3
   2  -3   0 664.356 38.2314   3
  -2  -3   0 677.146 38.2996   4
   2   3   0 687.239 38.6418   1
  -2   3   0 680.102 38.6260   2
  -2   3   0 683.339 38.2038   3
  -2   3   0 690.490 39.3648   1
  -3  -3   0 21.9761 2.25826   3
   3  -3   0 27.7596 4.83052   1
  -3  -3   0 19.9974 2.95602   1
   3  -3   0 16.5819 2.76576   3
  -3  -3   0 17.0733 3.42494   4
   3  -3   0 24.8425 4.17404   2
  -3   3   0 12.7572 3.31231   1
  -3   3   0 21.0837 4.65382   2
   3   3   0 21.1109 3.62820   1
   4  -3   0 965.006 64.8168   3
   4  -3   0 1143.60 66.4807   1
  -4  -3   0 1154.36 64.8012   4
  -4  -3   0 1162.17 64.0662   3
  -4  -3   0 1143.83 63.9781   3
   4  -3   0 1096.53 64.9959   2
  -4  -3   0 1210.93 65.2812   1
   4   3   0 1214.23 65.8127   1
  -4   3   0 1163.45 66.3623   1
  -4   3   0 1161.17 65.4311   2
  -5  -3   0 27.4319 3.41025   3
  -5  -3   0 31.8768 4.91521   1
  -5  -3   0 32.1591 2.98722   3
  -5  -3   0 32.0457 6.41632   2
   5  -3   0 25.9181 6.83083   1
   5  -3   0 31.9062 6.46050   2
  -5  -3   0 34.6937 5.74900   4
   5   3   0 48.0101 6.56965   1
  -5   3   0 35.3171 7.44187   2
  -5   3   0 22.6528 5.95176   1
  -6  -3   0 86.4030 9.44912   1
   6  -3   0 95.8482 11.6287   1
   6  -3   0 83.4610 7.29852   3
  -6  -3   0 89.5208 8.75649   4
  -6  -3   0 74.8666 9.50582   2
   6  -3   0 110.993 12.0274   2
  -6   3   0 98.2401 12.0716   1
   6   3   0 84.9589 12.1862   1
  -6   3   0 85.0199 10.4352   2
   7  -3   0 24.3321 8.94337   2
  -7  -3   0 15.5368 6.07314   1
   7  -3   0 19.8565 9.44308   1
  -7  -3   0 10.3382 8.62612   2
   7  -3   0 5.19817 6.67639   4
  -7   3   0 25.2013 9.63330   2
   7   3   0 8.79430 7.55965   1
  -7   3   0 15.3076 6.91343   1
  -8  -3   0 118.235 14.0344   2
   8  -3   0 146.494 20.6013   1
  -8  -3   0 136.872 14.6352   1
   8  -3   0 190.752 15.3516   4
  -8   3   0 167.973 17.4634   1
  -8   3   0 141.126 15.4743   2
   8   3   0 115.970 15.1716   1
  -9  -3   0 39.9261 13.8681   2
   9  -3   0 67.6427 10.1306   4
  -9   3   0 38.7460 14.0782   2
 -10  -3   0 6.06654 13.3899   2
  10  -3   0 2.37933 10.7978   4
 -10   3   0 8.22718 15.2257   2
 -11  -3   0 21.2512 15.2227   2
 -11   3   0 -16.853 16.5692   2
 -12  -3   0 -14.137 16.7035   2
 -12   3   0 31.6999 19.0981   2
   0  -4   0 164.019 10.0623   2
   0  -4   0 163.745 10.3419   3
   0  -4   0 174.409 10.5757   1
   0   4   0 169.684 10.5764   1
   1  -4   0 2062.24 109.266   1
   1  -4   0 1968.09 108.470   3
  -1  -4   0 1924.71 108.354   2
   1  -4   0 1925.13 108.358   2
  -1  -4   0 2026.90 108.591   1
  -1  -4   0 1649.80 108.604   3
  -1   4   0 2077.97 109.253   1
  -1   4   0 1795.67 108.427   2
   1   4   0 1908.61 108.364   2
  -1   4   0 2009.92 108.463   3
  -2  -4   0 1431.41 80.0549   1
  -2  -4   0 1400.81 79.9364   2
   2  -4   0 1411.79 79.9549   2
   2  -4   0 1431.12 79.8820   3
  -2   4   0 1422.06 81.0109   1
  -2   4   0 1411.92 79.8514   3
   2   4   0 1477.39 80.1057   1
  -2   4   0 1381.95 80.0000   2
  -3  -4   0 432.478 24.0037   1
   3  -4   0 411.433 24.1720   2
   3  -4   0 416.616 25.5953   1
  -3  -4   0 340.495 23.6839   3
   3  -4   0 424.217 23.6636   3
  -3  -4   0 401.199 23.8793   4
  -3  -4   0 400.267 23.9871   2
  -3   4   0 407.050 24.4931   2
   3   4   0 411.567 24.4102   1
  -3   4   0 439.464 25.5645   1
   4  -4   0 226.082 13.8825   3
   4  -4   0 232.501 15.6880   2
  -4  -4   0 209.602 13.3721   3
   4  -4   0 224.630 16.8446   1
  -4  -4   0 225.192 14.6626   4
  -4  -4   0 237.319 13.5504   3
  -4  -4   0 236.189 14.4953   1
   4   4   0 232.556 15.3852   1
  -4   4   0 212.787 15.9842   2
  -4   4   0 213.758 16.3484   1
   5  -4   0 316.166 18.9980   3
  -5  -4   0 319.030 18.3375   3
   5  -4   0 299.354 20.6853   2
  -5  -4   0 317.146 19.9938   1
  -5  -4   0 316.014 20.1736   4
  -5  -4   0 326.865 18.5266   3
   5   4   0 331.683 21.4042   1
  -5   4   0 303.092 21.6072   2
  -5   4   0 317.719 22.1617   1
  -6  -4   0 86.2558 5.43072   3
  -6  -4   0 88.4704 9.80081   2
   6  -4   0 90.5177 7.59606   3
  -6  -4   0 67.0863 5.70413   3
   6  -4   0 80.3873 9.77574   2
  -6  -4   0 85.9629 9.04026   1
   6  -4   0 98.1767 11.8294   1
  -6  -4   0 63.0713 8.07609   4
   6   4   0 100.757 12.5185   1
  -6   4   0 100.783 11.6251   1
  -6   4   0 85.6667 10.9124   2
   7  -4   0 294.361 23.0724   2
   7  -4   0 321.259 18.8875   3
   7  -4   0 304.157 21.3415   4
   7  -4   0 342.056 25.7986   1
  -7  -4   0 303.019 21.0075   1
  -7  -4   0 299.029 23.1736   2
  -7   4   0 305.244 23.7862   2
  -7   4   0 292.621 23.5022   1
   7   4   0 285.603 23.6209   1
   8  -4   0 37.4065 8.87324   4
   8  -4   0 54.9824 13.1242   1
   8  -4   0 42.8973 4.08355   3
   8  -4   0 35.1804 4.34721   3
  -8  -4   0 39.7490 7.81351   1
  -8  -4   0 35.3200 10.5170   2
  -8   4   0 39.9434 12.8346   2
  -8   4   0 26.6425 9.13188   1
   8   4   0 38.8704 10.9953   1
   9  -4   0 14.6645 9.47547   4
  -9   4   0 9.84818 15.8680   2
 -10  -4   0 5.85810 12.8906   2
 -10   4   0 -8.4507 14.7736   2
 -11  -4   0 38.5672 15.1231   2
 -11   4   0 18.5720 17.6904   2
 -12  -4   0 6.08668 17.0224   2
 -12   4   0 0.58809 19.1008   2
   0  -5   0 0.96357 2.23420   2
   0  -5   0 0.35202 1.89922   1
   0  -5   0 0.68336 2.66902   3
   0   5   0 0.66761 2.17693   1
   0   5   0 1.32250 2.36716   2
  -1  -5   0 5.48489 2.44377   2
   1  -5   0 1.29655 2.67386   1
  -1  -5   0 4.90029 2.03809   1
   1  -5   0 -0.7952 2.48722   2
  -1  -5   0 0.79571 1.87929   1
   1  -5   0 0.66782 2.84452   3
  -1  -5   0 3.61386 2.66324   3
  -1   5   0 4.27423 2.73012   1
  -1   5   0 3.93592 2.76048   2
   1   5   0 6.17469 2.70681   2
  -2  -5   0 233.478 14.1261   2
   2  -5   0 220.090 15.5334   1
   2  -5   0 228.140 14.2182   3
   2  -5   0 234.116 14.3755   2
  -2  -5   0 225.781 13.9409   3
  -2  -5   0 241.622 14.1008   1
   2   5   0 224.286 14.1161   2
  -2   5   0 225.051 14.3920   2
  -2   5   0 233.777 15.5817   1
   2   5   0 236.159 14.0262   1
  -3  -5   0 815.018 48.0833   2
   3  -5   0 856.829 47.9329   3
  -3  -5   0 861.257 48.1158   1
   3  -5   0 825.352 48.2363   2
  -3  -5   0 835.309 47.7231   3
  -3  -5   0 832.100 47.9524   4
   3  -5   0 840.898 49.7488   1
   3   5   0 859.816 48.3502   1
  -3   5   0 851.623 48.4275   2
  -3   5   0 848.885 49.6441   1
  -4  -5   0 141.484 8.84681   3
  -4  -5   0 122.635 10.1602   4
  -4  -5   0 129.537 10.2061   2
   4  -5   0 115.371 12.6336   1
   4  -5   0 138.791 9.53652   3
  -4  -5   0 129.234 9.35734   1
  -4   5   0 131.691 12.0222   2
  -4   5   0 107.191 11.9016   1
   4   5   0 137.253 10.6354   1
   5  -5   0 9.22116 7.39252   1
   5  -5   0 9.15092 3.89157   3
  -5  -5   0 18.9285 4.02339   1
  -5  -5   0 9.65040 5.13342   4
  -5  -5   0 10.4300 5.25082   2
   5  -5   0 16.5135 6.33515   2
  -5  -5   0 13.7799 3.15807   3
  -5  -5   0 11.9556 2.93188   3
  -5   5   0 10.6620 7.54957   2
   5   5   0 17.3634 5.39275   1
  -5   5   0 4.12621 4.45278   1
   6  -5   0 720.634 43.0443   2
  -6  -5   0 718.470 42.5686   4
  -6  -5   0 627.420 42.4209   2
   6  -5   0 724.467 41.5104   3
  -6  -5   0 715.702 41.0162   3
  -6  -5   0 742.587 40.8575   3
   6  -5   0 724.693 45.8225   1
  -6  -5   0 730.951 42.7160   1
  -6   5   0 718.251 45.1373   1
  -6   5   0 748.081 44.5689   2
   6   5   0 774.872 44.3641   1
  -7  -5   0 121.016 11.3776   1
   7  -5   0 115.878 9.70964   3
   7  -5   0 81.0149 12.9632   1
  -7  -5   0 113.657 10.6254   4
  -7  -5   0 106.598 12.0723   2
   7  -5   0 116.912 12.1841   2
  -7   5   0 118.175 15.7507   1
  -7   5   0 106.530 13.3312   2
   7   5   0 108.025 12.7160   1
   8  -5   0 0.16122 10.8729   1
   8  -5   0 -7.4192 7.54447   4
   8  -5   0 -0.5216 4.46743   3
  -8  -5   0 -5.6984 9.86075   2
  -8  -5   0 1.85087 6.15652   1
  -8   5   0 7.80146 8.37334   1
  -8   5   0 3.89072 12.2030   2
   8   5   0 1.29301 9.43316   1
  -9  -5   0 44.3932 12.5674   2
   9  -5   0 55.6012 10.4345   4
 -10  -5   0 111.352 15.9685   2
 -10   5   0 96.7626 18.1472   2
 -11  -5   0 101.584 16.5040   2
 -11   5   0 54.1081 19.4140   2
 -12  -5   0 52.1951 17.1931   2
 -12   5   0 82.2237 21.3676   2
   0  -6   0 154.310 10.7143   3
   0  -6   0 162.610 10.7920   1
   0  -6   0 168.139 10.3109   2
   0   6   0 152.800 10.1873   2
   0   6   0 153.282 10.8079   1
   1  -6   0 160.836 10.6400   3
   1  -6   0 150.148 10.2473   2
  -1  -6   0 157.084 10.4363   1
  -1  -6   0 155.580 10.4459   3
  -1  -6   0 149.266 10.1597   2
   1  -6   0 162.317 11.4923   1
  -1  -6   0 161.888 10.3840   1
  -1   6   0 158.162 11.5506   1
  -1   6   0 157.782 10.3842   2
   1   6   0 163.786 10.3402   2
   2  -6   0 378.304 23.0236   2
  -2  -6   0 382.127 22.7687   3
  -2  -6   0 395.492 22.9779   1
   2  -6   0 387.724 23.1037   3
   2  -6   0 373.960 24.4049   1
  -2  -6   0 402.812 22.8697   2
   2   6   0 401.272 22.9275   2
  -2   6   0 399.888 23.0764   2
  -2   6   0 373.605 24.3505   1
  -3  -6   0 196.592 12.7650   4
  -3  -6   0 185.142 12.5077   3
   3  -6   0 180.404 13.1162   2
  -3  -6   0 185.452 12.9129   2
  -3  -6   0 196.240 12.4659   1
   3  -6   0 193.054 12.9347   3
   3  -6   0 183.087 15.1226   1
  -3   6   0 214.581 15.0837   1
  -3   6   0 189.030 13.7312   2
   3   6   0 212.677 12.7037   1
  -4  -6   0 576.692 34.5385   2
   4  -6   0 575.926 36.8910   1
  -4  -6   0 609.422 33.8416   3
   4  -6   0 587.487 34.1706   3
   4  -6   0 566.660 34.6617   2
  -4  -6   0 577.138 34.4459   4
  -4  -6   0 612.213 34.2841   1
  -4   6   0 598.690 35.3197   2
   4   6   0 602.552 34.8467   1
  -4   6   0 570.049 36.6039   1
  -5  -6   0 129.618 9.64586   3
  -5  -6   0 131.138 11.8592   2
   5  -6   0 131.007 15.3849   1
  -5  -6   0 140.945 9.94971   3
   5  -6   0 138.763 12.5977   2
  -5  -6   0 122.125 11.8519   4
   5  -6   0 143.127 10.7985   3
  -5  -6   0 147.479 10.5879   1
  -5   6   0 160.841 15.0049   1
   5   6   0 131.261 12.5546   1
  -5   6   0 136.590 14.4298   2
  -6  -6   0 449.811 29.4511   4
  -6  -6   0 430.467 29.6185   2
  -6  -6   0 498.105 27.8225   3
   6  -6   0 487.830 28.6133   3
  -6  -6   0 483.213 29.3439   1
   6  -6   0 484.381 30.3013   2
  -6  -6   0 505.832 28.0531   3
   6  -6   0 467.325 33.5486   1
  -6   6   0 478.114 32.6965   1
  -6   6   0 496.470 32.4505   2
   6   6   0 501.854 31.3174   1
  -7  -6   0 -7.0710 6.96869   2
  -7  -6   0 -3.6399 8.54989   2
   7  -6   0 3.01770 4.85871   3
   7  -6   0 4.21260 10.2081   1
  -7  -6   0 -1.0704 3.09086   3
   7  -6   0 -0.9715 8.52634   2
  -7  -6   0 0.37742 3.02182   3
  -7  -6   0 1.63992 4.74230   1
  -7  -6   0 6.87300 6.78400   4
  -7   6   0 -5.5957 7.33041   1
  -7   6   0 4.31083 10.7401   2
   7   6   0 11.6876 8.19073   1
  -8  -6   0 46.7754 11.1440   2
  -8  -6   0 59.2495 8.49571   1
   8  -6   0 52.1828 6.48595   3
  -8  -6   0 42.9632 8.84152   4
  -8   6   0 56.5551 13.1721   1
  -8   6   0 55.5014 14.4984   2
   8   6   0 28.6937 17.0705   1
  -9  -6   0 482.848 36.3181   2
   9  -6   0 479.705 33.6850   4
   9  -6   0 530.323 30.5894   3
   9  -6   0 501.266 29.9597   3
  -9   6   0 571.543 38.9936   2
 -10  -6   0 17.2917 12.9247   2
 -10   6   0 -1.5345 16.0974   2
 -11  -6   0 4.18047 14.7180   2
 -11   6   0 14.3778 18.3234   2
 -12  -6   0 0.34628 16.3230   2
 -12   6   0 2.20229 21.1056   2
   0  -7   0 -3.1416 3.83280   3
   0  -7   0 3.64376 3.27039   2
   0  -7   0 3.12151 3.08444   1
   0   7   0 1.76474 3.32691   2
  -1  -7   0 173.649 12.5780   3
   1  -7   0 186.536 12.7544   3
   1  -7   0 189.352 13.5894   1
  -1  -7   0 190.252 12.5430   1
  -1  -7   0 199.409 12.6145   1
   1  -7   0 191.325 12.5453   2
  -1  -7   0 196.138 12.2732   2
  -1   7   0 199.152 12.4598   2
   1   7   0 197.586 12.4453   2
  -1   7   0 187.924 13.6821   1
  -2  -7   0 3096.33 172.440   2
  -2  -7   0 3018.67 172.468   3
   2  -7   0 3052.69 172.594   3
  -2  -7   0 3295.28 172.724   1
   2  -7   0 3018.30 172.417   2
   2  -7   0 3090.30 174.047   1
  -2  -7   0 3107.67 172.781   1
  -2   7   0 3117.06 174.009   1
   2   7   0 3005.68 172.430   2
  -2   7   0 2959.67 172.482   2
  -3  -7   0 1517.51 88.6331   3
   3  -7   0 1594.92 90.8445   1
   3  -7   0 1563.23 88.8177   3
  -3  -7   0 1582.38 88.8988   1
  -3  -7   0 1553.99 88.8323   2
  -3   7   0 1595.35 90.7926   1
   3   7   0 1615.58 88.8461   1
  -3   7   0 1552.17 89.0317   2
   4  -7   0 3.40522 5.86309   1
  -4  -7   0 8.40657 3.29147   1
  -4  -7   0 8.28917 4.88984   4
  -4  -7   0 8.74291 3.84951   3
   4  -7   0 3.36873 4.72552   3
  -4  -7   0 21.7278 5.41089   2
   4  -7   0 8.79369 5.50407   2
   4   7   0 7.33308 3.73604   1
  -4   7   0 2.69725 9.30729   1
  -4   7   0 8.37556 6.84301   2
  -5  -7   0 1230.66 69.3897   3
   5  -7   0 1155.09 70.3333   2
  -5  -7   0 1224.96 70.1185   4
  -5  -7   0 1285.81 69.9810   1
   5  -7   0 1248.46 73.2527   1
  -5  -7   0 1152.73 70.2101   2
   5  -7   0 1221.64 69.7898   3
  -5   7   0 1247.04 72.9093   1
  -5   7   0 1205.98 71.2961   2
   5   7   0 1286.44 70.7367   1
  -6  -7   0 1.97390 3.62021   3
   6  -7   0 -2.9207 9.56545   1
  -6  -7   0 9.12766 4.09936   3
   6  -7   0 1.08414 5.16519   3
  -6  -7   0 5.56818 4.19103   1
  -6  -7   0 -2.1897 6.65069   2
  -6  -7   0 0.17319 6.11842   4
   6  -7   0 2.41834 7.94212   2
   6   7   0 8.36630 6.87763   1
  -6   7   0 -2.0759 10.1716   2
  -6   7   0 2.66646 8.25156   1
  -7  -7   0 354.227 24.4400   4
   7  -7   0 333.118 29.9924   1
   7  -7   0 355.238 25.6857   2
  -7  -7   0 385.052 21.7200   3
  -7  -7   0 369.299 23.6634   1
  -7  -7   0 351.510 21.9605   3
   7  -7   0 392.719 23.1885   3
  -7   7   0 406.327 29.5495   2
  -7   7   0 356.333 28.8591   1
  -8  -7   0 149.820 15.3076   1
  -8  -7   0 138.850 15.8370   4
   8  -7   0 149.315 12.8013   3
  -8  -7   0 153.633 15.3619   2
   8   7   0 142.645 20.1316   1
  -8   7   0 132.818 17.4043   2
  -8   7   0 169.786 21.0992   1
  -9  -7   0 158.131 16.9155   2
   9  -7   0 159.269 15.5207   4
   9  -7   0 185.036 16.6866   3
   9  -7   0 176.523 13.8314   3
  -9   7   0 134.759 19.7054   2
 -10  -7   0 113.317 15.9640   2
 -10   7   0 76.2523 18.6417   2
 -11  -7   0 12.4236 15.3723   2
 -11   7   0 17.2443 19.1355   2
   0  -8   0 4583.89 254.011   2
   0  -8   0 4409.79 254.285   3
   0  -8   0 4772.16 255.144   1
   0   8   0 4394.24 254.010   2
  -1  -8   0 40.7418 4.77451   1
   1  -8   0 32.3071 5.61727   3
   1  -8   0 30.2693 4.89200   2
  -1  -8   0 34.9979 4.65264   2
  -1  -8   0 25.4158 5.11496   3
  -1  -8   0 36.1856 4.68526   1
   1  -8   0 35.5719 6.04098   1
  -1   8   0 34.2935 5.01442   2
   1   8   0 40.7648 4.98637   2
  -1   8   0 43.6965 6.01869   1
   2  -8   0 56.3683 7.48058   1
  -2  -8   0 67.3752 6.36300   1
   2  -8   0 62.5609 6.66798   3
  -2  -8   0 58.4978 6.26356   3
  -2  -8   0 68.0654 7.15029   2
  -2  -8   0 65.5194 6.75613   1
   2   8   0 68.4150 6.32662   2
  -2   8   0 64.4248 6.80538   2
  -2   8   0 51.9371 7.27800   1
   3  -8   0 964.563 54.6027   3
  -3  -8   0 1000.11 54.5008   1
  -3  -8   0 791.441 55.6646   1
   3  -8   0 931.144 54.4151   2
   3  -8   0 994.946 56.8477   1
  -3  -8   0 956.169 54.4540   2
  -3  -8   0 947.827 54.3009   3
  -3   8   0 985.196 54.9274   2
  -3   8   0 981.478 56.7140   1
  -4  -8   0 431.120 25.4894   1
   4  -8   0 414.295 29.2946   1
  -4  -8   0 413.184 26.1354   2
   4  -8   0 417.452 26.5391   2
   4  -8   0 419.387 25.9677   3
  -4  -8   0 432.954 25.5844   3
  -4  -8   0 428.253 26.1576   4
  -4   8   0 436.323 29.0795   1
  -4   8   0 417.369 27.5072   2
   4   8   0 444.953 25.6204   1
   5  -8   0 224.606 26.3049   1
  -5  -8   0 165.656 11.0753   1
  -5  -8   0 139.039 13.1864   2
   5  -8   0 146.896 12.5712   3
  -5  -8   0 137.573 12.4189   4
   5  -8   0 122.901 12.2789   2
  -5  -8   0 143.976 11.4664   3
   5   8   0 160.191 12.1426   1
  -5   8   0 151.958 14.1182   2
  -5   8   0 163.416 17.0225   1
  -6  -8   0 6.93822 4.68863   3
  -6  -8   0 4.67491 4.24731   3
  -6  -8   0 7.65342 7.32632   2
   6  -8   0 12.4881 8.08805   2
   6  -8   0 17.4740 16.5335   1
  -6  -8   0 9.78756 4.30476   1
   6  -8   0 9.68800 5.97711   3
  -6  -8   0 16.9418 7.13108   4
  -6   8   0 -5.2234 10.7894   2
   6   8   0 10.4828 6.28460   1
  -7  -8   0 233.893 16.1977   1
  -7  -8   0 235.584 14.7551   3
  -7  -8   0 201.461 18.2675   4
   7  -8   0 241.490 16.7397   3
   7  -8   0 224.973 25.4130   1
  -7  -8   0 225.614 15.2798   3
  -7   8   0 216.471 24.3398   1
  -7   8   0 222.361 22.7475   2
   7   8   0 215.596 18.8896   1
  -8  -8   0 36.6642 7.18040   1
  -8  -8   0 39.0778 4.76369   3
   8  -8   0 39.3592 7.19298   3
  -8  -8   0 38.8481 9.40213   4
   8   8   0 43.2687 10.7009   1
  -8   8   0 40.3244 15.3522   2
   9  -8   0 45.1478 7.42735   3
  -9  -8   0 21.9195 9.91720   4
  -9  -8   0 43.8048 12.8548   2
  -9   8   0 28.2807 15.8648   2
 -10  -8   0 52.6404 14.3811   2
 -10   8   0 25.0689 18.1996   2
 -11  -8   0 15.9203 15.6313   2
 -11   8   0 -11.136 19.3270   2
   0  -9   0 3.34412 5.04528   3
   0  -9   0 6.58816 4.37483   2
   0  -9   0 4.66472 3.90841   1
   0   9   0 6.53762 4.65542   2
  -1  -9   0 198.452 14.5204   3
   1  -9   0 205.527 14.6387   3
   1  -9   0 223.967 15.8961   1
  -1  -9   0 199.793 17.5848   1
   1  -9   0 196.490 14.2148   2
  -1  -9   0 218.626 14.4138   1
  -1  -9   0 207.469 13.8866   2
   1   9   0 209.810 14.4721   2
  -1   9   0 197.508 14.1390   2
  -1   9   0 231.363 15.8748   1
   2  -9   0 11.6971 5.10637   2
  -2  -9   0 0.41279 4.87697   3
   2  -9   0 5.77614 5.65514   1
  -2  -9   0 5.27985 4.56089   2
   2  -9   0 7.61020 5.31524   3
  -2  -9   0 9.65338 3.63387   1
  -2  -9   0 11.1017 3.84685   1
  -2   9   0 2.10281 4.91379   1
   2   9   0 6.37232 4.87347   2
  -2   9   0 7.35066 5.44410   2
  -3  -9   0 8.32110 3.66316   1
  -3  -9   0 12.2125 5.57364   2
  -3  -9   0 7.12707 3.31739   1
  -3  -9   0 5.83894 4.97743   3
   3  -9   0 1.02846 5.33773   2
   3  -9   0 -5.1731 5.50671   3
   3  -9   0 9.40771 5.94486   1
  -3   9   0 5.95380 6.45278   2
  -3   9   0 5.39935 5.87766   1
  -4  -9   0 698.981 41.7488   2
   4  -9   0 676.442 41.9974   2
  -4  -9   0 737.770 41.2063   1
  -4  -9   0 713.692 41.7591   4
   4  -9   0 712.302 45.0028   1
   4  -9   0 722.492 41.7556   3
  -4  -9   0 706.622 41.3218   3
  -4   9   0 722.347 44.6656   1
  -4   9   0 692.081 42.4987   2
   5  -9   0 117.794 16.3517   1
  -5  -9   0 165.924 11.2343   1
  -5  -9   0 154.278 13.7929   2
   5  -9   0 150.907 15.2162   2
  -5  -9   0 160.262 12.1225   3
  -5  -9   0 152.558 13.5874   4
   5  -9   0 155.176 13.3375   3
  -5   9   0 154.086 17.5416   1
  -5   9   0 171.231 16.7213   2
  -6  -9   0 378.530 22.8025   3
   6  -9   0 359.190 25.9263   2
   6  -9   0 320.717 35.9611   1
  -6  -9   0 346.932 24.0019   4
  -6  -9   0 390.694 22.7441   1
  -6  -9   0 309.818 25.1331   2
   6  -9   0 373.311 23.8944   3
  -6  -9   0 413.710 23.2673   3
  -6   9   0 369.429 28.8408   1
  -6   9   0 355.265 27.5981   2
   6   9   0 371.233 23.3399   1
  -7  -9   0 146.593 14.4391   3
  -7  -9   0 145.666 11.5250   3
  -7  -9   0 134.214 15.0142   4
  -7  -9   0 149.996 12.0520   1
   7  -9   0 151.944 14.0195   3
   7  -9   0 160.438 20.1306   1
   7   9   0 142.877 13.9281   1
  -7   9   0 145.072 17.3019   2
  -7   9   0 169.635 21.0894   1
  -8  -9   0 62.1717 10.1863   4
  -8  -9   0 66.0098 7.95355   1
  -8  -9   0 50.8959 12.4139   2
  -8  -9   0 72.9947 7.68385   3
  -8  -9   0 64.1737 6.65400   3
   8  -9   0 66.6065 8.77015   3
   8   9   0 65.2623 9.55922   1
  -9  -9   0 55.3458 11.0643   4
   9  -9   0 54.2999 8.43490   3
  -9  -9   0 34.8262 13.1717   2
  -9   9   0 63.3916 17.8934   2
 -10  -9   0 73.4260 15.5977   2
 -10   9   0 79.6529 20.0494   2
 -11  -9   0 307.720 31.1012   2
 -11   9   0 240.299 27.9286   2
   0 -10   0 238.999 16.9039   3
   0 -10   0 253.403 17.4594   1
   0 -10   0 242.583 16.3761   2
   0 -10   0 243.774 17.1633   1
   0  10   0 243.780 16.6329   2
  -1 -10   0 221.125 15.7501   3
  -1 -10   0 231.765 15.3530   2
   1 -10   0 226.636 15.0361   2
   1 -10   0 219.580 15.8841   3
  -1 -10   0 227.264 15.5509   1
  -1 -10   0 230.283 15.5824   1
   1 -10   0 224.582 17.0441   1
  -1  10   0 210.603 16.7856   1
   1  10   0 217.681 15.5821   2
  -1  10   0 208.791 15.6494   2
  -2 -10   0 57.1523 6.35448   1
  -2 -10   0 41.6612 6.89526   3
   2 -10   0 62.5081 9.05761   1
  -2 -10   0 50.8730 5.99739   1
   2 -10   0 44.0070 7.49389   3
   2 -10   0 50.1333 6.53214   2
  -2 -10   0 59.1231 6.60954   2
  -2  10   0 38.5547 7.14567   2
  -2  10   0 60.3037 8.41090   1
   2  10   0 56.2152 7.05966   2
  -3 -10   0 7.82985 5.66672   2
  -3 -10   0 14.8015 3.95664   1
  -3 -10   0 5.80788 5.75860   3
  -3 -10   0 8.40949 4.23764   1
   3 -10   0 7.77452 7.58422   1
   3 -10   0 12.9381 6.28658   3
   3 -10   0 11.9689 5.97422   2
   3  10   0 8.36967 5.99244   2
  -3  10   0 16.1586 7.33353   1
  -3  10   0 6.25701 7.25748   2
  -4 -10   0 35.2475 4.90897   1
   4 -10   0 30.8530 9.60783   1
  -4 -10   0 26.5463 7.13524   2
  -4 -10   0 36.3112 4.64522   1
   4 -10   0 30.1151 7.63615   2
  -4 -10   0 27.5430 6.17382   3
   4 -10   0 27.3878 7.36371   3
  -4 -10   0 20.9508 6.75487   4
  -4  10   0 35.5363 8.74453   1
  -4  10   0 29.9106 8.87010   2
  -5 -10   0 0.42352 6.90598   2
   5 -10   0 -2.8676 6.52805   3
  -5 -10   0 -1.9486 3.30557   1
  -5 -10   0 -0.3759 3.33501   1
  -5 -10   0 1.12669 5.33925   3
   5 -10   0 -4.7948 16.4349   1
  -5 -10   0 5.59488 6.65320   4
   5 -10   0 5.54428 7.78025   2
  -5  10   0 -1.2117 9.85132   2
  -5  10   0 11.2610 8.33185   1
   6 -10   0 134.814 13.6416   3
  -6 -10   0 136.603 13.5182   4
   6 -10   0 110.261 13.3625   2
  -6 -10   0 128.386 12.6443   3
   6 -10   0 131.954 18.0328   1
  -6 -10   0 138.563 11.9795   3
  -6  10   0 141.675 16.8046   1
  -6  10   0 135.077 15.7645   2
  -7 -10   0 10.2382 5.97334   3
   7 -10   0 3.25559 7.13393   3
  -7 -10   0 16.5232 5.41407   3
  -7 -10   0 5.93686 8.10090   4
   7 -10   0 -32.077 12.0800   1
  -7  10   0 9.11492 13.0928   1
  -7  10   0 -11.524 13.7283   2
  -8 -10   0 123.690 19.3398   4
   8 -10   0 144.186 14.8294   3
  -8 -10   0 129.199 11.0258   3
  -8  10   0 110.298 18.6398   2
  -9 -10   0 -0.8170 10.0806   4
  -9 -10   0 6.56191 12.8513   2
   9 -10   0 -3.1075 7.86013   3
  -9  10   0 -25.770 16.6602   2
 -10 -10   0 -16.132 13.6212   2
 -10  10   0 -18.323 18.9608   2
 -11 -10   0 12.7430 16.1309   2
 -11  10   0 21.9447 21.5779   2
   0 -11   0 -4.8769 4.75355   1
   0 -11   0 -2.7619 5.32741   2
   0 -11   0 -2.3829 6.25082   3
   0 -11   0 1.49124 5.11856   1
   0  11   0 3.25037 5.87886   2
   1 -11   0 538.169 32.9891   2
   1 -11   0 561.998 34.9742   1
  -1 -11   0 544.597 32.7886   2
  -1 -11   0 571.055 33.6656   1
  -1 -11   0 555.621 33.4694   3
  -1 -11   0 584.192 33.8260   1
   1 -11   0 539.604 33.5233   3
  -1  11   0 537.737 33.1391   2
   1  11   0 535.466 32.9450   2
   2 -11   0 260.530 20.1875   1
  -2 -11   0 228.570 17.1145   2
  -2 -11   0 257.064 17.0577   1
   2 -11   0 246.793 18.0371   3
   2 -11   0 246.301 17.2370   2
  -2 -11   0 249.476 17.7541   3
  -2 -11   0 263.532 17.2993   1
  -2  11   0 251.946 18.1825   2
  -2  11   0 253.625 19.7493   1
   2  11   0 243.632 18.0270   2
  -3 -11   0 456.072 26.2448   1
   3 -11   0 409.284 27.5350   3
  -3 -11   0 430.094 26.6619   1
  -3 -11   0 431.592 27.2548   3
   3 -11   0 436.665 30.1683   1
   3 -11   0 414.498 27.1447   2
  -3 -11   0 411.837 26.7866   2
   3  11   0 452.493 27.3580   2
  -3  11   0 411.896 27.4667   2
  -3  11   0 439.726 30.0825   1
   4 -11   0 800.831 51.8988   1
  -4 -11   0 845.953 47.2557   1
  -4 -11   0 833.439 47.9908   3
  -4 -11   0 837.246 48.5185   2
   4 -11   0 813.283 48.4292   3
  -4 -11   0 835.147 48.3545   4
   4 -11   0 774.061 48.3665   2
  -4  11   0 786.953 49.3089   2
  -4  11   0 835.658 51.9015   1
  -5 -11   0 79.4378 8.83727   3
   5 -11   0 78.6335 10.8461   2
  -5 -11   0 94.8773 10.2821   4
  -5 -11   0 70.8926 10.4896   2
   5 -11   0 83.8442 9.88691   3
   5 -11   0 93.8891 14.8072   1
  -5  11   0 92.9910 13.4018   2
  -5  11   0 105.306 14.0255   1
  -6 -11   0 9.01725 6.14396   3
   6 -11   0 -3.9365 7.42437   3
   6 -11   0 10.6408 11.7668   1
  -6 -11   0 0.99748 8.01452   4
  -6 -11   0 -6.8816 6.39837   3
  -6  11   0 -4.3336 11.7276   1
  -6  11   0 2.30762 12.9122   2
   7 -11   0 19.2257 8.61348   3
  -7 -11   0 13.2591 8.66127   4
  -7 -11   0 10.6637 5.91948   3
   7 -11   0 36.0122 16.0744   1
  -7 -11   0 11.3157 6.90990   3
  -7  11   0 10.7308 15.3979   2
  -7  11   0 7.32352 13.9196   1
   8 -11   0 72.4152 10.2846   3
  -8 -11   0 66.3225 11.4900   4
  -8 -11   0 67.2164 7.36261   3
  -8  11   0 33.6395 17.7195   2
  -9 -11   0 82.4833 15.5231   2
  -9 -11   0 61.5168 12.1110   4
   9 -11   0 69.1306 10.3933   3
  -9  11   0 35.4762 18.5642   2
 -10 -11   0 13.3415 10.9228   4
 -10 -11   0 -13.679 14.5079   2
 -10  11   0 -20.000 19.2194   2
   0 -12   0 54.6222 7.52588   1
   0 -12   0 53.5512 8.34399   1
   0 -12   0 56.3585 7.44296   2
   0 -12   0 44.8682 8.43256   3
   0  12   0 49.8928 7.82479   2
  -1 -12   0 40.5062 6.95498   2
  -1 -12   0 37.8710 6.71023   1
  -1 -12   0 35.2550 6.40885   1
   1 -12   0 27.8355 7.27743   1
   1 -12   0 32.1614 8.13556   3
   1 -12   0 27.5662 6.60889   2
  -1 -12   0 32.7302 8.03789   3
   1  12   0 28.2148 7.22222   2
  -1  12   0 41.1917 7.51298   2
  -2 -12   0 4.46412 4.73316   1
   2 -12   0 -3.0112 6.00594   1
   2 -12   0 1.47715 6.57415   2
  -2 -12   0 -0.2833 6.89834   3
  -2 -12   0 -2.5010 6.10827   2
  -2 -12   0 0.18783 4.87482   1
   2 -12   0 4.28137 7.47754   3
   2  12   0 -5.1839 6.67271   2
  -2  12   0 -1.7212 7.20835   2
   3 -12   0 64.3402 9.42984   3
  -3 -12   0 59.2022 7.28614   1
  -3 -12   0 58.1722 8.90923   3
  -3 -12   0 52.3228 8.17568   2
   3 -12   0 48.6851 8.52272   2
   3 -12   0 60.1969 10.8984   1
  -3 -12   0 58.8469 6.73567   1
  -3  12   0 39.8933 9.27317   2
  -3  12   0 48.8890 10.3747   1
   3  12   0 43.4533 8.54189   2
   4 -12   0 67.3115 10.0465   3
  -4 -12   0 89.9310 8.91127   1
  -4 -12   0 73.1738 9.75764   2
  -4 -12   0 81.5245 9.43167   3
   4 -12   0 74.2755 13.6948   1
  -4 -12   0 86.7229 9.71961   4
  -4 -12   0 71.6564 8.15177   1
   4 -12   0 73.4397 10.0049   2
  -4  12   0 73.6350 11.9229   2
  -4  12   0 80.5872 13.1678   1
   5 -12   0 23.8482 10.8644   1
   5 -12   0 31.2125 9.18660   3
  -5 -12   0 20.3762 8.24443   4
  -5 -12   0 30.9236 7.58028   3
  -5  12   0 19.4896 12.0500   2
  -5  12   0 30.3527 10.8392   1
   6 -12   0 145.944 15.5824   3
   6 -12   0 81.8941 16.4508   1
  -6 -12   0 148.831 14.6659   3
  -6 -12   0 128.639 13.4940   3
  -6 -12   0 151.759 16.2482   4
  -6  12   0 164.621 17.5972   2
  -6  12   0 106.225 15.7026   1
   7 -12   0 -2.6410 9.12310   3
  -7 -12   0 -1.2375 9.49557   4
  -7 -12   0 2.26912 7.52017   3
  -7 -12   0 2.50953 6.38359   3
  -7  12   0 2.62309 13.5974   1
  -7  12   0 13.6653 15.2271   2
   8 -12   0 21.7248 9.71141   3
  -8 -12   0 25.6529 6.74040   3
  -8 -12   0 23.7383 10.1078   4
  -8  12   0 38.5572 17.4318   2
   9 -12   0 71.6905 11.2279   3
  -9 -12   0 61.7180 15.6223   2
  -9 -12   0 52.3503 12.7444   4
  -9  12   0 55.8093 19.7721   2
 -10 -12   0 4.24987 15.7510   2
 -10 -12   0 -2.9051 10.7670   4
 -10  12   0 18.3159 20.8231   2
   0 -13   0 6.74237 6.90521   2
   0 -13   0 8.04732 6.05616   1
   0 -13   0 1.06249 5.78005   1
   0 -13   0 -1.7772 8.09938   3
   0  13   0 1.54480 7.41834   2
   1 -13   0 121.226 14.9078   1
  -1 -13   0 142.129 12.7761   2
  -1 -13   0 135.566 12.7604   3
  -1 -13   0 120.352 13.1914   1
   1 -13   0 124.482 14.9580   1
   1 -13   0 133.638 13.7895   2
   1 -13   0 147.056 15.6547   3
  -1 -13   0 136.640 13.2477   1
   1  13   0 135.545 14.2800   2
  -1  13   0 134.717 13.4353   2
  -2 -13   0 191.198 15.9306   2
   2 -13   0 176.798 17.5679   3
  -2 -13   0 190.043 15.0466   1
  -2 -13   0 179.043 14.8810   1
   2 -13   0 168.316 18.0005   1
   2 -13   0 197.381 16.1365   2
  -2 -13   0 162.054 16.0617   3
  -2  13   0 178.884 15.9577   2
   2  13   0 188.222 15.5568   2
   3 -13   0 408.902 30.1876   1
   3 -13   0 367.614 26.4246   2
  -3 -13   0 371.943 25.9989   2
  -3 -13   0 396.506 26.8013   3
   3 -13   0 400.872 26.6736   3
  -3 -13   0 415.115 25.1754   1
   3  13   0 413.650 26.6642   2
  -3  13   0 393.823 29.7632   1
  -3  13   0 379.234 26.7592   2
   4 -13   0 344.591 29.7515   1
  -4 -13   0 358.093 22.0331   1
   4 -13   0 361.817 25.3497   3
  -4 -13   0 343.383 24.4431   3
  -4 -13   0 373.379 24.2932   4
  -4 -13   0 346.142 22.3287   1
  -4  13   0 313.582 29.0543   1
  -4  13   0 374.349 26.9926   2
  -5 -13   0 38.2660 8.22904   3
   5 -13   0 50.7568 14.7935   1
   5 -13   0 27.4223 9.47902   3
  -5 -13   0 30.1534 9.48256   4
  -5  13   0 28.1863 13.2576   1
  -5  13   0 18.5815 12.6268   2
  -6 -13   0 251.116 18.8546   3
  -6 -13   0 269.296 20.4175   3
  -6 -13   0 208.204 20.9151   4
   6 -13   0 251.255 21.0705   3
  -6  13   0 223.439 28.9686   1
  -7 -13   0 126.170 13.7368   3
  -7 -13   0 101.171 13.0133   4
   7 -13   0 121.607 13.3310   3
  -7  13   0 57.1482 18.0920   2
   8 -13   0 11.1522 10.3524   3
  -8 -13   0 23.1668 7.36209   3
  -8 -13   0 8.31455 10.8266   4
  -8  13   0 -27.987 17.1721   2
   9 -13   0 6.86168 17.4474   3
  -9 -13   0 7.24193 11.4411   4
  -9 -13   0 18.4177 14.5074   2
  -9  13   0 19.7072 19.7245   2
   0 -14   0 1058.63 62.4120   3
   0 -14   0 1041.09 61.6809   2
   0 -14   0 1061.94 63.2871   1
   0 -14   0 1027.09 63.3925   1
   0  14   0 1113.47 61.9601   2
  -1 -14   0 47.2330 10.2508   3
  -1 -14   0 39.4771 7.97468   1
   1 -14   0 34.3346 9.53881   1
   1 -14   0 36.7735 9.12118   1
   1 -14   0 33.6136 8.43124   2
  -1 -14   0 57.8083 8.68856   2
  -1 -14   0 32.7342 7.60826   1
   1 -14   0 57.5458 10.5404   3
  -1  14   0 56.3588 9.56158   2
   1  14   0 38.2825 8.75490   2
  -2 -14   0 5.83761 6.83222   1
   2 -14   0 -5.4892 7.70578   2
   2 -14   0 -1.9437 9.43990   3
  -2 -14   0 -8.0233 5.44669   1
   2 -14   0 -11.890 7.28821   1
  -2 -14   0 -1.1155 8.59525   3
  -2  14   0 2.00904 9.24815   2
   2  14   0 7.02087 8.47542   2
   3 -14   0 164.379 19.3039   3
  -3 -14   0 198.262 16.9484   1
   3 -14   0 197.228 22.7793   1
  -3 -14   0 215.863 18.8028   3
  -3 -14   0 182.962 16.3196   1
  -3  14   0 213.844 18.6856   2
   3  14   0 204.519 18.5863   2
  -3  14   0 204.531 27.3912   1
  -4 -14   0 359.960 22.4014   1
   4 -14   0 321.320 31.3097   1
   4 -14   0 342.642 26.1985   3
  -4 -14   0 357.124 24.7464   4
  -4 -14   0 358.927 25.2079   3
  -4  14   0 324.367 27.4149   2
  -5 -14   0 234.062 21.4984   4
   5 -14   0 245.041 32.6884   1
  -5 -14   0 260.225 20.5111   3
   5 -14   0 263.761 22.1767   3
  -5  14   0 228.669 26.2705   2
  -6 -14   0 131.879 15.5577   3
   6 -14   0 104.653 19.9449   3
  -6 -14   0 119.179 13.4006   4
  -6  14   0 126.815 17.8705   2
   7 -14   0 240.810 21.2815   3
  -7 -14   0 214.201 21.7306   4
  -7 -14   0 208.190 18.4837   3
  -7  14   0 174.772 22.9705   2
  -8 -14   0 66.6382 13.0409   4
   8 -14   0 66.8350 12.4983   3
  -8 -14   0 85.7260 9.97360   3
  -8  14   0 62.2313 20.0902   2
  -9 -14   0 30.0123 12.5499   4
   9 -14   0 35.1150 12.0127   3
  -9  14   0 21.2204 21.3225   2
   0 -15   0 -4.4246 9.59347   3
   0  15   0 2.00466 8.89836   2
  -1 -15   0 31.2464 8.56301   1
   1 -15   0 24.6949 10.8618   3
  -1 -15   0 23.5147 10.7330   3
  -1  15   0 44.6284 9.85265   2
   1  15   0 38.7678 9.56035   2
  -2 -15   0 567.931 36.0638   3
   2 -15   0 558.324 35.9411   3
  -2 -15   0 527.287 36.8771   1
   2  15   0 569.049 34.8704   2
  -2  15   0 534.096 35.1379   2
  -3 -15   0 89.1834 12.4911   3
  -3 -15   0 103.312 13.3234   1
   3 -15   0 75.2342 19.3863   3
  -3  15   0 95.5741 13.1925   2
   3  15   0 81.1485 11.4748   2
  -4 -15   0 -0.6053 9.67482   4
  -4 -15   0 -3.1232 9.79472   3
   4 -15   0 -4.1358 11.8630   3
  -4  15   0 3.13082 13.6369   2
  -5 -15   0 281.951 23.1207   3
  -5 -15   0 301.387 24.2993   4
   5 -15   0 297.843 24.3899   3
  -5  15   0 275.178 27.7197   2
   6 -15   0 -2.8137 10.7146   3
  -6 -15   0 3.01877 8.88816   3
  -6 -15   0 3.11697 10.6186   4
  -6  15   0 -20.790 15.4903   2
   7 -15   0 34.9973 12.2259   3
  -7 -15   0 35.3152 11.8553   4
  -7 -15   0 66.9165 10.3876   3
  -7  15   0 39.2235 19.4517   2
  -8 -15   0 24.9621 12.8957   4
  -8 -15   0 25.1839 9.33223   3
   8 -15   0 20.8655 12.0763   3
  -8  15   0 42.2389 20.6567   2
   0 -16   0 86.0180 13.8134   3
   0  16   0 81.0650 11.7328   2
   1 -16   0 133.187 15.5234   3
  -1 -16   0 151.011 17.5395   3
  -1  16   0 128.310 13.9768   2
   1  16   0 168.239 18.1058   2
   2 -16   0 174.268 19.1206   3
  -2 -16   0 140.257 18.5080   3
  -2  16   0 144.003 15.4930   2
   3 -16   0 -8.9508 10.9942   3
  -3 -16   0 4.14674 11.8977   3
   3  16   0 -3.6412 9.62679   2
   4 -16   0 68.4818 13.6033   3
  -4 -16   0 81.0280 12.8023   3
  -4 -16   0 82.7527 12.8316   4
  -4  16   0 84.5307 15.1925   2
  -5 -16   0 28.2825 11.6692   4
   5 -16   0 17.0630 12.4969   3
  -5 -16   0 16.6523 10.4452   3
  -5  16   0 30.7470 15.0766   2
   6 -16   0 35.2524 13.0184   3
  -6 -16   0 38.9396 10.9552   3
  -6 -16   0 42.7901 12.1943   4
  -6  16   0 25.7627 17.0166   2
  -7 -16   0 30.7419 12.0096   4
  -7 -16   0 23.4879 10.3349   3
   7 -16   0 31.8967 12.6413   3
  -7  16   0 21.5560 19.8248   2
   8 -16   0 113.043 15.3188   3
  -8 -16   0 122.454 15.8769   4
  -8  16   0 44.6327 22.5149   2
   0 -17   0 -1.4346 11.6747   3
   0  17   0 10.8189 10.3761   2
  -1 -17   0 -7.8645 11.7668   3
   1 -17   0 -5.3811 11.4812   3
   1  17   0 -0.5073 10.8043   2
  -1  17   0 -3.5264 11.2916   2
  -2 -17   0 -6.3881 11.2558   3
   2 -17   0 5.33502 11.8856   3
  -2  17   0 3.57364 11.3616   2
   2  17   0 4.81206 10.3108   2
  -3 -17   0 36.3844 12.2576   3
   3 -17   0 4.68549 12.0850   3
  -3  17   0 1.21397 12.3838   2
  -4 -17   0 2.44839 11.1823   3
  -4 -17   0 11.2433 11.0839   4
   4 -17   0 -3.0590 12.7344   3
  -4  17   0 9.78566 14.5072   2
  -5 -17   0 27.3643 12.2433   4
   5 -17   0 26.9085 12.8187   3
  -5 -17   0 22.2922 11.6330   3
  -5  17   0 34.9596 16.0788   2
  -6 -17   0 -7.1560 11.8355   4
  -6 -17   0 17.6940 11.1916   3
   6 -17   0 10.6741 12.8824   3
  -6  17   0 -10.546 17.3761   2
   7 -17   0 2.19985 13.4989   3
  -7 -17   0 -9.2693 10.3917   3
  -7 -17   0 9.12532 12.6413   4
  -7  17   0 23.5827 20.9471   2
   0 -18   0 543.452 38.4506   3
   0  18   0 536.740 36.0297   2
  -1 -18   0 171.416 18.4769   3
   1 -18   0 152.738 17.9594   3
  -1  18   0 143.607 16.8653   2
   1  18   0 228.770 21.2225   2
  -2 -18   0 76.5229 14.4487   3
   2 -18   0 64.1830 14.6746   3
   2  18   0 110.497 13.8766   2
  -2  18   0 68.5875 14.7343   2
   3 -18   0 -0.5652 12.9081   3
  -3 -18   0 -20.540 12.0674   3
  -3  18   0 -4.7390 13.4001   2
   4 -18   0 2.57556 13.1992   3
  -4 -18   0 -0.8915 11.7976   3
  -4 -18   0 -14.394 12.0262   4
  -4  18   0 12.1165 14.8831   2
   5 -18   0 5.41010 13.5372   3
  -5 -18   0 6.93012 11.9878   3
  -5 -18   0 0.63914 12.6570   4
  -5  18   0 11.6877 16.2541   2
  -6 -18   0 147.042 16.1997   3
  -6 -18   0 154.920 17.1123   4
   6 -18   0 136.874 17.9520   3
  -6  18   0 93.0954 21.1114   2
   0 -19   0 -0.2779 13.9807   3
   0  19   0 6.01489 11.9592   2
   1 -19   0 14.4824 13.9447   3
  -1 -19   0 -3.2427 14.0686   3
   1  19   0 -3.7263 12.1455   2
  -1  19   0 -8.0498 12.3454   2
   2 -19   0 -5.7859 14.1080   3
  -2 -19   0 21.9228 13.7686   3
  -2  19   0 4.32909 13.1760   2
   2  19   0 13.3473 13.0932   2
   3 -19   0 -1.0639 14.1959   3
  -3 -19   0 -0.9382 13.4551   3
  -3  19   0 13.8228 15.0058   2
   4 -19   0 -8.6379 13.7601   3
  -4 -19   0 -7.5463 12.3770   4
  -4 -19   0 -0.1413 12.6287   3
  -4  19   0 22.9006 15.9152   2
   5 -19   0 -10.779 14.8210   3
  -5 -19   0 3.54370 12.7547   3
  -5 -19   0 -22.990 13.7308   4
  -5  19   0 -28.178 16.8067   2
   0 -20   0 0.60694 15.0352   3
   0  20   0 7.77034 13.4260   2
   1 -20   0 13.3305 15.0791   3
  -1 -20   0 31.2728 15.7548   3
  -1  20   0 25.8563 14.4975   2
   1  20   0 18.7801 13.3695   2
   2 -20   0 29.1415 15.9184   3
  -2 -20   0 13.9634 14.4324   3
  -2  20   0 14.8566 15.5489   2
   2  20   0 26.3678 13.6009   2
   3 -20   0 28.5062 16.3897   3
  -3 -20   0 -24.149 14.1365   3
  -3  20   0 2.32339 15.6170   2
  -4 -20   0 5.72274 14.7298   4
   4 -20   0 -0.1575 15.4099   3
  -4 -20   0 27.7503 14.3466   3
  -4  20   0 3.82362 17.6820   2
   0 -21   0 17.0229 16.6392   3
   0  21   0 0.64361 14.8561   2
   1 -21   0 1.12703 15.9437   3
  -1 -21   0 13.7307 16.5674   3
  -1  21   0 28.8689 16.1242   2
   1  21   0 8.36987 14.3124   2
 -12   0   1 3.98454 18.9115   2
 -11   0   1 191.535 22.1547   2
 -10   0   1 148.540 18.2696   2
  -9   0   1 6.92107 12.4192   2
   9   0  -1 14.8725 9.61118   4
  -8   0   1 346.175 26.7492   2
   8   0  -1 343.071 24.2413   4
  -8   0   1 322.389 24.8800   1
  -7   0   1 85.3502 10.9285   2
   7   0  -1 43.8731 11.5860   1
  -7   0   1 64.5794 9.55451   1
   7   0  -1 105.504 10.0587   4
  -6   0   1 3506.81 196.965   2
  -6   0   1 3373.73 198.047   1
   6   0  -1 3609.97 196.811   4
  -5   0   1 33.8818 6.69169   2
  -5   0   1 38.6912 6.23723   1
   5   0  -1 31.1619 6.01311   4
  -4   0   1 659.814 38.5420   1
  -4   0   1 653.490 37.7179   2
   4   0  -1 607.483 37.5718   4
   4   0  -1 674.338 42.7232   1
   3   0  -1 4662.11 263.123   1
  -3   0   1 5080.26 262.144   1
   3   0  -1 4152.22 261.223   4
  -3   0   1 4780.93 261.235   2
  -2   0   1 356.452 19.7927   1
  -2   0   1 355.170 18.4746   3
   2   0  -1 270.077 19.2140   4
   2   0  -1 329.816 19.9152   1
  -2   0   1 318.729 19.0529   2
  -1   0   1 37.4224 3.38298   1
  -1   0   1 28.1360 2.62396   3
   1   0  -1 36.4377 3.29586   1
   1   0  -1 30.7930 2.62767   3
  -1   0  -1 657.894 35.1883   2
  -1   0  -1 623.259 34.9086   4
   1   0   1 655.556 35.2188   2
  -1   0  -1 561.299 35.1835   3
  -2   0  -1 123.149 10.0995   2
   2   0   1 161.443 8.98608   4
  -2   0  -1 157.452 9.15636   3
   2   0   1 154.259 9.82763   2
  -3   0  -1 633.870 35.0458   3
   3   0   1 617.008 35.8704   2
  -3   0  -1 632.210 35.8889   2
   3   0   1 600.453 35.2309   4
  -4   0  -1 813.575 42.8611   3
   4   0   1 782.457 43.3793   4
  -4   0  -1 660.550 45.0413   1
  -4   0  -1 801.314 44.0998   2
   4   0   1 794.167 44.2264   2
   4   0   1 716.399 43.0544   3
  -5   0  -1 3.30857 3.86914   1
  -5   0  -1 5.92615 1.72291   3
   5   0   1 15.6135 4.80753   1
   5   0   1 3.19409 2.21493   3
  -5   0  -1 4.80199 5.80410   2
  -6   0  -1 105.935 10.6693   2
   6   0   1 106.937 10.0699   4
  -6   0  -1 94.2744 10.8815   1
   6   0   1 119.536 12.6838   1
   7   0   1 100.073 10.3644   4
  -7   0  -1 91.5003 11.2344   2
   7   0   1 59.6951 10.1922   1
  -7   0  -1 80.5517 11.5288   1
  -8   0  -1 134.704 15.4157   1
   8   0   1 129.670 15.4229   1
  -8   0  -1 130.142 14.3682   2
   8   0   1 152.230 13.7698   4
   9   0   1 139.555 15.1240   4
  -9   0  -1 133.737 16.1023   2
 -10   0  -1 19.0055 13.6941   2
 -11   0  -1 16.7189 16.1260   2
 -12   0  -1 199.823 22.9996   2
 -12  -1   1 1.71961 17.0669   2
 -12   1   1 12.5927 18.2399   2
 -11  -1   1 -0.0105 15.4075   2
 -11   1   1 5.73266 16.9314   2
 -10  -1   1 331.588 29.2675   2
 -10   1   1 336.363 30.0748   2
   9  -1  -1 97.1212 12.4825   4
  -9  -1   1 92.8653 14.0865   2
  -9   1   1 64.7949 14.3178   2
   9   1  -1 71.0325 11.9069   4
   8  -1  -1 67.0748 9.40405   4
  -8  -1   1 21.3320 10.5818   2
   8  -1  -1 4.46646 9.70160   1
  -8  -1   1 12.3699 7.00249   1
  -8   1   1 31.1607 7.91400   1
   8   1  -1 33.7785 10.0177   1
  -8   1   1 20.6855 11.0143   2
   8   1  -1 32.2516 9.35351   4
   7  -1  -1 187.654 19.1970   1
  -7  -1   1 161.013 16.1741   1
  -7  -1   1 154.006 16.8285   2
   7  -1  -1 181.858 16.0131   4
  -7   1   1 179.485 16.3326   1
  -7   1   1 181.699 18.6848   2
   7   1  -1 188.511 15.9278   4
  -6  -1   1 840.625 49.7680   2
   6  -1  -1 791.802 51.4113   1
  -6   1   1 955.097 50.1612   2
  -6   1   1 845.839 50.8819   1
   6   1  -1 794.188 49.2770   4
  -5  -1   1 31.4726 5.39227   1
   5  -1  -1 59.4339 8.12427   1
  -5  -1   1 49.1991 6.90220   2
   5  -1  -1 48.4169 6.73283   4
  -5   1   1 48.8550 7.13753   2
   5   1  -1 58.2724 6.65304   4
  -5   1   1 31.1208 5.26974   1
   4  -1  -1 705.550 44.9439   4
  -4  -1   1 790.903 44.9455   2
  -4  -1   1 838.378 45.7399   1
   4  -1  -1 783.137 46.2189   1
   4  -1  -1 756.668 43.7052   3
   4  -1  -1 784.959 43.6318   3
  -4   1   1 771.874 45.0439   2
   4   1  -1 791.416 44.9681   4
  -4   1   1 789.663 45.9856   1
  -3  -1   1 88.2224 7.32316   1
   3  -1  -1 74.1167 6.83385   2
  -3  -1   1 76.5718 4.69593   3
   3  -1  -1 77.0924 7.91901   1
   3  -1  -1 86.9763 5.16696   3
  -3  -1   1 74.1967 7.31398   4
   3  -1  -1 78.4607 4.96513   3
  -3   1   1 82.6255 7.38445   2
   3   1  -1 89.7043 7.36805   4
  -3   1   1 76.6974 7.64778   1
  -2  -1   1 2.83952 1.94970   1
   2  -1  -1 4.91418 1.31721   3
   2  -1  -1 4.44241 2.57246   1
  -2  -1   1 -0.9180 2.46284   4
  -2  -1   1 3.58453 1.19769   3
   2  -1  -1 2.00568 2.29011   2
  -2   1   1 1.18042 2.55422   2
   2   1  -1 3.94113 2.48077   4
   2   1  -1 4.00871 0.97869   3
  -2   1   1 1.56621 2.26144   1
   1  -1  -1 141.018 7.78286   3
   1  -1  -1 130.802 8.48390   1
   1  -1  -1 126.115 7.76711   2
  -1  -1   1 129.741 8.42057   1
  -1  -1   1 126.636 7.73667   3
  -1  -1   1 139.453 8.03703   4
  -1  -1   1 129.300 7.80029   2
  -1   1   1 139.348 7.84257   2
  -1   1   1 121.096 8.41933   1
   1   1  -1 131.379 8.08543   4
   1   1  -1 133.614 7.72528   3
   0  -1  -1 274.534 14.5847   2
   0  -1  -1 226.911 14.8525   3
   0   1  -1 278.674 14.9024   3
  -1  -1  -1 1300.54 77.3445   3
   1  -1   1 1345.19 77.3633   3
   1  -1   1 1345.43 77.3844   2
  -1   1  -1 1378.90 77.3534   3
  -1   1  -1 1314.50 77.3682   2
   1   1   1 1507.61 77.3223   1
   1   1   1 1318.01 77.3520   3
  -1   1  -1 1539.26 77.7949   1
  -2  -1  -1 7.58231 3.09354   2
   2  -1   1 5.13659 2.35903   1
  -2  -1  -1 12.0242 1.87745   1
  -2  -1  -1 10.5221 1.77893   4
  -2  -1  -1 8.54838 1.89597   3
   2  -1   1 11.1133 2.95045   2
   2  -1   1 11.1383 2.01451   3
   2   1   1 11.7517 1.92783   3
  -2   1  -1 12.4175 1.83200   3
   2   1   1 12.2446 1.99224   1
  -2   1  -1 9.29364 2.17767   1
   3  -1   1 652.544 38.9015   2
  -3  -1  -1 682.852 38.8794   1
  -3  -1  -1 623.578 38.3710   4
   3  -1   1 610.290 38.2813   3
  -3  -1  -1 679.656 38.7718   2
  -3   1  -1 695.111 38.1159   3
  -3   1  -1 686.054 39.3120   1
   3   1   1 695.815 38.1476   3
  -3   1  -1 684.883 38.9347   2
   3   1   1 707.343 38.2867   4
   3   1   1 715.614 39.1278   1
  -4  -1  -1 -1.1840 4.32135   2
  -4  -1  -1 0.13518 2.67707   1
   4  -1   1 0.98002 4.82858   2
  -4  -1  -1 3.04833 1.93605   3
   4  -1   1 3.92983 2.80337   3
   4  -1   1 -0.2092 3.13860   4
   4   1   1 -1.0207 2.88879   4
  -4   1  -1 0.29446 3.48017   1
  -4   1  -1 -0.0077 1.81104   3
  -4   1  -1 -2.1175 4.57529   2
   4   1   1 2.96348 1.98906   3
   4   1   1 -2.0919 3.33570   1
   5  -1   1 811.104 48.7743   4
  -5  -1  -1 918.551 49.7478   2
  -5  -1  -1 870.932 47.8493   3
  -5  -1  -1 836.860 49.7713   1
   5  -1   1 817.641 49.8899   2
   5   1   1 897.553 48.7327   4
  -5   1  -1 850.318 50.2635   1
  -5   1  -1 828.537 47.9154   3
  -5   1  -1 861.235 49.7118   2
   5   1   1 835.739 50.3100   1
  -6  -1  -1 28.4524 5.40587   1
   6  -1   1 35.2455 3.62805   3
   6  -1   1 46.7459 5.81539   4
  -6  -1  -1 31.0603 7.54512   2
   6   1   1 39.8288 7.64581   1
   6   1   1 32.3729 5.47810   4
  -6   1  -1 42.5417 6.99040   1
  -6   1  -1 43.6981 8.18901   2
   7  -1   1 182.499 14.9858   4
  -7  -1  -1 169.654 16.8727   2
  -7  -1  -1 160.861 14.8781   1
   7   1   1 209.400 14.2936   4
  -7   1  -1 195.944 17.4684   2
   7   1   1 143.386 17.3491   1
  -7   1  -1 194.335 16.3175   1
  -8  -1  -1 146.446 15.0399   2
   8  -1   1 173.773 14.4836   4
  -8  -1  -1 148.890 15.6874   1
   8   1   1 145.845 19.4720   1
  -8   1  -1 150.686 15.3617   2
   8   1   1 156.326 14.3410   4
  -9  -1  -1 31.6052 12.4478   2
   9  -1   1 25.3640 8.21202   4
  -9   1  -1 30.0021 12.7960   2
 -10  -1  -1 7.09664 13.0736   2
  10  -1   1 5.61949 8.73197   4
 -10   1  -1 -5.8851 13.8111   2
 -11  -1  -1 98.0140 17.6681   2
 -11   1  -1 92.4582 17.6719   2
 -12  -1  -1 2.41643 17.7175   2
 -12   1  -1 1.14324 17.8529   2
 -12  -2   1 88.2017 19.4889   2
 -12   2   1 91.6580 20.7458   2
 -11  -2   1 14.1436 15.2254   2
 -11   2   1 -2.0364 17.1176   2
 -10  -2   1 19.2407 13.5833   2
 -10   2   1 48.0930 15.7545   2
   9  -2  -1 -5.3889 9.41056   4
  -9  -2   1 -6.7904 11.4205   2
   9   2  -1 7.76790 9.63655   4
  -9   2   1 -14.386 13.1590   2
  -8  -2   1 113.634 13.0203   2
   8  -2  -1 108.622 11.3565   4
  -8  -2   1 120.250 14.0764   1
  -8   2   1 70.9243 10.8492   1
   8   2  -1 131.189 12.1246   4
   8   2  -1 78.3099 12.9636   1
  -8   2   1 143.572 14.6856   2
   7  -2  -1 3.14382 7.07046   4
  -7  -2   1 17.2940 8.74996   2
  -7  -2   1 2.27254 5.59939   1
   7  -2  -1 2.24930 7.91178   1
   7   2  -1 1.25686 7.17486   1
  -7   2   1 26.3800 9.44438   2
  -7   2   1 3.00361 6.97145   1
  -6  -2   1 29.6314 7.42877   2
  -6  -2   1 9.52704 5.13331   1
   6  -2  -1 19.9150 7.31490   1
   6   2  -1 32.1065 6.67050   4
  -6   2   1 21.1274 7.04421   1
   6   2  -1 23.8119 7.16609   1
  -6   2   1 41.2824 8.75677   2
   5  -2  -1 605.713 35.3035   2
   5  -2  -1 558.131 36.9044   1
   5  -2  -1 586.464 33.4783   3
  -5  -2   1 591.364 35.7841   1
   5  -2  -1 568.635 33.4064   3
  -5  -2   1 610.573 35.3051   2
  -5   2   1 583.360 35.6028   2
   5   2  -1 624.283 36.6428   1
   5   2  -1 614.849 35.0374   4
  -5   2   1 585.676 36.5537   1
  -4  -2   1 2.29253 4.29870   4
   4  -2  -1 4.72751 1.83534   3
  -4  -2   1 3.98980 3.38083   1
   4  -2  -1 11.8912 4.55533   2
   4  -2  -1 7.46071 4.73011   1
  -4  -2   1 6.89433 1.22045   3
  -4   2   1 10.6702 4.56403   1
   4   2  -1 6.11491 4.33626   4
   4   2  -1 17.6521 4.35927   1
  -4   2   1 8.89038 5.19523   2
   3  -2  -1 1059.17 60.1571   1
  -3  -2   1 1072.18 59.6713   1
  -3  -2   1 1066.23 58.2897   3
   3  -2  -1 980.901 58.8651   2
  -3  -2   1 1029.37 59.0223   4
   3  -2  -1 1025.45 58.3648   3
   3   2  -1 1067.87 58.9860   4
  -3   2   1 1062.81 60.1319   1
   3   2  -1 1012.08 59.7832   1
  -3   2   1 1028.14 59.1353   2
  -2  -2   1 1166.25 69.4452   4
  -2  -2   1 1231.36 69.3715   2
   2  -2  -1 1243.63 69.4018   2
  -2  -2   1 1233.20 69.1098   3
  -2   2   1 1256.23 70.3374   1
  -2   2   1 1217.90 69.5106   2
   2   2  -1 1257.38 69.4728   4
   2   2  -1 1265.24 69.0903   3
  -1  -2   1 21.8009 2.23152   2
  -1  -2   1 22.7872 2.42044   4
   1  -2  -1 18.3395 2.01812   2
  -1  -2   1 25.4302 2.83229   1
   1  -2  -1 28.4348 3.46520   1
  -1  -2   1 24.4610 2.55578   3
   1   2  -1 26.1927 2.64596   2
   1   2  -1 20.9058 2.52049   3
  -1   2   1 22.8696 2.15995   2
  -1   2   1 20.4275 2.77978   1
   0  -2  -1 83.3963 5.08599   2
   0  -2  -1 87.9737 5.51375   1
   0  -2   1 92.2649 5.58056   3
   0  -2   1 84.6465 5.90056   1
   0  -2   1 78.8188 5.35324   2
   0   2  -1 94.2652 5.52849   3
   0   2   1 88.0189 5.54188   1
   0   2   1 88.7753 5.08014   2
   0   2  -1 79.4539 5.33610   2
  -1  -2  -1 126.371 7.62604   3
   1  -2   1 121.671 8.15277   1
   1  -2   1 117.471 7.67771   2
   1  -2   1 131.765 7.70928   3
  -1   2  -1 126.294 7.64509   3
  -1   2  -1 119.840 7.66723   2
  -1   2  -1 120.380 8.14752   1
   2  -2   1 2401.31 140.644   2
   2  -2   1 2648.33 141.391   1
   2  -2   1 2406.04 140.439   3
  -2  -2  -1 2442.22 140.401   3
  -2  -2  -1 2567.44 140.458   1
  -2   2  -1 2380.22 140.661   2
   2   2   1 2671.07 140.560   1
  -2   2  -1 2567.73 141.298   1
  -2   2  -1 2508.32 140.416   3
  -3  -2  -1 542.337 29.7659   1
   3  -2   1 498.792 30.0745   2
  -3  -2  -1 529.861 30.0210   2
   3  -2   1 503.395 29.4016   3
  -3  -2  -1 460.243 29.7497   4
   3  -2   1 519.846 30.8516   1
  -3  -2  -1 487.657 29.2861   3
  -3   2  -1 511.543 30.1457   2
  -3   2  -1 534.584 29.2778   3
   3   2   1 555.797 30.0414   1
  -3   2  -1 516.660 30.6560   1
  -4  -2  -1 1022.56 56.9685   2
   4  -2   1 988.240 57.0885   2
  -4  -2  -1 961.621 56.4843   4
   4  -2   1 937.287 56.2275   3
  -4  -2  -1 1028.22 57.0267   1
   4  -2   1 984.158 58.0581   1
  -4   2  -1 1024.48 56.0350   3
  -4   2  -1 977.990 57.1388   2
  -4   2  -1 1001.31 57.8511   1
   4   2   1 1030.77 57.3790   1
   5  -2   1 2103.62 116.326   1
   5  -2   1 1874.08 113.909   3
   5  -2   1 1891.17 114.226   4
  -5  -2  -1 2096.62 114.764   2
  -5  -2  -1 2096.13 115.102   1
  -5  -2  -1 1992.10 113.556   3
   5  -2   1 2041.58 114.903   2
  -5  -2  -1 1835.90 114.226   4
  -5   2  -1 2055.47 113.597   3
  -5   2  -1 2125.41 115.023   2
  -5   2  -1 2084.53 115.914   1
   5   2   1 2165.95 115.653   1
   6  -2   1 16.4990 3.79772   3
  -6  -2  -1 9.43882 7.05616   2
  -6  -2  -1 12.2575 4.40564   1
   6  -2   1 1.39071 6.69087   1
   6  -2   1 -4.1018 7.40623   2
   6  -2   1 13.5067 5.23807   4
   6   2   1 -4.7213 5.47784   1
  -6   2  -1 3.66448 7.61949   2
  -6   2  -1 10.8012 5.69642   1
   7  -2   1 2.65172 8.43989   1
   7  -2   1 7.38861 5.96444   4
  -7  -2  -1 22.0948 8.50528   2
  -7  -2  -1 2.34607 5.38742   1
  -7   2  -1 5.97277 6.50337   1
   7   2   1 7.67955 7.56053   1
  -7   2  -1 5.91178 9.00895   2
  -8  -2  -1 25.9808 8.01731   1
   8  -2   1 24.8585 12.9651   1
   8  -2   1 39.7927 7.42837   4
  -8  -2  -1 14.7093 10.3244   2
   8   2   1 27.8513 9.67094   1
  -8   2  -1 18.0241 11.2886   2
  -8   2  -1 18.3027 8.74427   1
  -9  -2  -1 748.124 49.8615   2
   9  -2   1 768.863 46.3357   4
  -9   2  -1 810.576 50.3319   2
 -10  -2  -1 133.759 17.1183   2
  10  -2   1 133.876 16.1086   4
 -10   2  -1 148.431 18.2365   2
 -11  -2  -1 12.6041 14.8593   2
 -11   2  -1 33.8093 16.5335   2
 -12  -2  -1 57.3080 17.8013   2
 -12   2  -1 56.3279 19.0643   2
 -12  -3   1 -8.7568 16.4754   2
 -12   3   1 -24.088 19.3602   2
 -11  -3   1 55.1588 16.2312   2
 -11   3   1 41.0480 17.8954   2
 -10  -3   1 14.8567 13.7940   2
 -10   3   1 18.7189 15.2855   2
  -9  -3   1 23.5618 12.0536   2
   9  -3  -1 15.1374 10.4446   4
  -9   3   1 26.8384 13.6741   2
  -8  -3   1 28.6251 7.50419   1
  -8  -3   1 56.6490 10.6580   2
   8  -3  -1 53.7374 9.57155   4
   8  -3  -1 37.6440 12.7111   1
   8   3  -1 38.2806 11.2262   1
   8   3  -1 33.0773 9.09846   4
  -8   3   1 38.3021 12.2795   2
  -8   3   1 27.0045 9.97154   1
   7  -3  -1 589.290 35.0171   3
   7  -3  -1 593.288 37.8513   4
  -7  -3   1 638.639 38.5119   2
   7  -3  -1 567.044 34.9732   3
   7  -3  -1 609.500 41.4295   1
  -7  -3   1 628.970 38.5680   1
  -7   3   1 670.040 39.2714   2
  -7   3   1 610.492 40.1988   1
   7   3  -1 646.135 40.5058   1
   7   3  -1 698.076 37.9817   4
  -6  -3   1 327.133 22.5578   2
   6  -3  -1 335.960 19.5628   3
   6  -3  -1 318.401 22.1856   2
  -6  -3   1 339.464 22.2366   1
   6  -3  -1 335.181 19.4839   3
   6  -3  -1 359.860 25.3073   1
   6   3  -1 338.697 24.0289   1
  -6   3   1 314.428 23.3995   2
   6   3  -1 352.703 22.2811   4
  -6   3   1 317.372 23.7972   1
  -5  -3   1 416.321 23.4720   3
   5  -3  -1 391.179 25.5810   2
  -5  -3   1 435.148 26.1019   1
  -5  -3   1 378.059 25.3438   4
   5  -3  -1 394.680 24.0078   3
  -5  -3   1 416.158 23.4976   3
  -5   3   1 422.733 26.4983   2
  -5   3   1 443.009 27.5179   1
   5   3  -1 417.704 26.3442   4
   5   3  -1 465.838 27.3324   1
  -4  -3   1 17.9648 2.12927   3
   4  -3  -1 14.6493 4.75036   2
  -4  -3   1 11.2280 4.45228   4
   4  -3  -1 12.6893 2.93025   3
   4  -3  -1 15.3346 4.86044   1
  -4  -3   1 15.6692 3.79188   1
  -4   3   1 22.6766 5.39004   1
   4   3  -1 22.4299 4.83571   4
   4   3  -1 15.1572 4.53502   1
  -4   3   1 12.5474 5.58066   2
  -3  -3   1 42.2423 5.43782   1
   3  -3  -1 27.4413 3.33556   3
  -3  -3   1 37.3009 3.64858   3
  -3  -3   1 38.5767 4.24371   2
   3  -3  -1 36.3088 4.40167   2
  -3  -3   1 39.0973 4.59272   4
   3  -3  -1 37.0572 5.24265   1
  -3   3   1 48.8131 6.05847   1
   3   3  -1 40.9104 4.68227   4
  -3   3   1 41.0568 5.30810   2
   3   3  -1 48.3309 5.45306   1
   2  -3  -1 4988.67 269.423   1
  -2  -3   1 4893.41 268.977   1
   2  -3  -1 4470.50 268.272   2
  -2  -3   1 4747.16 268.144   3
  -2  -3   1 4698.63 268.358   4
  -2  -3   1 4661.40 268.306   2
   2   3  -1 4875.33 268.138   3
  -2   3   1 5013.11 269.447   1
   2   3  -1 4864.42 269.110   1
   1  -3  -1 84.1375 5.67222   2
  -1  -3   1 89.1770 5.82844   2
   1  -3  -1 88.0312 6.69802   1
  -1  -3   1 89.1874 5.84781   3
  -1   3   1 88.0075 6.77031   1
   1   3  -1 90.4964 5.83027   3
  -1   3   1 79.5891 5.71684   2
   0  -3   1 517.397 29.6756   1
   0  -3   1 532.208 29.2766   3
   0  -3   1 491.014 29.1051   2
   0  -3  -1 489.892 28.9542   2
   0  -3  -1 523.361 29.3931   1
   0   3  -1 512.301 29.1325   2
   0   3  -1 554.422 29.2546   3
   0   3   1 519.430 29.3813   1
   0   3   1 491.988 28.9620   2
   1  -3   1 1634.34 92.0163   2
  -1  -3  -1 1582.36 91.9177   2
   1  -3   1 1549.80 92.1212   3
  -1   3  -1 1741.95 92.0941   3
  -1   3  -1 1701.77 92.7500   1
   2  -3   1 1069.21 61.1504   1
  -2  -3  -1 1105.65 60.0725   3
   2  -3   1 1008.25 60.2460   2
  -2   3  -1 1074.51 60.0901   3
  -2   3  -1 1094.81 60.3794   2
  -2   3  -1 1051.43 61.0511   1
  -3  -3  -1 213.488 12.9479   1
   3  -3   1 190.789 13.1236   3
  -3  -3  -1 218.615 13.1611   4
  -3  -3  -1 229.397 12.9430   3
   3  -3   1 219.457 14.2881   2
  -3   3  -1 228.308 14.3068   2
  -3   3  -1 211.212 14.5972   1
   3   3   1 218.551 13.3841   1
  -3   3  -1 209.437 12.9597   3
  -4  -3  -1 515.657 30.0344   4
  -4  -3  -1 491.228 29.5837   3
  -4  -3  -1 529.920 30.2420   1
   4  -3   1 503.180 30.8070   2
  -4  -3  -1 517.650 30.5931   2
   4  -3   1 496.679 29.8078   3
   4  -3   1 504.428 31.9110   1
  -4   3  -1 527.493 29.6062   3
   4   3   1 558.120 30.8346   1
  -4   3  -1 504.853 31.6467   1
  -4   3  -1 543.431 31.0965   2
   5  -3   1 800.540 47.0520   3
  -5  -3  -1 827.569 47.9072   1
  -5  -3  -1 839.895 48.0554   2
  -5  -3  -1 772.391 47.4646   4
   5  -3   1 806.343 49.6563   1
   5  -3   1 841.580 48.2990   2
  -5   3  -1 840.664 49.3735   1
  -5   3  -1 822.984 46.7346   3
   5   3   1 887.184 48.7421   1
  -5   3  -1 825.359 48.4955   2
  -6  -3  -1 -1.5986 3.82581   1
  -6  -3  -1 7.35082 6.85488   2
  -6  -3  -1 1.20521 2.18350   3
   6  -3   1 1.03678 3.94121   3
   6  -3   1 2.33468 6.75415   1
  -6  -3  -1 2.14409 5.40045   4
   6  -3   1 -2.5403 4.97246   4
  -6  -3  -1 0.74501 1.49817   3
   6  -3   1 -0.5525 7.61004   2
   6   3   1 -2.0566 5.51821   1
  -6   3  -1 -0.2633 4.41447   1
  -6   3  -1 3.83567 8.06851   2
  -7  -3  -1 525.807 32.1615   1
   7  -3   1 540.897 35.6218   1
  -7  -3  -1 485.028 32.6704   2
   7  -3   1 512.337 33.9206   2
   7  -3   1 475.306 31.5174   4
  -7   3  -1 538.005 34.1785   1
   7   3   1 516.353 34.0141   1
  -7   3  -1 543.091 34.4193   2
  -8  -3  -1 511.857 32.7994   2
   8  -3   1 445.977 26.9662   3
   8  -3   1 476.682 29.7857   4
   8  -3   1 484.444 35.1925   1
  -8  -3  -1 472.789 30.9696   1
   8   3   1 488.580 33.7195   1
  -8   3  -1 422.778 32.6806   1
  -8   3  -1 534.829 33.1972   2
  -9   3  -1 96.4818 23.3500   2
 -10  -3  -1 55.4667 14.2789   2
 -10   3  -1 54.9768 16.0732   2
 -11  -3  -1 102.974 17.4290   2
 -11   3  -1 99.8139 19.0005   2
 -12  -3  -1 -2.4827 16.2841   2
 -12   3  -1 29.1092 18.7504   2
 -12  -4   1 0.22525 17.1205   2
 -12   4   1 -15.315 20.0275   2
 -11  -4   1 197.521 20.6517   2
 -11   4   1 198.076 23.1497   2
 -10  -4   1 42.2935 13.8277   2
 -10   4   1 60.7369 16.8794   2
   9  -4  -1 205.030 20.1007   4
  -9   4   1 171.800 19.3010   2
   8  -4  -1 13.0653 8.92062   4
  -8  -4   1 11.5173 10.0973   2
   8  -4  -1 8.71602 12.3116   1
  -8  -4   1 4.76049 6.37247   1
  -8   4   1 16.4484 9.85236   1
   8   4  -1 12.5118 9.52606   1
  -8   4   1 11.2837 12.2937   2
   7  -4  -1 749.018 40.9494   3
  -7  -4   1 689.729 43.6278   2
  -7  -4   1 695.583 43.6201   1
   7  -4  -1 746.214 43.8046   2
   7  -4  -1 707.927 47.1483   1
   7   4  -1 712.225 45.6243   1
  -7   4   1 704.514 45.7241   1
  -7   4   1 733.477 44.5740   2
  -6  -4   1 108.465 11.1588   1
   6  -4  -1 134.875 13.4724   2
  -6  -4   1 109.525 12.1717   4
   6  -4  -1 122.266 8.60377   3
   6  -4  -1 105.161 12.5760   1
  -6  -4   1 113.140 11.0320   2
  -6   4   1 116.377 14.3766   1
  -6   4   1 128.045 12.4740   2
   6   4  -1 112.737 13.4688   1
  -5  -4   1 1358.03 80.8420   2
   5  -4  -1 1374.56 80.9638   2
   5  -4  -1 1417.68 83.2219   1
  -5  -4   1 1455.42 79.8349   3
  -5  -4   1 1357.49 80.9992   4
   5  -4  -1 1439.75 80.0973   3
  -5  -4   1 1463.05 81.6945   1
   5   4  -1 1517.64 82.6350   1
  -5   4   1 1407.90 81.5601   2
  -5   4   1 1444.15 83.0956   1
   4  -4  -1 3398.87 193.597   3
   4  -4  -1 3326.31 194.065   2
   4  -4  -1 3474.56 195.897   1
  -4  -4   1 3584.82 194.841   1
  -4  -4   1 3415.72 194.114   4
  -4  -4   1 3337.24 193.441   3
  -4   4   1 3496.75 195.872   1
  -4   4   1 3461.60 194.445   2
   4   4  -1 3656.16 195.492   1
  -3  -4   1 825.965 46.7423   2
   3  -4  -1 826.511 46.8146   2
   3  -4  -1 810.273 46.4234   3
  -3  -4   1 850.168 46.8420   4
  -3  -4   1 854.578 47.4155   1
   3  -4  -1 819.883 48.3207   1
  -3  -4   1 709.291 46.4949   3
  -3   4   1 845.232 48.3472   1
  -3   4   1 809.019 47.0090   2
   3   4  -1 854.236 47.8090   1
   2  -4  -1 170.879 10.2927   3
   2  -4  -1 153.145 10.1858   2
  -2  -4   1 164.597 10.3649   2
  -2  -4   1 166.291 10.5917   4
   2  -4  -1 150.246 11.6901   1
  -2  -4   1 155.024 10.8771   1
   2   4  -1 163.490 10.0364   3
   2   4  -1 171.058 10.4116   2
  -2   4   1 151.222 10.7210   2
   2   4  -1 169.911 11.1635   1
  -2   4   1 165.174 11.6953   1
  -1  -4   1 360.875 21.4569   1
   1  -4  -1 367.993 20.7639   2
   1  -4  -1 359.913 21.7137   1
  -1  -4   1 349.974 20.8686   2
  -1  -4   1 345.714 21.0523   3
  -1   4   1 365.619 21.7575   1
   1   4  -1 390.154 21.0164   3
  -1   4   1 350.456 20.8000   2
   1   4  -1 362.619 20.9191   2
   1   4  -1 370.575 21.4663   1
   0  -4   1 2804.34 155.859   3
   0  -4  -1 2843.45 156.128   1
   0  -4  -1 2679.93 155.604   2
   0  -4   1 2868.23 156.408   1
   0  -4   1 2745.48 155.732   2
   0  -4   1 2926.12 156.461   1
   0   4   1 2843.06 156.115   1
   0   4  -1 2668.39 155.724   2
   0   4  -1 2880.25 155.871   3
   0   4   1 2586.63 155.603   2
   1  -4   1 306.957 19.0642   1
   1  -4   1 304.905 18.2544   2
  -1  -4  -1 315.367 17.8433   1
  -1  -4  -1 302.728 17.9349   2
   1  -4   1 319.178 18.3504   3
  -1   4  -1 314.551 19.0727   1
  -1   4  -1 319.782 18.3266   3
  -1   4  -1 308.756 18.3046   2
  -2  -4  -1 271.535 17.0701   2
   2  -4   1 293.726 17.1407   3
   2  -4   1 283.816 18.2972   1
   2  -4   1 282.329 17.1959   2
  -2   4  -1 283.056 16.9358   3
  -2   4  -1 292.419 18.2479   1
  -2   4  -1 305.514 17.5338   2
   3  -4   1 781.789 44.7080   3
   3  -4   1 777.064 46.3396   1
  -3  -4  -1 781.190 44.6291   4
   3  -4   1 746.947 45.0501   2
  -3  -4  -1 800.093 44.4529   1
  -3  -4  -1 828.438 44.6063   3
  -3   4  -1 766.496 44.6099   3
  -3   4  -1 754.845 46.1542   1
   3   4   1 821.760 44.7958   1
  -3   4  -1 796.386 45.2891   2
   4  -4   1 1.44037 10.0309   2
  -4  -4  -1 20.2567 3.97548   4
  -4  -4  -1 17.6006 3.10693   3
  -4  -4  -1 14.4490 2.87066   1
   4  -4   1 7.59270 3.54320   3
   4  -4   1 10.5607 5.08591   1
  -4   4  -1 16.1144 3.22283   3
  -4   4  -1 24.4987 5.61470   1
  -4   4  -1 16.1648 5.81076   2
   4   4   1 14.9563 3.89627   1
  -5  -4  -1 186.641 12.6674   1
   5  -4   1 190.808 12.4755   3
   5  -4   1 179.849 16.2472   1
  -5  -4  -1 181.833 14.8363   2
   5  -4   1 187.669 14.7035   2
  -5  -4  -1 179.922 11.8337   3
  -5  -4  -1 187.955 13.2546   4
  -5   4  -1 204.930 16.4244   2
  -5   4  -1 177.584 11.9368   3
  -5   4  -1 181.516 15.2562   1
   5   4   1 197.898 14.2687   1
   6  -4   1 617.339 41.9852   1
  -6  -4  -1 655.693 38.9625   1
  -6  -4  -1 649.219 39.8758   2
   6  -4   1 623.369 39.6897   2
  -6  -4  -1 616.799 38.6808   4
   6  -4   1 669.187 38.0618   3
  -6  -4  -1 665.661 37.1989   3
  -6   4  -1 683.188 41.2170   1
   6   4   1 701.526 40.4305   1
  -6   4  -1 689.903 40.8226   2
  -7  -4  -1 73.2254 8.77689   4
   7  -4   1 79.7160 12.0158   1
  -7  -4  -1 80.3513 10.4971   2
   7  -4   1 90.9062 11.1926   2
  -7  -4  -1 69.8078 9.85917   1
   7  -4   1 78.8060 8.57940   4
  -7   4  -1 86.8924 11.8126   2
  -7   4  -1 77.8026 11.5024   1
   7   4   1 75.3343 10.8779   1
  -8  -4  -1 397.196 27.3491   1
   8  -4   1 427.943 26.9764   4
   8  -4   1 397.189 33.7595   1
  -8  -4  -1 385.921 29.3433   2
  -8   4  -1 414.264 30.2018   1
   8   4   1 397.017 30.7158   1
  -8   4  -1 492.201 31.8382   2
   9  -4   1 546.489 34.5396   4
 -10  -4  -1 135.505 17.0246   2
 -10   4  -1 171.654 19.7453   2
 -11  -4  -1 377.011 32.9018   2
 -11   4  -1 367.098 36.4855   2
 -12  -4  -1 -2.0930 16.7400   2
 -12   4  -1 -1.2706 19.0960   2
 -12  -5   1 8.88094 16.6755   2
 -12   5   1 15.7413 20.2895   2
 -11  -5   1 51.1121 15.7369   2
 -11   5   1 41.2818 18.7216   2
 -10  -5   1 78.0577 15.2234   2
 -10   5   1 88.0509 18.2916   2
  -9  -5   1 72.1234 13.0594   2
   9  -5  -1 41.4218 11.4801   4
  -9   5   1 57.8690 18.1193   2
  -8  -5   1 25.0674 10.7078   2
   8  -5  -1 33.6212 7.23625   3
   8  -5  -1 35.9765 4.81479   3
  -8  -5   1 26.1980 7.40264   1
   8  -5  -1 39.6781 9.17231   4
   8  -5  -1 41.7330 13.3997   1
   8   5  -1 32.7209 11.4901   1
  -8   5   1 37.6650 11.5473   1
  -8   5   1 22.5262 13.0113   2
  -7  -5   1 2.61752 8.64044   2
  -7  -5   1 1.77258 5.52533   1
  -7  -5   1 1.23708 6.94298   2
   7  -5  -1 -4.7572 4.04141   3
   7  -5  -1 -2.1301 9.19139   1
  -7  -5   1 -2.0989 7.13552   4
   7  -5  -1 -0.3531 8.22222   2
   7  -5  -1 3.44086 4.01838   3
  -7   5   1 -1.8078 8.16442   1
   7   5  -1 -1.6542 7.86349   1
  -7   5   1 -5.2666 10.0830   2
   6  -5  -1 13.2282 4.01852   3
  -6  -5   1 14.7877 2.84416   3
   6  -5  -1 11.2012 7.52728   1
  -6  -5   1 17.0798 6.43936   2
   6  -5  -1 16.6391 7.03566   2
  -6  -5   1 12.0213 2.64579   3
  -6  -5   1 12.7314 5.25957   1
  -6  -5   1 10.5778 6.53347   4
   6   5  -1 10.8458 7.08989   1
  -6   5   1 22.4709 8.39415   1
  -6   5   1 12.7183 9.37347   2
   5  -5  -1 352.686 24.1839   1
   5  -5  -1 333.666 19.9832   3
  -5  -5   1 317.161 21.0610   2
  -5  -5   1 324.554 21.3220   4
   5  -5  -1 338.206 21.6750   2
  -5  -5   1 325.348 21.2797   1
  -5   5   1 314.342 22.6361   2
   5   5  -1 354.620 22.7875   1
   4  -5  -1 114.815 8.71336   3
  -4  -5   1 123.510 10.1912   4
   4  -5  -1 110.866 12.1218   1
   4  -5  -1 86.6241 10.2607   2
  -4  -5   1 119.073 9.70197   2
  -4  -5   1 118.918 8.11325   3
  -4  -5   1 120.316 9.71023   1
   4   5  -1 114.235 10.9343   1
  -4   5   1 106.325 11.2471   2
  -3  -5   1 424.089 23.6808   3
  -3  -5   1 411.162 24.2843   4
  -3  -5   1 413.571 24.1530   2
   3  -5  -1 396.691 23.8721   3
  -3  -5   1 403.888 24.6486   1
   3  -5  -1 409.319 24.2332   2
   3  -5  -1 408.835 26.0349   1
  -3   5   1 404.394 25.9398   1
   3   5  -1 411.267 25.0553   1
  -3   5   1 394.599 24.4684   2
   2  -5  -1 559.897 32.7861   2
   2  -5  -1 559.022 34.1678   1
   2  -5  -1 559.168 32.8084   3
  -2  -5   1 573.353 32.7586   3
  -2  -5   1 600.459 32.8912   2
  -2  -5   1 553.987 33.4203   1
   2   5  -1 591.664 33.5456   1
  -2   5   1 559.457 34.2028   1
   2   5  -1 588.637 32.9581   2
  -2   5   1 560.320 32.8907   2
   2   5  -1 589.048 32.7473   3
   1  -5  -1 106.313 7.85742   3
  -1  -5   1 108.582 8.12842   1
   1  -5  -1 101.510 8.42023   1
  -1  -5   1 112.156 7.88053   3
   1  -5  -1 109.571 7.35570   2
  -1  -5   1 116.769 7.82526   2
   1   5  -1 110.114 7.66512   3
  -1   5   1 117.155 8.68660   1
   1   5  -1 116.405 7.76164   2
   1   5  -1 110.113 8.16181   1
  -1   5   1 101.458 7.55868   2
   0  -5   1 2733.60 147.691   1
   0  -5   1 2570.46 146.969   3
   0  -5   1 2585.98 146.829   2
   0  -5   1 2715.11 147.638   1
   0  -5  -1 2622.42 147.321   1
   0  -5  -1 2548.85 146.697   2
   0   5   1 2481.87 146.710   2
   0   5   1 2712.36 147.330   1
   0   5  -1 2730.23 147.018   3
   0   5  -1 2530.85 146.828   2
  -1  -5  -1 18.5551 2.75649   2
  -1  -5  -1 20.6689 2.36691   1
   1  -5   1 14.4389 3.32966   3
   1  -5   1 16.0474 3.23461   2
   1  -5   1 15.3245 3.58280   1
  -1   5  -1 19.0438 3.38551   2
  -1   5  -1 21.4905 3.46163   3
  -1   5  -1 23.9297 3.87053   1
   1   5   1 24.7513 2.93974   2
   2  -5   1 848.799 47.4330   3
   2  -5   1 827.874 47.4438   2
   2  -5   1 820.700 48.6446   1
  -2  -5  -1 826.530 47.2917   2
  -2   5  -1 819.447 48.5852   1
  -2   5  -1 834.523 47.5496   2
  -2   5  -1 851.467 47.3822   3
   3  -5   1 182.756 14.1899   1
   3  -5   1 183.709 12.2450   3
   3  -5   1 189.694 12.7226   2
  -3  -5  -1 180.368 12.2013   2
  -3   5  -1 188.977 13.2154   2
  -3   5  -1 188.511 12.0116   3
  -3   5  -1 175.640 13.8647   1
   4  -5   1 469.731 30.5089   1
  -4  -5  -1 459.639 27.9256   4
   4  -5   1 484.334 27.9546   3
  -4  -5  -1 507.264 27.6680   3
  -4  -5  -1 441.860 28.1795   2
   4  -5   1 437.240 28.5976   2
  -4  -5  -1 486.680 27.5229   1
   4   5   1 495.057 28.2002   1
  -4   5  -1 466.779 30.0994   1
  -4   5  -1 494.774 27.7357   3
  -4   5  -1 474.556 29.1325   2
   5  -5   1 50.3223 9.13445   1
  -5  -5  -1 36.3580 5.72743   4
   5  -5   1 51.2981 5.54386   3
  -5  -5  -1 49.3046 5.97541   1
  -5  -5  -1 49.1428 5.65557   3
   5  -5   1 33.4803 7.46235   2
  -5  -5  -1 49.0815 4.78185   3
  -5   5  -1 48.7509 8.58557   2
  -5   5  -1 56.0191 8.63726   1
   5   5   1 51.3840 6.41980   1
  -5   5  -1 45.0359 4.97240   3
   6  -5   1 869.093 53.7138   2
  -6  -5  -1 952.864 52.9841   1
  -6  -5  -1 941.195 51.6956   3
  -6  -5  -1 861.654 52.8472   4
  -6  -5  -1 927.388 53.6412   2
   6  -5   1 934.613 56.3902   1
  -6  -5  -1 825.611 51.8661   3
   6  -5   1 924.659 52.3824   3
  -6   5  -1 975.175 54.8436   2
   6   5   1 943.957 54.2683   1
  -6   5  -1 916.391 55.5626   1
   7  -5   1 983.089 55.8355   3
  -7  -5  -1 939.140 56.5703   4
  -7  -5  -1 998.471 54.7665   3
  -7  -5  -1 1009.51 56.8136   1
  -7  -5  -1 866.426 54.8871   3
   7  -5   1 981.581 60.8191   1
  -7  -5  -1 948.375 57.4112   2
   7  -5   1 954.332 58.0605   2
  -7   5  -1 1064.71 58.6421   2
  -7   5  -1 960.759 59.5793   1
   7   5   1 1028.22 58.8191   1
   8  -5   1 5.60413 5.40739   3
  -8  -5  -1 3.63508 9.67511   2
  -8  -5  -1 -9.9780 5.66161   1
   8  -5   1 6.20589 7.48207   4
   8   5   1 5.48311 10.0096   1
  -8   5  -1 5.72282 12.0593   2
  -8   5  -1 7.81776 10.0642   1
  -9  -5  -1 34.7613 12.2282   2
   9  -5   1 50.1348 9.54454   4
  -9   5  -1 43.2885 14.9845   2
 -10  -5  -1 54.9443 14.0560   2
 -10   5  -1 52.3907 17.0025   2
 -11  -5  -1 45.8336 15.0222   2
 -11   5  -1 19.3691 18.2476   2
 -12  -5  -1 23.3165 16.4039   2
 -12   5  -1 37.4357 20.7222   2
 -12  -6   1 135.691 20.0635   2
 -12   6   1 135.679 23.5463   2
 -11  -6   1 35.9700 15.5301   2
 -11   6   1 22.8790 18.8019   2
 -10  -6   1 -2.4768 12.8585   2
 -10   6   1 -19.144 17.0793   2
  -9  -6   1 20.7690 12.5852   2
   9  -6  -1 24.5123 4.82072   3
   8  -6  -1 241.638 15.5091   3
  -8  -6   1 232.860 22.4859   2
   8  -6  -1 166.746 23.5805   1
   8  -6  -1 235.070 15.2226   3
  -8  -6   1 229.097 18.4871   1
  -8  -6   1 199.072 19.1705   4
   8   6  -1 255.253 26.7106   1
  -8   6   1 211.602 23.5122   2
  -8   6   1 227.026 23.8193   1
   7  -6  -1 -1.1776 4.43047   3
  -7  -6   1 3.69780 5.51229   1
  -7  -6   1 15.0681 7.58698   2
  -7  -6   1 0.88787 2.57756   3
  -7  -6   1 -6.8906 6.91657   4
   7  -6  -1 2.30521 9.98819   1
   7  -6  -1 -1.4378 8.53736   2
  -7  -6   1 -3.1296 2.31052   3
  -7   6   1 -9.2311 10.6657   2
   7   6  -1 -9.4501 7.54885   1
  -7   6   1 -8.9794 8.78617   1
  -6  -6   1 40.9232 6.35003   1
  -6  -6   1 36.1260 7.18237   2
   6  -6  -1 38.6431 5.23606   3
  -6  -6   1 26.5547 7.49352   4
   6  -6  -1 50.1880 10.7455   1
  -6  -6   1 47.2079 4.44410   3
  -6  -6   1 39.3892 4.14131   3
   6  -6  -1 31.9286 7.73758   2
  -6   6   1 24.3464 7.57450   1
  -6   6   1 32.6446 9.97858   2
   6   6  -1 24.0785 8.08881   1
   5  -6  -1 266.633 19.6785   2
  -5  -6   1 287.898 19.5793   2
   5  -6  -1 305.228 18.5752   3
  -5  -6   1 305.678 18.0177   3
  -5  -6   1 287.148 19.8768   4
  -5  -6   1 320.711 19.6764   1
   5   6  -1 325.921 21.5748   1
  -5   6   1 274.705 22.0807   2
  -4  -6   1 9.44835 4.77412   2
  -4  -6   1 5.05473 3.25919   3
  -4  -6   1 1.27547 4.67974   4
   4  -6  -1 11.9088 6.43681   1
   4  -6  -1 9.67148 4.01349   3
  -4  -6   1 11.7414 3.98238   1
  -4   6   1 12.1225 6.29880   1
  -4   6   1 12.1770 6.40311   2
   4   6  -1 7.44031 4.68436   1
   3  -6  -1 6.24920 3.89091   3
  -3  -6   1 6.27856 4.12598   4
  -3  -6   1 11.9850 3.62383   1
   3  -6  -1 4.32042 3.92764   2
   3  -6  -1 4.32438 4.49894   1
  -3  -6   1 5.59087 3.36599   3
   3   6  -1 10.4100 3.96299   1
  -3   6   1 6.38315 5.06899   2
  -3   6   1 1.59591 3.66271   1
  -2  -6   1 1036.80 60.3284   3
  -2  -6   1 1097.63 60.4103   2
   2  -6  -1 1048.91 61.7804   1
  -2  -6   1 1041.25 61.0236   1
   2  -6  -1 1071.51 60.4902   3
   2  -6  -1 1034.02 60.2372   2
   2   6  -1 1109.46 61.0845   1
  -2   6   1 1081.10 61.8859   1
   2   6  -1 1106.47 60.3601   3
   2   6  -1 1058.29 60.4031   2
  -2   6   1 1043.09 60.3329   2
   1  -6  -1 48.9646 6.49639   1
  -1  -6   1 60.3057 5.77194   2
   1  -6  -1 56.1092 5.55737   2
  -1  -6   1 55.6356 6.28893   3
   1  -6  -1 53.4593 6.09575   3
  -1  -6   1 53.8951 6.04001   1
   1   6  -1 60.5011 5.19668   2
  -1   6   1 60.1644 6.74850   1
  -1   6   1 58.1095 5.70544   2
   1   6  -1 55.9393 5.81792   3
   0  -6   1 13.8580 3.18863   2
   0  -6   1 15.0755 3.65842   3
   0  -6   1 10.8871 3.30415   1
   0  -6  -1 12.2838 3.03964   1
   0  -6  -1 20.5478 2.83198   2
   0  -6  -1 17.9244 3.83663   3
   0  -6   1 11.4935 3.50671   1
   0   6  -1 21.5233 3.72075   3
   0   6   1 14.8154 2.97436   2
   0   6   1 13.3097 3.10295   1
   0   6  -1 13.5285 3.36475   2
   1  -6   1 463.087 27.3719   3
  -1  -6  -1 476.635 27.0018   1
   1  -6   1 461.517 27.0743   2
  -1  -6  -1 474.711 27.0056   1
   1  -6   1 461.539 28.2212   1
  -1  -6  -1 467.432 26.9017   2
  -1   6  -1 468.474 27.1432   2
  -1   6  -1 463.896 28.2359   1
  -1   6  -1 472.536 27.2454   3
   1   6   1 458.178 26.9372   2
   2  -6   1 358.073 21.3343   3
  -2  -6  -1 363.061 20.4128   1
   2  -6   1 353.752 21.1797   2
  -2  -6  -1 355.043 21.0319   2
   2  -6   1 367.309 22.7634   1
  -2   6  -1 344.559 22.5345   1
  -2   6  -1 350.709 21.1064   3
  -2   6  -1 334.263 21.3046   2
  -3  -6  -1 1060.24 58.6025   3
   3  -6   1 1039.17 60.6836   1
  -3  -6  -1 1019.00 58.7536   2
   3  -6   1 1036.07 58.7202   3
   3  -6   1 925.533 59.3492   2
  -3   6  -1 1058.38 60.5399   1
  -3   6  -1 1050.75 59.2111   2
  -3   6  -1 1070.28 58.7394   3
  -4  -6  -1 311.894 17.9823   1
  -4  -6  -1 288.599 18.9226   4
   4  -6   1 315.723 22.2754   1
  -4  -6  -1 321.735 18.7869   3
  -4  -6  -1 289.201 19.5618   2
   4  -6   1 305.135 19.9065   2
  -4  -6  -1 297.228 18.6210   3
   4  -6   1 312.528 19.0823   3
   4   6   1 328.144 18.4027   1
  -4   6  -1 308.303 21.0616   2
  -4   6  -1 292.740 21.4326   1
  -4   6  -1 302.541 18.9095   3
  -5  -6  -1 530.912 30.3707   1
  -5  -6  -1 519.383 31.0384   4
   5  -6   1 493.319 34.2482   1
   5  -6   1 478.222 31.8449   2
  -5  -6  -1 530.514 30.2338   3
   5  -6   1 525.176 30.8654   3
  -5  -6  -1 483.805 31.5011   2
  -5  -6  -1 544.736 30.4606   3
  -5   6  -1 528.899 33.8707   1
  -5   6  -1 531.402 32.7404   2
   5   6   1 533.759 31.4027   1
  -5   6  -1 539.102 30.5673   3
   6  -6   1 54.9980 10.4909   1
   6  -6   1 67.8164 9.75170   2
  -6  -6  -1 74.7437 8.53798   2
   6  -6   1 80.3267 9.22063   3
  -6  -6  -1 81.0573 7.84006   1
  -6  -6  -1 64.9550 7.05634   3
  -6  -6  -1 70.7018 7.73997   3
  -6  -6  -1 77.5137 8.25069   4
   6   6   1 89.3711 11.0498   1
  -6   6  -1 85.6561 11.6612   2
  -6   6  -1 80.7845 11.2073   1
   7  -6   1 13.2360 11.7857   1
  -7  -6  -1 34.1599 3.75755   3
   7  -6   1 20.3261 9.83895   2
  -7  -6  -1 32.3204 9.58953   2
  -7  -6  -1 23.6794 4.17757   3
  -7  -6  -1 28.9912 7.93484   2
  -7  -6  -1 14.1181 6.91113   4
  -7  -6  -1 29.5996 5.65792   1
   7  -6   1 30.2774 5.98092   3
  -7   6  -1 33.4332 11.4919   2
  -7   6  -1 22.3660 7.85195   1
  -8  -6  -1 -4.1398 10.0194   2
  -8  -6  -1 10.5123 7.65253   1
   8  -6   1 7.11962 7.49221   4
  -8  -6  -1 -2.2217 7.36953   4
   8  -6   1 5.58388 5.72150   3
   8   6   1 9.69974 9.49000   1
  -8   6  -1 15.8625 12.5333   2
  -8   6  -1 -1.6869 6.85985   1
   9  -6   1 125.184 11.6993   3
  -9  -6  -1 115.904 14.6982   2
   9  -6   1 116.601 12.1632   4
  -9   6  -1 95.3649 17.3169   2
 -10  -6  -1 49.4663 14.0574   2
 -10   6  -1 62.2234 17.3231   2
 -11  -6  -1 9.74347 14.2620   2
 -11   6  -1 -8.4102 17.7824   2
 -11  -7   1 9.03949 15.4714   2
 -11   7   1 4.75021 19.1266   2
 -10  -7   1 63.0168 14.7733   2
 -10   7   1 79.5465 18.8709   2
  -9  -7   1 537.573 36.8293   2
   9  -7  -1 538.781 33.3768   3
   9  -7  -1 546.149 31.9123   3
  -9   7   1 504.839 40.6817   2
  -8  -7   1 627.807 39.1324   1
   8  -7  -1 639.728 36.9083   3
  -8  -7   1 565.047 38.9294   4
   8  -7  -1 661.532 37.2125   3
  -8  -7   1 625.682 40.3571   2
  -8   7   1 628.333 43.5540   2
  -7  -7   1 12.7641 5.81400   1
  -7  -7   1 5.20292 3.44637   3
   7  -7  -1 2.60831 5.18371   3
  -7  -7   1 7.60843 3.62251   3
  -7  -7   1 -5.6616 7.57467   4
   7  -7  -1 19.7424 8.86548   2
   7  -7  -1 6.87593 11.5013   1
  -7   7   1 4.55118 11.5429   2
   7   7  -1 6.07261 9.64868   1
  -7   7   1 4.58530 7.73097   1
  -6  -7   1 715.831 40.6098   3
  -6  -7   1 683.131 42.2933   4
   6  -7  -1 719.730 46.2464   1
   6  -7  -1 701.367 42.3480   2
   6  -7  -1 716.308 41.2218   3
  -6  -7   1 737.239 42.3321   1
  -6  -7   1 670.906 42.2126   2
  -6   7   1 706.602 45.6582   1
  -6   7   1 723.073 43.8659   2
   6   7  -1 710.542 44.2661   1
  -5  -7   1 101.522 11.6381   4
  -5  -7   1 119.311 9.14421   3
  -5  -7   1 102.607 11.8213   2
  -5  -7   1 110.771 10.3098   1
   5  -7  -1 101.960 11.5198   2
   5  -7  -1 106.011 9.93571   3
  -5   7   1 173.035 22.0133   1
  -5   7   1 96.2719 11.4959   2
   5   7  -1 128.619 12.5303   1
   4  -7  -1 1061.21 61.0741   3
  -4  -7   1 1068.08 61.3807   2
   4  -7  -1 1037.15 61.2745   2
  -4  -7   1 1072.71 60.8307   3
  -4  -7   1 1091.84 61.8555   1
   4  -7  -1 1092.21 63.9253   1
  -4  -7   1 1063.61 61.3576   4
   4   7  -1 1127.71 62.3001   1
  -4   7   1 1031.68 61.7545   2
  -3  -7   1 263.277 16.7748   2
   3  -7  -1 249.877 16.7929   2
  -3  -7   1 263.737 16.4695   3
   3  -7  -1 261.423 16.8420   3
   3  -7  -1 254.385 19.0391   1
  -3  -7   1 263.954 17.1897   1
  -3  -7   1 258.271 17.0317   4
  -3   7   1 266.221 17.5136   2
  -3   7   1 268.360 19.0589   1
   3   7  -1 274.686 17.3391   1
   2  -7  -1 98.3124 9.91523   1
  -2  -7   1 88.0795 8.34163   1
   2  -7  -1 89.7291 8.78538   3
  -2  -7   1 88.6559 7.84569   3
   2  -7  -1 89.7503 7.96565   2
  -2  -7   1 83.6323 8.00251   2
   2   7  -1 101.950 8.36359   2
   2   7  -1 100.251 8.44583   1
  -2   7   1 89.3199 8.65598   2
  -2   7   1 96.4306 9.80812   1
   1  -7  -1 2643.78 152.078   2
   1  -7  -1 2770.66 153.414   1
  -1  -7   1 2739.04 153.038   1
  -1  -7   1 2623.27 152.375   3
  -1  -7   1 2821.64 153.118   1
   1  -7  -1 2682.77 152.450   3
  -1  -7   1 2720.29 152.243   2
  -1   7   1 2610.83 152.123   2
   1   7  -1 2789.92 152.394   3
  -1   7   1 2776.20 153.417   1
   1   7  -1 2689.05 152.265   2
   0  -7   1 85.6875 12.7091   1
   0  -7  -1 126.305 9.47300   3
   0  -7   1 129.459 9.92878   1
   0  -7   1 127.445 9.31426   2
   0  -7  -1 133.216 8.72583   2
   0  -7   1 116.341 9.36420   3
   0  -7  -1 119.246 9.41821   1
   0   7   1 125.659 8.86653   2
   0   7  -1 125.774 9.74646   3
   0   7   1 124.181 9.47998   1
   0   7  -1 128.083 9.50455   2
  -1  -7  -1 10.9210 2.73289   1
  -1  -7  -1 7.70193 2.62616   1
  -1  -7  -1 10.5646 3.17742   2
   1  -7   1 11.0488 3.81158   2
   1  -7   1 7.66944 4.13692   3
  -1  -7  -1 6.40059 4.25344   3
   1  -7   1 6.31119 4.02533   1
  -1   7  -1 10.6743 4.14797   2
  -1   7  -1 10.8900 3.98362   3
   1   7   1 11.9318 3.43709   2
  -1   7  -1 5.15070 3.49088   1
   2  -7   1 302.219 19.8169   2
  -2  -7  -1 330.536 19.8337   3
  -2  -7  -1 329.655 18.8496   1
   2  -7   1 316.119 21.5052   1
  -2  -7  -1 330.647 18.9671   1
  -2  -7  -1 315.877 19.3501   2
   2  -7   1 312.372 19.7328   3
  -2   7  -1 327.980 21.3987   1
  -2   7  -1 335.216 19.7450   3
   2   7   1 318.464 19.4035   2
  -2   7  -1 314.949 19.8944   2
   3  -7   1 388.223 23.2653   2
  -3  -7  -1 346.948 23.7736   2
  -3  -7  -1 371.477 22.9000   3
   3  -7   1 419.173 25.6043   1
   3  -7   1 372.877 23.0265   3
  -3   7  -1 369.948 23.1768   3
  -3   7  -1 402.502 24.0361   2
  -4  -7  -1 198.715 14.2044   2
  -4  -7  -1 210.338 14.0473   4
   4  -7   1 191.357 17.6486   1
   4  -7   1 186.726 14.1592   3
  -4  -7  -1 223.308 13.6793   3
   4  -7   1 176.947 14.7323   2
  -4  -7  -1 201.970 13.5343   3
  -4   7  -1 207.593 15.9292   2
  -4   7  -1 193.537 16.7728   1
  -5  -7  -1 113.272 10.5555   4
   5  -7   1 116.810 13.2531   1
  -5  -7  -1 107.104 9.57054   2
   5  -7   1 109.405 10.2574   3
  -5  -7  -1 94.1461 8.93437   3
   5  -7   1 85.9579 9.89873   2
  -5  -7  -1 103.085 9.31010   3
  -5  -7  -1 100.616 7.43919   1
  -5   7  -1 102.069 13.8212   1
  -5   7  -1 96.9036 11.2522   2
  -6  -7  -1 430.852 24.9393   1
  -6  -7  -1 343.768 26.2331   2
   6  -7   1 396.268 27.2787   2
   6  -7   1 428.221 25.5859   3
  -6  -7  -1 425.177 24.5764   3
   6  -7   1 410.533 30.8403   1
  -6  -7  -1 414.431 24.8838   3
  -6  -7  -1 407.085 25.9837   4
  -6   7  -1 401.532 29.5198   1
  -6   7  -1 445.205 28.8537   2
   6   7   1 427.761 25.8941   1
  -7  -7  -1 87.7164 9.09233   3
  -7  -7  -1 108.264 11.9175   2
   7  -7   1 93.1186 15.2113   1
   7  -7   1 67.3717 13.6783   2
  -7  -7  -1 94.2784 8.25426   3
  -7  -7  -1 108.800 9.56700   1
  -7  -7  -1 94.7463 9.75693   4
   7  -7   1 103.704 11.0540   3
  -7   7  -1 106.935 14.4564   1
   7   7   1 94.3088 13.3698   1
  -7   7  -1 93.2373 13.9501   2
   8  -7   1 7.00534 6.26964   3
  -8  -7  -1 5.91753 10.1546   2
  -8  -7  -1 -5.5575 7.56946   4
  -8  -7  -1 5.09559 3.47165   3
  -8  -7  -1 -0.6453 5.36611   1
  -8   7  -1 -2.3295 13.2430   2
   8   7   1 -0.8007 9.45654   1
   9  -7   1 79.5481 8.98081   3
  -9  -7  -1 86.5116 14.0592   2
   9  -7   1 86.5955 10.9316   4
  -9   7  -1 75.7278 17.1266   2
 -10  -7  -1 31.7253 13.3691   2
 -10   7  -1 18.6518 17.1637   2
 -11  -7  -1 15.1314 14.8285   2
 -11   7  -1 -13.096 18.3785   2
 -11  -8   1 47.2459 16.7001   2
 -11   8   1 41.0006 20.6693   2
 -10  -8   1 30.6672 14.0005   2
 -10   8   1 20.5705 17.6039   2
  -9  -8   1 0.67805 12.0693   2
  -9  -8   1 -9.7850 11.8411   4
   9  -8  -1 4.35476 6.13769   3
  -9   8   1 -3.6302 15.2451   2
  -8  -8   1 149.608 9.99561   3
   8  -8  -1 178.121 13.4583   3
  -8  -8   1 135.232 13.5845   4
  -8  -8   1 148.573 15.3596   1
  -8   8   1 112.959 18.7166   1
  -8   8   1 116.001 17.6699   2
  -7  -8   1 2.93657 5.35765   1
  -7  -8   1 6.56350 3.96274   3
  -7  -8   1 12.7125 8.27802   4
   7  -8  -1 5.16822 5.84613   3
  -7  -8   1 8.39862 4.47295   3
   7  -8  -1 14.1324 13.2996   1
   7  -8  -1 -3.5025 8.47258   2
  -7   8   1 13.5280 14.8777   1
  -7   8   1 -6.8441 11.7335   2
  -6  -8   1 840.242 46.6005   3
   6  -8  -1 803.912 52.2038   1
   6  -8  -1 832.503 47.1826   3
  -6  -8   1 784.211 47.7709   4
   6  -8  -1 773.635 48.4307   2
  -6  -8   1 796.178 48.1024   2
  -6  -8   1 821.809 47.9521   1
   6   8  -1 845.090 49.5515   1
  -6   8   1 816.129 51.7316   1
  -6   8   1 795.959 49.5204   2
  -5  -8   1 38.0509 7.00332   2
  -5  -8   1 35.4196 5.12741   3
   5  -8  -1 21.9816 8.36633   1
  -5  -8   1 18.0579 6.41140   4
   5  -8  -1 29.4567 6.16061   3
  -5  -8   1 35.4782 5.60602   1
   5  -8  -1 23.2676 6.91124   2
   5   8  -1 33.9654 6.75656   1
  -5   8   1 24.2498 9.18429   2
  -5   8   1 41.3055 16.2577   1
   4  -8  -1 21.2822 5.88057   2
   4  -8  -1 17.4126 6.59269   1
   4  -8  -1 18.8180 5.44271   3
  -4  -8   1 25.7270 5.97519   2
  -4  -8   1 21.1517 4.77506   3
  -4  -8   1 26.3809 5.85103   4
  -4  -8   1 28.9056 5.15839   1
  -4   8   1 24.1945 7.60354   2
   4   8  -1 36.4606 5.59631   1
   3  -8  -1 1192.93 68.3665   3
   3  -8  -1 1129.44 68.1733   2
   3  -8  -1 1215.21 70.5494   1
  -3  -8   1 1220.27 68.4009   4
  -3  -8   1 1196.06 68.9785   1
  -3  -8   1 1163.22 68.1195   3
  -3  -8   1 1226.28 68.4099   2
   3   8  -1 1226.20 68.9270   1
  -3   8   1 1208.54 68.5764   2
  -3   8   1 1228.39 71.2928   1
   3   8  -1 1198.52 68.4194   2
   2  -8  -1 307.971 19.9234   3
   2  -8  -1 322.434 21.6169   1
  -2  -8   1 324.227 20.3924   1
  -2  -8   1 340.315 20.2018   1
  -2  -8   1 325.683 19.6935   2
  -2  -8   1 303.778 19.6592   3
   2  -8  -1 303.974 19.3961   2
   2   8  -1 333.776 20.1039   2
  -2   8   1 318.969 21.7125   1
  -2   8   1 318.308 19.9313   2
   1  -8  -1 4.97784 3.57729   1
  -1  -8   1 8.83331 3.85675   1
   1  -8  -1 0.36241 4.56298   3
  -1  -8   1 4.78865 3.72984   1
   1  -8  -1 1.08125 3.49650   2
  -1  -8   1 0.22144 4.37636   3
  -1  -8   1 8.05201 6.21627   2
  -1   8   1 8.48255 4.10710   1
  -1   8   1 11.3864 4.23674   2
   1   8  -1 4.76892 4.44880   2
   0  -8   1 60.0626 7.86834   1
   0  -8   1 45.4657 8.69756   2
   0  -8  -1 62.4705 5.47866   2
   0  -8  -1 62.0972 7.08368   1
   0  -8   1 54.4773 6.22706   3
   0  -8   1 60.7737 7.91241   1
   0  -8  -1 52.4780 6.30609   3
   0   8   1 64.6049 7.41127   1
   0   8  -1 59.2548 6.12389   2
   0   8   1 63.9270 5.75675   2
   0   8  -1 56.6455 6.88320   3
  -1  -8  -1 488.310 28.8349   1
   1  -8   1 501.365 30.3307   1
  -1  -8  -1 498.705 29.1748   3
  -1  -8  -1 496.498 28.8426   1
   1  -8   1 459.231 28.9954   3
  -1  -8  -1 485.524 28.5524   2
   1   8   1 477.550 28.6835   2
  -1   8  -1 512.681 29.2076   3
  -1   8  -1 487.653 29.0272   2
   2  -8   1 218.599 15.5963   3
  -2  -8  -1 230.913 14.1113   1
  -2  -8  -1 232.624 14.0164   1
   2  -8   1 212.507 17.0629   1
   2  -8   1 229.939 15.2942   2
  -2  -8  -1 219.453 15.3511   3
  -2   8  -1 218.677 15.7613   2
   2   8   1 228.561 14.9863   2
  -2   8  -1 242.514 15.5086   3
  -2   8  -1 227.766 17.0300   1
   3  -8   1 -3.1603 5.00165   1
   3  -8   1 5.11396 5.31774   2
  -3  -8  -1 6.20628 4.52512   3
   3  -8   1 3.13588 5.30954   3
  -3  -8  -1 12.5991 4.86965   2
  -3   8  -1 2.31427 6.41873   2
  -3   8  -1 11.1020 4.72856   3
  -3   8  -1 6.11085 5.78775   1
  -4  -8  -1 13.4265 5.47553   2
   4  -8   1 6.59418 5.46646   3
   4  -8   1 6.60529 7.64058   1
   4  -8   1 -6.7301 6.13874   2
  -4  -8  -1 4.53856 5.04735   4
  -4  -8  -1 0.23758 4.67860   3
  -4   8  -1 6.08056 7.14374   1
  -4   8  -1 -1.1921 7.15425   2
  -5  -8  -1 125.752 13.4525   2
   5  -8   1 148.725 12.5545   3
   5  -8   1 138.734 14.7691   2
  -5  -8  -1 147.677 11.3843   3
  -5  -8  -1 151.610 12.7834   3
   5  -8   1 135.691 17.3061   1
  -5  -8  -1 126.231 12.3558   4
  -5   8  -1 152.907 16.9534   1
  -5   8  -1 151.870 15.9716   2
  -6  -8  -1 11.0611 6.22692   4
  -6  -8  -1 10.3137 4.61499   3
   6  -8   1 12.5471 8.50337   2
  -6  -8  -1 12.7350 5.05086   3
   6  -8   1 5.79893 6.07839   3
   6  -8   1 -5.0630 8.93803   1
  -6  -8  -1 12.5347 7.31079   2
  -6   8  -1 19.9393 10.8380   2
  -6   8  -1 11.1098 9.15224   1
   7  -8   1 96.8964 15.5565   1
  -7  -8  -1 72.4821 7.07394   3
  -7  -8  -1 59.6398 6.31443   3
   7  -8   1 61.5631 8.16737   3
  -7  -8  -1 70.8593 9.23190   4
  -7   8  -1 51.7413 13.3327   2
  -7   8  -1 100.370 14.9247   1
  -8  -8  -1 102.088 9.67905   3
  -8  -8  -1 108.142 8.95297   3
   8  -8   1 120.564 12.9582   3
  -8  -8  -1 114.669 11.9899   4
  -8  -8  -1 118.196 10.4751   1
  -8   8  -1 98.5391 19.1660   2
   8   8   1 115.425 14.0204   1
  -9  -8  -1 44.8495 10.0337   4
   9  -8   1 24.3390 7.62757   3
   9  -8   1 12.2773 13.9052   4
  -9  -8  -1 32.8571 12.8766   2
  -9   8  -1 20.4847 15.8571   2
 -10  -8  -1 11.7265 13.1596   2
 -10   8  -1 14.7572 17.0343   2
 -11  -8  -1 -12.933 14.4465   2
 -11   8  -1 -14.149 18.3770   2
 -11  -9   1 42.8505 17.1844   2
 -11   9   1 44.4659 21.4835   2
 -10  -9   1 191.465 19.7267   2
 -10   9   1 162.073 22.4139   2
   9  -9  -1 -2.1011 6.75950   3
  -9  -9   1 5.34750 12.5514   2
  -9  -9   1 25.6168 10.2397   4
  -9   9   1 -23.368 15.6766   2
  -8  -9   1 240.233 16.0659   3
  -8  -9   1 253.287 15.6221   3
   8  -9  -1 275.755 18.4243   3
  -8  -9   1 198.946 20.5921   4
  -8   9   1 235.408 22.8977   2
  -7  -9   1 107.864 12.0813   4
   7  -9  -1 92.1134 16.2836   1
   7  -9  -1 129.172 12.3872   3
  -7  -9   1 120.497 11.1200   3
  -7  -9   1 111.805 12.6463   1
  -7  -9   1 117.243 10.1922   3
   7   9  -1 120.405 15.2663   1
  -7   9   1 127.512 17.0964   1
  -7   9   1 116.337 16.4182   2
  -6  -9   1 19.0089 7.87553   4
  -6  -9   1 7.16917 8.00393   2
   6  -9  -1 24.6829 8.22035   2
   6  -9  -1 26.6389 9.04960   1
   6  -9  -1 14.0601 6.62285   3
  -6  -9   1 24.1339 5.23789   3
  -6  -9   1 25.4462 5.75672   1
  -6   9   1 30.4608 15.5997   1
  -6   9   1 21.1792 11.2439   2
   5  -9  -1 98.0145 9.76101   2
  -5  -9   1 82.9720 9.25757   4
   5  -9  -1 66.6582 11.7820   1
   5  -9  -1 82.7661 8.71155   3
  -5  -9   1 99.3027 10.1907   1
  -5  -9   1 101.749 9.82765   2
  -5  -9   1 89.4279 9.65192   3
   5   9  -1 101.613 11.1805   1
  -5   9   1 87.6138 11.5531   2
  -5   9   1 82.5875 11.7942   1
   4  -9  -1 -0.7913 5.91145   2
   4  -9  -1 4.31321 10.6339   1
  -4  -9   1 5.47059 5.86961   2
  -4  -9   1 1.87091 4.80182   3
  -4  -9   1 2.82214 5.90865   4
   4  -9  -1 5.62584 5.88637   3
  -4  -9   1 1.35101 4.16985   1
   4   9  -1 0.67321 4.58230   1
  -4   9   1 -3.6025 6.92290   1
  -4   9   1 -2.0318 7.68643   2
  -3  -9   1 26.9696 5.58363   3
   3  -9  -1 27.0764 6.05896   3
  -3  -9   1 33.7884 5.50678   1
   3  -9  -1 24.2977 5.54627   2
  -3  -9   1 26.1383 5.84230   2
   3   9  -1 26.3336 6.01150   2
  -3   9   1 25.6106 6.71998   1
  -3   9   1 20.0937 6.95168   2
  -2  -9   1 123.139 10.4157   1
   2  -9  -1 110.840 12.3486   1
   2  -9  -1 116.133 10.0470   2
  -2  -9   1 122.405 10.1394   1
  -2  -9   1 106.903 10.7672   3
   2  -9  -1 115.078 10.7338   3
  -2  -9   1 126.168 10.2504   2
  -2   9   1 131.573 10.2331   2
   2   9  -1 113.701 10.5507   2
  -2   9   1 120.165 12.1739   1
  -1  -9   1 1120.61 65.8512   3
  -1  -9   1 1189.14 65.6355   2
   1  -9  -1 1157.48 66.0809   3
   1  -9  -1 1087.28 67.1200   1
  -1  -9   1 1153.74 66.6377   1
   1   9  -1 1162.53 65.6880   2
  -1   9   1 1206.15 67.1682   1
  -1   9   1 1157.34 65.5658   2
   0  -9   1 500.468 29.0311   2
   0  -9  -1 463.481 29.3196   2
   0  -9   1 491.633 29.6588   3
   0  -9   1 486.645 30.2388   1
   0  -9  -1 462.944 30.7342   1
   0  -9  -1 495.630 29.7192   3
   0  -9   1 502.864 30.3463   1
   0   9   1 504.934 29.0359   2
   0   9  -1 512.193 29.3856   2
   0   9   1 496.163 29.9058   1
  -1  -9  -1 335.331 20.8996   1
   1  -9   1 350.781 20.9572   2
   1  -9   1 369.489 23.0322   1
   1  -9   1 334.921 21.3187   3
  -1  -9  -1 318.976 21.3523   2
  -1  -9  -1 322.918 21.2476   3
  -1   9  -1 336.346 21.0417   2
  -1   9  -1 337.313 21.2087   3
   1   9   1 344.526 20.9443   2
   2  -9   1 616.195 38.8810   1
  -2  -9  -1 620.696 36.7948   3
  -2  -9  -1 638.141 36.5140   2
   2  -9   1 601.358 36.6538   2
  -2  -9  -1 650.417 36.3713   1
   2  -9   1 639.016 37.1552   3
  -2  -9  -1 593.969 36.4466   1
  -2   9  -1 649.844 38.8416   1
  -2   9  -1 647.639 36.8882   3
  -2   9  -1 619.329 36.8730   2
   2   9   1 619.085 36.4788   2
   3  -9   1 464.940 28.9339   2
  -3  -9  -1 473.123 28.8680   3
  -3  -9  -1 500.842 28.8747   2
   3  -9   1 480.089 29.2595   3
   3  -9   1 462.712 31.6268   1
  -3   9  -1 483.968 31.3417   1
  -3   9  -1 472.635 29.4242   2
  -4  -9  -1 359.362 22.1548   3
   4  -9   1 340.588 23.3567   2
   4  -9   1 366.836 22.7570   3
   4  -9   1 334.205 26.2919   1
  -4  -9  -1 337.851 22.3552   2
  -4   9  -1 353.554 25.9763   1
  -4   9  -1 356.076 24.4874   2
   5  -9   1 336.191 22.6145   3
   5  -9   1 304.373 23.8343   2
  -5  -9  -1 340.162 21.8420   3
   5  -9   1 364.583 27.5626   1
  -5  -9  -1 306.002 22.6234   2
  -5  -9  -1 380.039 22.1440   3
  -5  -9  -1 357.648 22.3649   4
  -5   9  -1 351.851 26.7851   1
  -5   9  -1 361.011 25.9162   2
  -6  -9  -1 81.1363 10.3972   2
   6  -9   1 87.3394 11.5493   2
   6  -9   1 73.3735 8.98781   3
   6  -9   1 62.6209 13.7215   1
  -6  -9  -1 83.0381 9.77800   3
  -6  -9  -1 98.3312 9.61887   4
  -6  -9  -1 105.332 10.4685   3
  -6   9  -1 99.2884 13.7221   2
  -6   9  -1 83.3698 13.1019   1
  -7  -9  -1 593.765 36.3227   4
  -7  -9  -1 572.905 35.9347   3
   7  -9   1 573.760 35.9684   3
  -7  -9  -1 614.202 34.7197   3
  -7   9  -1 580.192 42.0990   1
  -7   9  -1 610.201 39.9924   2
  -8  -9  -1 242.475 15.1256   3
  -8  -9  -1 215.843 19.4029   4
   8  -9   1 224.649 18.1641   3
  -8  -9  -1 222.078 15.9084   3
  -8  -9  -1 231.277 23.3352   2
  -8   9  -1 215.582 22.0793   2
  -9  -9  -1 7.62800 12.4689   2
   9  -9   1 14.8580 7.83648   3
  -9   9  -1 3.10360 15.9745   2
 -10  -9  -1 29.6010 13.9005   2
 -10   9  -1 19.1894 17.8231   2
 -11  -9  -1 111.878 18.1819   2
 -11   9  -1 111.400 22.1903   2
 -11 -10   1 15.5472 16.6538   2
 -11  10   1 -1.3886 21.7433   2
 -10 -10   1 19.8141 14.4433   2
 -10  10   1 -11.730 19.3998   2
  -9 -10   1 90.0410 15.2295   2
  -9 -10   1 75.8016 12.0980   4
   9 -10  -1 86.1110 9.74871   3
  -9  10   1 68.8403 19.2269   2
   8 -10  -1 7.35540 7.44575   3
  -8 -10   1 21.9807 10.4195   4
  -8 -10   1 7.24124 4.74168   3
  -8 -10   1 3.46592 5.87966   3
  -8  10   1 12.7227 17.3409   2
  -7 -10   1 104.982 10.2438   3
  -7 -10   1 97.3194 11.2346   1
  -7 -10   1 116.248 11.4410   3
  -7 -10   1 84.0511 11.2668   4
   7 -10  -1 103.328 9.97309   3
  -7  10   1 68.3567 12.7383   1
  -7  10   1 76.5544 15.3219   2
   7  10  -1 79.6299 10.5457   1
  -6 -10   1 1.46025 5.37813   3
  -6 -10   1 -7.1106 6.44295   1
  -6 -10   1 9.01918 8.11226   4
   6 -10  -1 -15.797 10.3829   1
   6 -10  -1 1.95445 6.96064   3
   6 -10  -1 19.5530 8.61567   2
  -6  10   1 0.79480 11.7800   2
  -6  10   1 -11.029 10.6149   1
   6  10  -1 -4.9782 6.02004   1
   5 -10  -1 45.6010 11.9259   1
  -5 -10   1 39.0124 6.50188   3
   5 -10  -1 38.4928 8.61074   2
  -5 -10   1 39.1544 8.33290   2
  -5 -10   1 47.9776 8.01253   4
   5 -10  -1 38.4629 7.41836   3
  -5 -10   1 50.4938 6.97027   1
  -5  10   1 51.7953 11.1603   1
  -5  10   1 24.2254 10.3162   2
   5  10  -1 51.6818 7.95319   1
  -4 -10   1 275.308 19.6971   2
  -4 -10   1 286.550 18.9483   4
   4 -10  -1 270.577 19.3478   3
  -4 -10   1 299.413 18.9332   1
   4 -10  -1 270.847 23.1552   1
  -4 -10   1 270.235 18.5975   3
   4 -10  -1 255.250 19.2624   2
  -4  10   1 287.139 22.7065   1
  -4  10   1 250.833 20.1245   2
  -3 -10   1 25.5582 5.16463   1
  -3 -10   1 32.6182 6.42543   2
  -3 -10   1 28.4332 5.76251   1
   3 -10  -1 20.3026 7.92417   1
  -3 -10   1 23.7058 6.32135   3
   3 -10  -1 23.8058 5.94097   2
   3 -10  -1 26.8577 6.67487   3
   3  10  -1 25.5654 6.66880   2
  -3  10   1 22.3987 8.22983   1
  -3  10   1 20.6473 6.96962   2
  -2 -10   1 -0.3256 5.23158   2
   2 -10  -1 -3.0724 5.12660   1
  -2 -10   1 0.63434 5.57059   3
  -2 -10   1 3.17925 4.42679   1
   2 -10  -1 6.59151 6.06382   3
   2 -10  -1 -1.4173 4.81426   2
  -2 -10   1 -7.4278 3.70776   1
   2  10  -1 -7.6491 5.55964   2
  -2  10   1 0.69105 5.34957   1
  -2  10   1 1.21682 5.58109   2
   1 -10  -1 135.713 12.5503   1
  -1 -10   1 141.610 11.2025   2
   1 -10  -1 138.146 11.0936   2
  -1 -10   1 123.750 11.7269   1
  -1 -10   1 134.671 12.5898   3
   1 -10  -1 142.512 12.2255   3
  -1 -10   1 143.409 11.8540   1
   1  10  -1 142.026 12.1122   2
  -1  10   1 136.343 12.7021   1
  -1  10   1 135.058 10.9817   2
   0 -10   1 854.212 50.8910   3
   0 -10  -1 888.052 50.3586   2
   0 -10   1 893.217 51.9571   1
   0 -10   1 902.240 52.0053   1
   0 -10  -1 867.101 50.9257   3
   0 -10   1 866.207 50.4612   2
   0 -10  -1 886.188 51.5438   1
   0  10  -1 885.786 50.7261   2
   0  10   1 859.404 50.4059   2
   1 -10   1 0.36795 6.03113   3
  -1 -10  -1 0.49323 4.44534   2
   1 -10   1 1.87002 4.94900   1
  -1 -10  -1 6.55204 6.02016   3
   1 -10   1 3.90660 5.25789   2
  -1 -10  -1 3.41389 3.66362   1
   1 -10   1 6.52959 5.67967   1
  -1 -10  -1 5.66730 3.82770   1
   1  10   1 7.02059 5.21110   2
  -1  10  -1 4.20209 5.70960   2
   2 -10   1 643.243 39.0159   3
  -2 -10  -1 670.521 38.4606   1
   2 -10   1 626.105 38.6847   2
  -2 -10  -1 665.698 38.3938   1
  -2 -10  -1 667.139 39.1667   3
  -2 -10  -1 695.785 38.6471   2
   2 -10   1 657.473 41.3262   1
  -2  10  -1 661.544 40.8132   1
  -2  10  -1 641.823 38.9384   2
   2  10   1 660.353 38.7200   2
  -3 -10  -1 455.839 27.6325   3
   3 -10   1 456.604 28.3679   3
  -3 -10  -1 472.994 26.4388   1
  -3 -10  -1 451.501 27.5028   2
   3 -10   1 431.485 28.2382   2
  -3 -10  -1 467.815 26.2699   1
   3 -10   1 461.900 31.1526   1
  -3  10  -1 430.216 28.8671   2
  -3  10  -1 410.436 30.2997   1
  -4 -10  -1 223.511 16.1482   3
   4 -10   1 206.067 17.4555   2
  -4 -10  -1 216.037 16.8631   2
   4 -10   1 230.716 21.3889   1
   4 -10   1 224.733 17.1852   3
  -4  10  -1 219.045 18.4203   2
  -5 -10  -1 504.721 30.6567   4
   5 -10   1 471.379 31.7989   2
  -5 -10  -1 480.032 30.0682   3
  -5 -10  -1 472.179 30.7714   2
  -5 -10  -1 538.950 30.4064   3
   5 -10   1 496.964 30.7444   3
   5 -10   1 466.927 35.3874   1
  -5  10  -1 525.307 34.9176   1
  -5  10  -1 466.684 32.7357   2
  -6 -10  -1 236.442 16.9833   3
  -6 -10  -1 233.939 18.6207   4
   6 -10   1 216.927 18.2138   3
  -6 -10  -1 256.857 17.5761   3
   6 -10   1 243.425 26.7389   1
  -6  10  -1 251.482 24.2066   1
  -6  10  -1 236.115 23.0988   2
   7 -10   1 -13.675 11.9648   1
  -7 -10  -1 2.23615 5.38396   3
  -7 -10  -1 -1.2449 7.96847   4
  -7 -10  -1 1.00338 6.09186   3
   7 -10   1 -0.3148 7.64630   3
  -7  10  -1 16.2078 11.2159   1
  -7  10  -1 1.42364 13.8685   2
  -8 -10  -1 -2.8072 4.85431   3
   8 -10   1 0.32859 7.88159   3
  -8 -10  -1 2.27102 6.25719   3
  -8 -10  -1 4.31114 11.7116   2
  -8 -10  -1 0.60937 8.75772   4
  -8  10  -1 -2.1971 15.3548   2
  -9 -10  -1 122.226 13.7627   4
  -9 -10  -1 160.218 17.3795   2
   9 -10   1 132.822 15.9314   3
  -9  10  -1 106.752 19.7120   2
 -10 -10  -1 0.77503 14.2334   2
 -10 -10  -1 20.2593 10.8359   4
 -10  10  -1 -2.4748 18.0256   2
 -10 -11   1 16.5556 14.9278   2
 -10 -11   1 40.2198 12.6167   4
 -10  11   1 2.51268 20.3215   2
  -9 -11   1 102.602 13.9104   4
   9 -11  -1 143.934 15.9263   3
  -9 -11   1 161.683 17.4401   2
  -9  11   1 111.848 20.6765   2
  -8 -11   1 40.3642 11.0435   4
   8 -11  -1 44.5634 9.24362   3
  -8 -11   1 52.0838 6.62396   3
  -8  11   1 11.4655 17.3197   2
  -7 -11   1 466.347 29.1106   1
   7 -11  -1 390.652 38.1540   1
  -7 -11   1 519.046 29.5813   3
   7 -11  -1 467.642 30.2194   3
  -7 -11   1 475.792 28.7093   3
  -7  11   1 448.717 37.2718   1
  -7  11   1 465.685 36.4472   2
  -6 -11   1 338.718 21.8501   1
   6 -11  -1 342.891 23.1000   3
  -6 -11   1 324.853 21.7604   3
   6 -11  -1 340.304 30.4483   1
  -6 -11   1 308.807 23.7966   4
  -6  11   1 339.571 28.1687   2
  -6  11   1 322.475 28.8970   1
  -5 -11   1 129.307 12.1613   3
   5 -11  -1 113.809 13.8741   3
   5 -11  -1 100.125 11.7119   2
   5 -11  -1 104.249 14.7691   1
  -5 -11   1 126.564 13.3300   4
  -5  11   1 141.144 16.6435   1
  -5  11   1 123.593 14.1300   2
   4 -11  -1 -5.0097 7.56208   1
   4 -11  -1 -9.3586 6.79729   3
  -4 -11   1 6.01328 5.28130   1
  -4 -11   1 0.95770 4.46097   1
  -4 -11   1 2.40148 6.31611   3
  -4 -11   1 3.25506 7.20313   4
  -4 -11   1 -3.6718 7.03857   2
   4 -11  -1 -1.4828 6.63149   2
  -4  11   1 12.3534 9.21292   1
  -4  11   1 8.63555 9.03297   2
  -3 -11   1 60.5188 8.45986   1
  -3 -11   1 48.0682 7.75571   2
   3 -11  -1 55.5769 9.05034   1
  -3 -11   1 48.8246 7.47859   3
   3 -11  -1 48.8550 7.65070   2
   3 -11  -1 50.2663 8.17245   3
  -3 -11   1 62.9740 7.54454   1
  -3  11   1 51.5280 8.84785   2
  -3  11   1 56.9276 9.66793   1
   3  11  -1 50.2588 8.07515   2
  -2 -11   1 1531.47 88.9958   3
  -2 -11   1 1592.91 89.6081   1
  -2 -11   1 1580.32 88.7264   2
  -2 -11   1 1566.50 89.6961   1
   2 -11  -1 1589.61 90.9803   1
   2 -11  -1 1539.03 88.5369   2
   2 -11  -1 1580.55 89.1016   3
   2  11  -1 1561.63 88.7927   2
  -2  11   1 1567.63 90.9162   1
  -2  11   1 1501.83 88.6740   2
  -1 -11   1 187.526 14.4034   1
   1 -11  -1 162.605 13.4803   2
   1 -11  -1 170.342 14.6538   3
  -1 -11   1 177.630 14.3884   3
  -1 -11   1 201.761 14.1447   2
   1 -11  -1 176.243 15.1578   1
  -1 -11   1 176.962 14.1962   1
  -1  11   1 184.549 15.4160   1
   1  11  -1 181.833 14.0702   2
  -1  11   1 157.484 14.0491   2
   0 -11  -1 6.10753 5.28631   2
   0 -11   1 14.5570 5.94010   1
   0 -11   1 3.25777 6.52679   3
   0 -11  -1 0.00146 6.46534   3
   0 -11   1 0.75186 5.08023   1
   0 -11  -1 -4.6164 4.28412   1
   0 -11   1 3.93717 5.54650   2
   0  11   1 7.59048 5.58768   2
   0  11  -1 9.15334 6.20651   2
   1 -11   1 1209.54 68.5879   1
  -1 -11  -1 1164.92 67.0209   1
  -1 -11  -1 1152.43 66.9872   3
  -1 -11  -1 1173.31 66.9362   1
  -1 -11  -1 1203.01 66.3021   2
   1 -11   1 1123.79 66.8697   3
   1 -11   1 1133.32 66.5211   2
   1 -11   1 1186.39 68.6869   1
   1  11   1 1139.73 66.2698   2
  -1  11  -1 1126.66 66.6715   2
  -2 -11  -1 237.681 17.2310   3
  -2 -11  -1 251.058 15.8107   1
  -2 -11  -1 236.609 16.7460   2
  -2 -11  -1 241.465 15.9545   1
   2 -11   1 215.238 17.3990   3
   2 -11   1 233.090 16.8838   2
   2 -11   1 224.647 19.9063   1
  -2  11  -1 236.104 17.3809   2
   2  11   1 244.562 17.1315   2
   3 -11   1 101.741 10.1038   3
  -3 -11  -1 88.2794 7.42605   1
   3 -11   1 83.5738 9.30886   2
  -3 -11  -1 98.7903 9.08941   2
   3 -11   1 73.6455 10.4331   1
  -3 -11  -1 85.7510 9.31177   1
  -3 -11  -1 95.3757 9.62789   3
  -3  11  -1 93.7309 10.6597   2
  -3  11  -1 78.5833 10.9894   1
   4 -11   1 192.880 20.7078   1
   4 -11   1 170.512 15.8546   2
  -4 -11  -1 177.404 15.2086   2
   4 -11   1 190.808 16.4561   3
  -4 -11  -1 198.604 15.4454   3
  -4  11  -1 149.869 19.1397   1
  -4  11  -1 201.229 17.7557   2
   5 -11   1 544.169 33.9860   3
   5 -11   1 562.691 39.6667   1
  -5 -11  -1 601.900 33.8697   3
  -5 -11  -1 544.397 34.0509   4
  -5 -11  -1 493.523 34.0626   2
   5 -11   1 475.221 35.0433   2
  -5 -11  -1 543.406 33.4543   3
  -5  11  -1 579.197 37.2535   2
  -5  11  -1 599.094 38.6555   1
  -6 -11  -1 61.4590 9.88399   4
   6 -11   1 77.4854 15.7788   1
  -6 -11  -1 88.5369 9.45753   3
   6 -11   1 80.5697 10.2765   3
  -6 -11  -1 89.3839 8.92450   3
  -6  11  -1 84.6305 15.0828   1
  -6  11  -1 107.074 15.4344   2
   7 -11   1 41.1024 9.20373   3
  -7 -11  -1 40.5217 6.93321   3
  -7 -11  -1 57.9377 9.53633   4
  -7 -11  -1 52.0443 8.08527   3
  -7  11  -1 22.9967 12.2513   1
  -7  11  -1 21.4374 17.1881   2
  -8 -11  -1 382.934 23.9524   3
  -8 -11  -1 350.180 26.8137   4
   8 -11   1 387.633 26.6194   3
  -8  11  -1 397.988 33.4638   2
   9 -11   1 77.3942 10.8649   3
  -9 -11  -1 42.3400 11.6246   4
  -9 -11  -1 62.0989 14.8571   2
  -9  11  -1 47.3329 19.1391   2
 -10 -11  -1 -0.3660 15.0483   2
 -10 -11  -1 12.1854 11.3145   4
 -10  11  -1 -11.257 19.1075   2
 -10 -12   1 -4.8210 11.9915   4
 -10 -12   1 0.34183 16.1090   2
 -10  12   1 5.78291 20.6887   2
   9 -12  -1 0.62746 9.39909   3
  -9 -12   1 -0.4594 11.1161   4
  -9  12   1 4.88715 18.1478   2
   8 -12  -1 37.2564 9.47727   3
  -8 -12   1 31.7046 6.69958   3
  -8 -12   1 22.0960 10.5951   4
  -8  12   1 16.4183 17.2273   2
  -7 -12   1 79.1421 11.9203   4
  -7 -12   1 76.4531 9.56477   3
  -7 -12   1 81.1660 8.78258   3
  -7 -12   1 73.9973 9.90623   1
   7 -12  -1 66.3355 10.3223   3
  -7  12   1 59.3160 16.7493   1
  -6 -12   1 164.379 13.9599   3
   6 -12  -1 151.060 16.1327   3
  -6 -12   1 139.416 12.6332   1
  -6 -12   1 133.411 15.3393   4
  -6  12   1 108.244 16.7233   2
  -6  12   1 145.742 18.9929   1
   5 -12  -1 1.71983 8.99298   1
   5 -12  -1 11.9051 8.03844   3
  -5 -12   1 -2.4643 6.78539   3
  -5 -12   1 -0.3194 5.05641   1
  -5 -12   1 1.05743 8.37717   4
   5 -12  -1 1.59593 8.28468   2
  -5 -12   1 1.76221 5.63995   1
  -5  12   1 0.60633 10.4088   1
  -5  12   1 6.80488 10.9923   2
   4 -12  -1 155.865 15.8413   2
  -4 -12   1 193.171 15.4761   4
  -4 -12   1 190.485 15.1562   1
  -4 -12   1 165.267 15.1277   3
  -4 -12   1 160.664 13.7060   1
   4 -12  -1 189.569 20.7151   1
   4 -12  -1 166.537 16.4618   3
  -4 -12   1 166.702 15.2782   2
  -4  12   1 160.804 16.8994   2
  -4  12   1 193.217 20.4953   1
   3 -12  -1 428.762 27.3352   3
   3 -12  -1 386.590 26.3810   2
  -3 -12   1 422.701 27.0596   1
   3 -12  -1 425.615 30.1476   1
  -3 -12   1 449.610 26.4585   1
  -3 -12   1 417.528 26.9083   3
  -3 -12   1 391.471 26.5159   2
   3  12  -1 402.931 26.7071   2
  -3  12   1 398.337 27.2422   2
  -3  12   1 396.258 29.8746   1
  -2 -12   1 81.5478 10.7746   1
  -2 -12   1 82.1007 10.2289   1
   2 -12  -1 81.2036 11.4307   1
   2 -12  -1 64.1202 8.11218   2
  -2 -12   1 84.0266 9.02367   2
   2 -12  -1 86.0612 9.90718   3
  -2 -12   1 70.9130 9.11958   3
   2  12  -1 90.1596 9.44986   2
  -2  12   1 68.1762 10.1295   1
  -2  12   1 65.6190 8.76746   2
  -1 -12   1 37.9829 8.13749   3
  -1 -12   1 34.6565 6.99741   1
   1 -12  -1 31.5823 8.11924   3
  -1 -12   1 17.0242 6.61132   2
  -1 -12   1 26.4701 6.44854   1
   1 -12  -1 26.5901 6.40372   2
   1 -12  -1 44.7147 7.70580   1
  -1  12   1 39.3398 8.08392   1
   1  12  -1 31.8599 7.70516   2
  -1  12   1 35.9894 6.90278   2
   0 -12   1 44.7891 7.55713   1
   0 -12   1 64.8962 7.87489   2
   0 -12   1 67.9286 8.93416   3
   0 -12  -1 71.7891 7.56768   2
   0 -12  -1 62.5825 8.06892   1
   0 -12  -1 67.6022 9.32122   3
   0 -12   1 61.3426 8.46509   1
   0 -12  -1 58.0440 8.06896   1
   0  12   1 59.6258 7.60627   2
   0  12  -1 69.7658 8.50532   2
   1 -12   1 1.21632 6.34235   2
  -1 -12  -1 2.88238 4.74583   1
  -1 -12  -1 4.86912 4.78902   1
   1 -12   1 -3.0480 7.44954   1
  -1 -12  -1 -1.5135 5.65778   2
   1 -12   1 -1.6549 7.64160   3
   1 -12   1 5.20977 7.01170   1
  -1 -12  -1 2.84881 7.27942   3
   1  12   1 1.63566 6.34634   2
  -1  12  -1 -0.0218 6.87266   2
  -2 -12  -1 109.557 12.3300   2
   2 -12   1 103.713 10.6520   2
   2 -12   1 120.310 14.3859   3
  -2 -12  -1 121.166 10.5456   1
  -2 -12  -1 130.273 13.1007   3
  -2 -12  -1 114.024 10.6984   1
   2 -12   1 125.373 13.9856   1
  -2  12  -1 135.749 11.9318   2
   2  12   1 130.504 13.0108   2
  -3 -12  -1 64.9871 7.45890   1
   3 -12   1 46.4630 9.13507   3
   3 -12   1 47.1010 8.74198   2
  -3 -12  -1 67.1293 9.05079   3
   3 -12   1 51.0333 11.2001   1
  -3 -12  -1 49.8096 6.63809   1
  -3 -12  -1 82.8967 8.77401   2
  -3  12  -1 76.2384 11.4001   1
  -3  12  -1 58.8973 10.1790   2
   4 -12   1 221.078 22.8855   1
  -4 -12  -1 217.965 17.3488   3
   4 -12   1 186.441 18.7652   2
   4 -12   1 217.464 18.3027   3
  -4 -12  -1 236.617 17.3160   2
  -4  12  -1 232.193 21.0401   2
  -4  12  -1 184.430 21.1840   1
   5 -12   1 251.186 19.5191   3
  -5 -12  -1 256.483 19.2039   3
  -5 -12  -1 270.546 19.4929   3
  -5 -12  -1 265.482 20.1149   4
  -5  12  -1 239.596 22.8628   2
  -5  12  -1 235.422 24.9029   1
  -6 -12  -1 22.0420 7.48392   3
  -6 -12  -1 19.5075 9.06453   4
   6 -12   1 27.0535 9.70942   3
  -6 -12  -1 25.0497 7.84674   3
   6 -12   1 13.6788 13.9898   1
  -6  12  -1 21.1366 14.2264   2
  -6  12  -1 -1.1406 13.2364   1
  -7 -12  -1 12.1070 7.76702   3
   7 -12   1 12.9043 9.53882   3
  -7 -12  -1 7.60511 10.1871   4
  -7 -12  -1 9.82030 6.76948   3
  -7  12  -1 -1.4080 15.2551   2
   8 -12   1 15.2260 9.76567   3
  -8 -12  -1 10.0401 9.65603   4
  -8 -12  -1 14.6967 6.59698   3
  -8  12  -1 -3.8442 16.9609   2
  -9 -12  -1 307.697 29.2742   2
   9 -12   1 349.872 25.9503   3
  -9 -12  -1 339.532 26.6075   4
  -9  12  -1 338.769 36.4705   2
 -10 -12  -1 -0.3966 11.3999   4
 -10 -12  -1 -1.9039 14.5781   2
 -10  12  -1 -20.646 20.1090   2
  -9 -13   1 36.7501 12.8846   4
  -9  13   1 0.34684 19.5094   2
  -8 -13   1 13.0258 11.2896   4
   8 -13  -1 2.51197 9.82049   3
  -8 -13   1 4.06511 6.70669   3
  -8  13   1 19.8160 17.6893   2
  -7 -13   1 27.6881 10.3473   4
  -7 -13   1 31.8469 7.96293   3
   7 -13  -1 28.3310 10.2958   3
  -7  13   1 24.1800 16.9402   2
   6 -13  -1 12.8150 9.48088   3
  -6 -13   1 -3.7725 9.51415   4
  -6 -13   1 5.42176 7.61768   3
   6 -13  -1 20.6832 16.4021   1
  -6 -13   1 -3.8028 5.07265   1
  -6  13   1 -5.2773 13.6360   2
   5 -13  -1 -5.7540 12.4302   1
  -5 -13   1 5.29901 9.08712   4
   5 -13  -1 6.63545 9.30706   3
  -5 -13   1 14.9665 6.17360   1
  -5 -13   1 18.3467 7.51449   3
  -5  13   1 8.63038 12.4466   2
  -5  13   1 11.8816 12.0659   1
  -4 -13   1 177.046 16.4162   4
  -4 -13   1 215.774 19.6292   1
   4 -13  -1 204.647 18.2407   3
   4 -13  -1 136.303 15.9337   2
  -4 -13   1 170.032 14.7718   1
   4 -13  -1 180.318 22.1357   1
  -4 -13   1 167.855 16.5290   3
  -4  13   1 196.039 19.1769   2
  -4  13   1 177.788 22.0998   1
   3 -13  -1 191.469 20.5722   1
  -3 -13   1 182.101 16.9649   3
  -3 -13   1 187.190 15.3884   1
   3 -13  -1 201.129 18.2423   3
  -3 -13   1 178.413 16.5406   1
   3 -13  -1 201.535 16.3720   2
  -3  13   1 178.396 20.5611   1
   3  13  -1 204.180 16.9270   2
  -3  13   1 203.633 17.7416   2
  -2 -13   1 9.23684 6.56438   1
  -2 -13   1 8.84163 7.41633   2
  -2 -13   1 2.05310 5.62234   1
   2 -13  -1 -2.6804 8.22308   1
  -2 -13   1 4.55558 8.16829   3
   2 -13  -1 3.20728 8.48666   3
   2 -13  -1 6.93454 6.54628   2
   2  13  -1 4.89155 7.86610   2
  -2  13   1 -1.9915 7.50985   2
  -2  13   1 8.38443 7.76231   1
  -1 -13   1 -1.4910 6.75249   2
  -1 -13   1 9.14743 6.45358   1
  -1 -13   1 1.06407 5.91992   1
   1 -13  -1 3.92709 8.02993   3
  -1 -13   1 -2.9543 7.93931   3
   1 -13  -1 7.77921 6.22006   2
   1 -13  -1 3.21520 6.63921   1
   1  13  -1 1.72123 7.38284   2
  -1  13   1 6.08183 7.11846   2
   0 -13  -1 1104.21 64.2283   1
   0 -13   1 1059.20 64.7230   1
   0 -13   1 1116.22 63.9560   3
   0 -13   1 1162.46 65.2726   1
   0 -13   1 1043.22 62.9099   2
   0 -13  -1 1128.74 64.0391   3
   0 -13  -1 1062.32 62.7634   2
   0 -13  -1 1085.06 64.3413   1
   0  13   1 1071.13 62.7620   2
   0  13  -1 1074.19 63.3180   2
   1 -13   1 213.847 19.3090   1
   1 -13   1 212.305 17.3456   2
  -1 -13  -1 242.524 18.4472   3
  -1 -13  -1 200.886 16.0907   2
   1 -13   1 193.040 17.6197   3
  -1 -13  -1 224.784 16.3849   1
   1 -13   1 184.346 18.4264   1
  -1 -13  -1 205.488 16.1603   1
   1  13   1 222.279 16.1773   2
  -1  13  -1 204.867 17.6620   2
   2 -13   1 30.6009 9.12225   3
  -2 -13  -1 39.3764 6.65455   1
  -2 -13  -1 45.1444 6.36845   1
   2 -13   1 40.2162 8.35077   2
   2 -13   1 43.2483 9.14843   1
  -2 -13  -1 34.7745 9.23558   3
  -2 -13  -1 58.7973 8.04569   2
   2 -13   1 31.4121 9.37037   1
   2  13   1 45.9236 8.35674   2
  -2  13  -1 39.0527 9.18344   2
  -3 -13  -1 45.1003 5.30381   1
  -3 -13  -1 49.3846 6.03647   1
  -3 -13  -1 41.3166 8.86610   2
   3 -13   1 36.6432 11.0669   1
   3 -13   1 22.1865 8.82521   2
   3 -13   1 44.6576 9.98338   3
  -3 -13  -1 37.8079 8.76618   3
  -3  13  -1 32.5475 10.5852   2
  -4 -13  -1 27.2226 8.31204   3
   4 -13   1 43.0044 12.8169   1
   4 -13   1 33.5848 9.52041   3
  -4  13  -1 39.9567 12.2569   2
  -4  13  -1 33.4409 10.8129   1
  -5 -13  -1 5.64859 8.47612   4
  -5 -13  -1 3.03180 8.20199   3
  -5 -13  -1 0.41425 8.12203   3
   5 -13   1 0.82683 8.92290   3
   5 -13   1 -3.1632 10.8590   1
  -5  13  -1 5.77086 11.1157   1
  -5  13  -1 8.56963 12.4711   2
  -6 -13  -1 510.481 31.4129   3
  -6 -13  -1 517.137 32.1235   3
   6 -13   1 433.910 40.3252   1
   6 -13   1 511.312 32.8223   3
  -6 -13  -1 462.254 34.0025   4
  -6  13  -1 506.724 35.9001   2
  -6  13  -1 453.330 39.8937   1
  -7 -13  -1 181.842 19.5479   4
  -7 -13  -1 201.286 16.8484   3
   7 -13   1 189.079 19.5280   3
  -7  13  -1 171.750 21.6838   2
  -8 -13  -1 25.3191 7.71698   3
  -8 -13  -1 40.5323 11.4216   4
  -8  13  -1 25.4903 18.4142   2
   9 -13   1 32.4843 11.4609   3
  -9 -13  -1 29.3329 15.1430   2
  -9 -13  -1 23.8680 11.1428   4
  -9  13  -1 16.0663 20.1533   2
  -9 -14   1 3.01884 12.1166   4
   9 -14  -1 3.51318 11.1024   3
  -9  14   1 30.2281 21.4763   2
  -8 -14   1 60.5817 12.9989   4
  -8 -14   1 80.5959 9.61735   3
   8 -14  -1 65.2161 12.1080   3
  -8  14   1 66.0632 20.4150   2
  -7 -14   1 22.8349 11.7768   4
   7 -14  -1 43.0544 11.7504   3
  -7 -14   1 40.1739 9.06853   3
  -7  14   1 33.4531 17.4723   2
  -6 -14   1 189.964 19.7485   4
  -6 -14   1 186.453 17.2550   3
   6 -14  -1 173.591 21.9369   3
  -6  14   1 160.978 20.2456   2
   5 -14  -1 27.6990 10.8655   3
  -5 -14   1 32.5756 9.19389   3
  -5 -14   1 13.3577 9.55894   4
  -5 -14   1 24.6074 6.87533   1
  -5  14   1 25.5010 13.4683   2
  -4 -14   1 230.123 18.7870   1
  -4 -14   1 207.941 19.4463   3
  -4 -14   1 240.867 24.3366   4
   4 -14  -1 221.662 20.9534   3
  -4  14   1 241.269 22.2754   2
   3 -14  -1 135.859 15.7363   2
  -3 -14   1 149.668 16.4783   3
   3 -14  -1 158.113 18.1892   3
  -3 -14   1 150.873 16.1005   1
   3  14  -1 166.272 17.0476   2
  -3  14   1 163.320 17.6329   2
   2 -14  -1 120.163 12.7760   3
  -2 -14   1 99.1838 13.9210   1
  -2 -14   1 115.347 12.0449   3
  -2 -14   1 93.2850 12.9390   1
   2 -14  -1 110.753 10.8642   2
   2 -14  -1 73.0110 11.4463   1
  -2  14   1 110.751 11.5532   2
   2  14  -1 94.9234 11.2773   2
   1 -14  -1 13.8421 7.58832   2
  -1 -14   1 3.34376 8.74553   3
  -1 -14   1 -1.3079 7.06527   1
   1 -14  -1 2.02587 7.62093   1
   1 -14  -1 4.29811 9.49733   3
  -1 -14   1 -2.3720 6.57190   1
  -1  14   1 -0.0100 7.86022   2
   1  14  -1 8.67221 8.34620   2
   0 -14  -1 32.3173 9.98968   3
   0 -14   1 19.0959 9.22560   2
   0 -14  -1 30.4322 7.60992   2
   0 -14   1 25.3757 7.99511   1
   0 -14   1 27.7146 8.52739   1
   0 -14   1 18.4783 9.41386   3
   0 -14  -1 12.3105 7.35568   1
   0 -14  -1 28.8413 7.42894   1
   0  14   1 24.7203 7.92754   2
   0  14  -1 38.7989 9.15540   2
   1 -14   1 460.807 30.4832   3
   1 -14   1 408.370 31.0273   1
  -1 -14  -1 440.057 29.1471   1
  -1 -14  -1 462.482 30.5527   3
   1 -14   1 500.159 30.1983   2
  -1 -14  -1 419.872 28.5233   2
  -1 -14  -1 459.456 29.1868   1
   1 -14   1 418.938 31.7011   1
  -1  14  -1 476.527 29.9161   2
   1  14   1 455.368 29.1078   2
  -2 -14  -1 198.634 18.6843   3
   2 -14   1 173.068 20.5095   1
  -2 -14  -1 186.778 15.9572   2
   2 -14   1 165.111 19.2406   1
  -2 -14  -1 192.309 20.6491   1
   2 -14   1 193.516 19.1027   3
  -2 -14  -1 188.292 14.9317   1
   2  14   1 178.382 16.0658   2
  -2  14  -1 187.085 17.5997   2
   3 -14   1 8.94695 9.56641   3
   3 -14   1 10.1058 11.0685   1
  -3 -14  -1 7.68000 5.31038   1
  -3 -14  -1 3.61383 4.39165   1
  -3 -14  -1 15.1764 9.03932   3
  -3  14  -1 20.1681 10.9618   2
   4 -14   1 108.175 17.5706   1
   4 -14   1 127.706 13.7935   3
  -4 -14  -1 102.057 12.1754   3
  -4  14  -1 121.980 15.2119   2
  -5 -14  -1 0.02179 9.00919   3
   5 -14   1 -4.0866 10.0596   3
  -5 -14  -1 2.59304 9.21011   4
   5 -14   1 0.02063 13.2853   1
  -5  14  -1 13.5324 15.9317   2
  -6 -14  -1 30.8456 9.27025   3
  -6 -14  -1 31.4323 10.6965   4
  -6  14  -1 34.4800 15.9081   2
   7 -14   1 1.49956 11.0545   3
  -7 -14  -1 4.85514 10.5188   4
  -7 -14  -1 -4.4809 8.24508   3
  -7  14  -1 -45.633 16.9755   2
   8 -14   1 -7.4661 11.2660   3
  -8 -14  -1 6.06636 10.6067   4
  -8 -14  -1 7.53731 8.02436   3
  -8  14  -1 -38.692 18.4409   2
  -9 -14  -1 7.91575 14.8234   2
  -9 -14  -1 8.68397 12.1871   4
   9 -14   1 -6.1908 11.2328   3
  -9  14  -1 -8.6491 21.1503   2
  -8 -15   1 111.335 13.1731   3
  -8 -15   1 127.295 16.2101   4
   8 -15  -1 113.043 14.5798   3
  -8  15   1 82.6849 22.6486   2
  -7 -15   1 3.55254 8.91807   3
  -7 -15   1 -8.7528 11.5088   4
   7 -15  -1 -6.9610 10.7484   3
  -7  15   1 -21.409 17.1133   2
  -6 -15   1 168.816 16.6047   4
  -6 -15   1 194.953 18.4926   3
   6 -15  -1 187.147 20.7270   3
  -6  15   1 150.021 20.6324   2
  -5 -15   1 23.7515 10.3657   4
   5 -15  -1 2.92023 10.6538   3
  -5 -15   1 22.9853 9.29399   3
  -5  15   1 23.3466 17.8894   2
   4 -15  -1 231.693 28.6509   3
  -4 -15   1 275.868 22.1971   3
  -4 -15   1 255.722 21.4390   4
  -4  15   1 273.071 24.5424   2
   3 -15  -1 52.7059 19.0454   3
  -3 -15   1 83.1928 11.9271   3
   3  15  -1 66.3454 12.7548   2
  -3  15   1 66.7234 12.1397   2
   2 -15  -1 103.930 13.2298   3
  -2 -15   1 80.4685 11.9852   3
  -2  15   1 82.5241 11.3757   2
   2  15  -1 101.805 12.0376   2
   1 -15  -1 491.454 32.4972   3
  -1 -15   1 481.356 31.9501   3
  -1  15   1 457.155 30.0991   2
   1  15  -1 446.853 31.2576   2
   0 -15  -1 -3.1198 9.92470   3
   0 -15  -1 9.95288 8.78921   1
   0 -15   1 -2.6836 9.62406   3
   0  15  -1 -2.3827 8.90749   2
   0  15   1 -1.0647 8.18240   2
   1 -15   1 7.15217 10.3285   3
  -1 -15  -1 -1.6138 6.82843   1
  -1 -15  -1 1.80939 10.2263   3
   1  15   1 -0.5955 8.42183   2
  -1  15  -1 2.54987 9.29441   2
  -2 -15  -1 54.5054 8.57296   1
  -2 -15  -1 70.1543 11.5373   3
   2 -15   1 52.5158 11.5181   3
   2  15   1 46.3950 9.99076   2
  -2  15  -1 68.6309 11.7482   2
  -3 -15  -1 37.4366 11.0164   3
  -3 -15  -1 46.7251 6.84041   1
  -3  15  -1 39.4215 11.8661   2
  -4 -15  -1 13.9993 10.1541   3
   4 -15   1 11.2321 10.9260   3
  -4  15  -1 19.4040 15.1907   2
   5 -15   1 12.0862 11.3547   3
  -5 -15  -1 -1.3565 10.0459   4
  -5 -15  -1 13.3990 9.75223   3
  -5  15  -1 -10.080 13.9063   2
  -6 -15  -1 69.2616 11.2769   3
  -6 -15  -1 61.4657 12.3564   4
   6 -15   1 53.1209 12.3210   3
  -6  15  -1 24.8116 16.8842   2
  -7 -15  -1 -4.6312 10.3966   3
   7 -15   1 22.6153 12.3655   3
  -7 -15  -1 15.9664 10.9206   4
  -7  15  -1 1.58321 18.6406   2
  -8 -15  -1 -6.5700 11.8648   4
   8 -15   1 -1.8952 12.3209   3
  -8 -15  -1 -0.8185 9.01701   3
  -8  15  -1 -8.3926 19.4741   2
   8 -16  -1 22.8814 13.2469   3
  -8 -16   1 27.6989 13.5353   4
  -8  16   1 -22.291 20.7773   2
  -7 -16   1 8.87009 10.2568   3
   7 -16  -1 16.4790 12.6878   3
  -7 -16   1 15.7894 12.3039   4
  -7  16   1 11.2815 18.0326   2
   6 -16  -1 0.36613 11.4540   3
  -6 -16   1 18.4939 11.5340   4
  -6 -16   1 12.1570 9.90136   3
  -6  16   1 -6.5368 16.1897   2
  -5 -16   1 143.595 15.5020   4
   5 -16  -1 137.636 16.1743   3
  -5 -16   1 188.550 18.7707   3
  -5  16   1 145.009 18.0481   2
   4 -16  -1 31.6465 11.9898   3
  -4 -16   1 46.9267 11.4804   3
  -4 -16   1 44.3651 11.1714   4
  -4  16   1 41.0207 13.8282   2
   3 -16  -1 29.9856 12.5671   3
  -3 -16   1 39.4686 12.6832   3
   3  16  -1 19.1661 10.5844   2
  -3  16   1 21.8072 11.7257   2
   2 -16  -1 217.098 21.7796   3
  -2 -16   1 163.828 18.7384   3
  -2  16   1 196.174 19.9136   2
   2  16  -1 180.661 19.6634   2
   1 -16  -1 4.75211 11.4612   3
  -1 -16   1 -0.4097 12.1081   3
  -1  16   1 0.78539 9.57633   2
   0 -16   1 11.5537 11.3523   3
   0 -16  -1 16.9476 11.1060   3
   0  16   1 11.5538 9.25975   2
   0  16  -1 16.3646 11.7942   2
   1 -16   1 18.6296 11.0448   3
  -1 -16  -1 9.75878 10.8583   3
  -1  16  -1 29.7154 14.1259   2
   1  16   1 -0.9556 8.99526   2
   2 -16   1 426.641 29.0793   3
  -2 -16  -1 375.129 28.5314   3
  -2  16  -1 382.415 37.6008   2
   2  16   1 376.214 27.6029   2
   3 -16   1 13.5887 11.3311   3
  -3 -16  -1 16.5807 11.5831   3
  -3  16  -1 13.8460 11.9917   2
   4 -16   1 118.273 15.2623   3
  -4 -16  -1 133.355 14.6539   3
  -4  16  -1 95.0744 16.0451   2
  -5 -16  -1 343.517 27.3065   3
  -5 -16  -1 369.860 28.2714   4
   5 -16   1 364.900 28.7546   3
  -5  16  -1 376.045 31.2529   2
  -6 -16  -1 12.3552 11.8229   4
  -6 -16  -1 8.02201 10.3873   3
   6 -16   1 21.6597 12.3863   3
  -6  16  -1 16.0200 17.0511   2
   7 -16   1 -2.4304 12.7600   3
  -7 -16  -1 30.1392 11.9605   4
  -7 -16  -1 8.77218 9.69666   3
  -7  16  -1 -9.5450 19.4368   2
  -8 -16  -1 8.21428 13.2307   4
   8 -16   1 5.43445 13.3123   3
  -8  16  -1 5.11837 21.3678   2
  -7 -17   1 12.7550 12.9984   4
   7 -17  -1 -6.3352 12.9578   3
  -7 -17   1 -5.4360 10.5422   3
  -7  17   1 10.7791 18.5829   2
  -6 -17   1 51.3693 13.5392   4
   6 -17  -1 59.7503 14.3659   3
  -6 -17   1 68.6564 12.6628   3
  -6  17   1 32.5018 18.0325   2
  -5 -17   1 44.6100 12.0781   3
   5 -17  -1 39.6772 13.7540   3
  -5 -17   1 34.2781 12.7611   4
  -5  17   1 36.7337 15.7406   2
  -4 -17   1 -7.4459 11.5492   4
  -4 -17   1 -3.4545 10.5824   3
   4 -17  -1 4.13836 12.3794   3
  -4  17   1 -8.5965 12.9124   2
   3 -17  -1 16.3636 13.1228   3
  -3 -17   1 -2.8575 10.9010   3
   3  17  -1 27.5137 11.8178   2
  -3  17   1 4.36698 11.6272   2
  -2 -17   1 71.7197 13.4517   3
   2 -17  -1 43.5314 13.5827   3
  -2  17   1 59.5099 14.4767   2
   2  17  -1 59.8955 12.1164   2
   1 -17  -1 283.045 26.5098   3
  -1 -17   1 303.463 26.2043   3
   1  17  -1 290.391 25.0377   2
   0 -17  -1 14.3225 11.9681   3
   0 -17   1 23.4973 12.4705   3
   0  17  -1 7.66967 10.8533   2
   1 -17   1 -6.5342 11.4106   3
  -1 -17  -1 -7.7402 11.5201   3
  -1  17  -1 0.99518 11.6482   2
   1  17   1 4.27638 13.0476   2
  -2 -17  -1 128.300 15.7767   3
   2 -17   1 173.615 17.5019   3
   2  17   1 154.076 15.1177   2
  -2  17  -1 132.390 16.2324   2
   3 -17   1 86.8364 14.8930   3
  -3 -17  -1 81.9250 13.9627   3
  -3  17  -1 86.3452 15.3245   2
  -4 -17  -1 128.414 15.3146   3
   4 -17   1 104.297 15.2412   3
  -4  17  -1 109.568 17.0671   2
  -5 -17  -1 4.08848 10.8331   3
  -5 -17  -1 -7.6829 11.9178   4
   5 -17   1 -12.988 12.9968   3
  -5  17  -1 8.07218 16.4026   2
  -6 -17  -1 8.36420 11.4082   3
   6 -17   1 12.0821 13.6586   3
  -6 -17  -1 11.5809 12.2698   4
  -6  17  -1 9.04338 18.0748   2
  -7 -17  -1 120.817 15.5693   4
   7 -17   1 111.012 15.8458   3
  -7 -17  -1 94.9853 13.1313   3
  -7  17  -1 64.3354 22.3553   2
  -6 -18   1 34.1368 14.3855   4
  -6 -18   1 32.7565 12.2846   3
   6 -18  -1 33.0196 14.8922   3
  -6  18   1 9.24568 18.5353   2
  -5 -18   1 77.8432 15.3858   4
   5 -18  -1 68.4405 16.1961   3
  -5 -18   1 103.115 14.5811   3
  -5  18   1 89.5378 17.8067   2
   4 -18  -1 265.382 26.9161   3
  -4 -18   1 268.905 25.5134   4
  -4 -18   1 251.926 24.8194   3
  -4  18   1 270.368 26.2173   2
  -3 -18   1 12.5176 11.8436   3
   3 -18  -1 3.57867 14.0849   3
  -3 -18   1 9.03664 11.7018   4
   3  18  -1 4.77390 11.6385   2
  -3  18   1 16.9539 13.2944   2
  -2 -18   1 39.3526 13.5423   3
   2 -18  -1 33.8250 14.2984   3
   2  18  -1 38.4678 12.4529   2
  -2  18   1 14.0781 12.6621   2
  -1 -18   1 86.3036 14.7112   3
   1 -18  -1 82.9897 15.5186   3
  -1  18   1 79.8505 13.2456   2
   1  18  -1 76.6340 13.7961   2
   0 -18   1 320.739 27.9653   3
   0 -18  -1 326.575 28.0367   3
   0  18   1 305.492 25.1845   2
   0  18  -1 261.086 25.1665   2
   1 -18   1 3.13981 13.2070   3
  -1 -18  -1 -6.4261 12.3477   3
  -1  18  -1 -6.4268 11.8044   2
   1  18   1 0.94030 11.2574   2
  -2 -18  -1 4.29324 12.7512   3
   2 -18   1 -2.3660 13.4686   3
  -2  18  -1 10.1153 12.7351   2
   2  18   1 3.57132 10.6780   2
   3 -18   1 506.579 36.6518   3
  -3 -18  -1 487.937 35.3483   3
  -3  18  -1 456.561 35.3433   2
  -4 -18  -1 2.85745 11.7601   4
  -4 -18  -1 -14.860 12.0711   3
   4 -18   1 9.77928 14.0136   3
  -4  18  -1 -1.7472 15.6176   2
   5 -18   1 12.2793 13.8889   3
  -5 -18  -1 21.7482 11.9722   3
  -5 -18  -1 12.5918 12.4103   4
  -5  18  -1 -14.238 17.6106   2
   6 -18   1 92.6604 15.8730   3
  -6 -18  -1 70.4117 13.7060   3
  -6 -18  -1 61.8749 14.4600   4
  -6  18  -1 55.6727 20.9382   2
   5 -19  -1 22.4482 15.1627   3
  -5 -19   1 6.99531 12.6369   3
  -5 -19   1 5.04332 13.5649   4
  -5  19   1 25.2197 17.5207   2
   4 -19  -1 5.47281 14.6255   3
  -4 -19   1 7.49832 12.5736   3
  -4 -19   1 5.03436 12.7738   4
  -4  19   1 16.5289 15.3595   2
  -3 -19   1 20.7784 13.1155   4
   3 -19  -1 7.77722 15.2566   3
  -3 -19   1 3.72184 12.7426   3
  -3  19   1 4.07039 14.1112   2
  -2 -19   1 51.5528 14.5255   3
   2 -19  -1 56.4579 15.8785   3
   2  19  -1 55.4545 14.0639   2
  -2  19   1 20.4997 13.1201   2
   1 -19  -1 2.80862 14.0812   3
  -1 -19   1 11.3556 13.5487   3
   1  19  -1 20.0781 12.9430   2
  -1  19   1 15.3129 12.3514   2
   0 -19  -1 32.8140 15.0461   3
   0 -19   1 34.6951 14.2787   3
   0  19  -1 38.0852 13.1832   2
   0  19   1 13.7247 12.3404   2
   1 -19   1 6.77828 14.4671   3
  -1 -19  -1 10.4488 14.1677   3
  -1  19  -1 5.25737 13.1382   2
   1  19   1 1.61601 12.3237   2
   2 -19   1 38.0830 14.5465   3
  -2 -19  -1 34.7596 14.8439   3
   2  19   1 35.8478 12.5632   2
  -2  19  -1 59.7366 15.3578   2
   3 -19   1 9.25686 14.2295   3
  -3 -19  -1 16.5583 13.5081   3
  -3  19  -1 -2.7553 15.0916   2
  -4 -19  -1 33.2310 13.5185   3
  -4 -19  -1 27.5450 13.7355   4
   4 -19   1 14.3928 15.1815   3
  -4  19  -1 7.65420 16.9197   2
  -5 -19  -1 9.29472 12.5698   3
  -5 -19  -1 1.41530 14.2164   4
   5 -19   1 6.18415 15.1048   3
  -5  19  -1 10.0566 18.2312   2
  -4 -20   1 22.5247 14.5182   4
   4 -20  -1 -3.8932 15.7996   3
  -4 -20   1 -13.134 13.8567   3
  -4  20   1 -15.332 16.6039   2
   3 -20  -1 50.6748 17.4968   3
  -3 -20   1 35.8824 14.7570   4
  -3 -20   1 40.6958 14.9770   3
  -3  20   1 8.59588 15.0804   2
  -2 -20   1 44.9685 15.2591   3
   2 -20  -1 55.4639 17.1228   3
  -2  20   1 36.7318 15.3538   2
   2  20  -1 53.4288 14.6012   2
  -1 -20   1 13.7014 14.5433   3
   1 -20  -1 -11.053 14.5920   3
  -1  20   1 6.68020 13.7774   2
   1  20  -1 -14.741 13.1807   2
   0 -20   1 -10.626 14.1804   3
   0 -20  -1 15.9976 15.9028   3
   0  20  -1 -0.3795 13.7484   2
   0  20   1 5.14640 13.3312   2
   1 -20   1 -1.3159 15.1760   3
  -1 -20  -1 -6.5140 15.3775   3
   1  20   1 -2.2724 13.2698   2
  -1  20  -1 0.17998 14.7879   2
  -2 -20  -1 68.9428 16.8308   3
   2 -20   1 46.5886 16.0167   3
  -2  20  -1 61.5360 16.4500   2
  -3 -20  -1 159.330 18.5141   3
   3 -20   1 127.501 19.3169   3
  -3  20  -1 143.623 20.1306   2
   4 -20   1 67.5182 16.8356   3
  -4 -20  -1 28.5499 14.4330   3
  -1 -21   1 79.7782 17.2288   3
   1 -21  -1 71.7693 17.8878   3
  -1  21   1 82.1285 16.3656   2
   1  21  -1 46.9262 15.9559   2
   0 -21  -1 22.2344 17.2559   3
   0 -21   1 29.8370 16.2664   3
   0  21  -1 45.2876 16.4501   2
   0  21   1 30.1085 14.8845   2
  -1 -21  -1 15.1568 16.7764   3
   1 -21   1 -9.9889 16.3055   3
   1  21   1 0.38123 14.3530   2
  -1  21  -1 1.31755 15.8139   2
 -12   0   2 47.7393 19.4342   2
 -11   0   2 9.76058 16.3485   2
 -10   0   2 157.785 19.0132   2
   9   0  -2 1435.72 87.4005   4
  -9   0   2 1377.14 82.8617   2
   8   0  -2 111.317 15.7007   1
  -8   0   2 138.607 14.7463   2
  -8   0   2 126.111 15.6997   1
   8   0  -2 118.061 13.2195   4
  -7   0   2 -1.1151 6.05051   1
   7   0  -2 -5.8839 7.58504   4
   7   0  -2 3.11670 8.84532   1
  -7   0   2 7.84539 9.18915   2
   6   0  -2 75.4684 8.81716   4
  -6   0   2 76.6587 9.39928   2
   6   0  -2 73.3325 10.3704   1
  -6   0   2 47.4430 8.14027   1
   5   0  -2 288.441 20.6307   1
   5   0  -2 268.107 20.6026   4
  -5   0   2 276.342 19.8284   1
  -5   0   2 291.682 19.0012   2
   4   0  -2 473.133 29.5916   1
   4   0  -2 455.143 28.5239   4
  -4   0   2 480.520 29.2911   1
  -4   0   2 473.748 28.2779   2
   4   0  -2 471.615 26.6852   3
   3   0  -2 341.384 22.1811   3
  -3   0   2 423.077 24.1526   1
   3   0  -2 399.785 24.2176   1
  -3   0   2 405.657 23.0254   2
  -3   0   2 409.730 22.0273   3
   3   0  -2 338.736 23.2601   4
   2   0  -2 816.097 54.7692   3
   2   0  -2 1089.56 56.1648   1
   2   0  -2 887.318 55.1606   4
  -2   0   2 992.635 54.7823   3
  -2   0   2 1088.30 56.1565   1
   1   0  -2 9.30350 2.37429   1
   1   0  -2 6.15412 2.24024   3
  -1   0   2 4.89476 2.24664   3
  -1   0   2 8.58186 1.23039   2
  -1   0   2 13.5772 2.89194   1
   0   0  -2 166.294 9.08253   2
   0   0   2 161.760 10.1854   1
   0   0  -2 125.150 9.83736   3
   0   0   2 174.751 9.12576   2
   0   0  -2 160.093 10.0774   1
  -1   0  -2 183.744 10.6004   1
  -1   0  -2 141.966 10.7444   3
   1   0   2 170.278 10.6803   1
   1   0   2 169.364 10.4811   2
  -1   0  -2 191.430 10.2936   2
   2   0   2 1556.86 90.1635   1
  -2   0  -2 1610.04 89.9267   3
  -2   0  -2 1632.00 90.2088   2
  -3   0  -2 584.773 34.6817   3
   3   0   2 625.181 35.4482   1
   3   0   2 604.870 34.1890   4
  -3   0  -2 608.773 35.1706   2
   3   0   2 607.803 35.3466   2
  -3   0  -2 609.758 35.3268   1
   4   0   2 -1.9611 5.42608   2
  -4   0  -2 -4.4504 4.67191   2
   4   0   2 7.08704 3.90952   1
   4   0   2 1.72103 4.03589   3
  -4   0  -2 3.20507 2.71414   3
  -4   0  -2 -1.1565 2.74977   1
   4   0   2 0.76851 2.40911   4
  -5   0  -2 512.040 30.7723   2
   5   0   2 502.626 31.0178   1
  -5   0  -2 478.155 30.3978   1
   5   0   2 503.316 28.8776   4
  -5   0  -2 502.411 28.6529   3
   6   0   2 2276.08 127.762   4
   6   0   2 2289.00 130.134   1
  -6   0  -2 2154.24 129.418   1
  -6   0  -2 2310.45 127.328   3
  -6   0  -2 2342.40 128.979   2
   7   0   2 677.501 37.5289   4
  -7   0  -2 601.663 39.4733   1
  -7   0  -2 617.616 36.1155   3
   7   0   2 637.139 41.1083   1
  -7   0  -2 682.013 39.6996   2
   8   0   2 17.8331 10.0454   1
  -8   0  -2 14.3855 10.4984   2
  -8   0  -2 10.8371 7.54065   1
  -9   0  -2 273.748 28.0166   2
 -10   0  -2 21.3660 13.8101   2
 -11   0  -2 10.6727 15.8944   2
 -12   0  -2 30.8293 17.2790   2
 -12  -1   2 62.5324 19.6089   2
 -12   1   2 104.539 21.6565   2
 -11  -1   2 13.2368 15.7677   2
 -11   1   2 -0.6152 16.7036   2
 -10  -1   2 -8.9151 13.5228   2
 -10   1   2 0.88178 14.7645   2
  -9  -1   2 47.9004 13.9521   2
   9  -1  -2 164.586 17.5183   4
   8  -1  -2 22.5679 9.93064   4
   8  -1  -2 17.7606 10.5334   1
  -8  -1   2 22.7471 10.6346   2
  -8  -1   2 13.1405 8.41010   1
  -8   1   2 29.7579 9.36095   1
  -8   1   2 19.4906 11.1933   2
   8   1  -2 10.7404 9.16851   4
   7  -1  -2 11.0487 7.67724   4
   7  -1  -2 3.11977 8.41364   1
  -7  -1   2 -0.4219 6.20845   1
  -7  -1   2 17.3425 8.93322   2
  -7   1   2 6.93427 5.92329   1
  -7   1   2 8.55228 9.37075   2
   7   1  -2 31.9783 8.23107   4
   6  -1  -2 189.143 16.3224   4
  -6  -1   2 168.719 16.0298   1
  -6  -1   2 238.564 16.1398   2
   6  -1  -2 190.719 17.9550   1
  -6   1   2 190.650 16.5360   1
   6   1  -2 159.498 20.1576   1
  -6   1   2 187.430 16.2780   2
   5  -1  -2 378.963 24.6768   1
   5  -1  -2 335.193 20.1591   3
  -5  -1   2 347.329 22.9422   2
   5  -1  -2 360.528 19.8975   3
   5  -1  -2 321.536 23.9828   4
  -5  -1   2 355.287 23.2428   1
  -5   1   2 372.779 23.1448   2
   5   1  -2 346.243 22.6059   4
   4  -1  -2 324.694 21.3750   1
   4  -1  -2 299.788 19.8529   4
   4  -1  -2 270.409 18.2479   3
  -4  -1   2 328.438 17.8991   3
  -4  -1   2 334.601 20.8107   1
  -4  -1   2 312.235 19.7240   2
   4   1  -2 319.084 17.8255   3
   4   1  -2 318.567 20.3047   4
   4   1  -2 311.136 21.6336   1
  -4   1   2 332.559 21.0475   1
  -4   1   2 319.081 19.8199   2
  -3  -1   2 10.9597 3.48995   1
  -3  -1   2 7.40034 2.13665   3
   3  -1  -2 12.9620 6.48342   1
   3  -1  -2 11.3858 2.32152   3
  -3   1   2 11.8283 3.99867   2
   3   1  -2 12.9090 4.30860   4
   3   1  -2 12.0184 1.96638   3
  -3   1   2 6.11325 3.60367   1
   3   1  -2 7.62099 3.39291   1
  -2  -1   2 545.693 36.8945   3
  -2  -1   2 627.482 36.8537   2
  -2  -1   2 719.390 38.2997   1
  -2  -1   2 596.195 37.3070   4
   2  -1  -2 646.582 36.9358   3
   2  -1  -2 649.555 38.1748   1
  -2   1   2 725.193 36.9313   3
   2   1  -2 699.457 38.2811   1
   2   1  -2 679.964 36.9387   3
   2   1  -2 611.338 37.3245   4
  -2   1   2 673.630 37.0535   2
  -1  -1   2 105.028 5.94018   2
  -1  -1   2 81.5134 6.51612   3
  -1  -1   2 80.4760 6.49020   4
  -1  -1   2 93.1876 7.35195   1
   1  -1  -2 97.0219 6.46396   3
   1  -1  -2 99.6923 7.26143   1
   1   1  -2 95.6834 6.67485   3
  -1   1   2 95.8383 6.60340   3
   1   1  -2 90.5567 6.61112   4
   1   1  -2 97.5609 7.30325   1
   1   1  -2 99.1613 5.93615   2
  -1   1   2 107.469 7.42898   1
  -1   1   2 91.6730 5.84681   2
   0  -1   2 85.0348 4.95187   2
   0  -1  -2 70.5290 5.58281   1
   0  -1   2 76.5825 5.81320   3
   0  -1   2 76.2647 5.15846   4
   0  -1   2 80.6560 6.04072   1
   0  -1  -2 83.1193 4.49782   2
   0  -1  -2 72.6502 5.64656   3
   0   1   2 75.7991 5.88568   3
   0   1  -2 82.2033 4.91414   2
   0   1  -2 72.5495 5.87791   1
   0   1  -2 75.2633 5.83605   3
   0   1  -2 83.1594 5.13400   4
   0   1   2 78.3012 5.89315   1
   1  -1   2 26.2721 3.37392   3
   1  -1   2 32.2012 3.58250   2
  -1  -1  -2 32.0187 3.25100   2
  -1  -1  -2 34.0125 3.22493   1
   1  -1   2 41.8892 4.12533   1
  -1  -1  -2 28.5965 3.24817   3
  -1   1  -2 29.0320 3.36820   2
   1   1   2 34.4807 3.00509   2
   1   1   2 31.5470 3.42941   1
  -1   1  -2 33.9086 3.49152   3
   1   1   2 39.4612 3.85517   3
   2  -1   2 1662.77 97.2995   2
   2  -1   2 1483.24 97.2426   3
   2   1   2 1570.09 97.2681   3
   2   1   2 1785.97 97.3210   2
  -2   1  -2 1773.57 97.2151   3
  -2   1  -2 1895.90 97.8393   1
  -2   1  -2 1797.01 97.2667   2
   2   1   2 1879.92 97.3862   1
   3  -1   2 490.177 29.2151   2
  -3  -1  -2 514.457 28.9054   2
  -3  -1  -2 483.654 28.2250   4
   3  -1   2 475.632 28.0728   4
  -3  -1  -2 533.695 28.9628   1
  -3  -1  -2 410.879 28.4995   3
   3   1   2 452.644 28.7168   3
   3   1   2 514.223 29.0829   1
  -3   1  -2 531.164 29.5312   1
  -3   1  -2 534.543 28.5358   3
  -3   1  -2 518.274 29.0753   2
  -4  -1  -2 180.688 12.8805   1
   4  -1   2 203.801 12.0054   4
  -4  -1  -2 202.023 12.3208   3
   4  -1   2 202.955 14.2874   2
  -4  -1  -2 192.867 13.5970   2
  -4   1  -2 199.638 13.9336   2
   4   1   2 165.380 12.5661   3
   4   1   2 207.091 13.5833   1
  -4   1  -2 188.931 13.5955   1
  -4   1  -2 202.486 12.1356   3
   5  -1   2 18.1546 7.13433   2
  -5  -1  -2 21.7359 4.72888   1
   5  -1   2 16.3392 4.92678   3
  -5  -1  -2 22.1673 6.23210   2
  -5  -1  -2 20.2094 3.40014   3
  -5   1  -2 20.5503 3.19674   3
   5   1   2 26.6039 5.95562   1
  -5   1  -2 19.7980 6.58370   2
   5   1   2 18.7191 4.32113   3
  -5   1  -2 20.6230 5.17640   1
  -6  -1  -2 18.2341 2.95123   3
  -6  -1  -2 27.2713 7.59613   2
  -6  -1  -2 9.83776 4.59210   1
   6   1   2 18.4411 6.72463   1
  -7  -1  -2 370.621 22.3507   3
  -7  -1  -2 376.494 25.9536   1
   7  -1   2 465.292 24.0245   3
  -7  -1  -2 381.520 26.6995   2
   7  -1   2 367.496 27.5252   1
  -7   1  -2 414.276 22.6066   3
  -7   1  -2 423.425 27.2254   2
  -7   1  -2 367.304 26.5103   1
   7   1   2 366.977 27.7348   1
  -8  -1  -2 44.3715 8.42406   1
   8  -1   2 29.1628 6.34223   4
  -8  -1  -2 32.8109 10.4206   2
   8  -1   2 30.5335 10.5269   1
  -8   1  -2 16.1534 6.77252   1
   8   1   2 15.7481 10.0197   1
  -8   1  -2 33.9730 10.6646   2
   9  -1   2 190.640 15.3159   4
  -9  -1  -2 128.337 22.0752   2
  -9   1  -2 150.550 23.1379   2
 -10  -1  -2 12.0355 13.5283   2
 -10   1  -2 13.8885 13.9091   2
 -11  -1  -2 5.22012 14.7005   2
 -11   1  -2 17.1654 15.2988   2
 -12  -1  -2 11.1376 17.2647   2
 -12   1  -2 9.66520 17.6423   2
 -12  -2   2 57.8043 18.8793   2
 -12   2   2 54.3827 20.2259   2
 -11  -2   2 -0.5421 16.1226   2
 -11   2   2 -16.492 16.8691   2
 -10  -2   2 -1.1300 13.7512   2
 -10   2   2 5.82230 15.2258   2
   9  -2  -2 273.358 27.9334   4
  -9  -2   2 240.423 24.3430   2
  -9   2   2 283.196 25.9573   2
   8  -2  -2 -0.6974 8.85229   4
  -8  -2   2 4.31086 7.30184   1
   8  -2  -2 4.88548 10.0471   1
  -8   2   2 4.13299 8.97950   1
  -8   2   2 9.47402 11.9120   2
   7  -2  -2 227.895 19.0260   4
   7  -2  -2 258.797 22.2820   1
  -7  -2   2 230.834 19.6121   2
  -7  -2   2 222.360 19.7280   1
   7   2  -2 250.873 19.3850   4
  -7   2   2 254.370 21.6176   2
  -7   2   2 240.145 20.2732   1
   6  -2  -2 782.700 50.4156   3
   6  -2  -2 838.767 52.4373   4
   6  -2  -2 944.725 55.2803   1
  -6  -2   2 833.217 55.1628   1
  -6  -2   2 933.521 52.7371   2
   6  -2  -2 915.220 50.2671   3
   6   2  -2 1007.74 52.8611   4
  -6   2   2 894.644 54.4178   1
  -6   2   2 952.176 53.3569   2
  -5  -2   2 21.2943 6.30130   2
   5  -2  -2 29.4082 11.1825   1
  -5  -2   2 33.4945 6.15477   1
   5  -2  -2 22.8485 3.09590   3
   5  -2  -2 16.2103 2.41751   3
  -5   2   2 18.2398 7.00628   2
  -5   2   2 17.3560 5.80268   1
   5   2  -2 7.08178 5.85136   4
   4  -2  -2 7.46656 4.62660   1
  -4  -2   2 3.33858 4.76054   4
  -4  -2   2 4.76575 1.98595   3
   4  -2  -2 6.37471 2.55543   3
  -4  -2   2 6.67901 4.36574   1
  -4   2   2 6.20082 5.15422   2
   4   2  -2 6.21187 5.01046   4
  -4   2   2 10.4218 5.02024   1
   4   2  -2 6.11679 1.58924   3
   3  -2  -2 24.1961 2.89137   3
  -3  -2   2 18.4967 2.64561   3
  -3  -2   2 22.1698 4.22849   1
  -3  -2   2 24.0817 3.46679   2
   3  -2  -2 16.5935 3.39234   2
   3  -2  -2 17.4828 4.60373   1
  -3  -2   2 18.9514 4.36458   4
  -3   2   2 18.1182 4.37506   2
  -3   2   2 23.5905 4.98775   1
   3   2  -2 20.0330 2.30326   3
   3   2  -2 19.6821 4.47828   4
  -2  -2   2 3490.48 203.200   2
   2  -2  -2 3457.57 203.146   2
  -2  -2   2 3415.55 203.189   3
   2  -2  -2 3861.37 204.567   1
   2  -2  -2 3755.33 203.248   3
  -2  -2   2 3872.95 204.455   1
  -2  -2   2 3424.28 203.424   4
   2   2  -2 3726.61 203.526   4
  -2   2   2 3426.94 203.273   2
   2   2  -2 3708.10 203.166   3
  -2   2   2 3853.25 204.552   1
  -1  -2   2 1689.30 104.392   4
   1  -2  -2 1930.26 105.184   1
  -1  -2   2 1860.56 104.424   3
   1  -2  -2 1938.16 104.434   3
   1  -2  -2 1734.86 104.090   2
  -1  -2   2 1864.83 104.235   2
  -1   2   2 1731.28 104.093   2
   1   2  -2 1888.40 105.280   1
   1   2  -2 1992.49 104.478   4
  -1   2   2 1937.64 105.250   1
   1   2  -2 1912.84 104.421   3
   1   2  -2 1754.03 104.223   2
  -1   2   2 1988.67 104.490   3
   0  -2   2 1032.79 53.7248   2
   0  -2   2 953.561 54.4780   1
   0  -2  -2 840.797 53.4355   2
   0  -2   2 960.585 53.9679   3
   0  -2  -2 957.727 53.9369   3
   0  -2   2 1005.42 53.7143   4
   0  -2  -2 897.900 54.1598   1
   0   2  -2 999.697 53.9879   3
   0   2   2 910.109 54.2528   1
   0   2  -2 987.603 53.7008   2
   0   2  -2 937.794 54.4807   1
   0   2   2 998.877 54.0293   3
   1  -2   2 2362.05 123.258   1
  -1  -2  -2 2103.80 122.582   3
   1  -2   2 2159.75 122.461   2
   1  -2   2 2470.53 123.325   1
  -1  -2  -2 2089.27 122.444   1
   1   2   2 2060.08 122.584   1
   1   2   2 2162.94 122.688   3
  -1   2  -2 2343.13 122.670   3
  -1   2  -2 1946.63 122.464   2
  -2  -2  -2 45.7029 4.85474   3
   2  -2   2 42.1987 5.00107   3
   2  -2   2 41.5792 4.58328   2
   2  -2   2 47.8723 5.57775   1
  -2  -2  -2 42.6067 4.20360   2
   2   2   2 51.7027 3.92905   1
  -2   2  -2 47.9451 5.62491   1
   2   2   2 45.1289 3.88200   1
  -2   2  -2 54.8321 4.80191   2
  -2   2  -2 49.6029 4.85000   3
   3  -2   2 1075.93 61.4543   2
  -3  -2  -2 1136.57 61.1236   1
   3  -2   2 1024.74 61.0927   3
  -3  -2  -2 1084.06 60.7104   4
   3  -2   2 1072.48 62.1715   1
  -3  -2  -2 1066.50 61.1633   2
  -3  -2  -2 934.602 60.9145   3
  -3   2  -2 1106.28 61.3813   2
  -3   2  -2 1111.39 62.0949   1
   3   2   2 1123.12 61.2772   1
  -3   2  -2 1137.01 60.9476   3
  -4  -2  -2 35.9104 4.19191   1
   4  -2   2 25.6950 4.45423   3
  -4  -2  -2 42.6418 4.16118   4
  -4  -2  -2 28.1191 5.28754   2
  -4  -2  -2 32.5153 3.95586   3
   4  -2   2 27.0367 6.13874   2
   4  -2   2 39.5036 6.23271   1
  -4   2  -2 33.5672 6.12545   2
  -4   2  -2 30.9214 5.27138   1
  -4   2  -2 33.8532 3.79762   3
   4   2   2 33.6541 4.79454   1
   5  -2   2 1407.04 84.4579   1
   5  -2   2 1282.42 80.8388   3
  -5  -2  -2 1469.52 81.5245   1
   5  -2   2 1472.07 81.7824   2
   5  -2   2 1390.00 80.5707   4
  -5  -2  -2 1382.62 80.4765   3
  -5  -2  -2 1319.49 80.6886   4
  -5  -2  -2 1469.84 81.4145   2
  -5   2  -2 1461.39 82.4640   1
   5   2   2 1487.81 82.0208   1
  -5   2  -2 1509.94 81.8007   2
  -5   2  -2 1503.64 80.4009   3
  -6  -2  -2 255.209 17.5451   1
   6  -2   2 226.097 16.7756   3
   6  -2   2 241.518 19.7229   2
  -6  -2  -2 274.954 15.4841   3
   6  -2   2 243.964 16.5102   4
  -6  -2  -2 265.865 18.6924   2
   6  -2   2 180.275 27.2047   1
  -6   2  -2 277.483 19.4980   2
  -6   2  -2 266.939 15.5058   3
   6   2   2 272.507 19.2882   1
  -6   2  -2 265.033 18.9734   1
   7  -2   2 6.25608 11.8393   1
  -7  -2  -2 -1.8069 8.22745   2
  -7  -2  -2 4.21047 4.93530   1
  -7  -2  -2 1.19966 2.05834   3
   7   2   2 1.24665 7.23024   1
  -7   2  -2 7.78301 6.65632   1
  -7   2  -2 14.3321 9.19032   2
   8  -2   2 89.6508 7.86402   3
   8  -2   2 107.218 9.28828   4
  -8  -2  -2 113.618 12.7935   2
  -8  -2  -2 100.065 12.8654   1
  -8   2  -2 93.3323 13.1920   2
  -8   2  -2 115.526 15.2713   1
   8   2   2 95.4247 13.5291   1
   9  -2   2 17.8977 7.13082   4
 -10  -2  -2 18.3041 13.5766   2
 -10   2  -2 36.5410 14.2899   2
 -11  -2  -2 15.0239 15.1286   2
 -11   2  -2 -21.764 15.1234   2
 -12  -2  -2 -1.7630 16.3325   2
 -12   2  -2 30.2809 17.8751   2
 -12  -3   2 3.73184 16.9826   2
 -12   3   2 38.2132 20.0610   2
 -11  -3   2 -2.6085 15.0041   2
 -11   3   2 13.7006 17.9082   2
 -10  -3   2 278.350 28.4241   2
 -10   3   2 282.807 31.1117   2
  -9  -3   2 37.6517 12.5429   2
  -9   3   2 20.6103 14.1200   2
  -8  -3   2 747.836 50.4268   1
  -8  -3   2 891.033 50.8018   2
   8  -3  -2 828.168 49.8292   4
   8  -3  -2 733.378 53.1968   1
  -8   3   2 862.369 50.9767   2
   8   3  -2 827.022 52.9054   1
   8   3  -2 913.437 50.2166   4
  -8   3   2 765.165 51.7878   1
  -7  -3   2 27.6468 9.00545   2
  -7  -3   2 17.8976 6.69678   1
   7  -3  -2 37.1532 8.17014   4
   7  -3  -2 27.2885 3.09793   3
   7  -3  -2 10.2137 8.81415   1
  -7   3   2 21.0682 7.47804   1
  -7   3   2 25.6072 10.7724   2
   7   3  -2 19.7737 8.09247   1
   6  -3  -2 204.992 12.2574   3
  -6  -3   2 207.494 17.2477   2
   6  -3  -2 204.578 12.6620   3
  -6  -3   2 191.024 16.0857   1
   6  -3  -2 181.545 19.0150   1
  -6   3   2 194.291 17.3562   2
   6   3  -2 191.164 17.7094   1
  -6   3   2 186.014 17.6485   1
   6   3  -2 262.012 17.0068   4
  -5  -3   2 985.849 63.1333   4
   5  -3  -2 1098.29 65.3502   1
  -5  -3   2 1151.31 64.3035   1
   5  -3  -2 1019.37 63.3442   2
   5  -3  -2 1105.94 62.0183   3
  -5   3   2 1103.41 65.0837   1
  -5   3   2 1069.79 63.4591   2
   5   3  -2 1158.64 63.3825   4
   5   3  -2 1196.04 65.0452   1
  -4  -3   2 322.436 20.4034   2
  -4  -3   2 343.458 22.3360   1
   4  -3  -2 359.179 23.0324   1
  -4  -3   2 301.303 21.0495   4
  -4  -3   2 343.724 19.5370   3
   4  -3  -2 317.275 20.3786   2
   4  -3  -2 343.516 19.8149   3
  -4   3   2 329.721 22.5494   1
  -4   3   2 320.244 21.6377   2
   4   3  -2 360.702 21.2897   4
   4   3  -2 348.689 19.2986   3
   3  -3  -2 91.5242 9.40263   1
  -3  -3   2 82.6368 8.25700   4
  -3  -3   2 89.5516 6.51246   3
   3  -3  -2 80.9318 7.20575   2
  -3  -3   2 86.2981 8.58964   1
  -3  -3   2 83.2946 7.18205   2
   3  -3  -2 89.3108 6.82227   3
   3   3  -2 92.0101 6.21144   3
  -3   3   2 90.4261 8.53513   2
   3   3  -2 97.5769 8.58642   4
  -3   3   2 92.1145 9.33498   1
  -2  -3   2 620.163 36.7122   1
   2  -3  -2 610.756 36.8725   1
   2  -3  -2 591.535 35.4601   2
   2  -3  -2 676.269 35.6633   3
  -2  -3   2 624.747 35.8550   4
  -2  -3   2 618.614 35.5311   3
  -2  -3   2 631.203 35.5975   2
   2   3  -2 638.807 35.4851   3
  -2   3   2 597.831 35.6048   2
   2   3  -2 651.858 35.9263   4
   2   3  -2 611.696 35.5714   2
  -2   3   2 628.170 36.9804   1
   1  -3  -2 3016.45 156.695   3
  -1  -3   2 2847.68 156.498   2
  -1  -3   2 2860.86 157.468   1
   1  -3  -2 2561.16 156.294   2
  -1  -3   2 2780.92 156.604   4
   1  -3  -2 2856.84 157.424   1
  -1   3   2 2741.68 157.395   1
   1   3  -2 2935.00 156.637   3
   1   3  -2 2851.55 156.512   2
  -1   3   2 2534.79 156.281   2
   0  -3  -2 996.587 52.6421   3
   0  -3   2 933.902 53.2462   1
   0  -3   2 940.733 52.7357   3
   0  -3  -2 904.937 52.8089   1
   0  -3  -2 890.324 52.1147   2
   0  -3   2 1006.37 52.4406   2
   0   3  -2 1022.21 52.6801   3
   0   3   2 862.594 52.1187   2
   0   3   2 963.948 52.9106   1
   0   3  -2 920.276 53.2474   1
   0   3  -2 805.043 52.5492   2
  -1  -3  -2 843.843 50.7797   2
   1  -3   2 919.680 51.8940   1
   1  -3   2 931.304 51.2208   3
  -1  -3  -2 935.311 51.1604   3
   1  -3   2 896.039 51.0069   2
  -1  -3  -2 846.652 50.8162   1
  -1   3  -2 954.215 51.2000   3
  -1   3  -2 895.302 51.0135   2
   1   3   2 918.557 50.9195   1
   2  -3   2 2184.38 131.053   2
   2  -3   2 2405.04 132.071   1
  -2  -3  -2 2313.44 131.019   3
   2  -3   2 2286.56 131.081   3
  -2   3  -2 2356.97 131.984   1
  -2   3  -2 2444.19 131.067   3
  -2   3  -2 2369.49 131.117   2
  -3  -3  -2 385.306 22.2774   4
  -3  -3  -2 378.665 22.8224   2
   3  -3   2 385.666 24.1577   1
   3  -3   2 367.171 23.2464   2
   3  -3   2 382.132 22.7600   3
  -3  -3  -2 365.005 22.5343   3
  -3   3  -2 375.362 23.9205   1
  -3   3  -2 394.080 22.5774   3
  -3   3  -2 399.094 23.3045   2
   3   3   2 415.179 22.4579   1
  -4  -3  -2 -0.5978 2.36103   1
   4  -3   2 1.04344 4.16833   1
   4  -3   2 -3.9283 3.61346   3
  -4  -3  -2 2.71764 3.13650   4
  -4  -3  -2 0.86892 3.00339   3
  -4  -3  -2 4.01359 4.49222   2
  -4   3  -2 -2.2450 5.21561   2
   4   3   2 -2.0498 3.22317   1
  -4   3  -2 -0.3223 3.95715   1
  -4   3  -2 0.53965 3.07718   3
  -5  -3  -2 1475.25 87.8016   2
   5  -3   2 1604.69 88.2434   2
  -5  -3  -2 1557.26 87.7298   1
   5  -3   2 1452.55 87.3315   3
  -5  -3  -2 1514.62 87.2596   4
   5  -3   2 1553.28 89.6201   1
  -5   3  -2 1578.13 86.9823   3
  -5   3  -2 1526.49 89.1421   1
   5   3   2 1584.20 88.3094   1
  -5   3  -2 1613.28 88.2557   2
  -6  -3  -2 16.9880 7.05535   2
  -6  -3  -2 20.0450 5.13393   4
  -6  -3  -2 17.2311 3.64269   3
   6  -3   2 23.1342 4.94214   4
  -6  -3  -2 20.1915 4.64668   1
   6  -3   2 17.3355 5.20767   3
   6  -3   2 45.0602 8.43851   2
   6  -3   2 3.39418 6.63471   1
  -6   3  -2 16.1831 3.59098   3
   6   3   2 15.4431 6.21566   1
  -6   3  -2 7.66197 5.03187   1
  -6   3  -2 25.9022 8.25197   2
   7  -3   2 1.29013 5.10846   3
  -7  -3  -2 8.92737 8.16978   2
   7  -3   2 10.0787 9.38039   2
   7  -3   2 -5.7489 8.50700   1
  -7  -3  -2 9.95527 5.12159   1
   7  -3   2 2.70992 5.31882   4
  -7   3  -2 3.67097 3.22144   3
   7   3   2 5.30013 7.53302   1
  -7   3  -2 8.96798 9.48641   2
  -7   3  -2 -7.4243 6.45650   1
   8  -3   2 -7.2612 13.7468   1
  -8  -3  -2 5.38264 6.37606   1
   8  -3   2 11.1971 5.79174   3
   8  -3   2 8.96854 6.28140   4
  -8  -3  -2 1.84914 9.58591   2
   8   3   2 5.19164 9.48570   1
  -8   3  -2 6.87997 10.7934   2
  -8   3  -2 4.47449 7.86656   1
   9  -3   2 119.275 11.0757   4
  -9   3  -2 153.127 18.7532   2
 -10  -3  -2 92.6661 15.3364   2
 -10   3  -2 104.535 17.0430   2
 -11  -3  -2 33.9964 15.0638   2
 -11   3  -2 14.4806 16.6583   2
 -12  -3  -2 58.2938 17.4077   2
 -12   3  -2 29.0548 18.9184   2
 -12  -4   2 77.9915 18.6213   2
 -12   4   2 40.2751 20.7562   2
 -11  -4   2 243.963 23.4324   2
 -11   4   2 230.824 25.4305   2
 -10  -4   2 615.022 44.6588   2
 -10   4   2 747.735 48.4204   2
  -9   4   2 114.287 17.3210   2
   8  -4  -2 828.660 50.0776   4
  -8  -4   2 813.479 51.0665   2
   8  -4  -2 776.830 54.5711   1
  -8  -4   2 806.519 50.8511   1
   8   4  -2 848.656 50.4829   4
  -8   4   2 887.235 51.7572   2
  -8   4   2 762.928 53.0586   1
   8   4  -2 907.894 55.2773   1
  -7  -4   2 456.189 29.7283   2
   7  -4  -2 451.893 34.6330   1
   7  -4  -2 446.227 27.6904   3
  -7  -4   2 500.563 31.4740   1
  -7  -4   2 465.756 31.1546   2
  -7   4   2 491.402 33.1468   2
   7   4  -2 507.046 33.4404   1
   7   4  -2 502.031 30.6751   4
  -7   4   2 479.432 33.3633   1
   6  -4  -2 850.341 49.8424   2
  -6  -4   2 765.335 49.8875   4
   6  -4  -2 868.474 48.1929   3
  -6  -4   2 821.903 49.4775   2
   6  -4  -2 832.182 53.0135   1
  -6  -4   2 832.983 50.7399   1
  -6  -4   2 870.674 47.6284   3
   6  -4  -2 843.797 48.4113   3
   6   4  -2 906.023 52.3314   1
   6   4  -2 903.633 50.3921   4
  -6   4   2 876.381 52.4972   1
  -6   4   2 825.524 51.1171   2
  -5  -4   2 102.419 9.67071   4
  -5  -4   2 109.547 10.7970   1
   5  -4  -2 107.985 10.7699   2
  -5  -4   2 103.032 10.0755   2
   5  -4  -2 111.955 8.57617   3
  -5  -4   2 104.286 7.63155   3
   5  -4  -2 113.265 8.13319   3
   5  -4  -2 111.394 13.9376   1
  -5   4   2 94.7208 12.9086   1
   5   4  -2 130.710 12.7079   1
  -5   4   2 92.3530 10.2808   2
   5   4  -2 112.593 11.8045   4
  -4  -4   2 181.831 13.4788   1
   4  -4  -2 180.803 11.6035   3
   4  -4  -2 183.194 15.2464   1
   4  -4  -2 161.151 12.0909   2
  -4  -4   2 161.441 12.7051   4
   4  -4  -2 173.384 11.3016   3
   4   4  -2 191.970 14.2857   1
  -4   4   2 181.260 14.8416   1
  -4   4   2 167.660 13.9898   2
   4   4  -2 172.077 10.7966   3
   3  -4  -2 876.105 52.7179   1
  -3  -4   2 934.179 52.2232   1
   3  -4  -2 832.092 50.8254   2
  -3  -4   2 894.599 50.6886   3
  -3  -4   2 888.672 50.9538   2
  -3  -4   2 873.486 51.1262   4
  -3   4   2 890.927 51.2417   2
  -3   4   2 891.792 52.7313   1
   3   4  -2 945.279 52.6260   1
   3   4  -2 930.898 50.6035   3
  -2  -4   2 65.5292 5.84339   3
  -2  -4   2 45.2863 6.27532   1
   2  -4  -2 67.3838 5.61810   2
  -2  -4   2 68.6091 6.15511   4
   2  -4  -2 75.9248 7.55628   1
  -2  -4   2 63.1631 5.76527   2
  -2   4   2 69.7198 7.51764   1
   2   4  -2 64.7924 5.59649   3
   2   4  -2 71.5077 5.95510   2
   1  -4  -2 135.646 10.1263   1
  -1  -4   2 141.039 10.2940   1
  -1  -4   2 133.531 9.05658   2
   1  -4  -2 141.036 8.62232   2
  -1  -4   2 152.566 9.43915   4
  -1  -4   2 155.461 9.58831   3
  -1   4   2 126.874 9.98267   1
   1   4  -2 151.451 9.44670   3
   1   4  -2 144.997 9.18274   2
  -1   4   2 142.195 8.66931   2
   0  -4  -2 1602.46 93.8255   2
   0  -4   2 1644.74 94.9900   1
   0  -4   2 1729.28 94.1138   2
   0  -4  -2 1656.19 94.5291   1
   0  -4   2 1743.85 94.3297   3
   0  -4  -2 1761.39 94.3164   3
   0   4  -2 1750.75 94.3025   3
   0   4  -2 1606.40 94.0701   2
   0   4   2 1553.32 93.8270   2
   0   4   2 1697.56 94.5749   1
   0   4  -2 1711.14 95.0505   1
   1  -4   2 461.698 25.8085   3
   1  -4   2 429.068 25.5010   2
   1  -4   2 424.545 26.5384   1
  -1  -4  -2 424.951 25.1820   2
  -1  -4  -2 437.496 25.1972   1
  -1  -4  -2 462.752 25.6518   3
   1  -4   2 446.274 26.5989   1
  -1   4  -2 458.802 25.7748   3
  -1   4  -2 421.886 25.5100   2
   1   4   2 457.575 25.2225   1
   2  -4   2 3.10659 3.56612   2
  -2  -4  -2 -0.6590 2.80855   3
   2  -4   2 -0.5061 3.36213   3
   2  -4   2 -0.4850 3.15258   1
  -2  -4  -2 0.90372 2.49117   2
  -2   4  -2 3.56581 2.97957   1
  -2   4  -2 1.86741 2.91701   3
  -2   4  -2 1.36790 3.55927   2
   3  -4   2 2232.16 128.012   1
   3  -4   2 2146.27 126.722   2
   3  -4   2 2213.69 126.553   3
  -3  -4  -2 2252.27 126.462   3
  -3   4  -2 2298.18 126.847   2
  -3   4  -2 2329.90 126.507   3
  -3   4  -2 2298.38 127.953   1
  -4  -4  -2 493.350 27.4164   1
  -4  -4  -2 470.430 28.3107   2
   4  -4   2 458.341 27.9223   3
  -4  -4  -2 450.128 27.6493   3
   4  -4   2 464.067 28.7878   2
  -4  -4  -2 479.344 27.6097   4
  -4   4  -2 459.488 28.8791   2
  -4   4  -2 479.724 27.7099   3
   4   4   2 505.534 27.9620   1
  -4   4  -2 475.803 29.8065   1
   5  -4   2 787.664 45.6953   2
  -5  -4  -2 781.091 44.4776   4
  -5  -4  -2 767.060 45.2069   2
  -5  -4  -2 680.487 44.2009   3
   5  -4   2 750.640 47.3788   1
  -5  -4  -2 777.099 44.5303   1
   5  -4   2 748.602 44.6256   3
  -5   4  -2 803.512 45.8568   2
   5   4   2 822.349 45.3886   1
  -5   4  -2 791.311 44.2482   3
  -5   4  -2 812.668 46.8983   1
   6  -4   2 85.6943 9.42261   3
  -6  -4  -2 75.9793 7.58136   4
  -6  -4  -2 93.1909 8.21150   1
  -6  -4  -2 64.0207 7.51744   3
  -6  -4  -2 81.1554 9.31671   2
   6  -4   2 102.780 11.9819   1
   6  -4   2 77.8650 10.2230   2
  -6   4  -2 88.3883 10.6309   2
  -6   4  -2 83.6826 7.58159   3
  -6   4  -2 55.5953 8.68774   1
   6   4   2 90.5818 11.2423   1
  -7  -4  -2 1246.51 70.4139   1
  -7  -4  -2 1237.32 68.7372   3
   7  -4   2 1137.21 69.6510   3
  -7  -4  -2 1220.61 70.8608   2
   7  -4   2 1236.08 73.8954   1
  -7  -4  -2 1089.59 69.7688   4
   7  -4   2 1226.72 71.3625   2
   7  -4   2 1204.69 69.6599   4
  -7   4  -2 1309.19 71.9997   2
  -7   4  -2 1183.30 72.6363   1
   7   4   2 1308.75 72.1040   1
  -7   4  -2 1245.20 68.9130   3
  -8  -4  -2 269.585 19.2374   1
  -8  -4  -2 264.616 22.4406   2
   8  -4   2 259.247 18.3074   4
   8  -4   2 231.113 17.6064   3
  -8   4  -2 290.411 24.7888   2
   8   4   2 250.878 23.3403   1
  -8   4  -2 255.185 22.8747   1
   9  -4   2 41.1841 8.13358   4
  -9  -4  -2 40.4332 12.7051   2
  -9   4  -2 46.9225 13.9839   2
 -10  -4  -2 229.724 25.8606   2
 -10   4  -2 225.814 22.2837   2
 -11  -4  -2 83.9017 16.5228   2
 -11   4  -2 58.6553 18.2401   2
 -12  -4  -2 29.1675 17.4058   2
 -12   4  -2 21.7044 19.3215   2
 -12  -5   2 11.6030 17.8429   2
 -12   5   2 18.6452 20.7241   2
 -11  -5   2 43.5756 15.9069   2
 -11   5   2 74.0076 20.1081   2
 -10  -5   2 12.6023 14.1455   2
 -10   5   2 7.62962 16.2960   2
  -9  -5   2 2.18614 11.6632   2
  -9   5   2 9.19485 14.3575   2
  -8  -5   2 181.937 17.3473   1
   8  -5  -2 184.465 12.3694   3
   8  -5  -2 167.812 20.3308   1
   8  -5  -2 214.284 18.5254   4
  -8  -5   2 158.780 16.2412   2
  -8   5   2 172.841 18.2394   2
  -8   5   2 158.524 22.1397   1
  -7  -5   2 17.1416 8.19458   4
   7  -5  -2 22.0008 4.25025   3
  -7  -5   2 16.3165 9.16127   2
   7  -5  -2 21.6925 4.74526   3
  -7  -5   2 9.27908 6.45017   1
  -7  -5   2 15.7026 7.20262   2
   7  -5  -2 20.0496 8.47107   2
   7  -5  -2 19.6849 11.1344   1
  -7   5   2 23.6361 8.56612   1
   7   5  -2 15.0900 8.41672   1
  -7   5   2 23.0470 11.2101   2
  -6  -5   2 229.972 14.4305   3
   6  -5  -2 241.534 15.6278   3
   6  -5  -2 238.647 15.1293   3
   6  -5  -2 239.124 18.0205   2
  -6  -5   2 232.810 17.6535   2
  -6  -5   2 242.859 17.7591   1
  -6  -5   2 212.274 17.8186   4
   6   5  -2 263.981 20.2630   1
  -6   5   2 245.607 19.6881   2
  -6   5   2 259.585 21.0586   1
   5  -5  -2 21.5104 3.99691   3
   5  -5  -2 29.4438 7.87360   1
  -5  -5   2 25.0316 5.74074   1
  -5  -5   2 23.3063 5.72670   2
   5  -5  -2 13.4285 5.55841   2
   5  -5  -2 21.5487 4.35088   3
  -5  -5   2 23.6589 3.57297   3
  -5  -5   2 12.3851 6.05358   4
  -5   5   2 15.1535 7.76923   2
  -5   5   2 23.0481 7.90829   1
   5   5  -2 23.6703 6.55151   1
  -4  -5   2 782.583 46.5144   1
   4  -5  -2 761.547 44.8409   3
   4  -5  -2 780.305 45.3577   2
  -4  -5   2 735.234 45.4447   4
  -4  -5   2 814.329 44.7642   3
  -4  -5   2 797.653 45.4660   2
   4  -5  -2 783.679 47.7266   1
  -4   5   2 783.510 46.0357   2
  -4   5   2 797.975 47.7173   1
   4   5  -2 821.576 47.4162   1
   4   5  -2 797.121 44.6164   3
  -3  -5   2 302.268 18.7521   4
  -3  -5   2 303.244 19.7482   1
   3  -5  -2 295.288 20.6199   1
  -3  -5   2 327.468 18.2405   3
   3  -5  -2 289.338 18.4315   2
  -3  -5   2 314.894 18.6624   2
   3   5  -2 313.362 18.1231   3
  -3   5   2 292.677 18.9341   2
   3   5  -2 291.926 20.1178   1
   2  -5  -2 9.79194 2.92704   2
  -2  -5   2 2.79757 3.48940   4
   2  -5  -2 5.65509 3.25685   1
  -2  -5   2 10.6315 3.32233   3
  -2  -5   2 5.46095 3.31300   2
  -2  -5   2 10.8221 3.60845   1
   2   5  -2 16.7037 3.65997   1
   2   5  -2 7.85775 2.94320   3
   2   5  -2 2.55779 3.42004   2
  -2   5   2 8.27443 4.13770   1
  -2   5   2 15.2831 3.35993   2
   1  -5  -2 648.655 40.5074   1
  -1  -5   2 685.785 39.6174   2
  -1  -5   2 710.345 39.7952   3
   1  -5  -2 675.591 39.3397   2
  -1  -5   2 689.562 40.6394   1
  -1   5   2 700.917 40.7745   1
   1   5  -2 716.305 39.7243   2
   1   5  -2 746.402 39.8668   3
   0  -5   2 2576.93 141.634   2
   0  -5   2 2560.40 141.811   3
   0  -5  -2 2400.15 141.342   2
   0  -5   2 2584.29 142.661   1
   0  -5  -2 2476.39 142.082   1
   0   5  -2 2483.36 141.615   2
   0   5  -2 2594.24 141.815   3
   0   5   2 2549.49 142.131   1
  -1  -5  -2 2574.89 143.610   1
   1  -5   2 2536.55 143.871   3
   1  -5   2 2641.86 144.900   1
  -1  -5  -2 2437.63 143.457   2
   1  -5   2 2591.81 143.730   2
   1  -5   2 2633.44 144.949   1
  -1  -5  -2 2711.80 143.903   3
   1   5   2 2399.54 143.477   2
   1   5   2 2577.78 143.563   1
  -1   5  -2 2462.83 143.690   2
  -1   5  -2 2643.34 143.906   3
   2  -5   2 1.88015 3.67713   3
   2  -5   2 1.66403 3.32648   1
  -2  -5  -2 3.61271 3.31370   3
  -2  -5  -2 2.80577 3.01025   2
   2  -5   2 -0.2874 3.68479   2
  -2   5  -2 4.07212 3.38447   3
  -2   5  -2 1.99831 3.71138   1
  -2   5  -2 3.77149 4.02696   2
   3  -5   2 2098.36 119.000   3
   3  -5   2 2067.65 119.141   2
  -3  -5  -2 1964.93 118.872   2
  -3  -5  -2 2188.37 118.901   3
  -3   5  -2 2184.02 118.943   3
  -3   5  -2 2197.53 120.572   1
  -3   5  -2 2106.62 119.198   2
   4  -5   2 153.459 14.1636   1
   4  -5   2 155.221 12.5897   2
  -4  -5  -2 158.960 10.7829   4
  -4  -5  -2 152.716 10.8502   3
   4  -5   2 153.715 11.3690   3
  -4   5  -2 145.312 13.4747   1
  -4   5  -2 148.934 11.0340   3
  -4   5  -2 160.506 13.8051   2
  -5  -5  -2 201.929 16.2175   2
   5  -5   2 212.590 18.6976   1
  -5  -5  -2 223.594 13.3820   1
   5  -5   2 206.724 14.7512   3
  -5  -5  -2 209.331 13.9572   3
  -5  -5  -2 203.674 14.3963   4
   5  -5   2 195.019 16.4777   2
  -5   5  -2 202.599 17.3113   1
   5   5   2 229.473 14.8144   1
  -5   5  -2 206.105 17.0308   2
  -5   5  -2 221.735 14.1423   3
   6  -5   2 12.9266 8.53982   1
  -6  -5  -2 16.9469 7.60475   2
   6  -5   2 20.6003 8.43045   2
  -6  -5  -2 23.7383 5.61744   4
  -6  -5  -2 25.3566 4.43049   3
   6  -5   2 18.8558 5.62753   3
  -6  -5  -2 23.5558 4.32110   1
  -6   5  -2 27.0008 8.11775   1
  -6   5  -2 18.9796 4.45045   3
  -6   5  -2 27.4180 9.26465   2
   6   5   2 22.7302 6.56190   1
   7  -5   2 177.883 18.4930   2
  -7  -5  -2 155.969 10.5062   3
  -7  -5  -2 147.745 12.4744   1
  -7  -5  -2 129.004 11.0025   3
   7  -5   2 165.083 19.7873   1
   7  -5   2 185.699 13.4449   3
  -7  -5  -2 150.212 13.7346   4
  -7  -5  -2 172.747 16.1110   2
  -7   5  -2 200.886 18.5846   2
  -7   5  -2 169.874 17.8185   1
   7   5   2 148.931 18.6027   1
   8  -5   2 52.3135 7.22637   3
  -8  -5  -2 46.5546 10.7137   2
  -8  -5  -2 42.2640 4.43934   3
   8  -5   2 37.5445 7.73695   4
  -8  -5  -2 32.2578 3.77094   3
  -8   5  -2 32.5066 12.5122   2
  -8   5  -2 28.5136 11.1991   1
   8   5   2 44.6018 10.6446   1
   9  -5   2 34.5706 7.98427   4
  -9  -5  -2 17.7988 11.2908   2
   9  -5   2 5.58154 5.83109   3
  -9   5  -2 -0.6014 13.4193   2
 -10  -5  -2 52.6233 13.8370   2
 -10   5  -2 59.5874 16.9414   2
 -11  -5  -2 -3.4585 14.4188   2
 -11   5  -2 2.82682 17.1732   2
 -12  -5  -2 -8.4992 17.0251   2
 -12   5  -2 -10.792 18.5368   2
 -11  -6   2 3.04102 14.6746   2
 -11   6   2 27.4358 18.7970   2
 -10  -6   2 14.8484 13.3927   2
 -10   6   2 9.26567 16.7004   2
   9  -6  -2 40.0493 4.97295   3
  -9  -6   2 26.1146 12.7517   2
  -9   6   2 33.1633 25.9766   2
   8  -6  -2 13.4202 4.71158   3
  -8  -6   2 13.6766 10.8924   2
  -8  -6   2 20.0023 7.98102   1
   8  -6  -2 17.7512 5.47376   3
   8  -6  -2 18.2527 13.1226   1
  -8   6   2 25.1050 13.8702   2
  -8   6   2 26.6182 19.3702   1
   7  -6  -2 60.0703 6.79397   3
  -7  -6   2 72.2129 9.93792   4
  -7  -6   2 42.1101 8.97623   2
   7  -6  -2 106.778 20.4870   1
  -7  -6   2 68.4035 5.68550   3
  -7  -6   2 59.6038 5.46729   3
   7  -6  -2 85.7863 10.3107   2
  -7  -6   2 72.6121 9.61621   1
   7  -6  -2 60.1824 6.32771   3
   7   6  -2 61.0334 11.4133   1
  -7   6   2 61.2699 12.6224   2
  -7   6   2 79.1591 13.2574   1
  -6  -6   2 80.5337 7.54546   3
  -6  -6   2 69.7783 9.27290   4
   6  -6  -2 88.8102 9.35895   2
  -6  -6   2 92.8474 11.2051   1
   6  -6  -2 106.957 13.7136   1
   6  -6  -2 83.9822 9.38560   3
   6  -6  -2 79.0519 8.78024   3
  -6  -6   2 96.7272 9.47469   2
  -6   6   2 121.065 15.9423   1
   6   6  -2 92.6802 12.0362   1
  -6   6   2 94.8491 12.2148   2
  -5  -6   2 28.1934 6.79073   4
   5  -6  -2 24.5774 4.79451   3
  -5  -6   2 29.2183 4.19665   3
  -5  -6   2 40.9720 6.54254   1
   5  -6  -2 15.6707 6.97714   1
  -5  -6   2 33.9411 6.23536   2
   5  -6  -2 33.1707 6.35099   2
  -5   6   2 18.4036 7.37011   1
  -5   6   2 23.3828 8.19476   2
   5   6  -2 38.5607 8.09955   1
  -4  -6   2 35.9010 5.57378   2
   4  -6  -2 37.9439 7.35418   1
  -4  -6   2 31.4485 5.94527   4
   4  -6  -2 29.3755 4.74437   3
   4  -6  -2 30.8608 5.58380   2
  -4  -6   2 28.9873 5.68658   1
  -4  -6   2 31.3389 4.31517   3
  -4   6   2 30.8448 7.89256   1
   4   6  -2 44.6078 7.13767   1
  -4   6   2 28.0763 6.62498   2
   3  -6  -2 244.295 18.5709   1
  -3  -6   2 268.867 16.9117   4
   3  -6  -2 252.400 16.2745   3
  -3  -6   2 267.861 16.4654   2
   3  -6  -2 243.536 16.3063   2
  -3  -6   2 251.072 16.0795   3
  -3  -6   2 250.631 17.4205   1
   3   6  -2 271.379 16.0268   3
  -3   6   2 256.328 16.8768   2
   3   6  -2 282.441 18.1057   1
  -3   6   2 266.667 18.8923   1
   3   6  -2 261.561 16.5164   2
   2  -6  -2 844.536 48.7815   2
  -2  -6   2 870.760 49.1124   4
  -2  -6   2 860.883 49.0298   2
  -2  -6   2 868.957 49.0916   3
  -2  -6   2 848.901 50.1359   1
   2  -6  -2 838.791 50.4841   1
   2   6  -2 871.014 49.0481   3
  -2   6   2 809.522 48.8481   2
   2   6  -2 918.173 50.3466   1
   2   6  -2 858.628 49.0547   2
  -2   6   2 882.801 50.7549   1
   1  -6  -2 97.7400 8.80457   1
  -1  -6   2 100.935 9.00120   1
  -1  -6   2 105.665 8.19275   3
  -1  -6   2 102.807 7.88628   2
   1  -6  -2 95.9398 7.24498   2
   1   6  -2 101.348 8.05067   2
   1   6  -2 110.625 8.51481   3
  -1   6   2 104.073 9.01435   1
  -1   6   2 104.530 7.39391   2
   0  -6   2 1319.94 75.5219   2
   0  -6   2 1325.20 76.7209   1
   0  -6  -2 1318.97 75.2279   2
   0  -6  -2 1313.40 76.0233   1
   0  -6   2 1362.59 75.8095   3
   0  -6   2 1336.19 76.6758   1
   0   6   2 1314.67 75.2522   2
   0   6   2 1381.59 76.1257   1
   0   6  -2 1376.18 75.7607   3
   0   6  -2 1351.11 75.5865   2
   1  -6   2 312.427 18.3191   2
   1  -6   2 290.286 19.5358   1
   1  -6   2 298.149 19.5696   1
   1  -6   2 303.453 18.4389   3
  -1  -6  -2 294.355 17.6845   1
  -1  -6  -2 291.965 17.6211   2
   1   6   2 304.917 17.6829   1
   1   6   2 281.403 17.6790   2
  -1   6  -2 327.198 18.4169   3
  -1   6  -2 297.198 18.2020   2
  -2  -6  -2 233.715 13.9638   3
   2  -6   2 207.571 14.4113   2
   2  -6   2 212.160 14.1665   3
  -2  -6  -2 213.769 13.4902   2
   2  -6   2 215.105 15.6684   1
  -2   6  -2 216.394 14.0728   3
  -2   6  -2 219.693 14.7037   2
  -2   6  -2 218.711 15.6341   1
   3  -6   2 31.8573 5.13922   3
   3  -6   2 45.0866 5.78111   2
  -3  -6  -2 35.6770 5.03199   2
   3  -6   2 35.4955 7.05348   1
  -3  -6  -2 45.2278 5.05579   3
  -3   6  -2 24.9195 4.69710   3
  -3   6  -2 34.4288 5.94744   1
  -3   6  -2 38.8281 6.14864   2
  -4  -6  -2 79.3535 7.85987   3
   4  -6   2 67.5901 8.03067   2
  -4  -6  -2 68.7345 7.00558   2
   4  -6   2 69.5843 9.70988   1
   4  -6   2 72.9645 8.54331   3
  -4  -6  -2 71.8115 7.83950   4
  -4   6  -2 74.9177 6.89905   3
  -4   6  -2 72.9843 9.10586   1
  -4   6  -2 75.8171 8.60330   2
  -5  -6  -2 451.832 29.9434   2
   5  -6   2 496.936 30.9934   2
   5  -6   2 540.622 29.9762   3
   5  -6   2 491.763 33.3823   1
  -5  -6  -2 503.385 29.5602   4
  -5  -6  -2 490.329 29.3836   3
  -5   6  -2 490.758 32.5892   1
  -5   6  -2 514.781 31.5039   2
  -6  -6  -2 7.08570 6.24877   2
  -6  -6  -2 3.24442 4.34822   3
   6  -6   2 -12.927 8.32825   1
  -6  -6  -2 11.0843 7.48068   2
   6  -6   2 0.93853 5.45931   3
  -6  -6  -2 5.16323 3.90931   3
  -6  -6  -2 7.81103 5.65307   4
   6  -6   2 5.61881 8.12340   2
  -6  -6  -2 5.47799 3.25822   1
  -6   6  -2 7.40393 9.49447   2
  -6   6  -2 2.38192 6.05317   3
   6   6   2 11.6695 5.33212   1
  -6   6  -2 -1.0624 6.56436   1
  -7  -6  -2 -1.9981 4.12956   1
  -7  -6  -2 -9.3084 7.17234   2
   7  -6   2 3.66592 9.75999   1
  -7  -6  -2 7.55144 8.86999   2
  -7  -6  -2 1.13534 3.66322   3
  -7  -6  -2 -1.6677 4.02359   3
   7  -6   2 7.02476 6.06114   3
  -7  -6  -2 1.34997 6.31628   4
   7  -6   2 -3.5107 10.5860   2
  -7   6  -2 -2.1712 10.6017   2
   7   6   2 -10.336 6.94569   1
  -7   6  -2 -16.316 7.57184   1
  -8  -6  -2 45.7493 11.1410   2
  -8  -6  -2 69.3663 7.71339   1
  -8  -6  -2 44.0339 8.23700   4
   8  -6   2 43.5799 8.34660   4
  -8  -6  -2 58.9313 5.34573   3
   8  -6   2 75.1243 8.39752   3
  -8   6  -2 88.1948 13.7072   2
   8   6   2 53.2089 11.0330   1
   9  -6   2 114.611 12.9454   3
  -9  -6  -2 102.220 15.0116   2
   9  -6   2 144.060 14.6319   4
  -9   6  -2 116.723 16.6963   2
 -10  -6  -2 62.0317 13.7679   2
 -10   6  -2 35.7400 17.1502   2
 -11  -6  -2 17.6056 14.6001   2
 -11   6  -2 53.8613 18.2450   2
 -11  -7   2 62.9605 16.5598   2
 -11   7   2 28.4148 19.5187   2
 -10  -7   2 3.19654 13.6586   2
 -10   7   2 10.9744 17.8432   2
  -9  -7   2 -22.372 11.6271   2
   9  -7  -2 2.06956 5.01990   3
  -9   7   2 4.15558 26.1820   2
   8  -7  -2 19.8279 6.18470   3
  -8  -7   2 18.8540 11.1677   2
  -8  -7   2 13.9674 9.08445   4
   8  -7  -2 25.1397 5.53101   3
  -8   7   2 22.5586 13.7983   2
  -8   7   2 10.4333 11.1386   1
   7  -7  -2 276.191 18.3076   3
  -7  -7   2 260.238 21.2927   4
  -7  -7   2 300.259 17.2283   3
   7  -7  -2 260.230 27.4074   1
  -7  -7   2 286.104 17.2068   3
   7  -7  -2 277.045 21.8036   2
  -7  -7   2 288.440 21.0118   1
  -7   7   2 263.876 25.3201   2
  -7   7   2 268.868 25.6991   1
   7   7  -2 277.005 25.2135   1
   6  -7  -2 888.594 51.9682   3
   6  -7  -2 869.256 52.8210   2
  -6  -7   2 928.576 53.2544   2
  -6  -7   2 954.205 54.0216   1
   6  -7  -2 889.892 57.0622   1
  -6  -7   2 891.050 53.1871   4
  -6  -7   2 939.843 51.6172   3
  -6   7   2 842.551 54.1302   2
   6   7  -2 933.396 55.8473   1
  -5  -7   2 89.8855 9.22620   4
  -5  -7   2 88.4266 10.9405   1
  -5  -7   2 100.621 10.6160   2
   5  -7  -2 91.8676 9.31814   3
  -5  -7   2 89.3692 8.41922   3
   5  -7  -2 107.922 12.8053   1
   5  -7  -2 83.2127 8.55441   2
  -5   7   2 75.8291 10.5767   2
  -5   7   2 69.9673 10.2929   1
   5   7  -2 90.6306 10.8595   1
   4  -7  -2 249.821 17.1723   2
  -4  -7   2 258.001 17.3542   4
   4  -7  -2 252.425 16.9459   3
   4  -7  -2 244.572 20.2362   1
  -4  -7   2 276.317 17.3849   2
  -4  -7   2 267.496 18.2290   1
  -4  -7   2 265.718 16.5673   3
  -4   7   2 254.696 18.0180   2
  -4   7   2 259.786 20.5009   1
   4   7  -2 269.318 19.1007   1
   3  -7  -2 105.049 9.34483   2
   3  -7  -2 130.482 12.4466   1
  -3  -7   2 123.922 9.86275   2
  -3  -7   2 109.030 10.3157   4
  -3  -7   2 110.949 9.54646   3
  -3  -7   2 120.587 10.7923   1
   3  -7  -2 102.169 9.87493   3
   3   7  -2 124.139 9.39878   3
  -3   7   2 112.402 10.3190   2
   3   7  -2 115.081 11.2148   1
   3   7  -2 120.698 10.0323   2
  -3   7   2 119.409 12.5213   1
  -2  -7   2 401.677 24.5634   2
   2  -7  -2 394.889 24.7055   3
   2  -7  -2 387.811 26.1350   1
  -2  -7   2 405.401 24.5999   4
   2  -7  -2 400.182 24.1854   2
  -2  -7   2 415.643 25.7073   1
  -2  -7   2 435.351 24.7944   3
  -2   7   2 418.466 26.4626   1
  -2   7   2 401.483 24.3793   2
   2   7  -2 437.898 24.8669   2
   2   7  -2 434.604 25.8481   1
   2   7  -2 427.175 24.6531   3
   1  -7  -2 33.6127 3.75292   2
  -1  -7   2 36.3861 4.91570   3
   1  -7  -2 22.9545 4.28151   1
  -1  -7   2 21.0694 4.97041   1
  -1  -7   2 29.9979 4.53541   2
  -1   7   2 32.4860 4.99722   1
  -1   7   2 30.2964 3.92103   2
   1   7  -2 39.1042 4.84011   2
   1   7  -2 31.9980 4.69595   3
   0  -7  -2 31.2140 4.19682   1
   0  -7   2 27.4764 4.56945   2
   0  -7   2 27.9936 4.84828   1
   0  -7  -2 32.7254 3.62605   2
   0  -7   2 34.2486 5.19502   3
   0  -7   2 29.2315 4.78310   1
   0   7  -2 31.2885 4.53198   2
   0   7  -2 28.6587 4.75119   3
   0   7   2 29.0823 4.31505   1
   0   7   2 24.0386 3.64885   2
   1  -7   2 663.008 39.2990   2
   1  -7   2 655.152 39.5254   3
  -1  -7  -2 672.220 39.1424   1
   1  -7   2 712.427 40.8593   1
  -1  -7  -2 687.914 38.9292   2
   1  -7   2 683.075 40.8731   1
   1   7   2 685.635 39.1328   1
   1   7   2 678.065 38.9993   2
  -1   7  -2 695.499 39.4655   2
  -1   7  -2 699.645 39.6447   3
  -2  -7  -2 156.135 10.5044   2
   2  -7   2 156.124 11.1281   2
   2  -7   2 145.104 11.7249   3
   2  -7   2 142.201 13.0309   1
  -2   7  -2 143.349 11.4443   2
  -3  -7  -2 145.659 15.4120   2
  -3  -7  -2 203.759 13.1614   3
   3  -7   2 192.848 15.8738   1
   3  -7   2 181.013 13.5457   2
   3  -7   2 178.576 13.6772   3
  -3   7  -2 185.920 15.4138   1
  -3   7  -2 184.154 13.3326   3
  -3   7  -2 196.400 14.0742   2
   4  -7   2 1603.21 93.9807   1
   4  -7   2 1529.95 91.7172   2
  -4  -7  -2 1568.22 91.4291   2
   4  -7   2 1597.02 91.4338   3
  -4  -7  -2 1705.47 91.2677   3
  -4   7  -2 1700.39 91.3718   3
  -4   7  -2 1578.02 93.5815   1
  -4   7  -2 1614.50 92.0362   2
   5  -7   2 127.106 16.1164   1
  -5  -7  -2 115.034 10.2718   2
  -5  -7  -2 118.150 10.4902   4
   5  -7   2 109.904 11.3036   3
  -5  -7  -2 117.680 10.3524   3
   5  -7   2 112.224 10.9891   2
  -5   7  -2 125.763 10.6509   3
  -5   7  -2 97.8083 11.7628   2
  -5   7  -2 110.019 14.4106   1
   6  -7   2 5.54868 8.75562   1
  -6  -7  -2 3.69529 6.66113   2
  -6  -7  -2 -6.8260 7.30124   2
   6  -7   2 3.80174 5.87237   3
  -6  -7  -2 7.78414 5.81396   4
  -6  -7  -2 4.56729 4.80853   3
   6  -7   2 6.13590 8.85755   2
  -6  -7  -2 0.92309 4.39119   3
  -6   7  -2 0.34382 8.28524   1
  -6   7  -2 12.8018 9.86253   2
  -6   7  -2 11.7584 5.31800   3
  -7  -7  -2 203.649 18.4911   2
   7  -7   2 214.228 23.8866   1
  -7  -7  -2 188.847 16.4341   4
  -7  -7  -2 218.546 14.0579   3
  -7  -7  -2 191.789 14.6161   3
   7  -7   2 228.001 16.4275   3
  -7   7  -2 210.232 21.3446   2
  -7   7  -2 213.183 21.8003   1
  -8  -7  -2 84.6535 7.49722   3
   8  -7   2 62.2724 8.77450   3
  -8  -7  -2 70.4863 9.43451   4
  -8  -7  -2 60.2566 12.0284   2
  -8  -7  -2 68.2716 8.37748   3
   8   7   2 80.9978 10.0863   1
  -8   7  -2 82.3436 17.1957   2
  -9  -7  -2 425.636 30.9733   2
   9  -7   2 435.111 27.7612   3
  -9   7  -2 397.518 34.9547   2
 -10  -7  -2 10.5012 13.2334   2
 -10   7  -2 6.09487 17.1177   2
 -11  -7  -2 187.930 19.9099   2
 -11   7  -2 152.279 22.4153   2
 -11  -8   2 -1.6579 15.5721   2
 -11   8   2 -23.117 18.9712   2
 -10  -8   2 17.3365 14.0554   2
 -10   8   2 -4.3189 17.2767   2
  -9  -8   2 282.631 25.2973   2
   9  -8  -2 266.971 18.2719   3
  -9   8   2 252.275 24.6412   2
  -8  -8   2 -7.5638 8.93199   4
   8  -8  -2 -2.5519 5.75567   3
   8  -8  -2 0.82300 6.66158   3
  -8  -8   2 0.93532 3.09169   3
  -8   8   2 -3.5456 12.8193   1
  -8   8   2 -14.247 13.0996   2
  -7  -8   2 34.4413 4.85666   3
   7  -8  -2 28.9568 8.89995   2
   7  -8  -2 37.9781 7.23468   3
  -7  -8   2 24.7693 8.63809   4
   7  -8  -2 26.0737 6.35761   3
   7  -8  -2 4.86683 12.3655   1
  -7  -8   2 33.0622 7.79142   1
  -7   8   2 46.8512 12.6409   1
   7   8  -2 26.0517 11.3055   1
  -7   8   2 35.6966 13.0149   2
   6  -8  -2 -1.8716 7.34492   2
  -6  -8   2 -0.0718 5.80973   1
   6  -8  -2 9.07392 14.5750   1
  -6  -8   2 -1.9385 4.25269   3
  -6  -8   2 1.76264 6.99107   2
   6  -8  -2 1.96091 5.58605   3
  -6  -8   2 0.34923 7.41860   4
  -6   8   2 0.64609 9.18519   1
  -6   8   2 7.49672 10.2556   2
   6   8  -2 2.93450 7.75902   1
   5  -8  -2 19.6206 9.48747   1
   5  -8  -2 24.1032 5.99665   3
  -5  -8   2 28.1336 6.32521   1
  -5  -8   2 22.0732 4.96034   3
  -5  -8   2 21.2779 6.85924   4
  -5  -8   2 36.1336 6.99230   2
   5  -8  -2 26.4913 6.81335   2
   5   8  -2 29.5547 7.28016   1
  -5   8   2 17.1791 8.96663   2
  -5   8   2 23.9442 9.33704   1
   4  -8  -2 31.4497 8.39722   1
   4  -8  -2 28.3021 5.80192   3
  -4  -8   2 34.7473 6.33750   1
  -4  -8   2 21.7261 6.53941   4
   4  -8  -2 38.3547 6.08469   2
  -4  -8   2 23.1683 5.04720   3
  -4  -8   2 31.6319 6.39699   2
  -4   8   2 29.0901 7.57430   2
   4   8  -2 31.6344 6.64772   1
  -4   8   2 24.0752 6.95659   1
   3  -8  -2 135.116 13.6350   1
  -3  -8   2 139.273 11.6023   4
   3  -8  -2 125.707 11.4349   3
  -3  -8   2 141.244 11.1421   2
  -3  -8   2 120.317 10.6689   3
  -3  -8   2 131.533 11.9535   1
   3  -8  -2 129.063 10.5176   2
   3   8  -2 127.446 11.2890   2
  -3   8   2 135.436 11.6660   2
  -3   8   2 138.874 13.9352   1
   3   8  -2 148.190 12.2772   1
   2  -8  -2 23.0730 5.51804   3
   2  -8  -2 30.9085 4.63202   2
  -2  -8   2 30.2737 5.61865   1
  -2  -8   2 26.9026 5.13679   2
  -2  -8   2 23.6975 5.13164   3
   2  -8  -2 36.0528 6.64374   1
  -2   8   2 40.9348 6.85083   1
   2   8  -2 26.2779 5.39219   2
  -2   8   2 31.3604 4.95861   2
   2   8  -2 38.0573 6.06479   1
  -1  -8   2 33.1375 5.00823   2
  -1  -8   2 26.8668 4.89003   1
   1  -8  -2 27.0248 5.33782   1
  -1  -8   2 31.6387 5.57721   3
   1  -8  -2 26.4095 5.55191   3
  -1  -8   2 26.9980 5.08353   1
   1  -8  -2 27.3826 3.99817   2
   1   8  -2 34.2435 5.33954   2
  -1   8   2 35.8895 4.48986   2
  -1   8   2 38.9792 6.48645   1
   1   8  -2 29.7970 5.35718   3
   0  -8  -2 29.6181 4.49169   1
   0  -8   2 27.1421 4.96661   2
   0  -8   2 26.6475 5.53008   1
   0  -8  -2 35.7283 4.12211   2
   0  -8   2 30.8468 5.57247   1
   0  -8   2 29.5788 5.47570   3
   0   8  -2 25.4334 5.18316   3
   0   8   2 27.8372 4.27466   2
   0   8   2 31.4613 5.99709   1
   0   8  -2 22.9377 5.02908   2
   1  -8   2 -2.3048 4.50077   2
   1  -8   2 -2.2322 4.41506   1
  -1  -8  -2 0.92357 2.62345   1
   1  -8   2 -5.2488 4.94972   3
   1  -8   2 2.91640 4.59687   1
  -1  -8  -2 2.55698 3.19716   2
   1   8   2 -3.6559 3.76850   2
  -1   8  -2 -3.6954 4.63380   2
  -1   8  -2 1.42278 4.69085   3
   2  -8   2 625.722 38.3561   1
  -2  -8  -2 594.408 35.7840   2
   2  -8   2 617.121 36.4937   3
   2  -8   2 629.004 36.4754   2
  -2   8  -2 652.536 36.5588   3
  -2   8  -2 607.799 36.6097   2
  -3  -8  -2 193.179 14.0942   3
   3  -8   2 198.871 17.0454   1
   3  -8   2 193.905 14.6714   3
   3  -8   2 187.410 14.3927   2
  -3  -8  -2 186.877 13.8616   2
  -3   8  -2 189.214 16.4551   1
  -3   8  -2 209.027 14.4385   3
  -3   8  -2 207.724 15.1664   2
  -4  -8  -2 11.4535 5.49108   2
   4  -8   2 1.39708 7.41707   1
   4  -8   2 -1.0094 5.54991   3
  -4  -8  -2 1.33694 4.79032   3
   4  -8   2 5.19772 6.67278   2
  -4   8  -2 11.1477 5.58310   3
  -4   8  -2 6.46051 7.47231   2
  -4   8  -2 -3.1509 5.78280   1
  -5  -8  -2 483.407 29.5865   2
   5  -8   2 424.819 29.9014   2
  -5  -8  -2 485.653 28.6658   3
  -5  -8  -2 467.813 28.7394   4
  -5  -8  -2 480.211 28.5090   3
   5  -8   2 492.536 29.1947   3
   5  -8   2 440.690 33.1577   1
  -5   8  -2 464.177 32.5159   1
  -5   8  -2 484.149 31.4517   2
  -5   8  -2 494.098 28.9020   3
  -6  -8  -2 263.036 20.3256   2
   6  -8   2 261.432 21.8478   2
  -6  -8  -2 291.630 18.9633   3
  -6  -8  -2 279.790 18.5313   3
   6  -8   2 284.665 19.9632   3
  -6  -8  -2 293.830 19.5981   4
  -6   8  -2 304.514 19.3079   3
  -6   8  -2 306.476 23.4115   2
  -7  -8  -2 83.8250 9.14604   4
   7  -8   2 59.8081 8.39262   3
  -7  -8  -2 83.2111 11.3840   2
   7  -8   2 26.7530 11.9683   1
  -7  -8  -2 65.7756 6.54147   3
  -7   8  -2 56.5475 13.2236   1
  -7   8  -2 63.5257 14.0155   2
   8  -8   2 17.5763 7.71624   3
  -8  -8  -2 12.9584 5.29803   3
  -8  -8  -2 1.72051 7.52196   4
  -8  -8  -2 10.5975 4.43873   3
  -8   8  -2 -0.1761 13.5658   2
   9  -8   2 112.753 11.4851   3
  -9  -8  -2 132.099 15.1618   2
  -9  -8  -2 108.124 12.1453   4
  -9   8  -2 128.289 18.9565   2
 -10  -8  -2 -2.0730 13.6590   2
 -10   8  -2 -1.4283 17.5264   2
 -11  -8  -2 -9.5257 14.4704   2
 -11   8  -2 -14.895 17.9158   2
 -11  -9   2 104.635 18.2487   2
 -11   9   2 48.5275 21.8801   2
 -10  -9   2 -20.638 13.8412   2
 -10   9   2 -6.5588 17.3793   2
  -9  -9   2 13.1371 13.1084   2
  -9  -9   2 -3.2578 9.97653   4
   9  -9  -2 23.8869 7.03599   3
  -9   9   2 -5.7927 16.1360   2
  -8  -9   2 3.63788 4.11141   3
  -8  -9   2 0.77740 4.57027   3
   8  -9  -2 -0.0018 7.45557   3
   8  -9  -2 -0.4732 6.58333   3
  -8   9   2 -0.1296 14.7941   2
  -7  -9   2 245.823 20.9977   4
  -7  -9   2 279.190 16.9806   3
   7  -9  -2 259.102 19.3224   3
   7  -9  -2 263.273 18.4542   3
   7  -9  -2 243.948 28.9417   1
   7  -9  -2 195.329 21.4523   2
  -7  -9   2 272.636 20.3717   1
  -7   9   2 238.494 26.1593   1
   7   9  -2 270.302 25.1356   1
  -7   9   2 262.731 26.2353   2
  -6  -9   2 -1.2756 5.83639   1
   6  -9  -2 5.40304 6.10649   3
   6  -9  -2 1.45615 7.44401   2
   6  -9  -2 -28.030 10.1315   1
  -6  -9   2 -0.3793 4.85532   3
  -6  -9   2 2.83215 7.87482   4
   6   9  -2 4.08430 8.02266   1
  -6   9   2 -12.978 8.26991   1
  -6   9   2 -4.6254 10.2884   2
   5  -9  -2 149.205 13.4090   3
   5  -9  -2 180.555 19.2643   1
  -5  -9   2 143.382 14.1290   2
   5  -9  -2 146.083 14.5929   2
  -5  -9   2 168.101 12.6159   3
  -5  -9   2 158.797 14.2708   1
  -5  -9   2 148.414 14.3737   4
   5   9  -2 157.890 15.5260   1
  -5   9   2 167.306 18.4585   1
  -5   9   2 150.980 14.3769   2
   4  -9  -2 1855.91 105.903   3
  -4  -9   2 1883.24 105.671   3
  -4  -9   2 1864.23 105.995   2
  -4  -9   2 1825.64 105.942   4
   4  -9  -2 1813.11 105.794   2
  -4  -9   2 1901.74 107.155   1
   4  -9  -2 1888.07 108.758   1
   4   9  -2 1916.66 107.364   1
  -4   9   2 1852.60 106.184   2
  -4   9   2 1898.59 108.895   1
   3  -9  -2 196.406 15.0378   3
   3  -9  -2 199.159 14.1630   2
  -3  -9   2 218.812 15.6080   1
  -3  -9   2 185.421 14.3443   2
   3  -9  -2 204.622 17.1031   1
  -3  -9   2 203.389 14.8870   4
  -3  -9   2 189.248 14.4370   3
  -3   9   2 182.224 14.8439   2
   3   9  -2 187.534 15.2542   1
  -3   9   2 191.204 16.9660   1
   3   9  -2 208.234 15.2718   2
  -2  -9   2 238.431 15.4552   2
   2  -9  -2 217.389 17.2830   1
  -2  -9   2 226.997 15.9598   3
   2  -9  -2 222.853 14.8982   2
   2  -9  -2 229.785 16.3902   3
  -2  -9   2 225.482 16.4643   1
   2   9  -2 224.489 15.6761   2
  -2   9   2 233.492 17.5514   1
  -2   9   2 217.793 15.2184   2
   2   9  -2 233.431 15.4009   3
   1  -9  -2 29.5170 6.29088   3
  -1  -9   2 38.7433 6.34841   1
  -1  -9   2 45.2201 6.42913   3
   1  -9  -2 33.5039 5.65165   1
  -1  -9   2 41.4183 7.59577   1
  -1  -9   2 37.1188 5.75932   2
   1  -9  -2 33.6057 4.73353   2
  -1   9   2 49.5086 7.02425   1
   1   9  -2 38.5560 6.08326   2
  -1   9   2 36.1759 5.21522   2
   1   9  -2 57.3949 6.25042   3
   0  -9   2 187.851 13.7253   2
   0  -9  -2 204.059 15.0816   1
   0  -9   2 227.288 15.5409   1
   0  -9  -2 196.031 12.9991   2
   0  -9   2 206.093 14.8520   3
   0  -9   2 201.544 15.2522   1
   0  -9  -2 194.731 14.3838   3
   0   9  -2 193.851 13.9211   2
   0   9  -2 192.808 14.1166   3
   0   9   2 186.904 14.0920   1
   0   9   2 185.732 13.1401   2
   1  -9   2 1053.52 60.5775   3
  -1  -9  -2 1073.04 60.6739   3
  -1  -9  -2 1039.46 59.8626   2
   1  -9   2 1041.55 60.2516   2
   1  -9   2 1084.32 62.0452   1
   1  -9   2 1084.23 62.2402   1
  -1  -9  -2 994.452 60.5537   1
  -1   9  -2 1026.99 60.2946   2
  -1   9  -2 1114.71 60.7101   3
   1   9   2 1042.86 59.9454   2
   2  -9   2 1257.33 72.0995   3
   2  -9   2 1222.40 71.7211   2
  -2  -9  -2 1249.18 71.9541   3
  -2  -9  -2 1268.83 71.4272   2
   2  -9   2 1289.16 74.0581   1
   2   9   2 1209.37 71.4265   2
  -2   9  -2 1250.19 71.8584   2
  -2   9  -2 1329.66 72.0796   3
  -3  -9  -2 601.137 32.9091   3
   3  -9   2 519.812 35.5895   1
  -3  -9  -2 561.488 32.5179   2
   3  -9   2 546.035 32.8658   3
  -3  -9  -2 536.236 32.5270   3
   3  -9   2 523.172 32.7976   2
  -3   9  -2 561.576 32.9326   3
  -3   9  -2 567.521 33.3038   2
  -3   9  -2 489.848 35.5387   1
  -4  -9  -2 107.124 10.9431   2
   4  -9   2 121.453 12.3628   2
   4  -9   2 116.484 12.0669   3
  -4  -9  -2 105.686 10.8924   3
  -4  -9  -2 130.313 11.2593   3
   4  -9   2 95.7010 12.3054   1
  -4   9  -2 119.308 11.7868   3
  -4   9  -2 91.3355 12.7656   1
  -4   9  -2 103.183 11.3937   2
   5  -9   2 28.1350 8.46780   2
   5  -9   2 8.61080 10.3561   1
  -5  -9  -2 9.63593 5.90345   3
  -5  -9  -2 15.5957 5.82243   3
  -5  -9  -2 18.3239 7.08487   2
   5  -9   2 20.8666 7.07971   3
  -5  -9  -2 20.7035 6.59939   4
  -5   9  -2 16.5030 9.85074   2
  -5   9  -2 31.5184 9.50530   1
  -5   9  -2 22.8586 6.35059   3
   6  -9   2 25.2503 7.61265   3
  -6  -9  -2 30.0082 6.44514   3
   6  -9   2 27.1248 11.3243   1
  -6  -9  -2 32.0841 8.63062   2
  -6  -9  -2 48.4802 6.51812   3
  -6  -9  -2 37.7053 7.54476   4
  -6   9  -2 54.6387 12.0961   1
  -6   9  -2 55.3912 12.0736   2
  -7  -9  -2 6.05223 7.25225   4
  -7  -9  -2 13.2125 6.23592   3
   7  -9   2 19.7601 7.85655   3
   7  -9   2 11.5628 11.9454   1
  -7  -9  -2 23.1041 5.67276   3
  -7  -9  -2 13.2216 9.85837   2
  -7   9  -2 19.5001 13.0356   2
  -7   9  -2 17.9743 11.3659   1
  -8  -9  -2 451.805 26.1624   3
  -8  -9  -2 406.967 28.5951   4
   8  -9   2 431.622 28.4246   3
  -8  -9  -2 415.876 30.5245   2
  -8   9  -2 438.631 33.8742   2
  -9  -9  -2 13.5458 9.34212   4
  -9  -9  -2 3.91209 11.9385   2
   9  -9   2 11.5845 8.43136   3
  -9  -9  -2 9.69055 4.06308   3
  -9   9  -2 1.81833 16.1306   2
 -10  -9  -2 49.2999 14.9687   2
 -10   9  -2 13.3843 18.6609   2
 -11  -9  -2 39.8695 15.9296   2
 -11   9  -2 66.3119 21.0161   2
 -10 -10   2 45.2574 15.6397   2
 -10  10   2 53.8556 20.1577   2
   9 -10  -2 8.16892 7.62040   3
  -9 -10   2 8.76688 10.1880   4
  -9 -10   2 -23.517 12.7973   2
  -9  10   2 4.59405 17.5605   2
  -8 -10   2 58.6857 7.50013   3
   8 -10  -2 61.6092 8.81587   3
  -8 -10   2 55.8338 11.2803   4
  -8 -10   2 67.0809 6.69659   3
   8 -10  -2 72.1818 10.2632   3
   7 -10  -2 -14.563 7.54445   3
   7 -10  -2 -0.5533 14.2298   1
  -7 -10   2 -2.0091 5.21008   3
  -7 -10   2 9.26742 9.32030   4
   7 -10  -2 4.48412 7.17850   3
  -7  10   2 -7.8194 11.3281   1
  -7  10   2 -5.4287 13.3044   2
   6 -10  -2 513.109 30.9977   3
  -6 -10   2 511.513 30.2135   3
  -6 -10   2 462.249 31.9435   4
   6 -10  -2 475.175 32.1222   2
  -6 -10   2 527.589 32.3162   1
  -6  10   2 473.129 36.6151   1
   6  10  -2 511.664 33.4596   1
  -6  10   2 490.066 33.6634   2
   5 -10  -2 60.2691 8.69819   2
  -5 -10   2 62.1457 8.94253   4
   5 -10  -2 57.7842 8.21185   3
  -5 -10   2 57.7687 9.01816   2
  -5 -10   2 61.0930 7.44269   3
   5 -10  -2 64.4573 12.5612   1
  -5 -10   2 60.0061 8.54385   1
   5  10  -2 71.2773 9.52461   1
  -5  10   2 51.7521 11.1570   2
  -5  10   2 87.8891 13.0092   1
   4 -10  -2 7.32970 6.80048   3
  -4 -10   2 6.71235 5.61886   1
  -4 -10   2 2.39188 6.71922   4
   4 -10  -2 4.92207 6.37818   2
  -4 -10   2 8.93363 6.70546   2
   4 -10  -2 11.5475 8.50647   1
  -4 -10   2 4.62351 5.60954   3
  -4  10   2 3.82342 7.12960   1
   4  10  -2 8.33644 6.11445   1
  -4  10   2 9.17665 7.94341   2
   3 -10  -2 920.676 57.2826   1
  -3 -10   2 948.230 54.9887   4
  -3 -10   2 928.568 54.7768   2
  -3 -10   2 965.983 54.8768   3
   3 -10  -2 938.104 54.9465   3
   3 -10  -2 938.449 54.5237   2
  -3 -10   2 985.212 56.1261   1
  -3  10   2 911.374 54.7194   2
   3  10  -2 979.682 54.9376   2
  -3  10   2 958.550 57.4708   1
   2 -10  -2 678.140 41.3613   1
   2 -10  -2 637.116 38.7640   2
  -2 -10   2 684.560 40.4398   1
   2 -10  -2 648.740 39.5766   3
  -2 -10   2 675.405 39.6412   3
  -2 -10   2 671.900 39.3867   2
  -2 -10   2 654.001 40.4626   1
   2  10  -2 694.914 39.4029   2
  -2  10   2 670.991 39.0301   2
  -2  10   2 664.357 41.3440   1
  -1 -10   2 180.485 13.9057   1
   1 -10  -2 158.834 12.0003   2
   1 -10  -2 167.166 14.0886   1
  -1 -10   2 168.528 12.8174   2
  -1 -10   2 161.369 13.3574   3
   1 -10  -2 156.692 14.2660   3
  -1 -10   2 172.483 13.9432   1
   1  10  -2 187.477 13.3320   3
  -1  10   2 175.988 14.2654   1
   1  10  -2 169.176 13.7628   2
  -1  10   2 145.276 12.3010   2
   0 -10  -2 273.376 19.6791   1
   0 -10   2 305.421 20.3960   3
   0 -10   2 306.870 19.3806   2
   0 -10  -2 286.677 20.2969   3
   0 -10  -2 292.732 18.6351   2
   0 -10   2 319.434 21.2485   1
   0 -10   2 298.832 20.9056   1
   0  10  -2 321.100 19.8677   3
   0  10   2 304.180 18.9955   2
   0  10  -2 306.733 19.5333   2
   0  10   2 294.222 19.9207   1
   1 -10   2 405.283 26.7043   1
   1 -10   2 387.710 25.0158   3
   1 -10   2 409.519 24.6259   2
  -1 -10  -2 404.683 24.3157   1
  -1 -10  -2 399.169 24.1953   1
   1 -10   2 382.208 26.3604   1
  -1 -10  -2 382.695 23.7407   2
  -1 -10  -2 404.744 24.9940   3
  -1  10  -2 416.399 25.2999   3
  -1  10  -2 388.238 25.0728   2
   1  10   2 382.943 24.0456   2
  -2 -10  -2 21.6421 5.29041   2
   2 -10   2 30.8044 8.38206   1
  -2 -10  -2 41.4702 5.32473   1
  -2 -10  -2 26.8778 3.79212   1
  -2 -10  -2 24.7204 6.82109   3
   2 -10   2 19.7266 6.93949   3
   2 -10   2 27.8023 8.35826   1
   2 -10   2 23.5244 6.54113   2
  -2  10  -2 37.6176 7.13444   3
   2  10   2 19.6490 5.46304   2
  -2  10  -2 32.4684 7.06686   2
   3 -10   2 329.689 22.7443   3
   3 -10   2 327.201 22.1926   2
  -3 -10  -2 345.342 21.7725   2
  -3 -10  -2 314.261 22.1703   3
   3 -10   2 362.073 25.9566   1
  -3  10  -2 359.598 22.1122   3
  -3  10  -2 330.210 23.4709   2
   4 -10   2 104.944 10.5461   3
  -4 -10  -2 107.643 11.6649   3
  -4 -10  -2 89.4681 9.44055   3
  -4 -10  -2 101.890 9.82268   2
   4 -10   2 147.244 19.4187   1
   4 -10   2 101.758 10.6567   2
  -4  10  -2 107.545 11.9171   2
  -4  10  -2 111.264 13.2983   1
  -4  10  -2 101.502 11.3822   3
  -5 -10  -2 63.6900 8.16086   3
  -5 -10  -2 66.4572 8.44242   4
   5 -10   2 71.1360 9.13083   3
   5 -10   2 58.0503 10.2497   2
  -5 -10  -2 74.0260 8.38426   3
  -5 -10  -2 64.7506 9.00433   2
  -5  10  -2 82.0909 12.8324   1
  -5  10  -2 69.1320 12.4221   2
  -6 -10  -2 75.0780 8.77775   3
  -6 -10  -2 76.4850 8.18999   3
  -6 -10  -2 74.9826 9.44776   4
   6 -10   2 69.8025 15.7051   1
   6 -10   2 66.7237 9.52771   3
  -6  10  -2 93.3367 14.5001   1
  -6  10  -2 61.4575 13.9078   2
  -7 -10  -2 158.020 14.6775   3
   7 -10   2 156.007 16.3257   3
  -7 -10  -2 185.183 15.9368   4
  -7 -10  -2 186.770 13.8033   3
  -7  10  -2 111.742 16.6598   1
  -8 -10  -2 -0.2254 5.46674   3
  -8 -10  -2 -6.8484 11.0749   2
  -8 -10  -2 -1.4889 8.44996   4
   8 -10   2 -0.8330 8.37361   3
  -8 -10  -2 -2.9699 9.88799   3
  -8  10  -2 5.36287 15.0444   2
   9 -10   2 -3.7352 8.78510   3
  -9 -10  -2 12.8613 7.22400   3
  -9 -10  -2 13.8574 9.87022   4
  -9 -10  -2 11.2063 12.3382   2
  -9  10  -2 38.7259 17.6197   2
 -10 -10  -2 51.4266 15.1915   2
 -10 -10  -2 45.7178 11.5202   4
 -10  10  -2 58.3259 20.1543   2
 -10 -11   2 120.327 18.8969   2
 -10  11   2 125.683 22.8636   2
  -9 -11   2 4.46367 10.6884   4
   9 -11  -2 4.73944 8.39938   3
  -9  11   2 -10.626 17.3854   2
  -8 -11   2 348.797 22.3530   3
   8 -11  -2 359.098 24.5696   3
  -8 -11   2 345.107 26.6370   4
  -8  11   2 344.179 33.3128   2
   7 -11  -2 11.3789 16.0737   1
  -7 -11   2 -1.9005 5.87123   3
   7 -11  -2 5.54111 8.04795   3
  -7 -11   2 8.45935 10.1039   4
  -7  11   2 -10.620 13.7728   2
  -7  11   2 -5.3952 13.8104   1
  -6 -11   2 301.160 28.2786   1
  -6 -11   2 255.224 21.6586   4
   6 -11  -2 274.831 20.5563   3
  -6 -11   2 278.467 19.1316   3
   6 -11  -2 264.618 22.0817   2
   6 -11  -2 233.840 27.4397   1
  -6  11   2 255.772 27.3867   1
   6  11  -2 297.420 22.0616   1
  -6  11   2 282.536 25.5702   2
   5 -11  -2 846.477 53.2074   2
   5 -11  -2 918.789 53.2417   3
  -5 -11   2 938.103 54.2490   1
   5 -11  -2 881.535 57.5794   1
  -5 -11   2 884.546 53.2482   4
  -5 -11   2 915.719 52.7267   3
   5  11  -2 915.713 54.4600   1
  -5  11   2 915.974 54.3174   2
  -5  11   2 921.044 57.6721   1
  -4 -11   2 81.0828 10.1001   2
  -4 -11   2 108.117 11.5098   3
   4 -11  -2 103.596 13.7707   1
   4 -11  -2 98.6430 10.4851   3
  -4 -11   2 95.1822 12.5807   1
   4 -11  -2 94.9171 9.79808   2
  -4 -11   2 99.0732 10.4719   4
  -4  11   2 99.8513 13.5313   1
  -4  11   2 102.735 11.2588   2
   3 -11  -2 84.5471 9.88145   3
   3 -11  -2 101.308 10.5583   2
  -3 -11   2 96.0113 11.1268   1
  -3 -11   2 105.942 9.81749   3
  -3 -11   2 97.0889 9.58023   4
   3 -11  -2 107.823 12.8944   1
  -3 -11   2 99.5301 9.67762   2
  -3 -11   2 92.9998 11.7764   1
   3  11  -2 86.2667 9.72475   2
  -3  11   2 76.0256 11.4374   1
  -3  11   2 87.5914 9.74100   2
   2 -11  -2 235.440 19.0780   1
  -2 -11   2 252.752 16.8304   2
  -2 -11   2 237.516 17.7588   1
  -2 -11   2 211.978 17.6627   1
   2 -11  -2 229.401 18.2998   3
   2 -11  -2 233.779 15.9778   2
  -2 -11   2 226.797 17.6492   3
   2  11  -2 260.844 17.2817   2
  -2  11   2 229.040 19.0565   1
  -2  11   2 215.116 16.6788   2
   1 -11  -2 1178.85 65.2600   2
  -1 -11   2 1146.61 67.1685   1
  -1 -11   2 1158.68 65.7388   2
  -1 -11   2 1141.09 67.0770   1
  -1 -11   2 1104.66 66.0734   3
   1 -11  -2 1164.70 66.1246   3
   1 -11  -2 1160.97 67.2204   1
  -1  11   2 1093.65 65.2625   2
   1  11  -2 1154.69 65.7227   2
  -1  11   2 1141.25 67.2403   1
   0 -11   2 107.903 12.9332   3
   0 -11   2 99.9323 14.2865   1
   0 -11  -2 105.499 10.5269   3
   0 -11   2 107.721 11.8037   2
   0 -11  -2 108.551 9.87359   2
   0 -11   2 117.153 12.8726   1
   0 -11  -2 108.861 10.9676   1
   0  11   2 107.713 10.5533   2
   0  11  -2 105.068 11.4678   2
   0  11   2 105.440 11.1720   1
   0  11  -2 116.100 12.3237   3
   1 -11   2 10.2283 6.47885   2
   1 -11   2 9.36056 7.14289   3
   1 -11   2 11.2680 6.50421   1
  -1 -11  -2 15.1868 5.18395   2
  -1 -11  -2 7.71592 4.47578   1
   1 -11   2 16.4570 7.57714   1
  -1 -11  -2 16.5773 7.11103   3
  -1 -11  -2 22.0934 4.75536   1
  -1  11  -2 9.88298 6.80631   2
   1  11   2 11.5049 5.64607   2
  -1  11  -2 8.66557 6.44984   3
   2 -11   2 1051.26 61.6277   1
   2 -11   2 974.777 61.0049   1
  -2 -11  -2 1082.58 58.0195   1
   2 -11   2 969.976 58.6222   2
  -2 -11  -2 1001.36 57.8986   1
  -2 -11  -2 1006.40 58.8830   3
  -2 -11  -2 1036.62 58.3000   2
   2 -11   2 982.811 58.9822   3
   2  11   2 992.298 58.3310   2
  -2  11  -2 1006.50 59.0954   2
  -2  11  -2 1050.81 58.9681   3
   3 -11   2 9.57728 9.38221   1
   3 -11   2 10.8200 7.76749   3
  -3 -11  -2 9.79789 5.77601   2
  -3 -11  -2 8.22178 7.19088   3
   3 -11   2 8.76501 7.28627   2
  -3  11  -2 2.69408 7.03820   3
  -3  11  -2 13.5646 8.59011   2
  -4 -11  -2 46.2131 7.98359   2
  -4 -11  -2 39.4518 7.67118   3
   4 -11   2 43.6389 10.9195   1
   4 -11   2 46.8676 9.11226   3
  -4 -11  -2 47.6773 8.18298   3
   4 -11   2 33.4146 9.01131   2
  -4  11  -2 39.6649 10.8970   1
  -4  11  -2 37.0169 10.7206   2
  -5 -11  -2 814.422 51.9880   2
  -5 -11  -2 943.668 51.7038   3
   5 -11   2 887.399 52.1784   3
   5 -11   2 913.844 57.1231   1
  -5 -11  -2 868.806 51.4357   3
  -5 -11  -2 898.222 51.6114   4
  -5  11  -2 829.185 53.4140   2
  -5  11  -2 853.262 55.6051   1
   6 -11   2 -15.461 21.1629   1
  -6 -11  -2 -0.0578 7.00692   3
  -6 -11  -2 8.60244 6.95168   3
  -6 -11  -2 -1.2939 7.88230   4
   6 -11   2 7.91265 8.73811   3
  -6  11  -2 -7.7376 9.61524   1
  -6  11  -2 0.63606 12.6800   2
  -7 -11  -2 20.5652 6.89981   3
  -7 -11  -2 21.1820 7.53193   3
  -7 -11  -2 8.56057 8.29974   4
   7 -11   2 15.4817 9.21272   3
  -7  11  -2 23.6145 15.1179   2
  -8 -11  -2 0.65362 6.11790   3
   8 -11   2 4.48807 9.10245   3
  -8 -11  -2 -8.5594 13.8441   4
  -8 -11  -2 -8.0739 11.5979   2
  -8  11  -2 1.14450 16.4485   2
  -9 -11  -2 198.672 21.1908   4
  -9 -11  -2 224.601 25.2596   2
   9 -11   2 245.438 21.1223   3
  -9  11  -2 219.932 24.5224   2
 -10 -11  -2 78.1254 16.1091   2
 -10 -11  -2 70.9004 12.5474   4
 -10  11  -2 92.5450 21.7533   2
 -10 -12   2 45.2980 17.0893   2
 -10 -12   2 7.03789 12.7783   4
 -10  12   2 53.4144 20.7737   2
  -9 -12   2 123.073 15.0116   4
  -9  12   2 110.642 21.1088   2
  -8 -12   2 7.09721 10.5355   4
  -8 -12   2 3.08880 6.14287   3
   8 -12  -2 6.20546 8.96875   3
  -8  12   2 -10.592 16.2433   2
  -7 -12   2 12.5122 9.76010   4
   7 -12  -2 20.0157 17.8907   1
   7 -12  -2 7.24697 8.61862   3
  -7 -12   2 11.3214 6.55955   3
  -7  12   2 -3.9843 22.4578   1
  -7  12   2 11.3467 15.8256   2
  -6 -12   2 346.123 21.9137   3
  -6 -12   2 338.921 23.6081   1
   6 -12  -2 297.015 23.6350   3
  -6  12   2 291.409 31.2094   1
  -6  12   2 285.111 27.3399   2
   5 -12  -2 -0.8974 11.2706   1
  -5 -12   2 7.11493 8.85972   4
  -5 -12   2 3.00939 6.76492   3
   5 -12  -2 -3.1503 8.49313   2
  -5 -12   2 3.45021 6.93723   1
   5 -12  -2 -7.9281 8.26210   3
  -5  12   2 0.36564 10.3016   1
  -5  12   2 3.19546 10.8864   2
  -4 -12   2 -1.3363 5.86827   1
  -4 -12   2 0.87727 6.67403   3
  -4 -12   2 -2.9637 7.68873   4
  -4 -12   2 8.20786 7.09411   1
   4 -12  -2 5.32216 7.01128   2
   4 -12  -2 10.5616 9.58416   1
   4 -12  -2 -1.6890 8.27488   3
  -4  12   2 -0.7517 8.76015   2
  -4  12   2 3.12267 8.65667   1
  -3 -12   2 1.63646 6.49832   1
  -3 -12   2 -1.7438 7.01349   4
   3 -12  -2 15.4669 8.40036   3
  -3 -12   2 10.5981 7.32734   2
  -3 -12   2 -0.7316 7.18058   3
   3 -12  -2 3.79122 6.51379   2
  -3 -12   2 5.04089 5.96358   1
   3 -12  -2 -3.2159 7.67560   1
   3  12  -2 -2.8019 7.50104   2
  -3  12   2 3.21622 7.44438   2
  -3  12   2 -2.7747 7.67120   1
  -2 -12   2 556.014 33.4767   1
  -2 -12   2 540.162 32.1800   3
   2 -12  -2 494.952 31.2078   2
  -2 -12   2 532.547 33.0626   1
  -2 -12   2 514.251 32.2867   2
   2 -12  -2 508.812 32.4744   3
   2 -12  -2 500.303 34.1284   1
   2  12  -2 517.331 32.4588   2
  -2  12   2 508.602 31.6839   2
  -2  12   2 517.077 34.5099   1
   1 -12  -2 44.5963 8.90962   3
   1 -12  -2 36.3717 6.25227   2
  -1 -12   2 44.5211 7.47537   2
   1 -12  -2 37.6375 7.93118   1
  -1 -12   2 45.6155 8.19647   1
  -1 -12   2 45.8151 8.64900   3
  -1 -12   2 47.7071 8.20184   1
  -1  12   2 40.7266 8.20345   1
   1  12  -2 41.3285 8.06235   2
  -1  12   2 42.4231 7.14575   2
   0 -12   2 38.4423 8.17226   3
   0 -12  -2 29.8909 5.88046   2
   0 -12   2 33.0100 7.51605   1
   0 -12   2 25.5716 7.09715   2
   0 -12  -2 21.9615 6.20188   1
   0 -12   2 38.1370 8.08377   1
   0 -12  -2 32.8030 8.24608   3
   0  12  -2 35.5722 7.68232   2
   0  12   2 31.9161 6.43979   2
   1 -12   2 321.339 24.3170   1
   1 -12   2 334.730 23.2618   3
   1 -12   2 324.266 22.0194   2
  -1 -12  -2 334.442 21.3223   2
  -1 -12  -2 342.453 21.4925   1
  -1 -12  -2 302.362 21.4675   1
  -1 -12  -2 329.931 23.3499   3
   1 -12   2 336.649 24.9172   1
   1  12   2 349.548 21.7593   2
  -1  12  -2 345.128 22.8954   2
  -2 -12  -2 -2.0094 7.63678   3
   2 -12   2 1.04881 7.16905   2
   2 -12   2 7.54380 7.86391   3
  -2 -12  -2 1.03969 5.14333   1
   2 -12   2 -3.2958 6.48625   1
  -2 -12  -2 -7.9925 5.91100   2
   2 -12   2 2.31147 8.71363   1
  -2 -12  -2 3.97900 3.83919   1
   2  12   2 5.53877 6.47418   2
  -2  12  -2 -0.4500 7.94634   2
   3 -12   2 526.018 32.7533   3
  -3 -12  -2 505.051 31.2980   2
   3 -12   2 510.807 36.0005   1
   3 -12   2 496.942 31.8912   2
  -3 -12  -2 506.414 32.0116   3
  -3  12  -2 510.314 33.2218   2
  -4 -12  -2 -5.4068 7.09679   3
   4 -12   2 7.82312 11.1493   1
  -4 -12  -2 3.00154 7.50878   2
   4 -12   2 3.77566 8.65462   3
  -4 -12  -2 -1.5527 7.17353   3
  -4  12  -2 4.55167 10.9049   2
  -5 -12  -2 0.31370 7.19326   3
   5 -12   2 -8.2667 12.8523   1
  -5 -12  -2 8.23119 7.75775   4
  -5 -12  -2 -4.3315 7.56057   3
   5 -12   2 -2.2961 9.05520   3
  -5  12  -2 0.92411 9.65041   1
  -5  12  -2 -2.1609 11.9439   2
  -6 -12  -2 230.499 18.8470   4
   6 -12   2 208.822 28.5307   1
   6 -12   2 220.722 20.1045   3
  -6 -12  -2 230.889 18.2273   3
  -6 -12  -2 224.092 18.5178   3
  -6  12  -2 222.651 25.8426   1
  -6  12  -2 203.428 31.3255   2
   7 -12   2 42.5011 10.4819   3
  -7 -12  -2 54.7239 8.41850   3
  -7 -12  -2 36.4357 8.70069   3
  -7  12  -2 43.6269 16.8177   2
  -8 -12  -2 2.74063 6.78895   3
  -8 -12  -2 8.80567 9.80890   4
  -8 -12  -2 -6.3788 12.0711   2
   8 -12   2 20.1869 10.3404   3
  -8  12  -2 1.06316 17.3823   2
   9 -12   2 -6.7186 10.6901   3
  -9 -12  -2 -2.6085 10.4581   4
  -9 -12  -2 -8.7055 13.6721   2
  -9  12  -2 4.27022 18.9810   2
 -10 -12  -2 62.4629 16.5352   2
 -10 -12  -2 60.6138 12.5553   4
 -10  12  -2 28.6178 21.6636   2
   9 -13  -2 -1.0957 18.1340   3
  -9 -13   2 -8.4211 12.1095   4
  -9  13   2 17.4982 19.9994   2
  -8 -13   2 25.5672 12.2348   4
   8 -13  -2 13.3399 9.90242   3
  -8 -13   2 5.42551 6.84993   3
  -8  13   2 35.4222 18.0887   2
  -7 -13   2 13.0990 10.7268   4
  -7 -13   2 12.3139 7.49266   3
   7 -13  -2 -2.2132 9.64783   3
  -7  13   2 4.30220 15.4484   2
  -6 -13   2 318.053 21.5283   3
   6 -13  -2 261.127 39.6804   1
   6 -13  -2 293.042 23.1824   3
  -6 -13   2 272.695 23.3667   4
  -6  13   2 295.479 27.6304   2
   5 -13  -2 24.9581 11.0747   1
   5 -13  -2 26.6368 10.1513   3
  -5 -13   2 28.5735 8.00681   3
  -5 -13   2 30.4353 16.3544   4
  -5 -13   2 26.6661 8.70448   1
  -5  13   2 37.9540 11.7888   2
  -4 -13   2 66.0211 9.97272   4
   4 -13  -2 79.2541 11.2389   3
  -4 -13   2 87.8556 10.6958   1
   4 -13  -2 40.0575 10.2870   1
   4 -13  -2 66.3588 9.54598   2
  -4 -13   2 74.0184 9.54139   3
  -4  13   2 52.1615 13.2256   1
  -4  13   2 72.6779 10.9329   2
  -3 -13   2 113.812 11.7677   4
  -3 -13   2 123.146 13.5269   3
  -3 -13   2 115.356 12.9134   1
  -3 -13   2 121.962 14.7278   1
   3 -13  -2 120.313 10.8724   2
   3 -13  -2 118.182 12.7503   3
   3 -13  -2 111.133 14.4735   1
  -3  13   2 110.852 11.3687   2
   3  13  -2 114.081 11.8248   2
  -3  13   2 108.924 15.1004   1
   2 -13  -2 62.9780 10.1577   3
   2 -13  -2 61.0785 9.96582   1
   2 -13  -2 61.9520 7.97085   2
  -2 -13   2 64.9324 9.42055   2
  -2 -13   2 68.4924 10.0380   1
  -2 -13   2 61.0409 8.79176   1
  -2 -13   2 59.6787 9.63627   3
  -2  13   2 61.9274 8.63484   2
   2  13  -2 73.9504 9.67949   2
  -2  13   2 49.8396 9.85678   1
  -1 -13   2 12.6224 8.26187   3
   1 -13  -2 15.6994 8.66230   3
  -1 -13   2 17.1694 6.60978   1
   1 -13  -2 13.4995 7.36016   1
   1 -13  -2 18.7025 6.63648   2
  -1 -13   2 15.6057 7.55578   2
  -1 -13   2 27.0258 7.35926   1
   1  13  -2 29.1255 8.38892   2
  -1  13   2 18.8149 6.81529   2
  -1  13   2 23.1591 8.16451   1
   0 -13   2 507.147 33.3527   1
   0 -13  -2 527.667 32.3818   3
   0 -13   2 498.191 31.7927   3
   0 -13  -2 488.864 31.7585   1
   0 -13   2 477.618 32.8265   1
   0 -13   2 460.295 30.9106   2
   0 -13  -2 474.573 30.2277   2
   0  13  -2 532.312 31.3390   2
   0  13   2 519.440 30.5973   2
   1 -13   2 198.775 17.6474   2
   1 -13   2 221.664 18.9946   3
  -1 -13  -2 211.165 18.0753   3
  -1 -13  -2 205.744 15.4296   2
  -1 -13  -2 227.176 16.0754   1
   1 -13   2 217.579 19.4826   1
  -1 -13  -2 219.553 16.1252   1
   1 -13   2 184.686 19.5466   1
  -1  13  -2 218.723 17.4746   2
   1  13   2 211.646 16.4704   2
   2 -13   2 65.7016 12.8950   1
   2 -13   2 78.6907 11.1389   3
  -2 -13  -2 85.4581 8.90718   2
  -2 -13  -2 64.3697 10.1268   3
  -2 -13  -2 73.3130 8.88645   1
   2 -13   2 62.5930 9.77116   2
  -2 -13  -2 78.1590 8.59568   1
  -2  13  -2 86.5576 10.7876   2
   2  13   2 76.0159 9.18043   2
  -3 -13  -2 858.818 49.6450   2
   3 -13   2 856.604 53.6436   1
  -3 -13  -2 852.913 50.4158   3
   3 -13   2 841.724 50.6308   3
   3 -13   2 779.494 53.8098   1
  -3  13  -2 841.700 51.0426   2
   4 -13   2 14.3128 9.78035   3
  -4 -13  -2 3.62191 8.12028   3
   4 -13   2 12.0614 11.8680   1
  -4 -13  -2 9.47124 8.78429   3
  -4  13  -2 3.73946 11.7661   2
  -5 -13  -2 1.60464 8.64220   3
   5 -13   2 -0.2924 13.8834   1
   5 -13   2 0.42951 9.71502   3
  -5 -13  -2 4.40606 8.51438   4
  -5 -13  -2 4.98623 8.08989   3
  -5  13  -2 3.22155 15.1214   2
   6 -13   2 17.8123 10.3815   3
  -6 -13  -2 18.6464 9.41569   3
  -6 -13  -2 17.7626 8.31975   3
   6 -13   2 2.74018 16.5139   1
  -6  13  -2 -13.805 22.6630   1
  -6  13  -2 13.2890 14.7953   2
  -7 -13  -2 150.508 14.3105   4
  -7 -13  -2 126.694 15.6833   3
   7 -13   2 149.616 17.5399   3
  -7  13  -2 135.852 20.6488   2
   8 -13   2 7.76497 11.2526   3
  -8 -13  -2 4.61149 12.6363   2
  -8 -13  -2 -1.0657 7.41778   3
  -8 -13  -2 3.23952 10.4978   4
  -8  13  -2 24.6238 19.0447   2
   9 -13   2 17.1708 11.5808   3
  -9 -13  -2 2.17823 11.3439   4
  -9 -13  -2 -18.629 13.4253   2
  -9  13  -2 25.0053 19.9590   2
  -9 -14   2 25.9477 12.9918   4
   9 -14  -2 32.5294 17.1765   3
  -9  14   2 47.7169 20.2870   2
   8 -14  -2 54.0352 12.0320   3
  -8 -14   2 47.6034 12.6294   4
  -8 -14   2 62.9325 9.09508   3
  -8  14   2 31.8779 18.2215   2
   7 -14  -2 28.1589 10.7266   3
  -7 -14   2 3.25065 8.31173   3
  -7 -14   2 23.6832 11.0925   4
  -7  14   2 18.3388 16.1298   2
  -6 -14   2 18.5920 10.2765   4
  -6 -14   2 5.24882 8.63484   3
  -5 -14   2 40.1832 9.24798   3
   5 -14  -2 33.6517 11.3368   3
  -5 -14   2 48.1791 10.7529   4
  -5  14   2 44.8599 13.1707   2
  -4 -14   2 162.590 16.8057   3
   4 -14  -2 154.672 15.2911   3
  -4  14   2 145.749 14.9206   2
   3 -14  -2 16.8462 18.6120   1
  -3 -14   2 13.8255 9.09211   4
   3 -14  -2 23.0181 8.20621   2
   3 -14  -2 18.0850 10.1938   3
  -3 -14   2 11.2266 9.20454   3
  -3 -14   2 32.6650 9.13923   1
  -3  14   2 25.3305 9.22167   2
   3  14  -2 32.1823 9.79642   2
   2 -14  -2 56.1624 8.65138   2
  -2 -14   2 51.2871 10.2494   3
   2 -14  -2 53.4899 11.0323   3
  -2 -14   2 56.4894 10.1175   1
   2 -14  -2 40.0971 10.0737   1
   2  14  -2 57.8853 10.0002   2
  -2  14   2 48.5433 8.93463   2
   1 -14  -2 256.369 21.5667   1
  -1 -14   2 261.343 21.1806   1
   1 -14  -2 258.427 18.8515   2
  -1 -14   2 275.481 21.7327   3
   1 -14  -2 287.116 22.0627   3
  -1 -14   2 237.815 21.2291   1
   1  14  -2 251.269 20.2392   2
  -1  14   2 256.177 19.3201   2
   0 -14   2 29.6519 10.2764   3
   0 -14   2 52.9629 10.1673   1
   0 -14  -2 53.9090 8.67760   1
   0 -14   2 44.2649 9.52110   1
   0 -14  -2 48.8274 10.4097   3
   0 -14  -2 43.1830 7.63548   2
   0 -14  -2 30.6699 8.07085   1
   0  14   2 39.5703 8.22601   2
   0  14  -2 34.8351 9.41599   2
   1 -14   2 15.4243 9.13045   1
   1 -14   2 16.9722 9.49064   3
  -1 -14  -2 9.90673 6.18506   1
  -1 -14  -2 3.75226 6.06421   1
  -1 -14  -2 17.3018 7.35884   2
   1 -14   2 3.79945 7.76366   1
  -1 -14  -2 2.80295 9.56730   3
  -1  14  -2 5.99374 9.04925   2
   1  14   2 6.09241 7.69693   2
   2 -14   2 142.913 20.0675   1
  -2 -14  -2 122.697 11.6035   1
  -2 -14  -2 133.742 13.7958   2
  -2 -14  -2 134.073 13.7764   3
   2 -14   2 143.666 16.1839   3
  -2 -14  -2 128.526 11.5772   1
   2  14   2 107.161 11.5344   2
  -2  14  -2 141.998 13.9301   2
   3 -14   2 8.72992 11.4797   1
   3 -14   2 2.05564 9.63076   3
  -3 -14  -2 4.51125 9.03645   3
  -3  14  -2 24.1026 11.0042   2
   4 -14   2 11.3236 10.6440   3
  -4 -14  -2 2.18678 8.89231   3
   4 -14   2 -12.276 11.2289   1
  -4  14  -2 1.28749 13.8742   2
  -5 -14  -2 24.1438 9.83751   3
   5 -14   2 8.06678 14.3954   1
  -5 -14  -2 16.3108 9.99858   4
  -5  14  -2 14.0725 13.8738   2
  -6 -14  -2 227.775 19.5271   3
  -6 -14  -2 222.417 20.5827   4
   6 -14   2 205.907 21.4741   3
  -6  14  -2 159.327 21.1288   2
  -7 -14  -2 143.985 14.6474   4
   7 -14   2 135.308 14.7687   3
  -7 -14  -2 105.930 12.3315   3
  -7  14  -2 151.789 21.3515   2
   8 -14   2 -7.5532 11.3599   3
  -8 -14  -2 6.39732 10.9250   4
  -8 -14  -2 14.6077 8.47871   3
  -8  14  -2 -2.4553 19.3730   2
   9 -14   2 92.2689 14.5322   3
  -9 -14  -2 115.216 14.6456   4
  -9 -14  -2 137.977 18.9318   2
  -9  14  -2 172.862 24.7093   2
   8 -15  -2 5.96408 11.8581   3
  -8 -15   2 27.9096 13.3833   4
  -8  15   2 1.36006 18.4481   2
  -7 -15   2 34.3017 12.7187   4
  -7 -15   2 38.7658 9.78614   3
   7 -15  -2 41.4754 12.3690   3
  -7  15   2 4.62438 17.4652   2
  -6 -15   2 159.965 15.9002   4
   6 -15  -2 129.746 15.3630   3
  -6 -15   2 164.889 17.5149   3
  -6  15   2 116.168 17.9766   2
  -5 -15   2 14.0129 10.8537   4
  -5 -15   2 20.5472 9.97201   3
   5 -15  -2 7.62886 11.4363   3
  -5  15   2 18.2948 14.0391   2
  -4 -15   2 68.2816 11.6757   4
   4 -15  -2 81.4757 13.4359   3
  -4 -15   2 57.8154 10.6880   3
  -4  15   2 73.9774 12.9498   2
  -3 -15   2 89.0749 12.1001   3
  -3 -15   2 91.8155 11.9933   4
   3  15  -2 104.754 16.2737   2
  -3  15   2 102.201 12.1704   2
  -2 -15   2 -4.1749 9.54103   3
   2 -15  -2 4.67110 12.1776   3
   2 -15  -2 -10.806 7.71859   2
  -2  15   2 12.7704 9.20116   2
   2  15  -2 3.81206 9.57106   2
   1 -15  -2 -0.2021 10.3891   3
  -1 -15   2 -2.6880 9.58998   3
   1 -15  -2 -10.006 7.21685   2
   1  15  -2 -8.2047 9.26014   2
  -1  15   2 -1.1026 8.59172   2
   0 -15  -2 2.57682 8.13099   1
   0 -15   2 6.09334 9.79774   3
   0 -15  -2 13.4346 10.2139   3
   0 -15  -2 9.32629 7.99107   2
   0  15  -2 14.8498 9.64515   2
   0  15   2 18.7470 8.48028   2
  -1 -15  -2 153.599 16.8168   3
   1 -15   2 150.850 14.5574   3
  -1 -15  -2 95.2376 11.1840   2
  -1 -15  -2 103.240 15.4807   1
   1  15   2 127.013 13.7619   2
  -1  15  -2 117.339 13.5726   2
  -2 -15  -2 7.40267 6.00092   1
  -2 -15  -2 -2.8682 9.74020   3
   2 -15   2 1.49078 14.1507   3
   2  15   2 14.4640 8.38074   2
  -2  15  -2 -1.4687 10.3877   2
  -3 -15  -2 -0.2159 10.3048   3
   3 -15   2 5.70132 17.0509   3
   4 -15   2 219.811 21.8106   3
  -4 -15  -2 215.855 20.9439   3
  -4  15  -2 200.539 22.9603   2
  -5 -15  -2 30.0470 17.8756   3
   5 -15   2 45.9494 12.5027   3
  -5 -15  -2 34.8008 10.5576   4
  -5  15  -2 22.8567 14.9528   2
  -6 -15  -2 16.2607 11.1161   4
   6 -15   2 -0.6972 11.6730   3
  -6  15  -2 -12.106 16.3122   2
  -7 -15  -2 60.9781 12.6768   4
  -7 -15  -2 79.2523 13.7234   3
   7 -15   2 91.3584 13.8550   3
  -7  15  -2 79.6471 21.0799   2
  -8 -15  -2 11.0725 10.4777   3
  -8 -15  -2 12.5819 11.6487   4
   8 -15   2 27.5361 12.3872   3
  -8  15  -2 2.27849 20.9471   2
   8 -16  -2 16.3956 12.7048   3
  -8 -16   2 -24.465 13.4044   4
  -8  16   2 7.30969 19.4632   2
   7 -16  -2 77.6073 13.8125   3
  -7 -16   2 69.9019 11.4000   3
  -7 -16   2 73.0432 14.5573   4
  -7  16   2 51.2791 19.0319   2
   6 -16  -2 68.1352 14.0326   3
  -6 -16   2 81.2308 13.9603   4
  -6 -16   2 49.2743 11.2196   3
  -6  16   2 88.3823 17.3683   2
  -5 -16   2 17.1837 10.2798   3
  -5 -16   2 14.2214 11.7705   4
   5 -16  -2 13.9601 12.2422   3
  -5  16   2 11.7217 13.9147   2
   4 -16  -2 5.16550 12.3805   3
  -4 -16   2 12.8769 10.8354   3
  -4 -16   2 14.0383 10.6217   4
  -4  16   2 36.9893 18.6942   2
  -3 -16   2 11.1374 10.8882   3
  -3 -16   2 1.35292 9.94210   4
   3 -16  -2 2.42645 11.3346   3
   3  16  -2 -0.4212 10.4040   2
  -3  16   2 -4.9154 10.5819   2
  -2 -16   2 363.958 29.1557   3
   2 -16  -2 407.759 30.1309   3
  -2  16   2 391.268 28.0854   2
   2  16  -2 450.821 29.5962   2
  -1 -16   2 254.536 24.2240   3
   1 -16  -2 286.473 23.6911   3
   1  16  -2 285.563 22.4863   2
  -1  16   2 276.350 21.9962   2
   0 -16  -2 83.2608 13.5374   3
   0 -16   2 64.8402 12.8993   3
   0  16   2 70.4689 10.7635   2
   0  16  -2 70.3610 13.7459   2
   1 -16   2 191.470 20.0114   3
  -1 -16  -2 167.706 19.9436   3
  -1  16  -2 190.893 17.7732   2
   1  16   2 208.054 18.5308   2
  -2 -16  -2 28.8237 11.8598   3
  -2 -16  -2 30.5267 7.26468   1
   2 -16   2 28.0427 11.8222   3
  -2  16  -2 27.6646 12.5228   2
   2  16   2 42.0356 10.1201   2
  -3 -16  -2 12.1647 11.2830   3
   3 -16   2 5.62838 11.4192   3
  -3  16  -2 11.2525 12.8921   2
  -4 -16  -2 16.8743 11.3000   3
   4 -16   2 9.94668 12.0034   3
  -4  16  -2 8.08748 14.0181   2
  -5 -16  -2 356.671 27.4085   4
  -5 -16  -2 347.879 27.3068   3
   5 -16   2 358.499 28.4513   3
  -5  16  -2 327.359 32.5379   2
   6 -16   2 -11.819 11.9638   3
  -6 -16  -2 14.4461 11.9134   4
  -6 -16  -2 2.27002 10.2041   3
  -6  16  -2 0.33567 16.9244   2
  -7 -16  -2 -3.0404 11.4532   4
   7 -16   2 -6.2228 12.6669   3
  -7 -16  -2 -11.690 9.66274   3
  -7  16  -2 30.4818 20.2842   2
   8 -16   2 7.85995 12.8929   3
  -7 -17   2 76.9677 15.4818   4
   7 -17  -2 86.5995 14.9981   3
  -7 -17   2 73.9463 11.9358   3
  -7  17   2 50.2541 19.2702   2
  -6 -17   2 51.7704 12.1808   3
   6 -17  -2 31.6670 14.0618   3
  -6 -17   2 51.5597 14.0182   4
  -6  17   2 57.1470 17.4155   2
   5 -17  -2 6.34132 13.1656   3
  -5 -17   2 1.88574 11.3896   3
  -5 -17   2 1.80430 11.9974   4
  -5  17   2 1.73050 14.0320   2
  -4 -17   2 355.350 26.9909   3
  -4 -17   2 345.672 26.7224   4
   4 -17  -2 350.325 29.2973   3
  -4  17   2 290.049 28.0553   2
   3 -17  -2 -3.2610 12.2216   3
  -3 -17   2 -10.172 11.3207   4
  -3 -17   2 -4.2363 10.9087   3
  -3  17   2 -7.3134 12.8710   2
   3  17  -2 14.7947 11.6526   2
   2 -17  -2 7.17832 12.4217   3
  -2 -17   2 15.5831 11.9251   3
   2  17  -2 19.6972 11.3174   2
  -2  17   2 15.9629 13.7345   2
   1 -17  -2 51.2682 13.1790   3
  -1 -17   2 64.8303 12.7896   3
  -1  17   2 35.1397 10.8279   2
   1  17  -2 73.2376 12.7436   2
   0 -17   2 -0.0132 11.6616   3
   0 -17  -2 9.96445 12.6412   3
   0  17   2 -3.8880 9.89563   2
   0  17  -2 4.68341 11.4694   2
   1 -17   2 177.438 17.6662   3
  -1 -17  -2 160.936 17.8214   3
   1  17   2 151.949 20.6907   2
  -1  17  -2 166.920 16.6374   2
  -2 -17  -2 -9.6879 12.0701   3
   2 -17   2 2.68491 12.2845   3
  -2  17  -2 10.6174 12.3825   2
   3 -17   2 60.8581 14.1588   3
  -3 -17  -2 45.8018 12.6836   3
  -3  17  -2 46.2400 14.1082   2
   4 -17   2 33.4739 13.9985   3
  -4 -17  -2 20.2550 11.5798   3
  -4  17  -2 18.3090 15.5092   2
  -5 -17  -2 63.1261 13.6940   4
  -5 -17  -2 52.3204 12.5558   3
   5 -17   2 66.7444 14.6534   3
  -5  17  -2 65.5437 18.7248   2
   6 -17   2 13.4249 13.2302   3
  -6 -17  -2 6.11284 12.2787   4
  -6 -17  -2 -2.1463 10.6304   3
  -6  17  -2 46.0016 19.3332   2
  -7 -17  -2 -10.244 10.6441   3
  -7 -17  -2 1.62973 12.5825   4
   7 -17   2 -4.7027 14.2318   3
  -7  17  -2 -7.8680 20.6858   2
   6 -18  -2 68.0396 15.4371   3
  -6 -18   2 76.5676 15.3129   4
  -6 -18   2 55.8180 12.4426   3
  -6  18   2 22.3295 18.3677   2
  -5 -18   2 13.6930 12.8076   4
   5 -18  -2 10.1345 13.9157   3
  -5 -18   2 17.0159 11.9958   3
  -5  18   2 24.6286 15.3971   2
  -4 -18   2 3.22399 12.6426   4
  -4 -18   2 12.5078 12.5504   3
   4 -18  -2 -0.3085 14.3313   3
  -4  18   2 -2.5215 13.0760   2
  -3 -18   2 450.419 33.9872   4
  -3 -18   2 484.002 34.5897   3
   3 -18  -2 466.702 35.7552   3
  -3  18   2 455.123 33.8410   2
   3  18  -2 496.218 33.7580   2
   2 -18  -2 5.25477 13.3364   3
  -2 -18   2 5.99310 12.0180   3
  -2  18   2 -6.5632 11.0572   2
   2  18  -2 11.4712 11.8561   2
  -1 -18   2 2.13090 12.2208   3
   1 -18  -2 12.3709 13.7315   3
   1  18  -2 11.3122 12.6892   2
  -1  18   2 7.01163 11.1707   2
   0 -18  -2 455.256 32.3142   3
   0 -18   2 413.962 31.8760   3
   0  18  -2 454.095 32.3465   2
   0  18   2 380.969 30.4468   2
  -1 -18  -2 15.8423 13.4843   3
   1 -18   2 8.15974 13.1230   3
  -1  18  -2 0.56064 13.0239   2
   1  18   2 27.9514 10.8475   2
  -2 -18  -2 23.4102 12.9859   3
   2 -18   2 6.48102 13.1318   3
  -2  18  -2 23.4640 13.9883   2
  -3 -18  -2 56.5227 14.3584   3
   3 -18   2 36.6131 14.4016   3
  -3  18  -2 34.7175 15.5122   2
  -4 -18  -2 107.153 15.0200   3
   4 -18   2 85.2882 15.9959   3
  -4  18  -2 69.1442 17.8795   2
  -5 -18  -2 24.4176 13.0911   3
   5 -18   2 -9.7107 14.1369   3
  -5 -18  -2 -1.8292 12.2169   4
  -5  18  -2 0.87674 18.0533   2
   6 -18   2 -7.8091 14.9988   3
  -6 -18  -2 15.9166 12.0255   3
  -6 -18  -2 -4.8612 12.7150   4
  -6  18  -2 5.08024 20.6789   2
  -5 -19   2 -6.6806 13.6810   4
  -5 -19   2 -4.6575 12.6672   3
   5 -19  -2 13.4523 14.8907   3
  -5  19   2 2.93695 16.4591   2
   4 -19  -2 41.6155 16.4651   3
  -4 -19   2 73.6620 15.1728   3
  -4 -19   2 55.6320 14.6177   4
  -4  19   2 68.7240 15.2658   2
   3 -19  -2 -6.7112 14.7721   3
  -3 -19   2 -12.220 13.8417   3
  -3 -19   2 3.46621 12.9174   4
   3  19  -2 -5.6811 12.7922   2
  -3  19   2 4.99122 13.5942   2
  -2 -19   2 -7.1185 12.0406   4
  -2 -19   2 13.6616 13.4016   3
   2 -19  -2 -7.7128 14.6494   3
  -2  19   2 -10.167 12.5885   2
   2  19  -2 -11.504 13.0113   2
   1 -19  -2 98.9841 17.2269   3
  -1 -19   2 81.2801 16.2563   3
  -1  19   2 83.7715 14.2219   2
   1  19  -2 71.2230 15.5275   2
   0 -19  -2 1.55743 13.9176   3
   0 -19   2 26.6834 14.5449   3
   0  19  -2 11.0608 14.0714   2
   0  19   2 29.7719 11.8226   2
   1 -19   2 12.9776 14.0153   3
  -1 -19  -2 22.5367 14.2975   3
  -1  19  -2 44.6233 14.9814   2
   1  19   2 31.2725 11.6272   2
   2 -19   2 -0.5893 14.7157   3
  -2 -19  -2 7.55190 13.8858   3
  -2  19  -2 21.4650 14.8089   2
   3 -19   2 34.9234 15.8783   3
  -3 -19  -2 15.9251 14.1928   3
  -3  19  -2 24.7482 16.0907   2
   4 -19   2 -0.6577 15.1044   3
  -4 -19  -2 3.72475 13.6694   3
  -4  19  -2 -22.133 16.4333   2
  -5 -19  -2 57.7713 15.5233   4
  -5 -19  -2 38.0998 13.8852   3
   5 -19   2 48.1313 16.2929   3
  -5  19  -2 41.7942 19.3904   2
  -3 -20   2 40.2135 14.5316   4
   3 -20  -2 72.8892 18.1157   3
  -3 -20   2 65.8724 15.8650   3
  -3  20   2 40.3671 14.8131   2
  -2 -20   2 94.4767 16.7335   4
   2 -20  -2 152.856 19.9105   3
  -2 -20   2 152.850 18.9921   3
   2  20  -2 98.5171 17.2663   2
  -2  20   2 94.0645 15.9790   2
   1 -20  -2 32.6390 16.0972   3
  -1 -20   2 44.0253 16.5274   3
  -1  20   2 58.6904 13.7740   2
   1  20  -2 35.0232 15.4999   2
   0 -20   2 113.072 18.4917   3
   0 -20  -2 96.8694 18.4042   3
   0  20  -2 114.855 17.4863   2
   0  20   2 97.7326 14.8413   2
  -1 -20  -2 72.9544 16.5806   3
   1 -20   2 35.1791 16.4443   3
   1  20   2 51.5493 13.2468   2
  -1  20  -2 60.3924 15.9741   2
   2 -20   2 -8.2098 15.7298   3
  -2 -20  -2 -9.1484 15.1504   3
  -2  20  -2 -15.992 15.5751   2
  -3 -20  -2 15.6586 14.8291   3
   3 -20   2 43.0103 16.6024   3
  -3  20  -2 17.1651 17.2989   2
   0 -21  -2 20.9031 17.4103   3
   0 -21   2 28.5129 16.9197   3
 -12   0   3 316.852 29.9815   2
 -11   0   3 3.67266 17.7201   2
 -10   0   3 207.586 21.8414   2
  -9   0   3 4.28943 13.1878   2
   8   0  -3 181.034 24.5467   1
  -8   0   3 253.282 23.3733   2
   8   0  -3 274.282 22.0126   4
  -8   0   3 222.028 21.5413   1
   7   0  -3 311.167 23.3413   4
   7   0  -3 306.907 25.6643   1
  -7   0   3 313.874 24.1046   2
  -7   0   3 291.721 23.5522   1
   6   0  -3 9.23316 7.96254   1
   6   0  -3 5.25344 7.32501   4
  -6   0   3 0.84657 7.58314   2
  -6   0   3 8.70441 6.33877   1
  -5   0   3 812.012 48.5127   1
   5   0  -3 831.836 45.2240   3
  -5   0   3 796.981 46.7894   2
   5   0  -3 762.623 47.1287   4
   5   0  -3 791.139 48.9407   1
   4   0  -3 1212.72 68.6987   1
   4   0  -3 1094.75 67.0857   4
  -4   0   3 1202.03 68.4771   1
   4   0  -3 1125.83 66.0983   3
  -4   0   3 1238.50 65.9040   3
  -4   0   3 1148.46 66.6590   2
   3   0  -3 590.328 37.6500   4
  -3   0   3 712.091 39.2412   1
  -3   0   3 647.461 36.9482   3
   3   0  -3 587.669 37.0445   3
   3   0  -3 703.375 39.1395   1
  -2   0   3 677.115 36.8954   1
  -2   0   3 672.092 34.7490   2
   2   0  -3 555.947 35.2798   3
   2   0  -3 549.851 35.4514   4
   1   0  -3 3543.86 230.220   3
  -1   0   3 4232.23 229.656   2
  -1   0   3 4470.13 231.372   1
   1   0  -3 4212.55 231.152   1
   0   0  -3 9645.58 490.669   1
   0   0   3 9999.99 490.883   1
   0   0   3 7882.24 490.223   3
   0   0  -3 7563.73 490.042   3
  -1   0  -3 3.26201 2.22866   1
   1   0   3 2.45298 2.47706   2
   1   0   3 1.29632 2.30986   1
  -1   0  -3 3.00178 1.94192   2
   1   0   3 0.62552 3.65280   3
  -1   0  -3 5.43099 3.33010   3
   2   0   3 70.1493 6.05119   1
  -2   0  -3 65.3272 7.00483   3
  -2   0  -3 79.8894 6.49773   2
   2   0   3 47.9627 6.15972   3
   2   0   3 83.2785 6.57423   1
   2   0   3 72.7729 7.23070   2
  -3   0  -3 6261.05 351.793   2
  -3   0  -3 5795.02 351.795   3
   3   0   3 6529.44 352.445   1
   3   0   3 6582.27 352.083   2
  -4   0  -3 4.42980 3.68344   3
   4   0   3 7.15391 4.01696   1
   4   0   3 5.31915 4.79216   3
  -4   0  -3 5.61191 5.03312   2
   4   0   3 6.18204 5.96135   2
  -4   0  -3 4.03534 3.64348   1
  -5   0  -3 60.1472 7.02410   1
  -5   0  -3 58.3891 7.62515   2
   5   0   3 50.2900 7.34762   1
   5   0   3 53.5640 6.97310   3
  -5   0  -3 60.2556 6.97540   3
   5   0   3 65.1749 9.10492   2
  -6   0  -3 248.607 18.5691   2
   6   0   3 222.278 16.1875   3
  -6   0  -3 220.803 16.8654   1
  -6   0  -3 235.515 14.5788   3
   6   0   3 216.691 18.0898   1
  -7   0  -3 1553.37 86.0940   3
   7   0   3 1524.01 86.5302   3
  -7   0  -3 1505.16 88.7785   1
   7   0   3 1499.06 89.6609   1
  -7   0  -3 1569.78 88.1953   2
   8   0   3 183.145 21.8186   1
  -8   0  -3 224.837 20.0254   2
  -8   0  -3 200.992 18.2641   1
  -8   0  -3 202.633 12.3834   3
  -9   0  -3 9.96621 17.7386   2
 -10   0  -3 700.392 47.2218   2
 -11   0  -3 45.1239 15.8737   2
 -12   0  -3 84.8566 18.9324   2
 -12  -1   3 121.963 22.0768   2
 -12   1   3 142.088 22.5391   2
 -11  -1   3 83.6056 18.3932   2
 -11   1   3 68.3526 19.3111   2
 -10  -1   3 6.65615 14.9728   2
 -10   1   3 26.5068 15.9445   2
  -9  -1   3 -7.5609 12.6305   2
  -9   1   3 6.41852 13.0972   2
  -8  -1   3 640.960 42.2381   1
   8  -1  -3 653.547 41.5359   4
   8  -1  -3 619.056 44.0777   1
  -8  -1   3 637.433 41.0796   2
   8   1  -3 615.636 44.4446   1
  -8   1   3 609.932 42.7828   1
  -8   1   3 680.587 41.5116   2
   8   1  -3 699.105 41.5364   4
   7  -1  -3 34.7230 9.27627   4
   7  -1  -3 20.7162 9.99599   1
  -7  -1   3 18.7634 9.28742   2
  -7  -1   3 10.3008 7.49503   1
   7   1  -3 24.2016 8.54849   1
  -7   1   3 35.0234 10.3498   2
   7   1  -3 38.8814 9.22340   4
  -7   1   3 10.8731 7.68217   1
   6  -1  -3 -4.7092 6.98956   4
   6  -1  -3 4.72784 2.18723   3
   6  -1  -3 1.49141 7.81585   1
  -6  -1   3 26.2427 7.71097   2
  -6  -1   3 4.64256 6.09190   1
  -6   1   3 14.6560 7.86689   2
  -6   1   3 -6.4347 6.05465   1
   6   1  -3 4.72407 6.56919   1
   5  -1  -3 257.647 20.4076   1
  -5  -1   3 245.275 19.4115   1
   5  -1  -3 293.221 19.2466   4
  -5  -1   3 262.327 18.2219   2
   5  -1  -3 243.375 16.1109   3
   5   1  -3 291.082 18.9388   4
   5   1  -3 273.167 20.5727   1
  -5   1   3 272.314 18.3538   2
  -5   1   3 241.173 19.6053   1
   5   1  -3 281.134 15.3275   3
   4  -1  -3 1857.42 117.345   4
   4  -1  -3 2099.97 119.047   1
  -4  -1   3 2025.38 116.424   3
  -4  -1   3 2216.21 118.961   1
   4   1  -3 2020.77 117.644   4
   4   1  -3 2081.96 116.399   3
  -4   1   3 2133.71 117.170   2
  -4   1   3 2081.07 118.878   1
   4   1  -3 2178.99 119.099   1
   3  -1  -3 156.940 11.4322   3
  -3  -1   3 153.290 11.4725   3
  -3  -1   3 199.633 13.9981   1
  -3  -1   3 178.870 11.1761   2
   3  -1  -3 183.120 13.9086   1
  -3   1   3 189.698 13.9071   1
  -3   1   3 171.892 13.2819   3
  -3   1   3 189.592 12.0694   2
   3   1  -3 187.952 11.5765   3
   3   1  -3 182.789 13.1174   4
   2  -1  -3 481.935 30.7073   3
  -2  -1   3 575.854 30.3437   2
  -2  -1   3 562.048 32.3238   1
   2  -1  -3 542.397 32.1376   1
   2   1  -3 469.835 30.9906   4
   2   1  -3 539.266 30.8943   3
  -2   1   3 544.377 30.4793   2
  -2   1   3 550.615 32.3401   1
   1  -1  -3 2278.88 123.756   1
  -1  -1   3 1894.43 123.316   3
  -1  -1   3 2317.69 122.371   2
   1  -1  -3 2027.87 122.838   3
  -1  -1   3 2387.03 124.024   1
  -1   1   3 2184.86 122.199   2
  -1   1   3 2249.78 123.938   1
   1   1  -3 2050.85 122.784   4
  -1   1   3 2185.27 123.049   3
   1   1  -3 2199.39 122.376   2
   1   1  -3 2369.46 123.986   1
   1   1  -3 2119.03 122.970   3
   0  -1   3 68.6195 7.10691   3
   0  -1  -3 77.8809 4.88026   2
   0  -1  -3 82.9918 6.90810   1
   0  -1  -3 72.9520 6.65691   3
   0  -1   3 91.4050 5.53014   2
   0   1   3 71.6187 7.73686   3
   0   1  -3 88.0843 7.16987   1
   0   1  -3 78.8327 7.11898   3
   0   1   3 93.3113 5.19888   2
   0   1  -3 82.1005 5.97887   4
   0   1  -3 90.9204 5.46447   2
   0   1   3 89.4869 7.26467   1
  -1  -1  -3 1994.66 118.630   1
   1  -1   3 2226.94 118.237   2
  -1  -1  -3 2049.24 118.050   2
   1  -1   3 2304.65 119.179   1
   1  -1   3 1836.37 118.606   3
   1   1   3 1969.04 118.800   1
  -1   1  -3 2166.53 118.133   2
  -1   1  -3 2218.19 117.892   4
   1   1   3 1967.65 118.758   3
  -1   1  -3 2149.21 118.715   3
  -1   1  -3 2243.30 119.065   1
   1   1   3 2194.82 118.209   2
   2  -1   3 179.953 13.6159   3
   2  -1   3 206.981 13.4695   1
   2  -1   3 224.621 13.4219   2
  -2  -1  -3 204.258 12.6492   2
   2   1   3 200.936 12.8127   1
  -2   1  -3 215.522 13.4262   3
  -2   1  -3 220.382 12.9506   2
   2   1   3 196.186 12.9159   1
   2   1   3 181.873 13.8237   3
   2   1   3 205.541 13.1139   2
   3  -1   3 40.0085 6.05819   2
  -3  -1  -3 44.9884 5.06092   2
   3  -1   3 35.8944 5.49961   3
  -3  -1  -3 33.4597 4.60434   3
  -3  -1  -3 42.2554 3.75740   4
   3   1   3 34.9191 5.58148   3
  -3   1  -3 46.1800 5.18896   2
   3   1   3 41.6908 5.51359   1
   3   1   3 33.1991 4.35687   1
   3   1   3 42.8127 5.77836   2
  -3   1  -3 47.6333 5.02338   3
   4  -1   3 38.2873 7.11698   2
  -4  -1  -3 37.5951 4.89533   1
  -4  -1  -3 39.9485 5.87552   2
   4  -1   3 24.8339 5.49375   3
  -4  -1  -3 41.0861 4.95944   3
  -4   1  -3 35.0387 6.38942   1
   4   1   3 48.9132 6.84789   1
  -4   1  -3 39.6852 4.75145   3
   4   1   3 36.2769 5.66705   3
  -4   1  -3 40.1997 6.09243   2
  -5  -1  -3 450.216 26.6677   1
  -5  -1  -3 455.568 26.8230   2
  -5  -1  -3 439.158 25.6402   3
   5  -1   3 438.640 27.7029   2
   5  -1   3 357.949 26.3639   3
   5  -1   3 371.292 27.2635   1
   5  -1   3 447.921 24.7879   4
   5   1   3 459.959 26.2850   3
  -5   1  -3 474.577 25.5452   3
  -5   1  -3 471.153 27.4011   2
   5   1   3 447.387 27.2260   1
  -5   1  -3 362.387 27.3295   1
   6  -1   3 38.9898 9.69809   2
  -6  -1  -3 18.1282 7.50558   2
   6  -1   3 27.8638 6.87807   1
  -6  -1  -3 22.6464 4.32393   3
  -6  -1  -3 34.7493 6.10838   1
   6  -1   3 30.3664 6.11742   3
   6   1   3 18.4928 6.97037   1
  -6   1  -3 25.8287 7.95390   2
  -6   1  -3 20.7210 6.40456   1
  -6   1  -3 29.0651 4.30138   3
   6   1   3 29.4355 5.41045   3
  -7  -1  -3 86.9965 7.54835   3
  -7  -1  -3 87.1648 11.5383   1
  -7  -1  -3 87.4434 10.9913   2
   7   1   3 89.4150 11.1510   1
   8  -1   3 359.490 20.7033   3
  -8  -1  -3 319.213 19.2697   3
  -8  -1  -3 313.159 24.0900   1
  -8  -1  -3 341.270 25.2970   2
  -8   1  -3 346.947 25.0422   1
  -8   1  -3 342.336 25.6947   2
   8   1   3 287.198 26.5167   1
  -8   1  -3 341.839 19.5581   3
  -9  -1  -3 96.1530 20.9019   2
  -9   1  -3 64.7732 15.6468   2
 -10  -1  -3 250.145 25.7009   2
 -10   1  -3 279.096 26.2991   2
 -11  -1  -3 131.721 18.3874   2
 -11   1  -3 144.174 19.5407   2
 -12  -1  -3 19.5264 16.7679   2
 -12   1  -3 45.6890 18.3224   2
 -12  -2   3 94.4776 20.1827   2
 -12   2   3 67.0610 20.7092   2
 -11  -2   3 35.4168 16.5075   2
 -11   2   3 16.6012 18.3533   2
 -10  -2   3 206.747 20.4322   2
 -10   2   3 178.424 21.2336   2
  -9  -2   3 -4.5824 12.3048   2
  -9   2   3 -4.3991 14.1207   2
  -8  -2   3 122.201 14.0985   2
   8  -2  -3 142.375 13.9829   4
   8  -2  -3 91.6508 14.9700   1
  -8  -2   3 126.515 16.6107   1
  -8   2   3 139.044 15.1487   2
  -8   2   3 138.061 18.0996   1
   8   2  -3 131.066 14.6672   4
   7  -2  -3 221.561 23.6553   1
   7  -2  -3 248.832 20.9838   4
  -7  -2   3 235.504 20.9051   1
  -7  -2   3 259.752 20.6823   2
   7   2  -3 318.633 20.9075   4
   7   2  -3 245.866 26.9146   1
  -7   2   3 281.121 22.5695   2
  -7   2   3 259.089 22.0958   1
   6  -2  -3 702.806 43.7395   1
   6  -2  -3 661.710 38.2306   3
   6  -2  -3 666.278 41.0731   4
  -6  -2   3 689.327 42.2646   1
   6  -2  -3 632.616 38.6641   3
  -6  -2   3 692.593 40.8197   2
   6   2  -3 564.664 48.3558   1
   6   2  -3 754.531 41.7251   4
  -6   2   3 734.864 41.7102   2
  -5  -2   3 1457.89 80.3963   1
  -5  -2   3 1341.76 77.3305   3
   5  -2  -3 1214.52 77.6269   3
   5  -2  -3 1398.83 81.0518   1
   5   2  -3 1389.54 77.1910   3
  -5   2   3 1386.09 80.7941   1
  -5   2   3 1376.80 78.9756   2
   5   2  -3 1442.12 79.2396   4
   5   2  -3 1415.08 80.8859   1
   4  -2  -3 154.539 10.7121   3
   4  -2  -3 157.169 14.3248   1
  -4  -2   3 131.948 10.4086   3
  -4  -2   3 170.802 13.8932   1
  -4  -2   3 176.863 11.4554   2
  -4   2   3 162.533 12.6812   2
  -4   2   3 170.096 13.9645   1
   4   2  -3 125.283 15.6938   4
   4   2  -3 172.210 13.9120   1
   4   2  -3 169.438 10.0923   3
   3  -2  -3 255.493 15.8551   3
  -3  -2   3 266.622 18.0028   1
  -3  -2   3 221.579 16.4965   4
   3  -2  -3 262.992 18.1259   1
  -3  -2   3 264.307 15.8589   2
   3   2  -3 261.890 17.1342   4
  -3   2   3 253.454 16.5142   2
   3   2  -3 274.082 18.1940   1
   3   2  -3 277.530 15.6967   3
  -3   2   3 260.413 18.1710   1
  -2  -2   3 140.480 10.8744   1
  -2  -2   3 122.932 9.74596   4
  -2  -2   3 138.777 8.56552   2
   2  -2  -3 138.030 9.19758   3
  -2  -2   3 119.573 9.25689   3
   2  -2  -3 135.171 10.6733   1
  -2   2   3 140.283 10.9093   1
   2   2  -3 139.016 9.19324   3
   2   2  -3 120.006 10.7461   1
  -2   2   3 130.400 9.33570   3
   2   2  -3 127.781 9.64228   4
  -2   2   3 128.422 8.83926   2
  -1  -2   3 1078.76 62.1527   1
  -1  -2   3 1008.47 61.1200   3
  -1  -2   3 987.534 60.9648   4
  -1  -2   3 1121.01 60.6898   2
   1  -2  -3 1085.14 61.1332   3
   1  -2  -3 1056.42 61.9199   1
   1   2  -3 1144.13 61.0983   4
  -1   2   3 1079.47 62.1631   1
  -1   2   3 1206.75 61.3357   3
   1   2  -3 1190.57 61.2996   3
  -1   2   3 962.935 60.3874   2
   1   2  -3 1053.60 62.1188   1
   0  -2   3 776.168 39.9058   2
   0  -2   3 747.491 41.1708   1
   0  -2  -3 616.199 39.4433   2
   0  -2  -3 670.234 40.2978   3
   0  -2  -3 694.635 39.4738   2
   0  -2   3 718.331 40.4379   3
   0  -2  -3 658.808 40.6393   1
   0  -2   3 720.192 39.9595   4
   0   2   3 663.250 40.9066   1
   0   2  -3 691.981 39.8731   2
   0   2   3 718.694 40.5359   3
   0   2  -3 767.466 39.9474   4
   0   2  -3 748.368 40.5036   3
   1  -2   3 858.336 49.6452   3
   1  -2   3 891.301 48.8951   4
  -1  -2  -3 776.400 49.4625   3
   1  -2   3 962.539 49.2769   2
  -1  -2  -3 839.313 48.9666   2
  -1  -2  -3 795.504 49.4399   1
   1  -2   3 925.257 50.3276   1
  -1   2  -3 938.161 49.1966   2
  -1   2  -3 945.085 49.7517   3
  -1   2  -3 899.285 50.1990   1
   1   2   3 849.639 49.7484   3
   1   2   3 778.748 49.6983   1
  -2  -2  -3 494.484 32.4083   3
  -2  -2  -3 535.181 32.0969   2
   2  -2   3 549.257 33.1997   1
   2  -2   3 584.513 33.3549   1
   2  -2   3 505.725 32.6411   3
   2  -2   3 597.380 32.6111   2
   2   2   3 593.240 32.8999   3
  -2   2  -3 587.238 32.6034   3
  -2   2  -3 609.157 32.4104   2
   2   2   3 552.714 32.4121   1
   2   2   3 575.025 32.2749   1
  -3  -2  -3 1.56396 1.96061   4
   3  -2   3 1.17297 4.12747   3
  -3  -2  -3 4.12658 3.29084   3
   3  -2   3 11.8825 4.94519   2
  -3  -2  -3 2.31116 3.76845   2
   3  -2   3 -1.6435 3.70081   1
  -3   2  -3 0.07938 4.27006   2
  -3   2  -3 2.50300 3.67978   3
   3   2   3 4.96431 2.66596   1
   3   2   3 1.77674 2.54988   1
   3   2   3 2.10196 4.34384   3
  -4  -2  -3 145.998 11.5658   2
   4  -2   3 142.235 8.71952   4
   4  -2   3 95.5059 15.2948   2
  -4  -2  -3 124.940 10.2801   3
   4  -2   3 128.871 11.3848   3
  -4   2  -3 140.864 11.6536   1
   4   2   3 144.944 11.1601   3
  -4   2  -3 147.579 10.3121   3
  -4   2  -3 148.822 11.8402   2
   4   2   3 148.943 10.8168   1
   5  -2   3 2.84604 7.09181   2
  -5  -2  -3 -0.4297 3.88128   3
   5  -2   3 8.20081 7.25848   1
  -5  -2  -3 0.23052 3.46062   4
  -5  -2  -3 -1.1012 5.55509   2
  -5  -2  -3 4.99705 3.62809   1
   5  -2   3 3.56124 5.05389   3
   5  -2   3 0.58520 2.55548   4
  -5   2  -3 0.53868 4.16680   1
   5   2   3 -6.7612 4.55534   3
  -5   2  -3 -0.2615 6.46209   2
   5   2   3 7.54251 4.63576   1
  -5   2  -3 2.20249 3.80266   3
  -6  -2  -3 4.94965 6.97036   2
  -6  -2  -3 0.45064 3.96389   3
   6  -2   3 -1.6709 3.45995   4
  -6  -2  -3 7.99270 4.56489   1
   6  -2   3 15.9430 8.96511   2
   6  -2   3 5.97375 5.62032   3
  -6   2  -3 14.1700 7.86787   2
  -6   2  -3 13.5793 6.18828   1
  -6   2  -3 8.18130 3.88137   3
   6   2   3 4.96488 6.09562   1
  -7  -2  -3 -0.0470 5.16272   1
  -7  -2  -3 -3.5307 8.37207   2
   7  -2   3 14.6510 6.18552   3
  -7  -2  -3 4.72606 3.56000   3
   7  -2   3 4.49122 4.21897   4
   7  -2   3 3.50630 10.2376   2
  -7   2  -3 3.08848 9.02592   2
  -7   2  -3 6.27865 3.72831   3
  -7   2  -3 1.47861 6.48832   1
   7   2   3 5.37720 7.53003   1
  -8  -2  -3 25.0273 10.3546   2
  -8  -2  -3 30.7285 3.53340   3
  -8  -2  -3 24.8237 7.67946   1
   8   2   3 24.6233 10.2995   1
  -8   2  -3 35.6103 11.6771   2
  -8   2  -3 22.0645 14.0524   1
  -8   2  -3 38.5442 4.14373   3
  -9  -2  -3 94.4027 22.1210   2
  -9   2  -3 120.187 15.4903   2
 -10  -2  -3 23.3490 13.1499   2
 -10   2  -3 10.0754 14.0543   2
 -11  -2  -3 81.3316 16.8826   2
 -11   2  -3 98.2301 17.9100   2
 -12  -2  -3 75.5274 18.4762   2
 -12   2  -3 46.6303 18.7794   2
 -12  -3   3 100.643 19.7056   2
 -12   3   3 38.1197 20.8088   2
 -11  -3   3 65.5903 17.4850   2
 -11   3   3 66.7220 19.9578   2
 -10  -3   3 2.19665 13.6680   2
 -10   3   3 26.1751 15.9390   2
  -9  -3   3 -10.555 13.4527   2
  -9   3   3 16.6976 14.2583   2
  -8  -3   3 2.38587 10.6294   2
  -8  -3   3 -1.6258 7.89326   1
   8  -3  -3 12.3384 9.77931   4
   8  -3  -3 13.1401 11.4344   1
  -8   3   3 2.04434 12.1151   2
  -8   3   3 -3.8614 8.94564   1
   8   3  -3 -8.6504 9.87645   4
   7  -3  -3 206.823 12.1110   3
   7  -3  -3 187.235 21.7309   1
  -7  -3   3 213.067 18.4082   2
  -7  -3   3 197.685 15.8644   2
   7  -3  -3 184.489 12.7959   3
   7  -3  -3 166.125 17.6630   4
   7   3  -3 210.669 19.1609   4
  -7   3   3 225.797 20.4753   2
  -7   3   3 259.101 27.6655   1
   6  -3  -3 124.013 9.20481   3
  -6  -3   3 132.671 7.56772   3
  -6  -3   3 115.434 13.5156   1
   6  -3  -3 125.471 9.55340   3
  -6  -3   3 132.330 12.4114   2
   6  -3  -3 114.691 16.6733   1
   6   3  -3 141.613 14.7016   4
  -6   3   3 148.123 15.7798   2
  -6   3   3 106.992 15.3673   1
  -5  -3   3 97.2133 8.91161   2
  -5  -3   3 82.7142 11.0090   1
   5  -3  -3 78.0108 7.59804   3
   5  -3  -3 59.3570 8.87672   1
  -5  -3   3 76.5753 6.72318   3
  -5   3   3 88.7195 12.1446   1
   5   3  -3 89.7650 6.03858   3
   5   3  -3 92.6278 9.27726   4
  -5   3   3 83.7994 9.24008   2
   4  -3  -3 366.717 24.2029   1
  -4  -3   3 378.334 23.5224   1
  -4  -3   3 324.845 22.1787   4
   4  -3  -3 354.850 20.9576   3
  -4  -3   3 351.507 21.2141   2
   4   3  -3 340.208 22.1943   4
   4   3  -3 351.013 24.6244   1
  -4   3   3 343.586 23.9400   1
  -4   3   3 326.525 22.3164   2
   4   3  -3 360.273 20.4331   3
  -3  -3   3 569.824 34.3918   3
  -3  -3   3 624.315 36.3562   1
   3  -3  -3 590.574 34.2561   2
   3  -3  -3 627.745 34.4648   3
   3  -3  -3 572.046 36.4250   1
  -3  -3   3 623.132 34.3980   2
  -3  -3   3 565.881 34.8723   4
   3   3  -3 628.361 34.2411   3
  -3   3   3 571.823 34.7829   2
  -3   3   3 590.409 36.4706   1
   3   3  -3 581.006 36.7599   1
   3   3  -3 630.494 35.2626   4
   2  -3  -3 6.53623 3.70820   1
  -2  -3   3 10.6980 2.86196   2
  -2  -3   3 12.2443 3.35403   3
   2  -3  -3 12.9782 3.25295   3
  -2  -3   3 11.3084 4.02675   1
   2  -3  -3 9.01675 2.16315   2
  -2  -3   3 9.77545 3.88530   4
   2   3  -3 10.2127 2.87850   2
   2   3  -3 16.5446 3.30650   3
   2   3  -3 4.28459 4.11913   1
  -2   3   3 8.56883 3.96126   1
   2   3  -3 11.8347 3.85185   4
  -2   3   3 3.44717 2.70790   2
  -1  -3   3 1312.45 73.3757   3
  -1  -3   3 1281.63 74.4121   1
  -1  -3   3 1257.11 73.2062   4
   1  -3  -3 1267.85 74.1671   1
   1  -3  -3 1298.55 73.3479   3
  -1  -3   3 1368.28 73.0460   2
   1  -3  -3 1181.19 72.6853   2
   1   3  -3 1254.25 72.9970   2
   1   3  -3 1317.01 74.5152   1
  -1   3   3 1173.99 72.6472   2
   1   3  -3 1412.27 73.3301   4
  -1   3   3 1410.53 73.5457   3
   1   3  -3 1388.89 73.4513   3
  -1   3   3 1287.51 74.3588   1
   0  -3   3 166.505 10.2723   2
   0  -3  -3 156.091 10.8923   1
   0  -3   3 175.849 11.8840   1
   0  -3  -3 157.256 9.46831   2
   0  -3   3 182.812 11.0986   3
   0  -3  -3 163.471 10.8155   3
   0   3  -3 168.884 11.2481   3
   0   3   3 159.702 11.3008   1
   0   3  -3 166.876 10.2177   2
   0   3  -3 159.384 11.7384   1
   0   3   3 184.661 11.6716   3
   1  -3   3 146.834 10.6492   1
  -1  -3  -3 130.772 8.97138   1
  -1  -3  -3 138.234 9.76266   3
   1  -3   3 140.295 9.78505   3
   1  -3   3 132.231 9.15830   2
  -1   3  -3 135.426 9.05834   2
   1   3   3 150.725 10.4520   3
  -1   3  -3 142.809 9.76509   3
   1   3   3 139.869 9.56384   1
   2  -3   3 31.3685 4.67515   1
  -2  -3  -3 45.8738 5.16723   2
   2  -3   3 52.1615 5.17685   2
  -2  -3  -3 53.2324 6.00447   3
   2  -3   3 47.1973 5.74877   1
   2  -3   3 42.9783 5.03513   3
  -2   3  -3 41.0164 4.80220   2
   2   3   3 43.8375 5.26350   3
   2   3   3 50.6796 4.87933   1
  -2   3  -3 50.0018 5.88859   3
   3  -3   3 17.4181 4.93877   1
   3  -3   3 15.3818 5.30103   2
   3  -3   3 16.8744 4.46612   3
  -3  -3  -3 17.0248 4.05240   2
  -3  -3  -3 22.4803 4.15586   3
  -3   3  -3 26.6942 4.88182   2
   3   3   3 23.7702 3.18853   1
   3   3   3 16.7216 4.62181   3
   3   3   3 26.0473 3.19004   1
  -3   3  -3 18.0389 4.09485   3
  -4  -3  -3 282.062 20.3109   3
  -4  -3  -3 349.754 19.7963   4
   4  -3   3 321.061 22.3812   1
   4  -3   3 317.535 20.9231   3
   4  -3   3 314.386 21.6337   2
  -4  -3  -3 347.380 20.7784   2
  -4   3  -3 339.841 21.7794   2
  -4   3  -3 357.690 20.4475   3
  -4   3  -3 336.507 22.0546   1
   4   3   3 353.359 20.5135   1
   4   3   3 361.672 20.8832   3
   5  -3   3 300.113 21.1797   3
  -5  -3  -3 293.533 20.3611   3
   5  -3   3 333.810 23.5919   1
   5  -3   3 316.991 19.6628   4
  -5  -3  -3 336.830 20.1528   4
  -5  -3  -3 338.994 21.4089   2
   5  -3   3 353.373 22.6301   2
  -5   3  -3 335.707 22.6114   1
  -5   3  -3 365.029 20.4050   3
  -5   3  -3 340.636 22.2508   2
   5   3   3 348.839 21.3110   1
   6  -3   3 138.958 16.6853   1
   6  -3   3 131.472 13.2898   3
   6  -3   3 154.607 10.9593   4
  -6  -3  -3 149.842 11.7431   4
  -6  -3  -3 154.528 12.1222   1
  -6  -3  -3 154.819 11.5630   3
   6  -3   3 168.727 17.4285   2
  -6  -3  -3 169.734 15.0299   2
  -6   3  -3 163.108 14.9771   1
  -6   3  -3 164.585 15.6395   2
  -6   3  -3 164.677 11.3570   3
   6   3   3 157.094 14.1828   1
   7  -3   3 251.444 22.0819   2
  -7  -3  -3 227.747 19.2299   2
   7  -3   3 185.416 16.5976   3
   7  -3   3 224.579 21.1908   1
   7  -3   3 210.084 14.7665   4
  -7  -3  -3 234.993 16.6682   1
  -7  -3  -3 239.356 14.4365   3
  -7   3  -3 222.627 20.6551   2
  -7   3  -3 225.012 14.5318   3
   7   3   3 214.812 19.0474   1
  -7   3  -3 211.332 19.1639   1
   8  -3   3 -3.0245 6.17043   3
  -8  -3  -3 -6.3522 9.61029   2
   8  -3   3 4.22299 5.28546   4
  -8  -3  -3 5.90324 2.89563   3
  -8  -3  -3 -12.397 5.94577   1
   8   3   3 -1.2200 9.93260   1
  -8   3  -3 5.71458 10.8692   2
  -8   3  -3 -6.4012 7.66808   1
  -8   3  -3 1.47504 3.78444   3
   9  -3   3 30.7629 7.67841   3
   9  -3   3 29.4705 10.7563   4
  -9  -3  -3 12.9823 11.6040   2
  -9   3  -3 21.4014 12.9311   2
 -10  -3  -3 18.2044 13.1904   2
 -10   3  -3 -2.9166 13.9401   2
 -11  -3  -3 121.417 18.3752   2
 -11   3  -3 151.300 19.8869   2
 -12  -3  -3 12.6435 16.3538   2
 -12   3  -3 20.5462 18.0484   2
 -12  -4   3 -3.0552 17.5252   2
 -12   4   3 4.88806 20.4618   2
 -11  -4   3 82.5625 16.8874   2
 -11   4   3 42.7033 20.3920   2
 -10  -4   3 24.6649 14.2351   2
 -10   4   3 23.8582 17.0036   2
  -9   4   3 51.0616 15.8704   2
   8  -4  -3 10.4649 19.8174   1
   8  -4  -3 24.7848 2.63016   3
  -8  -4   3 18.2395 10.8656   2
   8  -4  -3 22.3725 3.53491   3
  -8  -4   3 18.5745 9.10374   1
   8  -4  -3 12.4039 10.3392   4
  -8   4   3 9.50279 9.20612   1
  -8   4   3 23.6963 13.0437   2
  -7  -4   3 336.863 25.4079   2
   7  -4  -3 350.122 20.1668   3
  -7  -4   3 337.275 24.9690   1
   7  -4  -3 313.880 20.7065   3
  -7  -4   3 329.645 23.2190   2
  -7   4   3 369.588 27.5864   1
   7   4  -3 374.800 25.4908   4
   7   4  -3 332.804 27.1295   1
  -7   4   3 344.929 25.5340   2
   6  -4  -3 4.35423 3.42055   3
  -6  -4   3 4.03045 5.72418   1
  -6  -4   3 1.39485 2.66794   3
   6  -4  -3 -3.3547 8.76706   1
   6  -4  -3 5.94690 4.13129   3
  -6  -4   3 1.90161 5.90439   2
  -6   4   3 9.05486 8.40914   2
  -6   4   3 9.92238 8.29673   1
   6   4  -3 -0.0892 7.45310   4
   6   4  -3 17.7096 6.01535   1
   5  -4  -3 106.722 9.10843   3
   5  -4  -3 104.835 14.3563   1
  -5  -4   3 103.208 10.5538   2
  -5  -4   3 105.655 10.0700   4
   5   4  -3 105.543 7.55032   3
  -5   4   3 103.577 13.8833   1
  -5   4   3 106.143 10.7332   2
   5   4  -3 133.980 12.7939   4
  -4  -4   3 123.647 11.9823   4
  -4  -4   3 137.303 10.4044   2
   4  -4  -3 120.557 10.3137   2
   4  -4  -3 142.583 10.1991   3
  -4  -4   3 133.979 9.83205   3
   4  -4  -3 132.178 13.8719   1
  -4  -4   3 132.374 12.5676   1
  -4   4   3 132.383 12.3855   2
   4   4  -3 162.753 12.0280   4
   4   4  -3 146.559 9.32877   3
  -4   4   3 141.842 13.6646   1
  -3  -4   3 705.400 39.8708   2
  -3  -4   3 711.391 41.6728   1
   3  -4  -3 718.497 39.8669   3
   3  -4  -3 648.953 39.5630   2
  -3  -4   3 649.186 40.1467   4
  -3  -4   3 728.016 39.8050   3
   3  -4  -3 695.889 42.0444   1
   3   4  -3 699.915 40.3775   4
   3   4  -3 709.676 39.6245   3
  -3   4   3 667.161 40.0240   2
  -3   4   3 697.999 42.0929   1
  -2  -4   3 10.6694 3.96026   4
  -2  -4   3 5.83707 3.43670   3
   2  -4  -3 7.13547 3.58459   3
  -2  -4   3 4.65178 3.17857   2
   2  -4  -3 1.62598 3.36590   1
  -2  -4   3 11.1993 4.25821   1
   2  -4  -3 5.57493 2.37977   2
  -2   4   3 11.4005 2.76955   2
   2   4  -3 7.68192 3.16375   2
  -2   4   3 4.75033 3.62659   1
   2   4  -3 7.70378 4.39958   1
   2   4  -3 6.39085 3.11017   3
   2   4  -3 10.8091 3.91477   4
   1  -4  -3 33.9915 4.64202   1
  -1  -4   3 31.0466 4.77196   1
   1  -4  -3 37.7819 3.23782   2
  -1  -4   3 32.9825 3.69220   2
  -1  -4   3 35.4847 4.18067   4
  -1  -4   3 36.0711 4.45048   3
   1  -4  -3 32.8383 4.25987   3
   1   4  -3 37.3783 5.02545   1
   1   4  -3 34.2649 3.77444   2
  -1   4   3 33.8068 3.18603   2
   1   4  -3 37.6583 4.28136   3
  -1   4   3 46.0446 6.31872   1
   0  -4  -3 168.560 10.9734   3
   0  -4  -3 160.722 9.61389   2
   0  -4  -3 166.769 11.0405   1
   0  -4   3 153.068 11.9305   1
   0  -4   3 158.961 11.0820   3
   0  -4   3 172.730 10.7074   2
   0  -4   3 182.347 10.4276   4
   0   4  -3 163.189 10.4600   2
   0   4   3 156.775 9.63850   2
   0   4  -3 179.029 11.1474   3
   0   4  -3 157.999 11.9667   1
   0   4   3 163.620 11.3284   1
   1  -4   3 500.927 30.4320   1
   1  -4   3 489.864 29.0542   2
  -1  -4  -3 486.521 29.0084   1
   1  -4   3 513.116 29.5609   3
  -1  -4  -3 521.429 29.3508   3
   1  -4   3 515.988 30.4562   1
  -1  -4  -3 491.140 28.6106   2
  -1   4  -3 515.454 29.4451   3
  -1   4  -3 496.090 29.0309   2
   1   4   3 517.335 29.2471   1
   2  -4   3 2295.98 128.373   2
   2  -4   3 2275.65 129.642   1
   2  -4   3 2205.85 128.463   3
  -2  -4  -3 2227.81 128.371   3
  -2   4  -3 2290.69 128.331   2
  -2   4  -3 2413.89 128.511   3
   3  -4   3 303.383 20.1302   1
  -3  -4  -3 288.356 18.3348   3
  -3  -4  -3 296.550 18.3893   2
   3  -4   3 276.808 19.1956   2
   3  -4   3 294.460 18.4901   3
  -3   4  -3 294.857 18.8337   2
  -3   4  -3 325.377 18.5725   3
   4  -4   3 721.629 42.9613   3
  -4  -4  -3 751.676 42.1855   4
   4  -4   3 716.130 43.3876   2
   4  -4   3 742.096 44.8534   1
  -4  -4  -3 693.801 42.6274   3
  -4  -4  -3 733.228 42.9754   2
   4   4   3 799.341 42.5088   1
   4   4   3 658.353 42.6339   1
  -4   4  -3 758.384 44.5316   1
  -4   4  -3 747.622 43.3596   2
  -4   4  -3 820.338 42.7601   3
  -5  -4  -3 5.57195 4.16408   3
  -5  -4  -3 4.71129 3.91337   4
  -5  -4  -3 2.30483 5.64811   2
   5  -4   3 3.92012 5.11487   3
   5  -4   3 -2.9602 5.85301   1
   5  -4   3 3.01158 7.48308   2
   5   4   3 6.05593 4.32902   1
  -5   4  -3 11.0211 9.80369   1
  -5   4  -3 2.66815 4.41963   3
  -5   4  -3 11.4159 7.22345   2
  -6  -4  -3 4.25012 6.76667   2
  -6  -4  -3 -2.8375 4.64145   4
  -6  -4  -3 3.30762 4.33430   3
   6  -4   3 2.90327 5.67065   3
   6  -4   3 -0.7927 3.94926   4
   6  -4   3 -15.719 7.16150   1
   6  -4   3 17.8605 8.41584   2
  -6   4  -3 3.57932 8.45028   2
  -6   4  -3 5.24145 6.71338   1
  -6   4  -3 3.23283 4.29684   3
   6   4   3 0.82453 5.77605   1
   7  -4   3 19.7143 10.1150   1
  -7  -4  -3 28.3828 5.04068   3
   7  -4   3 35.9487 7.17593   3
   7  -4   3 34.2517 5.53506   4
  -7  -4  -3 38.1994 9.11959   2
  -7  -4  -3 33.1205 6.21626   4
  -7  -4  -3 34.3466 5.94379   1
   7  -4   3 42.9522 11.4204   2
  -7   4  -3 33.9058 10.6385   2
  -7   4  -3 27.1559 8.06990   1
  -7   4  -3 41.2173 5.25764   3
   7   4   3 31.2527 8.68590   1
  -8  -4  -3 412.103 23.9402   3
   8  -4   3 397.400 26.3108   3
  -8  -4  -3 415.539 26.8055   1
   8  -4   3 392.414 25.1523   4
  -8  -4  -3 420.121 28.5989   2
  -8   4  -3 412.326 24.4838   3
  -8   4  -3 415.188 30.0892   2
   8   4   3 412.282 30.1466   1
  -9  -4  -3 125.913 14.8135   2
   9  -4   3 117.913 12.6199   4
   9  -4   3 135.338 12.8699   3
  -9   4  -3 140.699 16.5894   2
 -10  -4  -3 45.8207 13.4363   2
 -10   4  -3 43.2606 15.1584   2
 -11  -4  -3 11.4978 14.2066   2
 -11   4  -3 7.98146 17.0636   2
 -12  -5   3 3.56781 17.0269   2
 -12   5   3 26.3304 21.4930   2
 -11  -5   3 -15.749 15.8763   2
 -11   5   3 11.2947 19.5720   2
 -10  -5   3 17.0921 13.8272   2
 -10   5   3 29.5389 17.5456   2
  -9  -5   3 187.078 18.8179   2
  -9   5   3 225.773 24.8394   2
   8  -5  -3 310.692 30.9139   1
   8  -5  -3 318.662 20.9044   3
  -8  -5   3 346.311 26.2525   2
   8  -5  -3 370.249 20.4495   3
  -8   5   3 336.080 29.5545   1
  -8   5   3 348.356 29.4318   2
  -7  -5   3 185.348 17.4053   1
   7  -5  -3 282.533 33.2103   1
  -7  -5   3 166.793 16.3061   2
   7  -5  -3 172.167 13.2384   3
   7  -5  -3 188.079 12.4084   3
  -7   5   3 161.160 16.7535   2
  -7   5   3 191.169 21.0698   1
   7   5  -3 173.770 19.6221   1
   6  -5  -3 86.5829 9.06120   3
   6  -5  -3 71.9327 7.96856   3
  -6  -5   3 80.7673 8.90052   2
  -6  -5   3 70.2081 9.35868   4
   6  -5  -3 62.6278 11.5907   1
   6  -5  -3 85.7781 8.88942   2
  -6  -5   3 83.5012 11.8478   1
   6   5  -3 85.1275 10.4322   4
  -6   5   3 82.8894 11.2159   2
  -6   5   3 101.740 13.4956   1
   6   5  -3 93.3264 12.1377   1
  -5  -5   3 53.4329 6.85124   2
   5  -5  -3 40.2170 6.32821   2
  -5  -5   3 35.6260 7.14527   4
   5  -5  -3 44.2715 5.55172   3
   5  -5  -3 39.5374 5.03511   3
  -5  -5   3 50.6625 5.08588   3
  -5  -5   3 58.7714 8.24043   1
   5  -5  -3 44.3556 9.40553   1
  -5   5   3 27.6505 7.99734   2
   5   5  -3 48.1331 5.57334   3
  -5   5   3 44.1305 9.24817   1
   5   5  -3 54.0607 8.92771   1
   5   5  -3 55.0971 8.07489   4
  -4  -5   3 124.318 12.0568   1
  -4  -5   3 118.479 10.4359   2
  -4  -5   3 114.636 11.6606   4
  -4  -5   3 140.074 9.79373   3
   4  -5  -3 124.540 13.8694   1
   4  -5  -3 130.217 10.1484   3
   4  -5  -3 109.117 10.1603   2
  -4   5   3 144.397 13.9382   1
   4   5  -3 125.742 9.23576   3
   4   5  -3 163.590 13.5424   1
  -4   5   3 123.463 12.1863   2
  -3  -5   3 2421.51 139.179   1
   3  -5  -3 2629.47 137.666   3
   3  -5  -3 2337.26 137.313   2
  -3  -5   3 2497.09 137.640   2
   3  -5  -3 2433.66 139.553   1
  -3  -5   3 2501.95 137.514   3
  -3  -5   3 2324.41 137.728   4
   3   5  -3 2506.23 137.415   3
  -3   5   3 2317.48 137.471   2
  -3   5   3 2519.70 139.747   1
  -2  -5   3 388.775 25.3838   1
  -2  -5   3 412.813 24.0444   3
  -2  -5   3 414.936 24.2418   4
   2  -5  -3 399.461 25.6455   1
   2  -5  -3 384.676 23.3789   2
   2  -5  -3 444.761 24.2744   3
  -2  -5   3 404.015 23.7722   2
  -2   5   3 350.494 23.7001   2
   2   5  -3 433.003 24.0327   3
   2   5  -3 418.587 23.8710   2
  -2   5   3 412.028 25.7914   1
  -1  -5   3 148.879 10.4044   3
  -1  -5   3 141.612 9.92167   4
   1  -5  -3 147.877 10.3912   3
   1  -5  -3 140.978 11.0779   1
  -1  -5   3 143.428 11.6008   1
  -1  -5   3 142.723 10.1224   2
   1  -5  -3 146.180 8.97802   2
  -1   5   3 137.522 8.98485   2
   1   5  -3 145.834 11.7727   1
   1   5  -3 162.289 10.2924   2
   1   5  -3 159.976 10.6466   3
  -1   5   3 152.814 11.5832   1
   0  -5  -3 159.458 9.64890   2
   0  -5   3 164.141 12.1070   1
   0  -5  -3 175.301 11.1403   3
   0  -5   3 167.649 10.6829   2
   0  -5  -3 148.122 10.9146   1
   0  -5   3 157.515 11.2155   3
   0   5   3 159.529 9.70330   2
   0   5  -3 160.236 11.4045   3
   0   5  -3 161.770 10.6665   2
   0   5  -3 163.000 12.1493   1
   0   5   3 160.304 11.3005   1
   1  -5   3 56.5719 8.12780   1
   1  -5   3 66.4274 8.00287   1
   1  -5   3 62.7190 7.61448   3
   1  -5   3 60.4470 6.63039   2
  -1  -5  -3 58.5876 5.25046   1
  -1  -5  -3 65.2014 5.04284   2
  -1  -5  -3 60.4181 6.66485   3
  -1   5  -3 71.0780 6.49187   2
   1   5   3 63.7600 5.61023   1
  -1   5  -3 62.7453 6.92809   3
   2  -5   3 99.5729 8.56139   2
  -2  -5  -3 89.1029 7.28906   2
   2  -5   3 95.1115 10.0169   1
   2  -5   3 103.939 10.0409   1
  -2  -5  -3 98.9456 8.48918   3
   2  -5   3 85.6575 8.52570   3
  -2   5  -3 99.9099 8.85167   3
  -2   5  -3 89.1440 8.41435   2
  -3  -5  -3 492.828 30.4907   2
  -3  -5  -3 531.137 30.7404   3
   3  -5   3 490.670 31.1213   2
   3  -5   3 508.723 32.6081   1
   3  -5   3 517.761 30.9940   3
  -3   5  -3 543.110 31.3623   2
  -3   5  -3 581.308 30.8422   3
   4  -5   3 557.133 33.9937   2
  -4  -5  -3 554.800 33.2684   2
   4  -5   3 551.525 33.2695   3
   4  -5   3 572.701 35.5596   1
  -4  -5  -3 555.911 32.8961   3
  -4   5  -3 542.157 34.9045   1
  -4   5  -3 588.500 33.0158   3
  -4   5  -3 561.799 33.7589   2
  -5  -5  -3 42.0512 5.65716   3
   5  -5   3 54.0817 8.50690   2
   5  -5   3 39.7803 6.77031   3
  -5  -5  -3 52.9650 7.44823   2
   5  -5   3 58.9155 9.58228   1
  -5  -5  -3 51.4370 5.62650   4
  -5   5  -3 45.8989 8.43998   2
  -5   5  -3 44.1778 6.67959   3
  -5   5  -3 42.2594 7.61822   1
   5   5   3 45.3396 5.26550   1
  -6  -5  -3 174.698 12.8875   4
   6  -5   3 139.655 16.4389   2
   6  -5   3 184.244 19.1010   1
  -6  -5  -3 162.349 14.8222   2
   6  -5   3 168.347 14.0041   3
  -6  -5  -3 161.723 12.5076   3
  -6   5  -3 187.427 16.7203   2
  -6   5  -3 145.549 16.1699   3
  -6   5  -3 172.949 16.4916   1
   7  -5   3 56.8320 8.23960   3
  -7  -5  -3 52.9712 9.81438   2
   7  -5   3 45.9695 12.5298   2
  -7  -5  -3 57.9230 6.38128   3
   7  -5   3 68.9449 12.0005   1
  -7  -5  -3 62.9850 7.45697   4
   7  -5   3 57.7202 6.70632   4
  -7   5  -3 48.0152 9.06223   1
  -7   5  -3 56.2990 6.67871   3
   7   5   3 67.8105 9.23380   1
  -7   5  -3 55.9747 11.8079   2
  -8  -5  -3 40.5945 5.10496   3
  -8  -5  -3 33.7724 10.7308   2
  -8  -5  -3 38.0755 4.58527   3
   8   5   3 67.2880 10.7699   1
  -8   5  -3 21.7054 12.2431   2
   9  -5   3 49.6161 7.77501   4
  -9  -5  -3 41.0577 12.3130   2
   9  -5   3 51.6122 8.15949   3
  -9   5  -3 42.3464 14.0415   2
 -10  -5  -3 5.25967 12.6845   2
 -10   5  -3 1.83133 15.1319   2
 -11  -5  -3 21.9951 14.5827   2
 -11   5  -3 22.3523 16.8228   2
 -11  -6   3 18.2233 15.1772   2
 -11   6   3 29.4523 19.3091   2
 -10  -6   3 151.041 18.3755   2
 -10   6   3 103.954 19.5056   2
   9  -6  -3 42.0431 5.05961   3
  -9  -6   3 36.1624 13.5325   2
  -9   6   3 13.3293 16.1258   2
   8  -6  -3 7.66763 15.3458   1
  -8  -6   3 -11.277 11.1045   2
   8  -6  -3 1.40817 4.44281   3
   8  -6  -3 7.00382 5.43540   3
  -8   6   3 -9.1083 13.1130   2
  -8   6   3 3.53038 12.3560   1
   7  -6  -3 3.08520 7.96334   2
   7  -6  -3 8.87538 12.0941   1
  -7  -6   3 -7.0549 6.87162   1
   7  -6  -3 4.65260 4.60115   3
  -7  -6   3 -1.5265 8.29537   4
  -7  -6   3 -3.6619 7.77484   2
  -7  -6   3 4.50057 4.84852   3
   7  -6  -3 0.94448 5.30316   3
   7   6  -3 2.02883 10.0583   1
  -7   6   3 11.9978 11.7094   2
   6  -6  -3 1537.52 91.5633   1
  -6  -6   3 1539.19 89.3886   1
   6  -6  -3 1527.86 86.9977   3
   6  -6  -3 1553.46 87.5750   2
  -6  -6   3 1530.66 87.6270   2
  -6  -6   3 1446.27 87.9530   4
   6  -6  -3 1534.51 86.7160   3
  -6  -6   3 1508.68 86.5527   3
   6   6  -3 1702.85 91.5129   1
  -6   6   3 1593.61 91.4615   1
  -6   6   3 1419.29 88.6464   2
  -5  -6   3 345.449 23.4557   4
   5  -6  -3 338.155 21.6132   3
   5  -6  -3 366.096 22.5188   2
  -5  -6   3 354.208 21.5074   3
  -5  -6   3 374.706 24.4838   1
   5  -6  -3 353.127 22.1357   3
  -5  -6   3 338.685 22.5849   2
   5  -6  -3 354.814 26.7550   1
   5   6  -3 390.958 26.1545   1
  -5   6   3 342.692 26.3135   1
  -5   6   3 350.486 24.2382   2
  -4  -6   3 10.2656 5.89252   4
  -4  -6   3 9.36068 4.01364   3
  -4  -6   3 7.00947 5.00200   1
   4  -6  -3 14.7333 7.03705   1
   4  -6  -3 10.6017 4.56020   2
   4  -6  -3 21.2364 4.78743   3
  -4  -6   3 3.20991 4.92441   2
   4   6  -3 12.2683 6.40782   1
  -4   6   3 8.49669 6.39199   1
  -4   6   3 16.9247 6.27268   2
   4   6  -3 7.19613 3.71499   3
   3  -6  -3 620.354 39.8337   1
  -3  -6   3 622.537 39.3214   1
   3  -6  -3 617.087 37.3498   2
   3  -6  -3 654.927 37.7332   3
  -3  -6   3 668.146 37.6399   3
  -3  -6   3 630.520 37.8784   4
  -3  -6   3 679.111 37.7223   2
   3   6  -3 667.581 37.5169   3
   3   6  -3 688.393 39.7942   1
   3   6  -3 656.418 37.7208   2
  -3   6   3 627.791 37.5631   2
  -3   6   3 667.132 40.2025   1
   2  -6  -3 626.883 34.9458   3
  -2  -6   3 562.465 34.5201   2
  -2  -6   3 617.857 34.8015   3
   2  -6  -3 601.966 36.3068   1
   2  -6  -3 578.220 34.0703   2
  -2  -6   3 600.901 34.6772   4
  -2  -6   3 587.839 36.0895   1
   2   6  -3 599.490 34.6432   3
  -2   6   3 614.230 36.5254   1
  -2   6   3 589.981 34.1187   2
   2   6  -3 589.674 34.5509   2
   1  -6  -3 476.077 27.1435   3
   1  -6  -3 445.680 27.9229   1
  -1  -6   3 443.458 28.1529   1
   1  -6  -3 447.213 26.1486   2
  -1  -6   3 481.554 26.9248   4
  -1  -6   3 484.128 27.1079   3
  -1  -6   3 468.464 26.7257   2
  -1   6   3 406.726 26.1961   2
   1   6  -3 447.917 28.6311   1
   1   6  -3 460.778 27.0331   3
   1   6  -3 471.092 26.9263   2
  -1   6   3 466.825 28.1650   1
   0  -6  -3 7.46483 4.08880   3
   0  -6   3 5.12576 4.25086   3
   0  -6   3 10.0416 3.92600   2
   0  -6  -3 5.20210 3.02835   1
   0  -6  -3 5.60017 2.19334   2
   0  -6   3 1.07106 3.75359   1
   0   6   3 6.01480 2.46906   2
   0   6  -3 8.95575 3.73850   2
   0   6   3 8.85904 3.60192   1
   0   6  -3 1.25992 3.98504   3
  -1  -6  -3 538.658 30.1918   3
   1  -6   3 529.363 31.5582   1
   1  -6   3 493.091 30.2720   3
   1  -6   3 485.382 31.3009   1
  -1  -6  -3 486.725 29.1730   2
  -1  -6  -3 509.856 29.5493   1
   1  -6   3 509.139 29.9308   2
  -1   6  -3 496.711 29.7963   2
  -1   6  -3 546.994 30.2119   3
   1   6   3 517.475 29.6140   1
   2  -6   3 213.257 16.3263   1
  -2  -6  -3 222.931 14.3663   3
   2  -6   3 211.285 15.0745   3
  -2  -6  -3 214.077 13.6687   2
  -2   6  -3 227.170 14.6034   3
  -2   6  -3 227.141 14.9948   2
  -3  -6  -3 422.597 25.3522   3
   3  -6   3 422.567 25.7784   2
   3  -6   3 425.678 27.7236   1
  -3  -6  -3 418.605 25.1652   2
   3  -6   3 444.727 25.9425   3
  -3   6  -3 460.000 26.2312   2
  -3   6  -3 345.617 28.5487   3
  -4  -6  -3 165.667 12.1950   3
   4  -6   3 154.701 15.7443   1
  -4  -6  -3 152.773 12.0796   2
   4  -6   3 177.413 13.8901   2
   4  -6   3 164.341 12.9627   3
  -4   6  -3 176.540 12.6507   3
  -4   6  -3 160.227 14.7351   1
  -4   6  -3 164.362 14.1299   2
  -5  -6  -3 44.1500 7.58601   2
  -5  -6  -3 46.4051 6.25293   3
   5  -6   3 63.5774 10.6798   1
   5  -6   3 54.2133 9.01072   2
   5  -6   3 51.2013 7.17625   3
  -5  -6  -3 48.8346 5.94385   4
  -5  -6  -3 52.6596 7.09272   2
  -5   6  -3 60.2990 6.48115   3
  -5   6  -3 51.5225 8.80038   1
  -5   6  -3 67.6645 9.57830   2
   6  -6   3 259.470 20.3913   2
   6  -6   3 214.445 16.9672   3
  -6  -6  -3 218.577 15.9138   4
   6  -6   3 221.680 21.8707   1
  -6  -6  -3 232.333 17.6304   2
  -6  -6  -3 204.091 15.7355   3
  -6   6  -3 243.596 15.9464   3
  -6   6  -3 233.578 20.0180   1
  -6   6  -3 232.912 19.6417   2
   7  -6   3 74.9651 14.3678   1
  -7  -6  -3 86.5135 11.0802   2
   7  -6   3 85.8110 9.37668   3
  -7  -6  -3 75.1235 7.61815   3
  -7  -6  -3 80.2333 8.42189   4
   7   6   3 86.7350 8.60077   1
   7   6   3 82.8879 9.11625   1
  -7   6  -3 67.0040 10.9332   1
  -7   6  -3 83.2010 9.80413   3
  -7   6  -3 94.0789 12.9404   2
  -8  -6  -3 20.4783 10.3230   2
  -8  -6  -3 24.4543 7.00382   4
   8  -6   3 25.6968 7.21580   4
  -8  -6  -3 24.6518 5.24516   3
   8  -6   3 17.0052 7.93319   3
  -8  -6  -3 25.8927 4.41425   3
  -8   6  -3 34.5896 13.9661   2
   8   6   3 13.0337 9.19361   1
  -9  -6  -3 172.865 17.0841   2
  -9  -6  -3 183.283 10.8031   3
   9  -6   3 158.722 16.3121   3
  -9   6  -3 169.422 19.1873   2
 -10  -6  -3 -11.866 12.6697   2
 -10   6  -3 -20.885 15.7931   2
 -11  -6  -3 40.0030 15.6874   2
 -11   6  -3 27.5764 17.7051   2
 -11  -7   3 4.70837 15.2021   2
 -11   7   3 -6.2326 18.4706   2
 -10  -7   3 134.822 17.1219   2
 -10   7   3 67.1436 20.0898   2
   9  -7  -3 143.164 11.9580   3
  -9  -7   3 168.334 16.9682   2
   8  -7  -3 146.100 11.1591   3
  -8  -7   3 94.2876 12.6459   4
  -8   7   3 106.386 16.2616   2
  -8   7   3 110.071 15.6101   1
   7  -7  -3 220.045 18.9932   2
  -7  -7   3 267.187 20.4237   1
   7  -7  -3 236.676 17.1823   3
  -7  -7   3 237.562 15.2408   3
   7  -7  -3 249.320 36.8346   1
   7  -7  -3 234.360 16.1921   3
  -7  -7   3 206.640 18.9152   4
   7   7  -3 243.321 24.5117   1
  -7   7   3 222.164 23.3379   2
  -7   7   3 246.998 25.2931   1
  -6  -7   3 -0.4797 7.04156   2
   6  -7  -3 -0.7785 6.89751   2
   6  -7  -3 0.59082 5.75834   3
  -6  -7   3 11.5261 7.17716   1
   6  -7  -3 8.05378 9.01549   1
  -6  -7   3 2.41084 7.46348   4
   6  -7  -3 5.66847 5.28703   3
  -6  -7   3 6.84116 4.36657   3
  -6   7   3 13.1156 9.76508   1
  -6   7   3 8.34973 9.63036   2
   6   7  -3 4.47132 9.16089   1
  -5  -7   3 471.480 30.0929   4
   5  -7  -3 471.268 33.5624   1
  -5  -7   3 497.598 28.6677   3
  -5  -7   3 483.342 31.1907   1
  -5  -7   3 486.834 29.6665   2
   5  -7  -3 462.903 28.9492   3
   5  -7  -3 500.540 29.2470   3
   5  -7  -3 459.554 29.2552   2
  -5   7   3 503.951 33.7458   1
   5   7  -3 512.625 32.8861   1
  -5   7   3 456.990 30.7154   2
  -4  -7   3 814.331 49.7387   4
   4  -7  -3 843.495 52.2692   1
   4  -7  -3 880.417 49.4543   3
   4  -7  -3 841.268 49.1200   2
  -4  -7   3 854.023 49.4224   2
  -4  -7   3 875.885 51.2050   1
  -4  -7   3 854.059 49.0459   3
   4  -7  -3 846.931 49.2398   3
  -4   7   3 911.399 53.7196   1
   4   7  -3 852.208 51.7462   1
  -4   7   3 827.348 49.6516   2
   4   7  -3 855.585 48.9226   3
  -3  -7   3 254.506 17.0064   4
   3  -7  -3 262.723 19.4917   1
  -3  -7   3 261.423 16.7352   3
   3  -7  -3 267.150 17.3329   3
  -3  -7   3 260.787 16.8173   2
  -3  -7   3 239.895 18.4871   1
   3  -7  -3 250.552 16.3483   2
  -3   7   3 275.030 16.8035   2
   3   7  -3 252.879 16.6550   3
   3   7  -3 264.162 16.9544   2
   3   7  -3 253.326 19.0433   1
   2  -7  -3 2020.73 116.207   2
   2  -7  -3 2096.70 118.297   1
  -2  -7   3 2119.55 116.590   2
  -2  -7   3 1805.37 120.132   1
  -2  -7   3 2125.27 116.776   3
  -2  -7   3 2086.39 116.674   4
   2  -7  -3 2128.33 117.369   3
   2   7  -3 2106.18 116.719   3
  -2   7   3 2031.65 116.220   2
   2   7  -3 2206.96 116.710   2
  -2   7   3 2041.23 120.107   1
   1  -7  -3 60.6997 5.59561   2
  -1  -7   3 67.9582 7.68151   3
   1  -7  -3 59.7843 9.56261   3
  -1  -7   3 50.1937 6.62477   2
  -1  -7   3 52.2360 5.72534   4
  -1  -7   3 65.8335 8.64375   1
   1  -7  -3 55.0949 6.68197   1
   1   7  -3 53.1751 6.90016   3
  -1   7   3 68.0156 7.52154   1
  -1   7   3 61.5264 5.81742   2
   1   7  -3 67.7798 6.16412   2
   1   7  -3 39.6433 6.85121   1
   0  -7  -3 431.759 25.7603   1
   0  -7   3 428.871 26.7894   1
   0  -7   3 346.479 27.5295   2
   0  -7   3 429.744 25.6244   3
   0  -7  -3 380.093 28.0634   3
   0  -7   3 443.106 26.9634   1
   0  -7  -3 430.924 24.4676   2
   0   7   3 434.351 24.5206   2
   0   7  -3 444.719 25.3995   2
   0   7   3 435.398 25.8776   1
   1  -7   3 1511.74 85.0770   1
   1  -7   3 1430.56 83.4920   3
   1  -7   3 1444.99 83.2088   2
  -1  -7  -3 1433.51 82.7270   2
  -1  -7  -3 1523.36 83.2045   1
   1   7   3 1500.03 83.1450   1
  -1   7  -3 1480.49 83.2515   2
   1   7   3 1399.29 82.7760   2
  -1   7  -3 1526.98 83.5284   3
   2  -7   3 385.016 24.8280   1
   2  -7   3 369.796 23.1026   3
  -2  -7  -3 358.861 23.5693   3
   2  -7   3 371.612 24.9824   1
  -2  -7  -3 366.670 22.1120   2
   2  -7   3 377.974 22.8545   2
  -2   7  -3 376.753 22.9442   3
  -2   7  -3 375.512 22.9835   2
  -3  -7  -3 65.1992 6.56408   2
   3  -7   3 64.1418 7.55481   3
  -3  -7  -3 72.8932 8.29804   3
   3  -7   3 75.1830 9.85800   1
   3  -7   3 55.4042 7.38393   2
  -3   7  -3 63.2845 6.87128   3
  -3   7  -3 62.1526 7.81940   2
  -4  -7  -3 23.1181 5.32416   3
   4  -7   3 23.9374 6.26365   3
   4  -7   3 18.1756 8.28048   1
  -4  -7  -3 24.2851 5.61495   2
   4  -7   3 25.0034 7.16472   2
  -4   7  -3 32.7850 5.96307   3
  -4   7  -3 26.4054 7.21371   1
  -4   7  -3 31.0006 7.36769   2
  -5  -7  -3 1617.86 87.8126   4
   5  -7   3 1554.62 91.4930   1
  -5  -7  -3 1551.51 88.0042   3
   5  -7   3 1445.16 88.7329   2
  -5  -7  -3 1423.75 88.2619   2
   5  -7   3 1566.18 88.3791   3
  -5   7  -3 1641.25 88.1573   3
  -5   7  -3 1581.32 90.9692   1
  -5   7  -3 1566.17 89.0376   2
  -6  -7  -3 358.643 27.1384   2
  -6  -7  -3 395.823 26.0946   3
   6  -7   3 418.090 31.8920   1
  -6  -7  -3 438.245 26.1181   4
   6  -7   3 428.349 27.0300   3
  -6  -7  -3 411.918 27.8003   2
   6  -7   3 422.565 28.6576   2
  -6   7  -3 435.965 30.3817   1
  -6   7  -3 448.855 29.2685   2
  -6   7  -3 460.220 26.3287   3
  -7  -7  -3 15.2341 6.63100   4
   7  -7   3 15.9280 10.6993   1
   7  -7   3 15.9047 7.56295   3
  -7  -7  -3 13.3595 5.10686   3
  -7  -7  -3 10.9284 8.85046   2
  -7   7  -3 21.4597 8.71813   1
  -7   7  -3 10.2012 5.83768   3
  -7   7  -3 14.2954 11.4294   2
  -8  -7  -3 636.663 37.7960   4
   8  -7   3 623.454 38.2952   3
   8  -7   3 616.787 37.2885   4
  -8  -7  -3 631.677 40.3551   2
  -8  -7  -3 666.508 36.1297   3
  -8  -7  -3 575.437 36.5590   3
  -8   7  -3 559.655 48.3585   2
  -9  -7  -3 66.8917 13.0335   2
   9  -7   3 79.0260 10.1190   3
  -9   7  -3 45.6187 15.8176   2
 -10  -7  -3 222.312 26.0372   2
 -10   7  -3 313.321 31.2660   2
 -11  -7  -3 -21.493 14.8645   2
 -11   7  -3 -29.941 16.9924   2
 -11  -8   3 -23.305 15.1857   2
 -11   8   3 -2.5146 19.8375   2
 -10  -8   3 70.2830 16.2077   2
 -10   8   3 107.758 19.5716   2
  -9  -8   3 12.6686 12.9392   2
   9  -8  -3 -1.5115 5.81131   3
  -9   8   3 20.1971 16.6736   2
   8  -8  -3 20.5970 7.34105   3
   8  -8  -3 18.1909 6.36542   3
  -8  -8   3 28.5076 4.12386   3
  -8   8   3 33.7450 15.5885   1
  -8   8   3 17.7313 13.8605   2
  -7  -8   3 28.9374 9.69654   4
   7  -8  -3 35.2799 6.54241   3
   7  -8  -3 30.5200 8.96419   2
  -7  -8   3 37.3294 8.96879   1
   7  -8  -3 22.6152 12.6015   1
  -7  -8   3 38.9048 5.33499   3
   7  -8  -3 43.7813 7.34283   3
  -7   8   3 18.6743 12.3745   2
  -7   8   3 27.6745 13.5128   1
  -6  -8   3 218.433 18.6279   4
   6  -8  -3 205.036 16.0031   3
  -6  -8   3 202.050 18.2312   2
   6  -8  -3 218.643 24.1063   1
   6  -8  -3 226.569 17.4254   2
   6  -8  -3 234.282 16.8803   3
  -6  -8   3 227.042 19.1928   1
  -6  -8   3 220.382 15.1182   3
  -6   8   3 224.000 21.0706   2
   6   8  -3 218.114 21.3089   1
  -6   8   3 238.455 23.3881   1
   5  -8  -3 4.04019 5.56017   3
   5  -8  -3 6.74289 5.91820   3
  -5  -8   3 4.65410 6.05906   1
  -5  -8   3 3.06101 4.80768   3
  -5  -8   3 6.05845 6.74323   4
   5  -8  -3 -1.8706 5.94872   2
   5  -8  -3 0.90905 7.57448   1
  -5  -8   3 3.51870 6.70067   2
  -5   8   3 6.87982 8.42688   2
   5   8  -3 11.4232 7.36267   1
  -5   8   3 -4.2395 8.20190   1
   4  -8  -3 130.037 11.5134   3
  -4  -8   3 118.969 11.2980   2
   4  -8  -3 87.4539 10.6072   2
   4  -8  -3 118.871 11.2230   3
   4  -8  -3 108.773 15.1138   1
  -4  -8   3 113.097 10.5630   3
  -4  -8   3 129.887 12.5218   1
  -4  -8   3 92.5496 9.75939   4
   4   8  -3 110.292 13.5386   1
   4   8  -3 110.947 10.1183   3
  -4   8   3 116.894 14.8139   1
  -4   8   3 110.155 10.1892   2
  -3  -8   3 317.162 20.1293   3
  -3  -8   3 316.247 20.0772   2
  -3  -8   3 306.129 21.8497   1
   3  -8  -3 288.055 19.4889   2
  -3  -8   3 308.164 20.5609   4
   3   8  -3 323.008 20.2538   2
   3   8  -3 334.656 22.3610   1
  -3   8   3 308.224 19.8467   2
   3   8  -3 326.009 19.9296   3
  -3   8   3 327.042 23.1587   1
  -2  -8   3 498.510 32.1203   1
   2  -8  -3 452.924 32.7874   1
  -2  -8   3 510.643 30.8102   3
  -2  -8   3 520.118 30.7086   4
  -2  -8   3 512.571 30.4311   2
   2  -8  -3 513.822 29.8602   2
   2   8  -3 527.094 30.5420   2
   2   8  -3 581.269 32.4348   1
   2   8  -3 532.202 30.7493   3
  -2   8   3 526.886 32.7475   1
  -2   8   3 481.708 29.8984   2
  -1  -8   3 1486.41 84.8489   2
  -1  -8   3 1498.44 85.1364   3
  -1  -8   3 1521.76 86.4811   1
   1  -8  -3 1497.72 84.3845   2
   1  -8  -3 1468.09 86.1517   1
  -1   8   3 1527.66 86.3137   1
   1   8  -3 1537.58 85.1431   3
   1   8  -3 1523.75 84.9097   2
  -1   8   3 1444.06 84.3869   2
   0  -8   3 1447.02 84.3177   3
   0  -8  -3 1442.02 84.6441   1
   0  -8   3 1519.64 84.0517   2
   0  -8  -3 1576.02 84.4068   3
   0  -8   3 1499.39 85.8509   1
   0  -8   3 1472.95 85.6370   1
   0  -8  -3 1475.79 83.5032   2
   0   8   3 1409.01 83.5367   2
   0   8  -3 1514.95 84.1104   2
   0   8  -3 1519.99 84.3484   3
   0   8   3 1464.84 84.7036   1
  -1  -8  -3 12.3784 5.21465   3
   1  -8   3 5.40487 5.68901   1
   1  -8   3 7.87272 5.61924   3
  -1  -8  -3 6.31722 3.23950   2
  -1  -8  -3 5.94471 3.11289   1
   1  -8   3 4.67016 5.09811   1
   1  -8   3 4.98321 4.89988   2
   1   8   3 11.1106 3.35082   1
  -1   8  -3 4.06808 5.08376   3
   1   8   3 6.49337 3.73183   2
  -1   8  -3 9.00508 5.27478   2
   2  -8   3 76.6738 9.45572   1
   2  -8   3 98.8153 9.63994   2
   2  -8   3 62.7323 8.28494   1
   2  -8   3 90.2683 9.73240   3
  -2  -8  -3 89.5727 7.85992   2
  -2  -8  -3 88.3938 9.78664   3
  -2   8  -3 76.0728 8.08123   2
  -2   8  -3 85.5074 9.88050   3
   3  -8   3 1651.68 97.2433   2
   3  -8   3 1745.26 97.4916   3
  -3  -8  -3 1788.55 97.2519   3
  -3  -8  -3 1664.70 96.8003   2
   3  -8   3 1659.97 99.5096   1
  -3   8  -3 1713.32 97.4993   2
  -3   8  -3 1778.87 97.3794   3
  -4  -8  -3 20.4463 5.82768   2
   4  -8   3 16.1384 7.23526   2
   4  -8   3 11.8974 6.85062   3
   4  -8   3 11.6911 7.57164   1
  -4  -8  -3 17.6900 5.62455   3
  -4   8  -3 8.60060 7.76670   2
  -4   8  -3 17.9793 8.23230   1
  -4   8  -3 8.08734 6.12347   3
  -5  -8  -3 14.0842 5.48888   4
  -5  -8  -3 7.97788 5.57900   3
   5  -8   3 19.5325 6.85200   3
  -5  -8  -3 18.3699 6.60447   2
   5  -8   3 14.2620 9.32300   1
   5  -8   3 12.7855 8.61164   2
  -5   8  -3 16.5138 7.00287   1
  -5   8  -3 16.3042 6.37750   3
  -5   8  -3 24.4150 9.59099   2
   6  -8   3 103.843 19.6341   2
   6  -8   3 141.484 13.9048   3
  -6  -8  -3 122.477 12.2229   3
   6  -8   3 132.409 16.2799   1
  -6  -8  -3 128.774 12.1503   2
  -6  -8  -3 131.779 12.2341   4
  -6  -8  -3 110.002 11.5154   2
  -6   8  -3 117.856 14.6476   1
  -6   8  -3 171.576 17.5741   2
  -6   8  -3 130.249 12.5915   3
   7  -8   3 689.518 41.3984   3
  -7  -8  -3 721.604 40.0581   3
  -7  -8  -3 699.947 42.5756   2
  -7  -8  -3 651.326 40.7410   4
  -7  -8  -3 618.047 40.3585   3
  -7   8  -3 679.643 45.9132   1
  -7   8  -3 701.002 40.6217   3
  -7   8  -3 709.408 44.8245   2
   8  -8   3 0.51183 8.00242   3
  -8  -8  -3 9.61579 9.70256   3
  -8  -8  -3 2.86394 5.07325   3
  -8  -8  -3 2.71005 7.53361   4
  -8   8  -3 10.7404 13.3350   2
  -9  -8  -3 16.9603 11.8066   2
  -9  -8  -3 0.56479 3.95820   3
   9  -8   3 1.27722 8.73475   3
  -9  -8  -3 -7.6854 8.11156   4
  -9   8  -3 16.4428 15.4996   2
 -10  -8  -3 75.5897 14.7195   2
 -10   8  -3 91.4184 18.9263   2
 -11  -8  -3 7.04722 15.3647   2
 -11   8  -3 5.14430 18.6252   2
 -11  -9   3 63.8612 17.5321   2
 -11   9   3 46.9666 22.0786   2
 -10  -9   3 261.188 26.4904   2
 -10   9   3 192.261 24.0232   2
  -9  -9   3 27.1045 13.5382   2
   9  -9  -3 9.47275 6.75484   3
  -9   9   3 -16.262 16.1978   2
   8  -9  -3 547.900 34.0110   3
  -8  -9   3 515.689 31.8304   3
   8  -9  -3 574.848 33.3317   3
  -8  -9   3 503.441 35.6966   4
  -8  -9   3 588.913 32.1122   3
  -8   9   3 510.116 39.7283   2
  -7  -9   3 141.579 13.8828   4
   7  -9  -3 121.629 17.8196   1
   7  -9  -3 167.418 15.0328   3
  -7  -9   3 151.164 11.9640   3
   7  -9  -3 119.405 13.2012   2
   7  -9  -3 159.809 13.6361   3
  -7   9   3 142.600 16.5345   2
  -7   9   3 133.560 17.1728   1
   6  -9  -3 7.53812 7.24916   2
   6  -9  -3 4.28661 6.85409   3
   6  -9  -3 3.09088 6.27657   3
  -6  -9   3 9.21920 7.68308   1
   6  -9  -3 27.5651 18.9529   1
  -6  -9   3 1.20343 7.92795   4
  -6  -9   3 0.76812 5.10703   3
  -6   9   3 5.30194 10.8203   2
   6   9  -3 3.27436 8.81252   1
  -6   9   3 16.7658 11.1610   1
  -5  -9   3 0.94046 5.29094   3
   5  -9  -3 5.41725 6.37438   3
   5  -9  -3 6.57162 6.47022   3
   5  -9  -3 1.32539 8.95712   1
   5  -9  -3 3.55900 6.22520   2
  -5  -9   3 -3.7860 6.93020   4
  -5  -9   3 8.35093 6.98143   2
  -5  -9   3 4.35998 6.07388   1
  -5   9   3 -4.2509 8.97366   1
  -5   9   3 3.75478 8.34954   2
   5   9  -3 3.30463 7.67844   1
  -4  -9   3 1289.25 71.6136   3
   4  -9  -3 1231.85 71.7882   3
  -4  -9   3 1273.99 73.5544   1
  -4  -9   3 1280.42 72.0084   2
   4  -9  -3 1229.31 74.9389   1
  -4  -9   3 1196.31 72.0073   4
   4  -9  -3 1179.44 71.4487   2
  -4   9   3 1212.95 71.7984   2
   4   9  -3 1319.91 74.1742   1
  -4   9   3 1311.17 75.2411   1
   4   9  -3 1266.11 71.4482   3
   3  -9  -3 353.981 23.5489   3
  -3  -9   3 368.457 23.1398   3
  -3  -9   3 364.634 23.0324   2
   3  -9  -3 339.747 25.7133   1
  -3  -9   3 371.689 24.8989   1
  -3  -9   3 365.751 23.1042   4
   3   9  -3 375.415 25.1554   1
  -3   9   3 348.206 22.8105   2
  -3   9   3 363.125 25.9516   1
   3   9  -3 385.440 22.9487   3
   3   9  -3 376.203 23.6065   2
   2  -9  -3 77.9762 8.33805   2
  -2  -9   3 89.6710 8.44215   4
   2  -9  -3 86.2818 11.4006   1
  -2  -9   3 82.5644 8.06634   2
  -2  -9   3 85.5101 10.4239   3
  -2  -9   3 80.5352 10.7952   1
   2   9  -3 94.9622 11.5178   1
   2   9  -3 91.6939 10.2877   3
  -2   9   3 88.3110 8.56961   2
   2   9  -3 94.9924 9.98002   2
  -2   9   3 96.4953 11.8997   1
  -1  -9   3 977.484 56.0002   1
   1  -9  -3 946.169 53.6307   2
  -1  -9   3 929.569 54.5185   3
  -1  -9   3 969.636 56.1301   1
  -1  -9   3 924.752 54.2196   2
   1  -9  -3 936.811 55.5365   1
   1   9  -3 966.285 54.5438   3
   1   9  -3 985.820 54.3687   2
  -1   9   3 925.030 55.5780   1
  -1   9   3 890.941 53.6558   2
   0  -9  -3 194.663 13.8546   1
   0  -9   3 192.742 15.3747   1
   0  -9   3 190.318 14.8796   3
   0  -9   3 170.129 17.0449   1
   0  -9   3 194.063 13.8063   2
   0  -9  -3 198.659 12.5865   2
   0   9   3 190.863 13.9528   1
   0   9  -3 196.930 14.4722   2
   0   9  -3 197.342 14.2792   3
   0   9   3 188.366 12.7155   2
   1  -9   3 30.0539 5.80944   2
  -1  -9  -3 15.8448 3.91141   1
   1  -9   3 22.5962 6.29761   3
  -1  -9  -3 9.76941 3.92284   2
  -1  -9  -3 15.3589 5.67102   3
   1  -9   3 30.5164 7.28965   1
   1  -9   3 11.0418 5.33053   1
  -1   9  -3 23.6731 5.94430   2
   1   9   3 20.3379 4.05943   1
   1   9   3 19.6135 4.38030   2
  -1   9  -3 20.8535 5.93897   3
  -2  -9  -3 47.3215 6.85117   3
  -2  -9  -3 39.1844 6.02353   2
   2  -9   3 39.6777 7.66893   1
   2  -9   3 28.2793 7.01131   3
   2  -9   3 28.4991 6.59999   1
   2  -9   3 28.5425 6.79690   2
  -2   9  -3 31.0826 6.54238   3
  -2   9  -3 31.5792 6.96774   2
  -3  -9  -3 4.15155 5.52202   3
   3  -9   3 0.47575 7.60187   1
   3  -9   3 2.29559 6.88739   3
   3  -9   3 1.91451 6.54334   2
  -3  -9  -3 7.62901 4.96345   2
  -3   9  -3 2.01375 6.22936   3
  -3   9  -3 4.13848 7.28845   2
   4  -9   3 241.493 22.5335   1
  -4  -9  -3 253.933 17.8576   2
  -4  -9  -3 276.950 17.8290   3
   4  -9   3 252.805 18.9774   3
   4  -9   3 244.324 18.7812   2
  -4   9  -3 263.165 18.5178   3
  -4   9  -3 238.711 20.5298   2
   5  -9   3 35.5640 9.63447   2
  -5  -9  -3 43.3271 6.90613   4
  -5  -9  -3 52.7323 8.02828   2
   5  -9   3 54.6677 8.50854   3
  -5  -9  -3 65.3510 7.69088   3
   5  -9   3 32.2680 11.5824   1
  -5   9  -3 69.8887 11.0866   2
  -5   9  -3 65.5416 19.5458   1
  -5   9  -3 38.9320 7.59161   3
  -6  -9  -3 51.4140 7.21858   3
   6  -9   3 36.5741 11.4031   1
  -6  -9  -3 55.8896 7.68011   3
  -6  -9  -3 41.5885 7.59617   4
   6  -9   3 64.4152 9.19317   3
  -6  -9  -3 60.5518 9.08926   2
  -6   9  -3 55.1678 8.12909   3
  -6   9  -3 44.6863 12.1509   2
  -6   9  -3 32.5480 9.52003   1
  -7  -9  -3 28.9855 6.57961   3
  -7  -9  -3 41.5655 7.94918   4
   7  -9   3 21.0828 8.50754   3
  -7  -9  -3 48.9796 10.6142   2
  -7  -9  -3 35.0626 7.32481   3
  -7   9  -3 33.8607 13.5368   1
  -7   9  -3 33.2412 14.8627   2
  -8  -9  -3 26.1544 7.04288   3
  -8  -9  -3 26.6875 10.8999   2
   8  -9   3 41.9581 9.39796   3
  -8  -9  -3 18.8227 8.31861   4
  -8  -9  -3 35.5780 6.27237   3
  -8   9  -3 52.4038 14.8767   2
  -9  -9  -3 149.361 13.3673   4
  -9  -9  -3 143.372 16.1449   2
  -9  -9  -3 133.568 10.9778   3
   9  -9   3 122.219 13.3940   3
  -9   9  -3 109.413 19.2445   2
 -10  -9  -3 27.0108 13.5974   2
 -10   9  -3 81.4473 18.7018   2
 -10 -10   3 62.2316 16.7212   2
 -10  10   3 43.2151 20.5057   2
   9 -10  -3 133.357 13.8225   3
  -9 -10   3 98.4009 13.7325   4
  -9  10   3 88.9555 18.9902   2
  -8 -10   3 16.0311 5.36462   3
  -8 -10   3 9.83549 10.0310   4
   8 -10  -3 18.5056 7.65652   3
  -8  10   3 -5.9813 15.8374   2
   7 -10  -3 3.79869 8.13018   3
  -7 -10   3 -1.1497 5.40806   3
   7 -10  -3 4.58764 7.31046   3
   7 -10  -3 0.32226 14.7640   1
  -7  10   3 -0.5356 21.3976   1
  -7  10   3 -8.9875 13.3915   2
   6 -10  -3 5.82932 7.97637   3
   6 -10  -3 3.32833 7.10849   3
   6 -10  -3 9.51191 7.78269   2
  -6 -10   3 16.2725 6.03746   3
   6 -10  -3 11.9213 12.9083   1
  -6 -10   3 7.43954 8.39926   4
  -6 -10   3 15.5732 8.34459   1
  -6  10   3 15.7950 11.6709   2
   6  10  -3 14.4497 9.99357   1
  -6  10   3 6.79752 11.0542   1
  -5 -10   3 184.613 17.5083   1
   5 -10  -3 185.972 16.2459   2
   5 -10  -3 197.242 16.2343   3
  -5 -10   3 205.122 16.5906   4
   5 -10  -3 217.525 16.8250   3
  -5 -10   3 186.897 17.6102   2
   5 -10  -3 182.828 22.1427   1
  -5 -10   3 204.938 15.3163   3
  -5  10   3 197.607 18.1791   2
   5  10  -3 191.077 18.8588   1
  -5  10   3 199.907 21.4236   1
   4 -10  -3 5.86678 8.34258   1
   4 -10  -3 10.2815 6.20393   2
   4 -10  -3 -2.2302 7.07733   3
  -4 -10   3 0.89478 7.17683   4
  -4 -10   3 0.05848 5.91882   3
  -4 -10   3 14.5055 6.86814   1
  -4 -10   3 -13.599 6.38010   2
   4  10  -3 7.63076 6.99959   1
  -4  10   3 3.58386 7.23677   2
  -4  10   3 -0.3161 6.91232   1
   3 -10  -3 71.3962 10.3045   1
   3 -10  -3 77.0695 7.37632   2
  -3 -10   3 76.6968 8.44084   3
  -3 -10   3 82.6967 8.38853   2
  -3 -10   3 71.8939 9.16003   1
   3 -10  -3 78.2895 9.05310   3
  -3 -10   3 81.4610 8.85059   4
   3  10  -3 81.1410 8.25209   3
  -3  10   3 70.9353 7.98583   2
   3  10  -3 88.3710 8.88080   2
   3  10  -3 65.7966 9.16466   1
  -3  10   3 59.2304 9.82203   1
   2 -10  -3 12.2560 6.98418   3
  -2 -10   3 5.44449 6.24660   3
   2 -10  -3 3.41282 5.61279   1
   2 -10  -3 10.0017 5.31201   2
  -2 -10   3 7.43378 5.72418   2
  -2 -10   3 5.41185 5.89232   4
  -2 -10   3 11.2660 6.26582   1
   2  10  -3 9.55532 6.29450   2
   2  10  -3 14.1362 6.23754   3
  -2  10   3 9.31161 5.20098   2
  -2  10   3 1.99213 5.91927   1
  -1 -10   3 178.615 13.6185   2
  -1 -10   3 182.295 15.2183   1
   1 -10  -3 173.755 14.2474   1
  -1 -10   3 162.400 13.7495   3
   1 -10  -3 165.874 14.0809   3
   1 -10  -3 169.860 11.9230   2
   1  10  -3 168.427 13.5255   2
  -1  10   3 158.803 12.0956   2
   1  10  -3 157.206 13.5524   3
  -1  10   3 162.507 14.4864   1
   0 -10   3 28.1620 6.83445   1
   0 -10   3 25.0688 6.44464   1
   0 -10   3 30.2353 6.90906   3
   0 -10   3 31.8110 6.51465   2
   0 -10  -3 35.5181 5.52103   1
   0 -10  -3 32.6448 4.77807   2
   0  10  -3 28.1321 6.57136   3
   0  10   3 31.0290 5.09555   2
   0  10   3 15.2924 5.31943   1
   0  10  -3 26.5406 6.63814   2
   1 -10   3 152.495 15.6077   1
   1 -10   3 148.351 14.2245   3
  -1 -10  -3 148.412 11.4571   1
   1 -10   3 154.634 14.9203   1
  -1 -10  -3 158.332 11.3241   2
   1 -10   3 160.270 12.8595   2
  -1 -10  -3 162.469 13.0584   3
   1  10   3 151.882 11.6433   2
  -1  10  -3 144.415 13.7983   2
   1  10   3 152.772 11.5531   1
  -1  10  -3 149.276 13.1432   3
   2 -10   3 7.93410 7.10787   1
   2 -10   3 1.98853 6.35021   2
  -2 -10  -3 5.27011 5.98558   3
   2 -10   3 2.04517 7.20675   1
  -2 -10  -3 6.27897 4.48608   2
   2 -10   3 3.66565 7.17217   3
  -2  10  -3 0.77603 6.86838   2
  -2  10  -3 7.31220 6.32411   3
   3 -10   3 20.5924 9.13155   1
  -3 -10  -3 44.9474 7.06919   3
   3 -10   3 24.7105 9.21790   1
   3 -10   3 38.5347 7.80680   2
   3 -10   3 39.3282 7.88667   3
  -3 -10  -3 32.1112 6.06135   2
  -3  10  -3 35.1174 8.54017   2
  -3  10  -3 55.5493 8.08858   3
  -4 -10  -3 52.4072 7.81867   3
   4 -10   3 45.7586 9.21447   2
   4 -10   3 60.3786 9.27866   3
   4 -10   3 67.8196 12.4550   1
  -4 -10  -3 51.3551 7.82500   3
  -4 -10  -3 65.7057 7.90299   2
  -4  10  -3 73.3062 8.97282   3
  -4  10  -3 49.7676 10.1475   2
  -5 -10  -3 52.3980 8.71565   2
  -5 -10  -3 48.4978 7.93002   3
  -5 -10  -3 46.5130 7.59799   3
   5 -10   3 33.6983 13.3314   1
  -5 -10  -3 48.0888 7.79817   4
   5 -10   3 32.5642 8.60414   3
  -5  10  -3 47.5650 8.06847   3
  -5  10  -3 54.1854 11.5057   2
  -6 -10  -3 50.9198 7.88894   3
   6 -10   3 55.2981 9.84240   3
  -6 -10  -3 54.6495 7.99260   3
  -6 -10  -3 44.4637 8.26199   4
   6 -10   3 54.4353 15.8545   1
  -6  10  -3 50.6185 8.75086   3
  -6  10  -3 75.1196 13.8949   1
  -6  10  -3 63.0775 13.0428   2
  -7 -10  -3 83.7959 10.4866   4
  -7 -10  -3 117.734 12.2416   3
   7 -10   3 121.135 12.3540   3
  -7 -10  -3 104.864 10.5962   3
  -7 -10  -3 112.278 13.1261   2
  -7  10  -3 110.519 16.1443   2
   8 -10   3 7.21427 9.24566   3
  -8 -10  -3 4.90976 6.24276   3
  -8 -10  -3 7.14372 8.55507   4
  -8 -10  -3 12.4236 10.8458   2
  -8  10  -3 -12.191 14.6704   2
  -9 -10  -3 19.2592 15.2360   4
   9 -10   3 31.3698 10.5631   3
  -9 -10  -3 31.4712 13.0279   2
  -9 -10  -3 45.2428 6.90662   3
  -9  10  -3 30.6528 17.5006   2
 -10 -10  -3 13.3985 13.8146   2
 -10  10  -3 0.37868 17.9827   2
 -10 -11   3 10.2660 16.2615   2
 -10  11   3 7.85931 19.1704   2
  -9 -11   3 66.9351 12.9738   4
   9 -11  -3 76.5005 10.2802   3
  -9  11   3 52.5895 18.7349   2
   8 -11  -3 32.0381 8.92900   3
  -8 -11   3 27.9683 6.37333   3
  -8 -11   3 34.8354 11.1136   4
  -8  11   3 36.2786 25.4615   2
  -7 -11   3 35.9883 6.83903   3
   7 -11  -3 46.8698 8.85662   3
   7 -11  -3 9.39925 9.10949   3
   7 -11  -3 20.2636 16.0067   1
  -7 -11   3 28.6934 10.1162   4
  -7  11   3 6.54236 14.1588   2
  -7  11   3 21.9547 16.6721   1
   6 -11  -3 27.8936 9.26557   2
   6 -11  -3 30.8470 12.7468   1
   6 -11  -3 35.3713 8.93826   3
   6 -11  -3 38.0641 9.25582   3
  -6 -11   3 59.1731 7.62360   3
  -6 -11   3 50.9909 9.80765   4
  -6  11   3 52.1473 12.6478   2
  -6  11   3 22.0585 12.4297   1
   5 -11  -3 -0.2660 7.49036   2
   5 -11  -3 16.3116 8.11771   3
   5 -11  -3 18.5673 8.28137   3
  -5 -11   3 12.1699 6.81259   3
  -5 -11   3 14.4732 7.67126   1
   5 -11  -3 -1.5240 11.4947   1
  -5 -11   3 4.69967 8.07541   4
  -5  11   3 10.4057 9.53768   2
   5  11  -3 0.30556 8.24981   1
  -5  11   3 6.30208 11.0944   1
  -4 -11   3 169.769 16.1466   2
  -4 -11   3 213.828 17.9728   1
  -4 -11   3 186.053 15.8770   3
   4 -11  -3 193.075 15.5516   2
  -4 -11   3 200.782 16.2825   4
   4 -11  -3 205.676 16.1010   3
   4 -11  -3 175.072 20.6213   1
  -4  11   3 208.563 16.8839   2
  -4  11   3 174.557 20.3948   1
   4  11  -3 202.386 18.1146   1
  -3 -11   3 12.1493 7.16011   2
   3 -11  -3 -0.6057 5.43628   2
   3 -11  -3 9.14111 7.44966   3
  -3 -11   3 8.81562 6.76176   3
  -3 -11   3 6.08681 7.11802   4
  -3 -11   3 17.1771 6.97383   1
   3 -11  -3 0.17233 6.77050   1
  -3  11   3 6.60603 7.18989   1
   3  11  -3 19.7651 7.35564   2
  -3  11   3 13.1002 6.34000   2
  -2 -11   3 63.9826 8.24657   4
   2 -11  -3 57.2708 9.06186   1
  -2 -11   3 45.2773 7.64081   2
   2 -11  -3 52.4429 6.46998   2
   2 -11  -3 44.2905 8.47431   3
  -2 -11   3 45.0592 8.50306   1
  -2 -11   3 45.3816 7.93116   3
  -2 -11   3 57.8195 8.74858   1
   2  11  -3 69.8180 8.35681   3
  -2  11   3 49.4509 6.88763   2
   2  11  -3 51.1752 7.90453   2
  -2  11   3 51.9664 9.40923   1
  -1 -11   3 920.490 56.2224   1
   1 -11  -3 944.111 54.9464   3
  -1 -11   3 923.691 54.5086   2
  -1 -11   3 982.811 56.6280   1
   1 -11  -3 930.183 53.6856   2
  -1 -11   3 923.107 54.9736   3
   1 -11  -3 929.090 55.8881   1
  -1  11   3 939.427 55.9674   1
  -1  11   3 908.470 53.7492   2
   1  11  -3 961.910 54.7051   2
   1  11  -3 965.184 54.7706   3
   0 -11  -3 166.495 12.3321   2
   0 -11  -3 160.018 13.6490   1
   0 -11  -3 164.869 14.8901   3
   0 -11   3 175.483 15.7954   1
   0 -11   3 176.033 15.5047   3
   0 -11   3 203.496 16.6301   1
   0 -11   3 170.112 13.9122   2
   0  11   3 140.533 13.7684   1
   0  11   3 169.241 12.9001   2
   0  11  -3 172.912 14.4703   3
   0  11  -3 183.845 15.0147   2
   1 -11   3 24.6662 7.08177   2
   1 -11   3 27.1902 7.70510   3
   1 -11   3 28.3027 7.80589   1
  -1 -11  -3 33.6593 8.09830   3
   1 -11   3 16.7416 7.29285   1
  -1 -11  -3 27.6168 5.14824   1
  -1 -11  -3 28.3735 5.29673   2
  -1 -11  -3 32.5759 7.27338   3
   1  11   3 27.4812 5.62482   2
  -1  11  -3 34.9426 7.48868   3
  -1  11  -3 34.2245 7.55544   2
  -2 -11  -3 70.1077 7.15390   2
   2 -11   3 66.3857 11.2452   1
  -2 -11  -3 72.7176 9.32609   3
   2 -11   3 45.7324 9.83737   1
   2 -11   3 61.9499 8.49361   2
   2 -11   3 45.1040 8.86241   3
  -2 -11  -3 54.3242 8.65907   3
  -2  11  -3 58.7180 8.60734   3
  -2  11  -3 58.3836 9.06390   2
   3 -11   3 47.3584 9.47669   1
   3 -11   3 63.0214 9.47087   3
  -3 -11  -3 43.9714 8.16498   3
  -3 -11  -3 64.2869 8.73129   3
   3 -11   3 68.6786 12.2429   1
   3 -11   3 20.7180 8.54930   2
  -3 -11  -3 55.5923 7.29218   2
  -3  11  -3 54.9556 8.93178   3
  -3  11  -3 35.6365 9.47451   2
  -4 -11  -3 375.696 23.3876   3
   4 -11   3 349.725 23.8707   3
   4 -11   3 337.677 26.2156   2
  -4 -11  -3 329.900 23.1981   3
  -4 -11  -3 331.231 22.6001   2
   4 -11   3 339.374 29.1506   1
  -4  11  -3 349.842 24.0790   3
  -4  11  -3 350.892 25.2379   2
  -5 -11  -3 296.837 21.4926   3
  -5 -11  -3 313.141 21.4489   3
  -5 -11  -3 290.975 21.7923   2
   5 -11   3 310.364 22.6241   3
   5 -11   3 294.226 28.7935   1
  -5  11  -3 295.381 22.3804   3
  -5  11  -3 294.603 24.6558   2
  -6 -11  -3 324.967 22.6977   3
  -6 -11  -3 346.551 23.3475   4
   6 -11   3 333.188 24.4164   3
   6 -11   3 315.205 31.8299   1
  -6 -11  -3 326.981 23.2163   3
  -6  11  -3 321.892 34.8287   2
  -7 -11  -3 340.729 24.0649   3
  -7 -11  -3 324.510 24.1468   4
  -7 -11  -3 288.458 30.6559   2
   7 -11   3 349.803 25.4003   3
  -7 -11  -3 363.873 23.2867   3
  -7  11  -3 344.507 29.8616   2
  -8 -11  -3 27.1517 7.24323   3
  -8 -11  -3 37.2528 12.1084   2
   8 -11   3 9.60101 9.95461   3
  -8  11  -3 21.9722 16.2766   2
  -9 -11  -3 26.3940 12.6786   2
  -9 -11  -3 0.17067 9.31506   4
   9 -11   3 1.18731 10.3712   3
  -9  11  -3 1.60329 18.2309   2
 -10 -11  -3 -18.953 14.1779   2
 -10 -11  -3 2.23311 10.4546   4
 -10  11  -3 7.27677 19.4827   2
 -10 -12   3 26.6324 16.9495   2
 -10  12   3 48.4425 20.8104   2
   9 -12  -3 2.97118 9.32973   3
  -9 -12   3 -1.5129 11.7471   4
  -9  12   3 3.02406 18.3337   2
   8 -12  -3 20.5743 9.49634   3
  -8 -12   3 40.8741 7.02868   3
  -8 -12   3 9.26638 11.7509   4
  -8  12   3 6.90265 17.0216   2
   7 -12  -3 25.2278 9.15513   3
   7 -12  -3 -6.9888 31.4923   1
  -7 -12   3 12.8896 10.7054   4
  -7 -12   3 16.3255 6.96552   3
  -7  12   3 12.0751 13.9620   2
  -6 -12   3 293.770 20.3411   3
   6 -12  -3 282.516 24.9567   3
   6 -12  -3 274.082 30.3639   2
  -6 -12   3 267.291 22.8886   4
   6 -12  -3 242.007 30.8869   1
  -6  12   3 323.388 25.6471   2
  -6  12   3 263.669 38.1694   1
   5 -12  -3 192.969 24.0364   1
  -5 -12   3 180.110 18.1725   1
   5 -12  -3 177.788 16.8619   2
   5 -12  -3 182.706 17.5567   3
  -5 -12   3 189.141 16.0248   3
  -5 -12   3 184.375 17.8842   4
   5 -12  -3 182.599 17.7616   3
  -5  12   3 204.453 19.2223   2
  -5  12   3 143.799 19.6141   1
  -4 -12   3 8.81107 8.13472   1
   4 -12  -3 14.3622 7.20646   2
   4 -12  -3 5.33474 8.16998   1
  -4 -12   3 8.07343 8.31393   4
   4 -12  -3 15.0205 8.67033   3
  -4 -12   3 -4.4365 6.93314   3
  -4  12   3 2.48207 9.55844   1
  -4  12   3 5.81440 7.98034   2
  -3 -12   3 8.08935 6.94930   1
   3 -12  -3 -1.6941 8.25782   3
  -3 -12   3 -2.7373 7.36399   3
  -3 -12   3 0.57575 7.58682   4
  -3 -12   3 4.65539 8.64780   2
  -3 -12   3 13.4689 7.78021   1
   3 -12  -3 -0.9535 6.92344   1
   3 -12  -3 0.69503 6.18716   2
   3  12  -3 5.30172 7.91097   2
  -3  12   3 5.64740 7.17872   2
  -3  12   3 22.2929 8.55218   1
  -2 -12   3 24.1599 8.42307   1
   2 -12  -3 36.9316 8.99174   3
  -2 -12   3 25.0151 7.64316   4
   2 -12  -3 13.3695 7.55128   1
  -2 -12   3 23.2881 7.86382   2
  -2 -12   3 19.6787 7.72059   3
  -2 -12   3 25.6266 7.95283   1
   2 -12  -3 28.5312 6.25841   2
  -2  12   3 38.9124 6.81637   2
  -2  12   3 27.2930 8.63190   1
   2  12  -3 23.4531 7.80881   2
   2  12  -3 21.3333 7.23973   3
   1 -12  -3 10.8616 6.58223   1
   1 -12  -3 5.97004 5.31475   2
  -1 -12   3 -3.4816 7.76599   3
  -1 -12   3 1.80403 6.70987   1
   1 -12  -3 6.99612 8.40739   3
  -1 -12   3 2.10234 7.06722   1
  -1 -12   3 0.78318 6.98457   2
   1  12  -3 -2.9452 6.92219   3
  -1  12   3 1.08043 5.69704   2
   1  12  -3 9.20690 7.46723   2
  -1  12   3 10.4729 7.10676   1
   0 -12   3 258.237 19.8940   2
   0 -12   3 293.311 22.3594   1
   0 -12  -3 284.786 21.3291   3
   0 -12   3 310.113 22.3166   1
   0 -12  -3 278.062 18.5663   2
   0 -12  -3 278.384 19.8299   1
   0 -12   3 296.306 21.3653   3
   0  12  -3 283.549 20.3944   3
   0  12  -3 289.933 20.7530   2
   0  12   3 284.282 20.1463   1
   0  12   3 277.171 18.9219   2
   1 -12   3 39.0677 8.03958   1
   1 -12   3 59.3116 8.62325   2
  -1 -12  -3 44.7430 6.32773   2
   1 -12   3 47.4113 9.17017   3
  -1 -12  -3 54.2865 9.39347   3
  -1 -12  -3 54.1544 8.77618   3
   1 -12   3 58.9534 10.6047   1
  -1 -12  -3 57.6204 6.68999   1
  -1 -12  -3 52.7248 6.73461   1
   1  12   3 38.2200 6.79037   2
  -1  12  -3 47.1774 8.68288   2
  -1  12  -3 60.2125 9.40881   3
   2 -12   3 -2.9151 6.57002   1
  -2 -12  -3 -3.8677 7.31849   3
   2 -12   3 -3.3109 7.51142   2
   2 -12   3 20.0892 10.1997   1
  -2 -12  -3 1.03461 8.14714   3
  -2 -12  -3 9.83326 5.90764   2
   2 -12   3 3.87204 8.21831   3
  -2  12  -3 15.9656 8.44345   2
  -2  12  -3 -1.6402 7.87491   3
   3 -12   3 10.4237 8.58105   3
   3 -12   3 -6.2242 9.38393   2
   3 -12   3 11.1067 9.97704   1
  -3 -12  -3 -1.6182 6.15619   2
  -3 -12  -3 1.24637 7.75009   3
   3 -12   3 -11.205 8.57687   1
  -3 -12  -3 -4.2758 7.27612   3
  -3  12  -3 -5.3173 9.05597   2
  -3  12  -3 -3.1271 7.93399   3
   4 -12   3 10.0111 11.3674   1
  -4 -12  -3 -1.5871 7.44023   2
   4 -12   3 0.89073 10.4690   1
  -4 -12  -3 -4.8957 7.85947   3
   4 -12   3 -6.7373 8.79017   3
  -4 -12  -3 -8.9943 7.71931   3
  -4  12  -3 20.9015 10.7052   2
  -5 -12  -3 26.6478 8.45257   3
   5 -12   3 28.7672 9.97705   3
   5 -12   3 36.4932 15.5151   1
  -5 -12  -3 29.2892 8.61800   3
  -5  12  -3 26.5441 12.8407   2
  -6 -12  -3 29.8106 8.90050   4
   6 -12   3 14.6485 13.1136   1
  -6 -12  -3 49.6967 9.09505   3
  -6 -12  -3 34.3918 8.56854   3
   6 -12   3 53.3666 10.4001   3
  -6  12  -3 27.5639 14.7676   2
   7 -12   3 -9.9108 9.66733   3
  -7 -12  -3 -0.1152 8.89921   3
  -7 -12  -3 -1.6084 14.5565   4
  -7 -12  -3 2.18873 7.54175   3
  -7  12  -3 -2.9245 15.1934   2
  -8 -12  -3 21.8723 9.95171   4
   8 -12   3 17.8043 12.0527   3
  -8 -12  -3 21.4019 7.89448   3
  -8 -12  -3 36.6900 12.8974   2
  -8  12  -3 8.76422 17.0278   2
   9 -12   3 6.17045 12.5506   3
  -9 -12  -3 16.0690 13.6207   2
  -9 -12  -3 7.98623 10.1160   4
  -9  12  -3 23.7611 18.8187   2
  -9 -13   3 133.843 16.5284   4
  -9  13   3 100.035 20.9151   2
  -8 -13   3 267.437 20.0176   3
   8 -13  -3 267.422 31.1008   3
  -8 -13   3 292.228 25.7074   4
  -8  13   3 293.865 30.1307   2
   7 -13  -3 15.5302 10.2414   3
  -7 -13   3 8.52812 7.71597   3
  -7 -13   3 20.3441 10.9577   4
  -6 -13   3 10.0676 10.0424   4
  -6 -13   3 3.99261 7.84800   3
   6 -13  -3 2.06343 9.99455   3
  -6  13   3 -10.071 13.0779   2
  -5 -13   3 14.3628 9.50397   4
   5 -13  -3 22.0964 9.77661   3
  -5 -13   3 10.0259 8.10413   3
   5 -13  -3 5.93075 8.62557   2
  -5  13   3 7.05828 10.3892   2
   4 -13  -3 153.161 16.9553   2
   4 -13  -3 210.313 23.9132   1
  -4 -13   3 226.466 21.7711   1
  -4 -13   3 222.350 18.0393   3
  -4 -13   3 197.489 17.7513   4
   4 -13  -3 196.340 19.4186   3
  -4  13   3 187.268 18.3572   2
   3 -13  -3 738.942 50.0847   1
  -3 -13   3 740.162 48.7034   1
  -3 -13   3 839.251 47.3847   3
   3 -13  -3 755.374 46.1974   2
  -3 -13   3 792.199 49.0861   1
   3 -13  -3 808.537 47.9129   3
  -3 -13   3 797.497 46.9517   4
  -3  13   3 759.311 51.6958   1
  -3  13   3 766.642 46.4773   2
   3  13  -3 854.187 47.6280   2
   2 -13  -3 51.1221 9.85742   3
   2 -13  -3 50.2876 7.33109   2
   2 -13  -3 25.4959 8.54574   1
  -2 -13   3 37.5031 9.31192   1
  -2 -13   3 50.8449 9.07105   3
  -2 -13   3 38.1265 8.16276   1
  -2 -13   3 36.9669 8.46662   4
  -2  13   3 39.8786 7.30770   2
   2  13  -3 57.2869 9.25806   2
  -2  13   3 13.0437 8.97769   1
   1 -13  -3 366.810 25.5334   3
  -1 -13   3 413.823 29.9628   2
   1 -13  -3 346.308 25.6593   1
  -1 -13   3 356.627 26.6189   1
  -1 -13   3 381.415 25.8938   3
   1 -13  -3 378.909 23.3125   2
  -1 -13   3 369.115 26.4983   1
   1  13  -3 407.266 24.9618   2
  -1  13   3 334.883 26.2309   1
  -1  13   3 345.364 23.3904   2
   0 -13   3 30.0026 8.66532   2
   0 -13  -3 35.8950 9.72676   3
   0 -13   3 40.2324 9.67350   1
   0 -13  -3 39.5868 6.41488   2
   0 -13   3 19.3611 8.20590   1
   0 -13   3 45.8007 9.63105   3
   0 -13  -3 26.3720 6.92098   1
   0  13   3 39.4822 7.15204   2
   0  13  -3 32.9177 9.97463   3
   0  13  -3 43.3847 9.10760   2
   0  13   3 47.0623 8.13412   1
   1 -13   3 149.338 18.6132   1
   1 -13   3 182.149 16.2743   3
  -1 -13  -3 161.972 16.2055   3
  -1 -13  -3 148.175 13.1732   1
   1 -13   3 166.019 17.8380   1
  -1 -13  -3 158.731 16.9363   3
  -1 -13  -3 157.619 13.4525   1
  -1 -13  -3 166.683 13.5521   2
  -1  13  -3 151.637 16.7838   2
   1  13   3 153.050 13.9590   2
  -2 -13  -3 235.894 23.1368   3
   2 -13   3 237.494 23.6152   1
   2 -13   3 247.756 19.8890   3
  -2 -13  -3 255.479 17.8467   2
   2 -13   3 222.133 22.0330   1
  -2 -13  -3 246.938 19.5037   3
  -2  13  -3 232.551 19.8384   2
  -3 -13  -3 134.881 14.2462   2
  -3 -13  -3 139.390 16.7269   3
   3 -13   3 118.324 15.6195   1
   3 -13   3 145.434 16.2334   3
   3 -13   3 138.177 19.2841   1
  -3  13  -3 145.947 14.6826   2
  -4 -13  -3 421.117 30.3573   2
  -4 -13  -3 492.968 31.5153   3
   4 -13   3 470.528 37.2811   1
   4 -13   3 498.698 32.3353   3
  -4  13  -3 489.242 33.6213   2
   5 -13   3 167.494 15.3388   3
  -5 -13  -3 144.142 15.9555   3
   5 -13   3 108.878 18.3433   1
  -5  13  -3 140.406 17.3268   2
   6 -13   3 131.470 16.2898   3
  -6 -13  -3 141.039 16.4977   3
  -6  13  -3 146.842 18.6745   2
   7 -13   3 160.030 17.8913   3
  -7 -13  -3 172.424 17.4738   3
  -7 -13  -3 183.979 18.7787   4
  -7  13  -3 160.291 20.7634   2
  -8 -13  -3 32.3657 12.6521   2
   8 -13   3 -1.6503 11.2741   3
  -8 -13  -3 -13.968 8.04806   3
  -8 -13  -3 4.21850 9.91521   4
  -8  13  -3 14.9759 18.0571   2
  -9 -13  -3 21.3287 11.2688   4
   9 -13   3 -2.2462 11.4471   3
  -9 -13  -3 19.7103 14.0854   2
  -9  13  -3 7.18760 19.6325   2
  -9 -14   3 49.6294 13.8575   4
  -9  14   3 12.6835 20.9526   2
  -8 -14   3 28.2207 8.77544   3
  -8 -14   3 22.1107 12.3070   4
   8 -14  -3 11.4711 11.1602   3
  -8  14   3 22.0833 18.3290   2
   7 -14  -3 173.554 19.8120   3
  -7 -14   3 155.556 16.5648   4
  -7 -14   3 170.536 16.8468   3
  -7  14   3 127.265 18.9193   2
  -6 -14   3 185.067 21.5601   4
   6 -14  -3 219.932 22.6818   3
  -6 -14   3 239.066 19.1571   3
  -6  14   3 196.070 19.4647   2
   5 -14  -3 55.8821 13.0789   3
  -5 -14   3 60.6848 11.5603   4
  -5 -14   3 61.6968 10.2551   3
  -5  14   3 51.4775 12.6281   2
   4 -14  -3 155.590 18.7027   3
  -4 -14   3 161.547 17.6948   4
  -4 -14   3 159.204 16.8795   3
   4 -14  -3 160.370 16.4047   2
  -4  14   3 136.926 14.1767   2
  -3 -14   3 157.886 16.7477   4
  -3 -14   3 168.915 17.6326   3
   3 -14  -3 171.046 15.9463   2
   3 -14  -3 166.572 18.0370   3
  -3  14   3 160.794 16.4331   2
   3  14  -3 197.610 18.7477   2
   2 -14  -3 111.867 13.3640   3
  -2 -14   3 105.369 11.6542   4
   2 -14  -3 93.2172 9.81907   2
  -2 -14   3 98.6164 12.2048   3
  -2  14   3 93.9395 10.3879   2
   2  14  -3 132.574 12.4717   2
  -1 -14   3 24.5144 10.5120   1
   1 -14  -3 23.1971 10.4050   3
  -1 -14   3 16.3963 8.74198   1
   1 -14  -3 28.0932 7.17273   2
  -1 -14   3 28.2787 9.52530   3
  -1  14   3 23.0270 7.61558   2
   1  14  -3 28.0383 9.52508   2
   0 -14   3 357.884 27.2213   1
   0 -14   3 359.965 25.2553   3
   0 -14  -3 332.923 25.3976   3
   0 -14  -3 371.186 26.6511   1
   0 -14  -3 333.508 22.9836   2
   0 -14   3 326.844 29.4914   1
   0  14   3 350.995 23.3796   2
   0  14  -3 370.622 25.5921   2
  -1 -14  -3 4.59635 6.11851   1
  -1 -14  -3 10.9605 9.93172   3
   1 -14   3 8.26534 9.77267   3
  -1 -14  -3 4.04385 6.36125   2
   1 -14   3 1.12941 9.08623   1
  -1 -14  -3 0.66526 6.24581   1
  -1  14  -3 3.94205 9.31520   2
   1  14   3 14.5748 7.20051   2
  -2 -14  -3 87.4328 12.0311   3
  -2 -14  -3 93.0687 9.82430   2
   2 -14   3 67.1969 12.0106   3
  -2  14  -3 93.6885 12.4052   2
  -3 -14  -3 809.312 50.5012   2
   3 -14   3 783.496 56.4953   1
  -3 -14  -3 873.096 51.7490   3
   3 -14   3 887.515 51.8639   3
  -3  14  -3 905.122 52.0511   2
  -4 -14  -3 -3.8792 9.13242   3
   4 -14   3 2.93987 22.6456   1
   4 -14   3 -1.6816 16.8817   3
  -4  14  -3 -8.6223 12.8784   2
  -5 -14  -3 28.1781 10.2703   3
   5 -14   3 11.2845 29.0358   1
   5 -14   3 19.3477 11.9506   3
  -5  14  -3 30.8062 14.3158   2
  -6 -14  -3 173.222 18.6570   3
   6 -14   3 178.876 20.9298   3
  -6 -14  -3 173.087 19.1635   4
  -6  14  -3 143.845 20.1256   2
   7 -14   3 115.889 14.7424   3
  -7 -14  -3 129.543 13.2297   3
  -7 -14  -3 120.274 14.4090   4
  -7  14  -3 145.513 20.4676   2
   8 -14   3 110.472 15.6353   3
  -8 -14  -3 146.063 16.9206   3
  -8 -14  -3 144.792 17.7858   2
  -8 -14  -3 183.063 16.2601   4
  -8  14  -3 157.225 22.4681   2
   9 -14   3 1.95631 12.5543   3
   8 -15  -3 27.6835 12.1513   3
  -8 -15   3 19.3344 13.2116   4
  -8  15   3 15.4933 18.2917   2
   7 -15  -3 48.3374 12.1896   3
  -7 -15   3 54.8597 12.7957   4
  -7 -15   3 37.1507 9.90409   3
  -7  15   3 37.2402 16.8156   2
   6 -15  -3 12.7125 11.3637   3
  -6 -15   3 -1.4683 11.2526   4
  -6 -15   3 7.00603 9.23721   3
  -6  15   3 12.8699 14.1800   2
  -5 -15   3 79.3074 11.7926   3
   5 -15  -3 92.3524 13.6324   3
  -5 -15   3 116.057 13.7033   4
  -5  15   3 72.5503 13.6131   2
  -4 -15   3 125.340 14.0868   4
   4 -15  -3 151.563 17.6779   3
  -4 -15   3 117.171 13.4646   3
  -4  15   3 102.974 13.2585   2
   3 -15  -3 11.2246 11.2406   3
  -3 -15   3 1.29829 9.82288   3
  -3 -15   3 7.46886 9.57836   4
   3 -15  -3 6.20570 8.09868   2
  -3  15   3 -8.9748 9.11002   2
   3  15  -3 16.3263 10.3154   2
   2 -15  -3 240.985 18.5788   2
  -2 -15   3 238.642 21.6239   3
   2  15  -3 182.314 24.7174   2
  -2  15   3 229.535 18.7853   2
  -1 -15   3 19.9184 10.3160   3
   1 -15  -3 15.0603 7.40278   2
  -1  15   3 13.5588 8.34395   2
   1  15  -3 22.5566 13.3566   2
   0 -15   3 80.2388 12.9000   3
   0 -15  -3 95.2003 9.70306   2
   0 -15  -3 81.9015 17.8411   3
   0  15  -3 95.4827 12.5918   2
   0  15   3 78.3832 9.89368   2
  -1 -15  -3 443.594 27.8360   2
  -1 -15  -3 476.438 32.5299   3
  -1 -15  -3 421.156 27.8543   1
  -1  15  -3 405.752 31.4588   2
   1  15   3 408.197 27.8437   2
   2 -15   3 82.7930 17.7211   3
  -2 -15  -3 36.6709 10.7718   2
  -2 -15  -3 44.8211 15.3003   3
   3 -15   3 5.20374 11.2478   3
  -3  15  -3 15.6930 12.0683   2
   4 -15   3 0.97977 11.5342   3
  -4  15  -3 8.05667 13.4502   2
   5 -15   3 319.967 26.8674   3
  -5 -15  -3 305.594 25.4844   3
  -5  15  -3 303.415 28.8949   2
  -6 -15  -3 18.7482 10.6617   3
   6 -15   3 18.1754 12.7938   3
  -6 -15  -3 26.9771 11.2370   4
  -6  15  -3 6.94448 16.6833   2
  -7 -15  -3 2.75214 9.69050   3
  -7 -15  -3 10.1337 11.6833   4
   7 -15   3 -1.3362 12.2446   3
  -7  15  -3 4.44974 18.1974   2
  -8 -15  -3 82.6246 11.7721   3
  -8 -15  -3 83.5359 15.6504   2
   8 -15   3 97.8744 15.5855   3
  -8 -15  -3 109.197 14.5581   4
  -8  15  -3 94.6027 22.6455   2
   7 -16  -3 57.9493 13.7451   3
  -7 -16   3 45.9561 13.6356   4
  -7 -16   3 52.9081 10.8614   3
  -7  16   3 40.0543 17.8125   2
   6 -16  -3 117.591 14.7931   3
  -6 -16   3 82.3495 14.3598   4
  -6 -16   3 110.017 13.0048   3
  -6  16   3 60.0332 16.6858   2
   5 -16  -3 194.015 21.3150   3
  -5 -16   3 153.326 16.8608   4
  -5 -16   3 176.958 18.9926   3
  -5  16   3 158.878 19.5227   2
   4 -16  -3 36.9265 12.3199   3
  -4 -16   3 16.4131 11.3015   3
  -4 -16   3 20.1191 11.4769   4
  -4  16   3 25.1905 11.1321   2
  -3 -16   3 151.252 15.4285   3
  -3 -16   3 116.486 14.0907   4
   3 -16  -3 146.119 16.3602   3
   3  16  -3 148.904 15.1449   2
  -3  16   3 102.644 13.0706   2
  -2 -16   3 -0.6910 10.5712   3
   2 -16  -3 -3.7428 11.8253   3
  -2 -16   3 -19.987 10.0966   4
   2  16  -3 4.84698 10.5633   2
  -2  16   3 2.93863 9.15965   2
  -1 -16   3 337.282 26.3519   3
   1 -16  -3 296.354 26.6367   3
   1  16  -3 318.932 24.5125   2
  -1  16   3 290.739 22.9925   2
   0 -16   3 -4.3931 11.5747   3
   0 -16  -3 -0.3470 11.1085   3
   0  16  -3 2.40725 10.4325   2
   0  16   3 8.84205 8.62704   2
   1 -16   3 105.910 14.7897   3
  -1 -16  -3 149.233 15.5263   3
  -1  16  -3 130.506 14.9375   2
   1  16   3 119.953 12.3750   2
  -2 -16  -3 223.364 22.1027   3
   2 -16   3 199.527 22.8733   3
  -2  16  -3 200.676 22.5413   2
  -3 -16  -3 7.65197 11.3030   3
   3 -16   3 9.88103 12.1995   3
  -3  16  -3 3.36359 13.1359   2
  -4 -16  -3 47.0354 11.9176   3
   4 -16   3 60.6065 13.3561   3
  -4  16  -3 54.4302 15.3252   2
  -5 -16  -3 -6.3078 10.6974   4
   5 -16   3 14.7687 13.3254   3
  -5 -16  -3 -1.5291 11.2205   3
  -5  16  -3 -0.9485 15.6378   2
  -6 -16  -3 -0.8709 11.1169   4
  -6 -16  -3 9.34577 10.6454   3
   6 -16   3 1.48416 13.3778   3
  -6  16  -3 9.34527 17.4655   2
  -7 -16  -3 3.45270 10.7689   3
  -7 -16  -3 6.84701 12.3516   4
   7 -16   3 9.48168 13.2593   3
  -7  16  -3 -2.0564 19.8176   2
   7 -17  -3 40.0965 14.5642   3
  -7 -17   3 34.9596 11.2388   3
  -7 -17   3 54.4270 15.0081   4
  -7  17   3 11.3202 17.0854   2
   6 -17  -3 -0.1599 13.0611   3
  -6 -17   3 -4.3092 10.8374   3
  -6 -17   3 -9.7758 12.3732   4
  -6  17   3 3.99684 15.1696   2
  -5 -17   3 -13.044 12.1739   4
  -5 -17   3 0.74510 11.1299   3
   5 -17  -3 1.71012 12.9129   3
  -5  17   3 -7.3825 12.5303   2
  -4 -17   3 31.9500 12.4665   4
  -4 -17   3 28.9682 11.6933   3
   4 -17  -3 53.0090 14.0524   3
  -4  17   3 53.2744 12.7656   2
  -3 -17   3 57.1301 12.6924   4
  -3 -17   3 25.0949 11.6504   3
   3 -17  -3 26.9091 13.3420   3
   3  17  -3 26.0962 12.0433   2
  -3  17   3 30.6322 13.1503   2
   2 -17  -3 -9.8858 12.4916   3
  -2 -17   3 22.9479 12.3523   3
  -2 -17   3 15.9396 10.9423   4
  -2  17   3 1.60456 10.1609   2
   2  17  -3 8.68057 11.9627   2
  -1 -17   3 30.5646 12.3958   3
   1 -17  -3 10.5850 12.3339   3
  -1  17   3 31.5491 10.0897   2
   1  17  -3 42.0346 12.1062   2
   0 -17   3 9.39434 12.0351   3
   0 -17  -3 0.55462 12.3640   3
   0  17  -3 10.3559 11.3573   2
   0  17   3 8.32115 9.68143   2
  -1 -17  -3 -1.6998 11.7716   3
   1 -17   3 -0.1530 12.5666   3
   1  17   3 -11.780 9.59583   2
  -1  17  -3 -0.9372 12.1794   2
   2 -17   3 46.2359 13.6117   3
  -2 -17  -3 60.4535 13.6045   3
  -2  17  -3 72.9258 14.2998   2
   3 -17   3 19.5733 12.9617   3
  -3 -17  -3 29.3712 12.6731   3
  -3  17  -3 17.0522 13.8673   2
  -4 -17  -3 8.39525 12.5071   3
   4 -17   3 20.8967 13.6154   3
  -4  17  -3 0.77204 15.6036   2
  -5 -17  -3 19.4349 12.5079   4
  -5 -17  -3 10.5107 11.8031   3
   5 -17   3 13.3472 13.6091   3
  -5  17  -3 7.51512 17.5662   2
  -6 -17  -3 1.21849 11.6826   4
  -6 -17  -3 0.63859 11.9139   3
   6 -17   3 8.53953 13.9323   3
  -6  17  -3 16.7299 18.2356   2
  -7 -17  -3 2.39749 11.5003   3
   7 -17   3 -7.3886 13.8610   3
  -6 -18   3 115.821 16.7257   4
   6 -18  -3 121.271 17.2432   3
  -6 -18   3 136.576 15.1675   3
  -6  18   3 98.3989 18.0684   2
  -5 -18   3 -8.4463 13.1597   4
  -5 -18   3 8.62092 11.2722   3
   5 -18  -3 6.90011 13.9855   3
  -5  18   3 2.21279 13.5870   2
  -4 -18   3 33.3029 13.5671   3
   4 -18  -3 29.6704 15.2650   3
  -4 -18   3 37.7967 12.9616   4
  -4  18   3 47.6763 13.5548   2
  -3 -18   3 76.6116 14.6674   3
  -3 -18   3 43.5193 13.4283   4
   3 -18  -3 59.6129 15.0214   3
   3  18  -3 74.0770 14.4087   2
  -3  18   3 24.5965 12.7596   2
   2 -18  -3 5.99422 13.5490   3
  -2 -18   3 3.35884 12.6763   3
  -2 -18   3 10.0789 12.4992   4
   2  18  -3 5.78706 12.6714   2
  -2  18   3 6.45777 11.0879   2
  -1 -18   3 38.0187 14.3449   3
   1 -18  -3 15.5147 13.8431   3
  -1  18   3 40.2104 11.2363   2
   1  18  -3 11.4331 12.6345   2
   0 -18  -3 41.3528 14.8169   3
   0 -18   3 86.1952 15.4774   3
   0  18   3 67.2601 12.2845   2
   0  18  -3 57.2019 13.8303   2
   1 -18   3 136.618 17.1000   3
  -1 -18  -3 161.343 18.0506   3
   1  18   3 109.092 13.7669   2
  -1  18  -3 144.430 16.7365   2
  -2 -18  -3 106.276 16.1079   3
   2 -18   3 117.045 16.8872   3
  -2  18  -3 73.0412 15.7780   2
  -3 -18  -3 68.6672 14.9739   3
   3 -18   3 140.766 17.5702   3
  -3  18  -3 80.7138 17.6030   2
  -4 -18  -3 53.2647 13.5703   3
   4 -18   3 63.8453 16.0608   3
  -4  18  -3 55.2996 17.5237   2
  -5 -18  -3 21.1057 12.8872   3
  -5 -18  -3 36.3782 12.7493   4
   5 -18   3 29.3765 14.5073   3
  -5  18  -3 -1.9270 18.1098   2
  -6 -18  -3 34.4610 14.0657   4
  -6 -18  -3 15.5695 12.3316   3
   6 -18   3 12.4805 14.6553   3
  -6  18  -3 22.2134 21.0128   2
  -5 -19   3 5.62953 12.8305   3
  -5 -19   3 -12.748 13.8832   4
   5 -19  -3 -16.145 15.0524   3
  -5  19   3 40.9352 14.9345   2
  -4 -19   3 -0.1227 12.4062   3
  -4 -19   3 10.4929 14.2098   4
   4 -19  -3 -6.0326 15.3519   3
  -4  19   3 -8.3022 13.8823   2
   3 -19  -3 -11.124 14.9649   3
  -3 -19   3 -1.7343 12.6773   4
  -3 -19   3 5.74968 13.3635   3
   3  19  -3 15.0685 13.2997   2
  -3  19   3 8.16171 12.3248   2
  -2 -19   3 1.92879 12.5079   4
  -2 -19   3 10.3873 14.2832   3
   2 -19  -3 6.65744 14.7012   3
   2  19  -3 -0.0937 13.1114   2
  -2  19   3 2.96479 11.5194   2
  -1 -19   3 10.3799 13.9945   3
   1 -19  -3 4.37058 14.9305   3
  -1  19   3 -11.512 11.4349   2
   1  19  -3 19.5985 13.5103   2
   0 -19  -3 -10.692 13.8526   3
   0 -19   3 -10.933 13.6590   3
   0  19   3 -20.912 10.8553   2
   0  19  -3 -3.1352 13.4399   2
  -1 -19  -3 12.9205 14.0851   3
   1 -19   3 -3.1908 14.6714   3
  -1  19  -3 3.28180 13.8198   2
   2 -19   3 -10.133 13.9387   3
  -2 -19  -3 -6.2805 13.6405   3
  -2  19  -3 -8.9553 15.5348   2
   3 -19   3 8.48702 14.6952   3
  -3 -19  -3 -4.9983 14.2441   3
  -3  19  -3 -15.878 15.6061   2
  -4 -19  -3 21.2400 14.1799   3
   4 -19   3 -5.3762 14.8943   3
  -4  19  -3 5.70908 17.1934   2
   3 -20  -3 15.8797 17.3939   3
  -3 -20   3 30.5616 15.4393   3
  -3 -20   3 32.4160 15.4731   4
   3  20  -3 30.8987 14.5464   2
  -3  20   3 8.90314 13.5804   2
   2 -20  -3 27.4873 17.0577   3
  -2 -20   3 10.7397 14.9990   4
  -2 -20   3 13.2723 15.1687   3
  -2  20   3 30.3721 13.3514   2
   2  20  -3 33.3507 14.8709   2
  -1 -20   3 9.15899 14.1577   4
   1 -20  -3 8.03535 15.6738   3
  -1 -20   3 16.4081 15.0832   3
  -1  20   3 -1.6408 12.4926   2
   1  20  -3 -2.1839 14.4133   2
   0 -20  -3 22.7765 16.4418   3
   0 -20   3 13.8145 15.2607   3
   0  20  -3 40.0985 15.4672   2
   0  20   3 28.6528 12.5044   2
  -1 -20  -3 81.0423 17.8350   3
   1 -20   3 89.0710 17.6387   3
  -1  20  -3 90.3539 17.7521   2
   2 -20   3 36.8493 16.7698   3
  -2 -20  -3 31.9109 16.5755   3
  -2  20  -3 39.8213 16.7112   2
   3 -20   3 -12.321 16.7103   3
  -3 -20  -3 22.4357 15.1308   3
  -3  20  -3 7.40079 18.2088   2
 -12   0   4 -10.618 18.9747   2
 -11   0   4 200.460 23.1128   2
 -10   0   4 47.3034 16.1216   2
  -9   0   4 18.1842 13.2449   2
  -8   0   4 892.780 58.3089   1
  -8   0   4 968.641 56.5436   2
  -7   0   4 464.904 28.6980   2
  -7   0   4 346.261 29.6798   1
   7   0  -4 383.709 31.7724   1
   7   0  -4 506.360 30.0990   4
  -6   0   4 278.117 23.9619   1
   6   0  -4 331.801 18.6752   3
   6   0  -4 331.118 23.4964   4
  -6   0   4 318.677 23.0830   2
  -5   0   4 380.500 28.3017   3
   5   0  -4 459.960 29.4117   4
  -5   0   4 474.475 31.0450   1
   5   0  -4 491.899 27.3736   3
  -5   0   4 479.542 28.9457   2
   5   0  -4 509.488 31.8421   1
   4   0  -4 3.47810 4.01833   3
   4   0  -4 -0.0782 5.67196   4
   4   0  -4 3.70599 6.07637   1
  -4   0   4 8.09463 3.83822   3
  -4   0   4 4.78161 5.28857   2
  -4   0   4 4.90428 5.57462   1
   3   0  -4 4049.16 217.807   1
  -3   0   4 3817.61 215.814   3
  -3   0   4 3862.61 215.366   2
   3   0  -4 3814.52 216.264   4
   3   0  -4 3714.29 215.894   3
  -2   0   4 431.920 28.3649   3
   2   0  -4 509.304 29.8302   1
  -2   0   4 499.076 27.1804   2
  -2   0   4 498.645 30.0333   1
   2   0  -4 477.847 28.4519   4
   2   0  -4 451.852 28.2968   3
   1   0  -4 2730.89 147.758   1
   1   0  -4 2404.81 146.677   3
  -1   0   4 2860.48 148.071   1
  -1   0   4 2698.31 145.781   2
   1   0  -4 2543.11 145.796   2
  -1   0   4 2423.44 146.735   3
   0   0   4 2004.42 104.653   2
   0   0   4 2051.81 106.540   1
   0   0   4 1742.68 105.695   3
   0   0  -4 1967.38 106.198   1
   0   0  -4 1609.07 105.439   3
   0   0  -4 1845.43 104.555   2
  -1   0  -4 901.556 47.9737   2
   1   0   4 926.919 48.3173   2
  -1   0  -4 884.275 49.2250   1
  -1   0  -4 776.739 48.9403   3
   1   0   4 875.142 49.4143   1
   1   0   4 733.576 49.0743   3
   2   0   4 37.3728 6.41266   3
  -2   0  -4 52.7226 3.36906   4
  -2   0  -4 54.7660 6.18843   3
   2   0   4 46.4028 5.58545   2
   2   0   4 56.9077 6.91925   1
  -2   0  -4 67.7243 6.00413   2
  -3   0  -4 249.149 17.4452   3
  -3   0  -4 290.313 17.1890   2
   3   0   4 272.682 17.7546   1
   3   0   4 304.561 18.3741   2
   3   0   4 280.542 17.6679   1
   3   0   4 220.513 18.3318   3
   4   0   4 2612.36 143.701   1
   4   0   4 2207.38 145.603   2
  -4   0  -4 2694.92 142.903   2
  -4   0  -4 2747.96 142.967   3
   4   0   4 2248.50 143.201   3
   4   0   4 2676.56 143.792   1
   5   0   4 41.4938 8.05551   3
  -5   0  -4 78.4683 8.71042   3
   5   0   4 59.8019 8.23911   1
   5   0   4 89.1127 10.6808   2
  -5   0  -4 66.6526 7.96948   2
   6   0   4 10.7691 6.89697   3
  -6   0  -4 6.61088 4.81325   3
  -6   0  -4 12.4476 7.53053   2
   6   0   4 5.12844 6.71468   1
   7   0   4 79.7606 9.10609   3
  -7   0  -4 76.4513 10.9979   2
  -7   0  -4 80.1068 8.80890   3
   7   0   4 77.3648 11.4203   1
   8   0   4 30.5967 6.51019   3
  -8   0  -4 18.9111 10.5026   2
  -8   0  -4 20.4162 4.53531   3
  -9   0  -4 41.6910 12.5323   2
  -9   0  -4 44.0172 4.38296   3
 -10   0  -4 55.0677 14.3470   2
 -11   0  -4 26.1322 14.9568   2
 -12  -1   4 37.9917 20.9845   2
 -12   1   4 -2.6793 19.1390   2
 -11  -1   4 11.4351 17.6897   2
 -11   1   4 32.3275 18.3703   2
 -10  -1   4 376.882 32.3395   2
 -10   1   4 392.974 35.1663   2
  -9  -1   4 21.7412 12.8773   2
  -9   1   4 8.37338 14.1684   2
  -8  -1   4 4.33261 9.10153   1
  -8  -1   4 -6.0296 11.2540   2
   8  -1  -4 27.7019 15.1936   1
   7  -1  -4 1174.19 69.0317   4
   7  -1  -4 1150.89 72.0117   1
  -7  -1   4 1178.55 70.9516   1
  -7  -1   4 1141.89 68.6871   2
  -7   1   4 1198.37 71.4703   1
   7   1  -4 1251.73 69.7245   4
  -7   1   4 1195.63 68.9383   2
   7   1  -4 1106.60 71.6651   1
  -6  -1   4 219.745 18.8168   1
   6  -1  -4 203.102 18.2088   4
  -6  -1   4 198.464 17.8323   2
   6  -1  -4 223.866 13.7038   3
   6  -1  -4 197.487 20.1335   1
  -6   1   4 216.104 19.3810   1
   6   1  -4 252.003 18.9512   4
   6   1  -4 186.253 19.5551   1
   6   1  -4 202.893 12.5641   3
  -6   1   4 203.079 17.9792   2
  -5  -1   4 141.325 14.8167   1
   5  -1  -4 153.913 14.1848   4
  -5  -1   4 132.164 12.7231   2
   5  -1  -4 130.883 10.8041   3
   5  -1  -4 118.351 15.3819   1
  -5   1   4 130.460 14.7597   1
  -5   1   4 113.678 13.2961   2
   5   1  -4 166.988 9.96690   3
   5   1  -4 176.410 14.7522   4
   5   1  -4 132.071 14.8919   1
   4  -1  -4 81.3837 8.55611   3
  -4  -1   4 88.2032 8.35844   3
   4  -1  -4 81.4942 8.76769   4
  -4  -1   4 85.6414 12.0594   1
  -4  -1   4 97.3730 8.06367   2
   4  -1  -4 103.395 12.1969   1
   4   1  -4 82.2685 8.27547   3
  -4   1   4 85.9939 11.8573   1
   4   1  -4 87.1577 9.00489   4
   4   1  -4 97.3797 11.3373   1
  -4   1   4 101.411 10.0786   2
  -4   1   4 107.214 8.31396   3
   3  -1  -4 505.174 32.4321   1
   3  -1  -4 435.323 30.2821   3
  -3  -1   4 544.900 29.8213   2
  -3  -1   4 466.005 30.4069   3
  -3  -1   4 543.680 32.7723   1
  -3   1   4 530.128 30.2477   2
  -3   1   4 584.695 30.4837   3
   3   1  -4 531.950 32.6166   1
   3   1  -4 532.039 30.5060   3
  -3   1   4 547.512 32.8820   1
   3   1  -4 480.699 30.9579   4
   2  -1  -4 5.28377 3.77112   3
  -2  -1   4 6.56472 2.29407   2
   2  -1  -4 10.6511 7.09407   1
  -2  -1   4 6.62416 4.00270   3
  -2  -1   4 4.77963 4.25738   1
   2   1  -4 5.53640 4.10956   3
  -2   1   4 7.10746 4.30534   3
   2   1  -4 9.77351 4.39440   4
  -2   1   4 5.52680 1.81036   2
   2   1  -4 2.48797 3.43532   1
  -2   1   4 5.19615 4.34656   1
  -1  -1   4 27.7256 5.13189   1
  -1  -1   4 34.9050 3.45603   2
   1  -1  -4 26.6907 4.69963   1
  -1  -1   4 24.6608 4.94039   3
   1  -1  -4 26.7736 4.43142   3
   1   1  -4 21.3930 4.76576   3
  -1   1   4 24.9868 5.16107   3
  -1   1   4 27.6390 2.36895   2
   1   1  -4 29.7169 5.22553   1
  -1   1   4 28.0320 4.89928   1
   1   1  -4 29.9580 2.71135   2
   1   1  -4 25.9871 4.20424   4
   0  -1   4 40.0316 5.52331   3
   0  -1  -4 47.2830 3.07575   2
   0  -1   4 58.5285 7.13813   1
   0  -1  -4 54.2036 6.50033   1
   0  -1   4 46.3268 4.28607   2
   0  -1  -4 29.8758 4.87446   3
   0   1  -4 52.6998 6.61917   1
   0   1   4 44.5724 6.08016   3
   0   1   4 31.5750 4.73231   1
   0   1  -4 47.7073 4.00087   2
   0   1  -4 48.6695 5.06920   4
   0   1  -4 44.7953 5.66948   3
   0   1   4 50.7159 3.87277   2
   1  -1   4 144.427 10.4915   1
  -1  -1  -4 123.211 9.44510   1
  -1  -1  -4 115.727 9.95068   3
   1  -1   4 102.353 10.1463   3
   1  -1   4 139.539 8.86241   2
  -1  -1  -4 136.225 8.04043   2
   1   1   4 127.110 8.83187   2
  -1   1  -4 129.231 10.4663   3
   1   1   4 97.6405 10.5482   3
  -1   1  -4 129.815 8.32278   2
  -1   1  -4 133.793 10.0557   1
   1   1   4 120.419 10.0041   1
  -1   1  -4 132.383 7.88110   4
  -2  -1  -4 367.834 25.6506   3
   2  -1   4 460.645 26.4583   1
   2  -1   4 419.863 25.5416   2
  -2  -1  -4 465.295 24.9753   2
   2  -1   4 380.036 26.2098   3
   2   1   4 434.062 25.5196   2
  -2   1  -4 426.520 25.8395   3
   2   1   4 434.758 25.9811   1
  -2   1  -4 467.280 25.1393   2
  -3  -1  -4 195.524 11.2946   4
  -3  -1  -4 192.618 13.6790   3
   3  -1   4 180.764 14.0396   1
   3  -1   4 154.208 14.3565   3
  -3  -1  -4 208.172 12.9057   2
   3  -1   4 214.660 14.6312   2
  -3   1  -4 202.370 13.4692   2
   3   1   4 204.953 13.3977   1
   3   1   4 199.983 13.6458   1
  -3   1  -4 214.900 14.0158   3
   3   1   4 198.118 13.9847   2
   3   1   4 165.692 14.5797   3
  -4  -1  -4 85.1775 8.83704   3
   4  -1   4 67.2338 9.98949   2
  -4  -1  -4 86.3750 8.78047   2
   4  -1   4 60.5616 8.08378   3
   4  -1   4 88.6222 9.81562   1
   4   1   4 76.7921 9.21261   2
   4   1   4 71.8201 8.44809   1
   4   1   4 84.8688 8.71948   1
   4   1   4 68.4362 8.41962   3
  -4   1  -4 86.0308 8.94133   3
  -4   1  -4 83.1908 9.19486   2
   5  -1   4 242.293 19.2732   2
   5  -1   4 257.728 18.7868   1
  -5  -1  -4 279.960 16.8844   3
   5  -1   4 198.085 18.0977   3
  -5  -1  -4 251.387 17.4991   2
   5   1   4 239.130 17.6308   1
  -5   1  -4 274.148 16.7249   3
  -5   1  -4 262.671 17.8081   2
   5   1   4 239.840 17.8844   1
   5   1   4 243.695 18.2869   3
   6  -1   4 267.239 21.5411   1
  -6  -1  -4 293.003 18.3070   3
   6  -1   4 270.091 22.2283   2
  -6  -1  -4 275.802 20.4633   2
   6  -1   4 249.568 20.1190   3
   6   1   4 296.508 19.7811   3
  -6   1  -4 301.905 18.0891   3
   6   1   4 258.618 20.4042   1
  -6   1  -4 280.358 20.9893   2
  -7  -1  -4 8.41261 4.64126   3
  -7  -1  -4 10.6862 8.75990   2
   7  -1   4 -1.1628 8.08123   1
   7  -1   4 9.09829 7.44843   3
  -7   1  -4 8.79658 6.49311   1
  -7   1  -4 2.74720 4.51705   3
  -7   1  -4 8.62796 8.90193   2
   7   1   4 -0.2383 8.06548   1
   8  -1   4 156.741 15.1261   3
  -8  -1  -4 186.904 12.1958   3
  -8  -1  -4 175.796 18.7332   2
  -8   1  -4 168.597 12.4042   3
  -8   1  -4 179.057 19.0420   2
  -9  -1  -4 1.41075 11.3324   2
  -9  -1  -4 10.1559 3.25651   3
  -9   1  -4 18.9479 11.9332   2
  -9   1  -4 11.9467 3.68382   3
 -10  -1  -4 108.537 16.1268   2
 -10   1  -4 121.511 16.7062   2
 -11  -1  -4 1.07030 14.8427   2
 -11   1  -4 11.1944 15.4404   2
 -12  -2   4 64.1654 19.7110   2
 -12   2   4 62.5858 21.0946   2
 -11  -2   4 56.9319 18.2260   2
 -11   2   4 55.3191 18.9942   2
 -10  -2   4 238.764 22.5935   2
 -10   2   4 254.493 24.7736   2
  -9  -2   4 165.760 17.6405   2
  -9   2   4 152.020 18.5611   2
  -8  -2   4 2.08496 8.89473   1
  -8  -2   4 0.04281 10.8577   2
   8  -2  -4 7.06784 12.1209   1
  -8  -2   4 -4.4771 8.95133   2
  -8   2   4 14.5897 10.3672   1
  -8   2   4 7.83443 12.5468   2
  -7  -2   4 5.53876 9.64267   2
  -7  -2   4 3.61910 7.55624   1
   7  -2  -4 3.00321 10.7447   1
  -7  -2   4 -1.5483 6.38317   2
  -7   2   4 22.8661 8.34931   1
   7   2  -4 16.0514 9.68450   4
   7   2  -4 -3.9867 7.17864   1
  -6  -2   4 95.4130 13.5010   1
  -6  -2   4 105.505 7.06126   3
   6  -2  -4 70.2829 10.1283   4
   6  -2  -4 93.6459 8.83813   3
  -6  -2   4 102.117 10.7562   2
  -6  -2   4 96.4573 8.84595   2
   6  -2  -4 67.8420 10.4714   1
  -6   2   4 75.2862 10.9389   1
   6   2  -4 101.749 11.3197   4
   6   2  -4 94.1844 6.50748   3
  -6   2   4 92.0043 10.8272   2
   6   2  -4 69.1486 11.0774   1
  -5  -2   4 979.497 55.9222   1
   5  -2  -4 791.990 52.5074   3
  -5  -2   4 949.322 52.8015   2
   5  -2  -4 912.370 56.2623   1
  -5  -2   4 814.695 52.5478   3
   5   2  -4 974.071 52.1315   3
  -5   2   4 896.436 53.6779   2
   5   2  -4 978.732 56.1807   1
   5   2  -4 973.250 54.4109   4
  -5   2   4 961.454 56.1300   1
   4  -2  -4 94.1082 12.2285   1
  -4  -2   4 92.3820 8.41715   2
   4  -2  -4 81.0316 8.27335   3
  -4  -2   4 101.787 11.7009   1
  -4  -2   4 81.6074 8.26735   3
   4   2  -4 98.5249 7.98842   3
   4   2  -4 93.8668 11.7289   1
  -4   2   4 75.9735 8.01076   2
   4   2  -4 88.6888 9.02847   4
  -4   2   4 89.1976 11.6781   1
   3  -2  -4 448.423 28.9987   1
   3  -2  -4 418.238 26.7077   3
  -3  -2   4 451.399 26.2226   2
  -3  -2   4 451.196 29.0153   1
  -3   2   4 462.122 29.2625   1
  -3   2   4 424.158 26.7041   2
   3   2  -4 476.217 26.8290   3
   3   2  -4 459.074 29.0056   1
  -3   2   4 495.898 26.9042   3
   3   2  -4 439.862 27.6576   4
  -2  -2   4 378.991 20.4453   2
  -2  -2   4 351.650 23.0338   1
  -2  -2   4 308.254 21.1653   4
  -2  -2   4 295.711 21.3178   3
   2  -2  -4 329.272 21.1898   3
   2  -2  -4 361.585 22.8602   1
   2   2  -4 378.191 20.5187   2
  -2   2   4 356.746 23.3356   1
   2   2  -4 353.234 21.4448   4
  -2   2   4 380.251 21.6277   3
  -2   2   4 340.649 20.4078   2
   2   2  -4 367.848 21.4399   3
   2   2  -4 356.954 23.1787   1
  -1  -2   4 101.552 6.76886   2
  -1  -2   4 95.6902 8.94844   3
   1  -2  -4 86.5937 8.89488   1
  -1  -2   4 110.006 9.66725   1
   1  -2  -4 88.6204 8.37772   3
  -1  -2   4 90.7593 7.98890   4
   1   2  -4 88.3484 6.73891   2
   1   2  -4 93.8042 9.72022   1
   1   2  -4 102.607 8.15212   4
  -1   2   4 105.676 9.51140   3
   1   2  -4 117.895 9.14649   3
  -1   2   4 107.603 10.0133   1
   0  -2  -4 130.065 10.4694   3
   0  -2   4 151.061 9.14961   2
   0  -2   4 139.526 11.0278   3
   0  -2   4 147.761 11.4364   1
   0  -2  -4 129.540 10.4739   1
   0   2  -4 148.315 11.1604   3
   0   2   4 134.528 11.6169   3
   0   2  -4 154.979 9.36405   4
   0   2  -4 141.547 8.97878   2
   0   2   4 136.456 11.4065   1
   0   2  -4 147.811 11.1679   1
   1  -2   4 156.936 9.59905   4
  -1  -2  -4 135.032 10.8661   3
  -1  -2  -4 146.792 10.7409   1
   1  -2   4 149.293 11.8999   3
   1  -2   4 180.690 10.4657   2
   1  -2   4 178.732 11.9841   1
  -1  -2  -4 155.125 9.47623   2
  -1   2  -4 163.827 10.0323   2
  -1   2  -4 157.600 11.7311   1
   1   2   4 136.558 11.9695   3
   1   2   4 140.375 11.4669   1
  -1   2  -4 168.090 11.5843   3
   2  -2   4 173.634 12.6382   1
   2  -2   4 149.878 12.5972   3
   2  -2   4 164.852 12.7082   1
  -2  -2  -4 159.361 11.0815   1
  -2  -2  -4 167.204 10.8316   2
  -2  -2  -4 146.666 11.9114   3
   2  -2   4 186.354 12.0615   2
   2   2   4 163.539 11.8251   1
  -2   2  -4 186.503 11.3211   2
   2   2   4 167.504 13.2902   3
  -2   2  -4 175.603 12.5163   3
   3  -2   4 5.44011 5.23235   3
  -3  -2  -4 6.92462 4.31762   3
   3  -2   4 5.38928 5.50180   2
  -3  -2  -4 7.13518 4.03822   2
   3  -2   4 6.44097 4.18512   1
   3  -2   4 9.39436 4.63299   1
   3   2   4 2.33213 3.00502   1
   3   2   4 3.31162 3.40649   1
  -3   2  -4 7.10885 4.58610   2
   3   2   4 8.50371 6.01870   3
  -3   2  -4 9.83626 4.70002   3
  -4  -2  -4 21.6874 5.08920   3
  -4  -2  -4 31.0888 3.30565   4
   4  -2   4 26.6674 6.92127   1
   4  -2   4 38.5162 7.49507   2
   4  -2   4 30.9656 7.42675   1
   4  -2   4 17.8668 6.07922   3
  -4  -2  -4 25.7523 5.57400   2
   4   2   4 34.6367 5.03105   1
  -4   2  -4 32.2739 6.24513   2
   4   2   4 26.5405 6.59866   3
   4   2   4 32.6516 4.85853   1
  -4   2  -4 28.0908 5.46171   3
   5  -2   4 1131.08 66.3484   2
  -5  -2  -4 1108.78 65.5025   2
  -5  -2  -4 1079.49 65.2356   3
  -5   2  -4 1140.79 65.7719   2
   5   2   4 1149.36 66.1349   1
   5   2   4 1199.26 65.7525   3
   5   2   4 1116.52 65.8171   1
  -5   2  -4 1208.93 65.2109   3
  -6  -2  -4 131.840 11.7034   3
  -6  -2  -4 124.376 13.8059   2
   6  -2   4 187.287 17.9552   2
   6  -2   4 158.168 14.1316   3
  -6   2  -4 117.857 13.6800   1
  -6   2  -4 149.056 11.5412   3
  -6   2  -4 162.113 14.8165   2
   6   2   4 145.067 13.1270   3
   6   2   4 144.241 13.8306   1
   7  -2   4 268.919 22.1215   3
  -7  -2  -4 341.417 19.9079   3
   7  -2   4 316.540 25.4246   2
  -7  -2  -4 307.399 22.7389   2
  -7   2  -4 310.392 23.4466   2
   7   2   4 316.115 23.4952   1
  -7   2  -4 315.475 19.8137   3
  -7   2  -4 309.937 25.4666   1
   8  -2   4 405.597 25.8485   3
  -8  -2  -4 376.702 27.6359   2
  -8  -2  -4 394.052 23.2470   3
  -8   2  -4 370.842 23.3912   3
  -8   2  -4 383.396 28.3107   2
  -9  -2  -4 43.0071 4.09868   3
  -9  -2  -4 46.0984 12.6729   2
   9  -2   4 38.2996 7.12081   3
  -9   2  -4 18.6735 12.7415   2
  -9   2  -4 35.2134 4.89676   3
 -10  -2  -4 17.7969 12.7862   2
 -10   2  -4 12.9360 14.3562   2
 -11  -2  -4 23.9614 14.9812   2
 -11   2  -4 15.5457 15.8270   2
 -12  -3   4 11.6139 18.6461   2
 -12   3   4 13.1138 20.6249   2
 -11  -3   4 38.1409 16.3919   2
 -11   3   4 32.7740 19.0210   2
 -10  -3   4 21.4675 15.0260   2
 -10   3   4 10.7281 16.6003   2
  -9  -3   4 12.6922 21.6129   2
  -9   3   4 36.2378 15.5917   2
   8  -3  -4 101.841 27.3490   1
  -8  -3   4 97.6640 13.7880   2
  -8   3   4 114.405 15.8676   1
  -8   3   4 108.720 15.6158   2
   7  -3  -4 167.461 22.4888   1
   7  -3  -4 199.446 17.9947   4
   7  -3  -4 203.902 13.6073   3
   7  -3  -4 191.404 12.5879   3
  -7  -3   4 211.578 16.6094   2
  -7  -3   4 175.460 19.2787   1
  -7  -3   4 186.151 18.3079   2
   7   3  -4 214.975 28.4936   1
  -7   3   4 200.594 20.8874   2
   7   3  -4 199.440 20.2108   4
  -7   3   4 215.071 21.1635   1
  -6  -3   4 179.960 17.4073   1
  -6  -3   4 199.188 14.2032   2
  -6  -3   4 191.297 12.8277   3
   6  -3  -4 172.477 19.7283   1
   6  -3  -4 150.651 12.9119   3
   6   3  -4 227.665 17.2540   4
  -6   3   4 186.348 19.0587   1
   6   3  -4 179.633 18.8044   1
  -6   3   4 165.800 17.5658   2
   6   3  -4 195.568 11.3916   3
   5  -3  -4 1.06105 6.43182   1
  -5  -3   4 6.88802 3.88665   3
  -5  -3   4 7.05620 4.96525   2
  -5  -3   4 2.33885 6.40862   1
   5  -3  -4 4.26919 4.11500   3
  -5   3   4 1.56932 6.89528   2
   5   3  -4 5.43563 3.11170   3
   5   3  -4 4.90910 6.95396   4
  -5   3   4 5.85904 6.32545   1
   5   3  -4 3.87100 4.48093   1
  -4  -3   4 792.863 45.2595   1
  -4  -3   4 639.904 42.9928   4
  -4  -3   4 727.621 44.2491   2
   4  -3  -4 777.661 45.4482   1
  -4  -3   4 640.391 42.3212   3
   4  -3  -4 727.297 42.4567   3
   4   3  -4 803.757 42.2059   3
   4   3  -4 777.755 43.5621   4
  -4   3   4 714.558 43.0386   2
  -4   3   4 773.300 45.5456   1
  -3  -3   4 578.753 37.7484   4
  -3  -3   4 678.906 36.9938   2
   3  -3  -4 656.977 37.3786   3
  -3  -3   4 577.649 37.3388   3
   3  -3  -4 638.426 39.5732   1
  -3   3   4 573.567 37.2256   2
  -3   3   4 684.434 39.9948   1
   3   3  -4 671.432 38.0624   4
   3   3  -4 713.025 37.3595   3
   3   3  -4 681.003 39.9636   1
  -2  -3   4 439.020 26.6986   3
   2  -3  -4 417.674 28.0612   1
  -2  -3   4 436.411 28.3846   1
  -2  -3   4 435.426 26.8124   4
  -2  -3   4 443.446 25.9318   2
   2  -3  -4 461.664 26.7052   3
  -2   3   4 425.314 28.4541   1
   2   3  -4 488.893 27.0324   4
  -2   3   4 405.647 25.7023   2
   2   3  -4 488.080 26.7621   3
   2   3  -4 447.656 25.9971   2
  -2   3   4 495.306 27.0518   3
   2   3  -4 476.868 28.8580   1
  -1  -3   4 81.8746 9.11231   1
  -1  -3   4 74.4556 6.26280   2
   1  -3  -4 64.3473 7.95713   1
   1  -3  -4 69.8958 7.60692   3
  -1  -3   4 81.8594 7.15972   4
  -1  -3   4 79.2506 8.15912   3
  -1   3   4 80.4636 8.25881   3
   1   3  -4 86.2069 8.35989   3
   1   3  -4 73.0826 7.03313   4
   1   3  -4 79.6983 9.08929   1
  -1   3   4 81.9937 9.03304   1
   1   3  -4 73.4388 6.29146   2
   0  -3   4 80.7459 8.00665   3
   0  -3   4 88.2013 6.76435   4
   0  -3   4 89.8600 8.93764   1
   0  -3  -4 81.8648 4.77795   2
   0  -3  -4 79.2447 7.49363   1
   0  -3  -4 76.8418 7.84652   3
   0  -3   4 82.4709 6.68666   2
   0   3  -4 86.9125 6.48599   2
   0   3  -4 85.3285 8.18586   3
   0   3   4 84.6804 8.72617   3
   0   3   4 70.1645 8.50599   1
  -1  -3  -4 2627.52 157.272   3
   1  -3   4 2887.20 156.660   4
   1  -3   4 2961.26 158.433   1
   1  -3   4 2911.03 156.917   2
  -1  -3  -4 2643.64 157.337   1
   1  -3   4 2755.08 157.415   3
  -1  -3  -4 2540.57 156.538   2
  -1   3  -4 3111.08 157.593   3
  -1   3  -4 2843.95 158.257   1
   1   3   4 2629.69 157.827   1
   1   3   4 2913.04 157.628   3
  -1   3  -4 2794.47 156.823   2
  -2  -3  -4 3.55638 2.36923   1
   2  -3   4 1.61075 3.91834   1
   2  -3   4 4.66070 1.80300   4
   2  -3   4 3.54150 4.27785   2
   2  -3   4 2.75680 4.61466   3
  -2  -3  -4 5.37368 2.93273   2
  -2  -3  -4 2.83359 4.00150   3
   2  -3   4 2.71026 3.72906   1
   2   3   4 4.24825 3.39219   1
  -2   3  -4 10.8669 4.71414   3
  -2   3  -4 5.33908 3.79319   2
   2   3   4 8.57556 5.33134   3
  -3  -3  -4 0.41846 3.98186   3
   3  -3   4 5.00725 4.63793   1
   3  -3   4 5.20536 4.73003   1
   3  -3   4 -0.2092 5.22539   2
   3  -3   4 2.56343 5.12976   3
  -3  -3  -4 1.10557 3.65027   2
  -3   3  -4 6.69857 4.78425   3
  -3   3  -4 2.22079 4.61882   2
   3   3   4 3.64231 3.43882   1
   3   3   4 -3.9123 5.48020   3
   3   3   4 3.73282 2.79233   1
   4  -3   4 489.760 34.4373   3
   4  -3   4 600.428 35.8826   1
  -4  -3  -4 591.104 32.9658   4
   4  -3   4 593.830 34.9485   2
  -4  -3  -4 592.970 34.0535   2
   4  -3   4 533.193 32.4045   4
  -4  -3  -4 499.273 33.8833   3
   4   3   4 595.152 34.0275   1
   4   3   4 600.709 33.9792   1
   4   3   4 630.884 34.7445   3
  -4   3  -4 584.530 34.3727   2
  -4   3  -4 627.018 34.1383   3
   5  -3   4 1044.52 61.9129   1
  -5  -3  -4 1003.45 59.6850   2
   5  -3   4 994.402 58.1475   4
   5  -3   4 1090.57 60.9120   2
   5  -3   4 951.959 59.9811   3
  -5  -3  -4 930.859 59.4121   3
  -5  -3  -4 1046.69 58.7492   4
  -5   3  -4 1143.83 59.4727   3
   5   3   4 1126.47 59.8551   3
  -5   3  -4 1079.05 60.1708   2
   5   3   4 1045.91 59.9952   1
   5   3   4 1001.72 59.7224   1
   6  -3   4 149.999 18.6092   1
  -6  -3  -4 178.438 13.8665   3
  -6  -3  -4 181.844 12.8483   4
   6  -3   4 160.494 15.6648   3
   6  -3   4 209.127 18.2404   2
   6  -3   4 187.372 11.5101   4
  -6  -3  -4 216.200 16.4959   2
  -6   3  -4 202.987 16.9253   2
   6   3   4 195.648 15.5293   1
   6   3   4 185.954 14.2601   1
  -6   3  -4 194.436 16.5773   1
  -6   3  -4 187.911 15.9615   3
  -7  -3  -4 243.553 21.1926   2
   7  -3   4 290.737 23.5581   2
   7  -3   4 268.608 19.9441   3
  -7  -3  -4 266.745 17.6867   3
  -7   3  -4 255.329 21.6507   1
   7   3   4 251.695 21.2857   1
  -7   3  -4 312.492 22.6434   2
   8  -3   4 449.280 28.8946   3
  -8  -3  -4 431.732 30.2902   2
  -8  -3  -4 427.668 26.3290   3
  -8   3  -4 472.794 32.0414   2
   9  -3   4 7.63467 7.62655   3
  -9  -3  -4 7.04116 3.25691   3
  -9  -3  -4 6.92780 11.4815   2
  -9   3  -4 4.86095 4.48868   3
  -9   3  -4 7.67705 12.8386   2
 -10  -3  -4 99.7714 15.4348   2
 -10   3  -4 93.3108 16.1746   2
 -11  -3  -4 31.1940 14.6212   2
 -11   3  -4 29.5751 16.2481   2
 -12  -4   4 -23.009 17.3462   2
 -12   4   4 2.14984 20.9862   2
 -11  -4   4 1.23617 16.2170   2
 -11   4   4 -6.7571 19.6647   2
 -10  -4   4 11.2908 13.6266   2
 -10   4   4 -9.8284 16.3819   2
  -9  -4   4 91.8991 17.1461   2
  -9   4   4 88.9712 16.8918   2
   8  -4  -4 70.3340 15.9868   1
   8  -4  -4 98.8522 8.99391   3
  -8  -4   4 96.5584 13.3432   2
  -8   4   4 112.102 24.2346   1
  -8   4   4 81.1352 15.0676   2
   7  -4  -4 46.1889 5.93895   3
  -7  -4   4 57.8582 10.5544   2
   7  -4  -4 43.0224 4.85341   3
   7  -4  -4 44.8228 13.4489   1
  -7  -4   4 34.2037 10.2454   1
  -7  -4   4 42.9118 8.39996   2
  -7   4   4 30.2385 10.9265   2
  -7   4   4 80.0000 13.5126   1
   7   4  -4 44.7614 11.5586   4
  -6  -4   4 749.502 43.9639   2
   6  -4  -4 723.954 43.1117   3
  -6  -4   4 646.060 43.0267   3
  -6  -4   4 821.757 46.9161   1
   6  -4  -4 746.986 48.2109   1
   6   4  -4 771.937 42.2348   3
   6   4  -4 772.229 45.6385   4
  -5  -4   4 2.39647 4.00044   3
  -5  -4   4 3.54808 6.69142   4
   5  -4  -4 10.5659 4.57699   3
  -5  -4   4 0.48578 6.29879   1
  -5  -4   4 10.0704 5.63521   2
   5  -4  -4 7.61501 6.81011   1
   5   4  -4 9.49256 7.66184   4
   5   4  -4 11.4715 3.40822   3
  -5   4   4 7.45568 7.45321   2
  -5   4   4 4.95494 6.89584   1
  -4  -4   4 2315.68 125.753   2
  -4  -4   4 2073.27 125.621   3
   4  -4  -4 2204.52 125.743   3
  -4  -4   4 1939.06 126.062   4
  -4  -4   4 2339.64 128.230   1
   4  -4  -4 2235.13 128.394   1
   4   4  -4 2377.64 128.764   1
   4   4  -4 2321.40 125.489   3
   4   4  -4 2370.41 126.603   4
  -4   4   4 2079.04 125.921   2
  -4   4   4 2330.45 128.730   1
  -3  -4   4 80.8000 8.50249   3
  -3  -4   4 81.7691 7.65454   2
  -3  -4   4 83.8962 8.10987   4
   3  -4  -4 143.904 16.2123   1
  -3  -4   4 90.3194 10.8611   1
   3  -4  -4 80.5369 6.98993   2
   3  -4  -4 90.1787 8.52258   3
   3   4  -4 93.6909 8.08562   3
  -3   4   4 91.5759 11.2941   1
  -3   4   4 75.6683 8.43887   2
   3   4  -4 90.6453 8.54763   4
   3   4  -4 86.1417 11.5593   1
  -2  -4   4 1175.93 68.9860   1
  -2  -4   4 1179.25 67.3636   3
   2  -4  -4 1215.17 67.3579   3
   2  -4  -4 1165.02 68.7804   1
  -2  -4   4 1182.22 66.8532   2
  -2  -4   4 1175.79 67.3606   4
   2  -4  -4 1115.19 66.4498   2
   2   4  -4 1277.31 67.4657   4
   2   4  -4 1256.15 67.3588   3
  -2   4   4 1087.58 66.4490   2
  -2   4   4 1211.74 69.2009   1
   2   4  -4 1200.51 69.2017   1
   2   4  -4 1172.21 66.8841   2
  -1  -4   4 2869.12 149.651   2
  -1  -4   4 2736.64 149.860   4
   1  -4  -4 2385.08 149.108   2
   1  -4  -4 2655.27 150.039   3
  -1  -4   4 2668.64 150.115   3
  -1  -4   4 2661.13 151.411   1
   1  -4  -4 2598.30 150.958   1
   1   4  -4 2704.19 149.619   2
   1   4  -4 2917.73 150.238   3
   1   4  -4 2706.89 151.529   1
  -1   4   4 2310.75 149.071   2
  -1   4   4 2640.08 151.299   1
  -1   4   4 2886.76 150.346   3
   0  -4  -4 62.9896 4.14350   2
   0  -4  -4 61.4570 7.02295   3
   0  -4   4 62.9580 6.10632   2
   0  -4   4 83.0989 8.78037   1
   0  -4   4 65.2467 7.54255   3
   0  -4   4 69.1709 6.31572   4
   0  -4  -4 59.0589 6.77006   1
   0   4  -4 65.0696 6.34836   2
   0   4  -4 71.0811 7.63385   3
   0   4  -4 69.7130 8.65178   1
   0   4   4 69.3656 8.01044   1
   0   4   4 58.7941 7.02118   3
   1  -4   4 382.282 24.3638   3
   1  -4   4 419.235 23.6650   4
   1  -4   4 370.766 23.6509   2
   1  -4   4 417.428 25.4538   1
  -1  -4  -4 385.890 22.9670   2
  -1  -4  -4 379.772 24.2296   3
  -1  -4  -4 395.390 23.9452   1
  -1   4  -4 414.086 24.4029   3
   1   4   4 428.476 24.8333   3
   1   4   4 426.615 24.6716   1
  -1   4  -4 419.312 23.7290   2
   2  -4   4 211.371 15.5595   3
   2  -4   4 220.078 15.1190   2
  -2  -4  -4 242.882 14.2395   1
  -2  -4  -4 239.620 14.3064   2
  -2  -4  -4 213.244 15.3278   3
   2  -4   4 220.852 16.6368   1
   2   4   4 254.351 16.1958   3
  -2   4  -4 253.733 15.2868   2
  -2   4  -4 236.477 15.5334   3
   2   4   4 236.424 15.1780   1
   3  -4   4 1841.24 120.921   2
   3  -4   4 2020.66 120.469   3
   3  -4   4 2145.40 121.827   1
   3  -4   4 2135.85 121.815   1
  -3  -4  -4 2082.53 119.928   2
  -3  -4  -4 2019.18 120.256   3
   3   4   4 2370.24 120.754   3
  -3   4  -4 2192.66 120.256   2
   3   4   4 2120.99 120.173   1
  -3   4  -4 2311.19 120.477   3
   3   4   4 2220.15 119.826   1
   4  -4   4 66.6976 8.16450   3
   4  -4   4 90.3136 10.4974   1
   4  -4   4 90.5661 9.23847   2
  -4  -4  -4 82.8325 9.02682   3
  -4  -4  -4 82.4071 7.83854   2
   4   4   4 79.3119 8.54786   3
   4   4   4 90.7603 7.63205   1
   4   4   4 90.1257 7.89931   1
  -4   4  -4 98.2312 9.18095   3
  -4   4  -4 79.7575 8.62308   2
   5  -4   4 106.507 11.1400   3
   5  -4   4 62.8946 9.94008   2
  -5  -4  -4 80.8504 8.44099   2
  -5  -4  -4 90.0658 7.75925   4
  -5  -4  -4 69.2653 7.53201   3
   5  -4   4 66.5031 9.93439   1
  -5   4  -4 73.9764 7.75655   3
   5   4   4 79.3501 8.79605   1
  -5   4  -4 88.0694 9.46627   2
   5   4   4 81.1277 8.28259   1
   6  -4   4 764.858 50.9577   3
   6  -4   4 873.205 52.0520   2
  -6  -4  -4 871.414 50.9255   2
  -6  -4  -4 816.592 50.1558   3
  -6  -4  -4 853.648 49.7021   4
   6  -4   4 844.674 53.8635   1
   6  -4   4 847.658 49.0356   4
  -6   4  -4 885.543 52.9225   1
  -6   4  -4 952.371 51.9890   2
  -6   4  -4 917.445 50.1733   3
   6   4   4 857.940 50.4042   1
   6   4   4 928.409 51.2592   1
   7  -4   4 10.7563 7.34496   3
   7  -4   4 5.57067 9.67053   1
  -7  -4  -4 6.69297 5.36526   3
  -7  -4  -4 1.43599 8.42146   2
   7  -4   4 20.1856 3.87222   4
   7   4   4 -1.5571 7.57106   1
  -7   4  -4 5.90458 5.32378   3
  -7   4  -4 -2.7980 5.87441   1
   7   4   4 4.93866 5.81499   1
  -7   4  -4 12.3231 10.3942   2
  -8  -4  -4 410.830 26.3281   3
  -8  -4  -4 398.236 30.7533   2
   8  -4   4 464.666 25.8573   4
   8  -4   4 444.097 28.8182   3
  -8   4  -4 437.429 26.6187   3
  -8   4  -4 472.838 32.5571   2
  -9  -4  -4 206.412 21.4010   2
   9  -4   4 191.476 17.8780   3
  -9  -4  -4 213.403 13.1580   3
  -9   4  -4 205.204 19.9132   2
 -10  -4  -4 7.27904 12.5885   2
 -10   4  -4 -6.9433 14.4080   2
 -11  -4  -4 86.9740 17.0397   2
 -11   4  -4 84.9821 18.1662   2
 -11  -5   4 -4.2790 15.1953   2
 -11   5   4 6.83262 19.7250   2
 -10  -5   4 -12.017 14.1200   2
 -10   5   4 -6.0078 16.9326   2
  -9  -5   4 95.1040 15.4618   2
  -9   5   4 69.8139 16.3272   2
   8  -5  -4 329.570 45.0661   1
   8  -5  -4 423.837 26.2417   3
   8  -5  -4 442.706 25.5147   3
  -8  -5   4 488.243 32.0571   2
  -8   5   4 442.892 33.3275   2
  -8   5   4 428.631 39.2056   1
  -7  -5   4 45.0812 9.56433   1
   7  -5  -4 53.2976 6.43984   3
  -7  -5   4 39.3786 8.55185   2
  -7  -5   4 48.2932 5.07412   3
   7  -5  -4 59.4720 14.2095   1
   7  -5  -4 45.0294 5.43498   3
  -7   5   4 43.7746 12.6321   1
  -7   5   4 27.1590 11.7490   2
   7   5  -4 27.1989 10.8610   4
   7   5  -4 56.7051 11.6364   1
  -6  -5   4 60.0640 13.2280   1
   6  -5  -4 51.9640 5.81407   3
  -6  -5   4 44.7318 5.53496   3
   6  -5  -4 50.4504 11.0650   1
  -6  -5   4 57.7761 9.31621   4
  -6  -5   4 54.7532 7.82664   2
   6  -5  -4 55.6955 6.68090   3
  -6   5   4 43.1205 9.19438   1
  -6   5   4 41.5514 10.0290   2
   6   5  -4 73.8047 10.5919   4
   6   5  -4 62.6777 6.21298   3
  -5  -5   4 144.188 14.1698   4
   5  -5  -4 173.180 12.8582   3
  -5  -5   4 165.631 13.1897   2
   5  -5  -4 164.977 18.1957   1
  -5  -5   4 183.981 16.3868   1
  -5  -5   4 154.221 12.2782   3
  -5   5   4 153.404 15.6796   2
   5   5  -4 179.162 11.5897   3
   5   5  -4 192.617 16.2493   4
  -5   5   4 165.160 17.7097   1
   4  -5  -4 -10.502 6.27856   1
   4  -5  -4 -0.1298 4.56441   3
  -4  -5   4 -1.3076 5.69627   4
  -4  -5   4 5.54648 4.77572   2
   4  -5  -4 -0.6860 3.84714   2
  -4  -5   4 2.88437 4.27154   3
  -4  -5   4 -7.8294 5.04564   1
  -4   5   4 -2.5660 6.33949   1
   4   5  -4 2.54596 3.81300   3
  -4   5   4 8.05725 5.71123   2
   4   5  -4 1.33609 8.01470   1
   4   5  -4 9.58398 6.24992   4
  -3  -5   4 626.292 39.3210   2
   3  -5  -4 652.046 41.3971   1
   3  -5  -4 673.166 39.0819   3
   3  -5  -4 641.014 38.3918   2
  -3  -5   4 661.754 39.1332   3
  -3  -5   4 622.739 40.9920   1
  -3  -5   4 691.660 39.5902   4
   3   5  -4 692.447 41.7394   1
   3   5  -4 754.825 39.7607   4
  -3   5   4 699.130 41.9631   1
   3   5  -4 700.390 39.0496   2
  -3   5   4 654.835 38.6960   2
   3   5  -4 696.764 38.9969   3
   2  -5  -4 12.8495 5.15916   1
  -2  -5   4 5.77429 4.28323   3
  -2  -5   4 6.07982 3.69051   2
   2  -5  -4 10.4173 4.59961   3
   2  -5  -4 6.37288 2.38547   2
  -2  -5   4 10.3621 4.70019   4
  -2  -5   4 5.18391 4.25626   1
   2   5  -4 8.67440 4.36448   3
  -2   5   4 7.10449 2.43705   2
   2   5  -4 7.10903 3.98375   2
   2   5  -4 5.31965 4.80653   1
  -2   5   4 6.05139 5.26409   1
   1  -5  -4 15.0632 2.01909   2
   1  -5  -4 17.7127 4.21127   1
  -1  -5   4 19.5622 3.81865   2
  -1  -5   4 8.77741 3.88990   4
  -1  -5   4 12.7020 4.62089   3
   1  -5  -4 14.3096 4.37697   3
  -1  -5   4 10.1370 4.73504   1
   1   5  -4 14.8828 4.55794   3
   1   5  -4 19.8588 5.45717   1
   1   5  -4 13.1887 3.75077   2
  -1   5   4 12.5097 1.88994   2
  -1   5   4 18.9847 4.79228   1
   0  -5  -4 528.121 30.5131   2
   0  -5   4 574.930 31.4537   2
   0  -5   4 524.022 33.1296   1
   0  -5  -4 518.452 32.1047   1
   0  -5   4 563.634 31.2847   4
   0  -5   4 535.778 32.0654   3
   0  -5  -4 542.763 31.9042   3
   0   5  -4 546.334 31.3599   2
   0   5  -4 522.312 33.1231   1
   0   5   4 530.220 32.4939   1
   0   5  -4 571.821 32.0245   3
  -1  -5  -4 32.7003 4.96591   3
   1  -5   4 24.7320 5.37332   3
  -1  -5  -4 39.1947 5.10470   1
   1  -5   4 33.6018 4.93402   2
  -1  -5  -4 29.3630 2.91165   2
   1  -5   4 28.8525 3.60998   4
   1  -5   4 16.7155 4.81833   1
  -1   5  -4 34.7684 4.57889   2
   1   5   4 32.0552 4.54078   1
  -1   5  -4 26.1206 5.23201   3
   2  -5   4 145.194 11.4830   3
  -2  -5  -4 150.702 11.3110   3
  -2  -5  -4 151.643 9.13951   1
   2  -5   4 142.665 12.8908   1
  -2  -5  -4 137.057 9.65602   2
   2  -5   4 130.277 12.7197   1
   2  -5   4 141.068 11.7546   2
   2   5   4 139.577 9.87111   1
  -2   5  -4 151.311 10.8452   2
  -2   5  -4 123.505 12.4056   3
   3  -5   4 515.496 31.6190   1
  -3  -5  -4 482.854 29.4450   3
  -3  -5  -4 492.893 28.9865   2
   3  -5   4 493.588 31.3970   1
   3  -5   4 506.150 30.0327   3
   3  -5   4 466.967 29.6764   2
  -3   5  -4 494.188 29.5325   2
  -3   5  -4 495.689 29.7761   3
   4  -5   4 22.6217 6.42675   3
  -4  -5  -4 27.8051 5.60277   2
   4  -5   4 37.9478 11.9426   1
   4  -5   4 16.2484 7.20265   2
  -4  -5  -4 14.9597 5.83902   3
  -4   5  -4 18.1339 5.46935   3
  -4   5  -4 18.2106 6.69526   2
   5  -5   4 906.591 56.4297   3
  -5  -5  -4 999.697 55.3545   4
   5  -5   4 952.272 57.0615   2
  -5  -5  -4 952.869 56.2672   2
   5  -5   4 955.300 59.0500   1
  -5   5  -4 984.640 57.0222   2
  -5   5  -4 1047.98 56.1468   3
  -6  -5  -4 3.51763 6.97453   2
   6  -5   4 6.31249 8.55478   1
   6  -5   4 7.47955 9.26504   2
   6  -5   4 6.47637 7.04780   3
  -6  -5  -4 5.08849 4.82954   4
  -6   5  -4 -3.4459 6.41076   1
   6   5   4 -1.9469 5.30502   1
   6   5   4 -1.7751 4.10128   1
  -6   5  -4 0.75538 5.50070   3
  -6   5  -4 8.50305 8.87550   2
   7  -5   4 497.623 33.1556   3
   7  -5   4 515.286 30.6492   4
   7  -5   4 510.206 37.6894   1
  -7  -5  -4 507.460 31.5890   4
  -7  -5  -4 542.517 33.4704   2
   7   5   4 572.570 33.5324   1
   7   5   4 511.752 31.9683   1
  -7   5  -4 501.194 35.6508   1
  -7   5  -4 575.977 34.9967   2
  -7   5  -4 541.969 31.7042   3
  -8  -5  -4 6.49133 9.95233   2
   8  -5   4 8.88655 4.70747   4
   8  -5   4 12.8062 8.09580   3
  -8  -5  -4 -5.8102 5.09030   3
  -8   5  -4 -24.681 18.4798   2
  -8   5  -4 -0.6336 5.45659   3
   8   5   4 22.2684 9.55054   1
  -9  -5  -4 80.6691 13.9211   2
   9  -5   4 103.588 11.1933   3
  -9  -5  -4 102.936 8.86191   3
  -9  -5  -4 87.3917 8.14492   3
  -9   5  -4 92.1958 15.9171   2
 -10  -5  -4 241.374 25.4435   2
 -10   5  -4 194.005 21.2064   2
 -11  -5  -4 15.0888 14.5736   2
 -11   5  -4 0.85777 17.0863   2
 -11  -6   4 5.14139 15.6070   2
 -11   6   4 13.1470 19.3462   2
 -10  -6   4 79.9202 16.0465   2
 -10   6   4 37.2706 17.9457   2
  -9  -6   4 238.867 24.1920   2
   9  -6  -4 243.391 16.8216   3
  -9   6   4 196.396 22.6477   2
  -8  -6   4 99.6992 13.9444   2
   8  -6  -4 104.277 9.62068   3
   8  -6  -4 95.3962 8.86392   3
  -8   6   4 112.263 15.9854   2
  -8   6   4 66.1391 14.1283   1
   7  -6  -4 18.0481 22.1864   1
  -7  -6   4 -4.8058 8.33485   4
  -7  -6   4 -1.2671 7.68162   1
   7  -6  -4 -2.7005 4.72701   3
  -7  -6   4 -3.8755 3.78513   3
   7  -6  -4 8.28742 9.00043   3
  -7   6   4 -18.986 17.3660   1
  -7   6   4 -0.7982 10.8908   2
   7   6  -4 -1.9725 11.2172   1
  -6  -6   4 13.6327 6.89948   2
   6  -6  -4 17.8594 10.8485   1
   6  -6  -4 7.38606 5.01203   3
  -6  -6   4 7.49521 7.61579   1
  -6  -6   4 7.96656 8.00025   4
  -6  -6   4 7.53820 4.57280   3
  -6   6   4 13.5724 9.85172   2
   6   6  -4 8.79969 10.0266   1
  -6   6   4 2.19842 8.19965   1
  -5  -6   4 618.470 38.6385   1
   5  -6  -4 596.802 35.5226   2
   5  -6  -4 581.835 40.0638   1
  -5  -6   4 610.279 36.0561   2
  -5  -6   4 599.960 35.2844   3
  -5  -6   4 569.014 36.5824   4
   5  -6  -4 518.217 36.4822   3
  -5   6   4 596.876 36.8765   2
   5   6  -4 635.127 34.9546   3
   5   6  -4 661.960 39.6802   1
  -5   6   4 627.859 40.2809   1
  -4  -6   4 -5.9210 4.90756   2
   4  -6  -4 1.44268 4.15355   2
   4  -6  -4 8.80743 6.63867   3
  -4  -6   4 2.24277 4.68601   3
   4  -6  -4 2.06002 7.08838   1
  -4  -6   4 1.57458 5.39769   1
  -4  -6   4 2.08743 5.95906   4
   4   6  -4 1.38723 4.04905   3
  -4   6   4 0.75049 5.68171   2
  -3  -6   4 4.80930 4.93968   1
  -3  -6   4 10.0317 5.37364   4
   3  -6  -4 9.26985 3.48657   2
   3  -6  -4 14.3445 5.89907   1
  -3  -6   4 10.3952 4.78390   2
  -3  -6   4 13.3852 4.70251   3
   3   6  -4 10.9079 6.64509   1
  -3   6   4 1.55903 4.00925   2
   3   6  -4 12.5113 4.53535   3
  -3   6   4 11.7818 7.65187   1
   3   6  -4 8.94387 4.72690   2
  -2  -6   4 661.281 43.1273   1
   2  -6  -4 680.914 40.6318   2
  -2  -6   4 744.285 41.4104   2
  -2  -6   4 711.803 41.5750   4
  -2  -6   4 709.065 41.6891   3
   2  -6  -4 718.983 43.2509   1
   2   6  -4 732.689 41.6740   3
   2   6  -4 737.261 43.7856   1
   2   6  -4 742.037 41.4060   2
  -2   6   4 734.767 43.8942   1
  -1  -6   4 29.4486 4.83477   2
  -1  -6   4 37.5014 5.19720   4
  -1  -6   4 42.3392 6.61697   1
  -1  -6   4 33.5163 5.73489   3
   1  -6  -4 31.4819 3.02433   2
   1  -6  -4 27.8069 5.13020   1
   1   6  -4 24.5026 5.37214   3
  -1   6   4 31.6814 3.02289   2
   1   6  -4 30.7333 4.81426   2
   1   6  -4 43.6840 6.71064   1
  -1   6   4 37.6274 6.25525   1
   0  -6   4 183.919 13.7448   3
   0  -6   4 209.899 12.8496   4
   0  -6   4 194.854 14.9730   1
   0  -6  -4 198.634 13.4784   1
   0  -6   4 193.973 12.9479   2
   0  -6  -4 192.258 11.5685   2
   0   6  -4 189.224 15.1518   1
   0   6   4 201.733 14.0958   1
   0   6  -4 195.934 13.2400   2
   0   6   4 187.354 11.6473   2
  -1  -6  -4 302.313 17.6677   1
  -1  -6  -4 287.542 16.7905   2
   1  -6   4 285.649 18.9521   3
  -1  -6  -4 248.719 19.3199   3
   1  -6   4 293.596 20.1649   1
  -1   6  -4 280.664 18.1196   2
   1   6   4 282.949 17.9648   1
  -1   6  -4 303.414 18.5279   3
   2  -6   4 -0.2195 5.39813   3
   2  -6   4 -2.7137 5.32573   1
  -2  -6  -4 0.13762 3.07717   2
  -2  -6  -4 -3.0842 4.55799   3
   2  -6   4 1.16376 5.11281   1
   2  -6   4 -2.3833 4.79798   2
  -2   6  -4 4.47260 5.23887   3
  -2   6  -4 -3.0249 4.88432   2
   3  -6   4 5.73209 9.94529   1
   3  -6   4 -8.2962 5.47379   2
  -3  -6  -4 3.24149 4.07506   2
   3  -6   4 -1.8533 5.93676   1
  -3  -6  -4 2.94338 4.83964   3
   3  -6   4 3.22351 5.58864   3
  -3   6  -4 1.23040 5.73052   2
  -3   6  -4 8.11262 5.60589   3
   4  -6   4 82.3597 9.81979   2
  -4  -6  -4 100.204 9.75281   2
  -4  -6  -4 99.9921 10.1265   2
   4  -6   4 84.4454 9.12009   3
  -4  -6  -4 82.5208 9.90925   3
   4  -6   4 94.9926 13.6688   1
  -4   6  -4 116.164 10.1383   3
  -4   6  -4 90.6248 9.65918   2
   5  -6   4 139.221 17.1254   1
  -5  -6  -4 146.128 12.0871   3
  -5  -6  -4 139.174 10.7427   4
   5  -6   4 131.197 13.3843   3
   5  -6   4 131.603 14.8588   2
  -5  -6  -4 127.817 13.0886   2
  -5   6  -4 139.009 12.2064   3
  -5   6  -4 114.302 12.3088   2
  -6  -6  -4 180.705 13.2581   4
  -6  -6  -4 155.317 13.8677   3
   6  -6   4 142.155 15.0975   2
   6  -6   4 142.550 20.4484   1
   6  -6   4 170.506 15.6268   3
  -6  -6  -4 161.417 15.1965   2
  -6   6  -4 219.034 14.4335   3
  -6   6  -4 213.557 17.8298   2
  -7  -6  -4 32.5975 6.86821   3
  -7  -6  -4 53.3095 6.94991   4
   7  -6   4 55.1194 8.95532   3
   7  -6   4 44.0316 5.69376   4
  -7  -6  -4 38.8187 9.22943   2
  -7   6  -4 44.4099 11.5775   2
  -7   6  -4 30.4327 8.20448   1
  -7   6  -4 39.1431 6.89158   3
  -8  -6  -4 187.399 19.1760   2
   8  -6   4 194.906 13.8937   4
  -8  -6  -4 188.600 15.5121   4
   8  -6   4 211.242 18.1532   3
  -8   6  -4 193.208 20.6982   2
  -8   6  -4 184.710 15.0295   3
  -9  -6  -4 -2.4483 10.9090   2
   9  -6   4 10.1547 8.63223   3
  -9  -6  -4 6.94074 4.25617   3
  -9   6  -4 4.30689 14.2601   2
 -10  -6  -4 50.0320 13.6843   2
 -10   6  -4 40.4931 16.4166   2
 -11  -6  -4 11.4167 14.1932   2
 -11   6  -4 2.75580 16.8418   2
 -11  -7   4 14.6104 17.0293   2
 -11   7   4 52.6235 20.0760   2
 -10  -7   4 231.743 22.5901   2
 -10   7   4 242.458 24.9936   2
   9  -7  -4 49.5448 6.24648   3
  -9  -7   4 64.1596 14.3756   2
  -9   7   4 32.6596 18.8849   2
   8  -7  -4 121.809 13.0351   3
   8  -7  -4 117.894 11.3123   3
  -8   7   4 121.142 19.0632   1
  -8   7   4 102.418 25.5199   2
   7  -7  -4 249.630 17.1369   3
  -7  -7   4 231.308 20.4197   1
  -7  -7   4 225.045 20.0617   4
  -7  -7   4 194.829 14.8137   3
   7  -7  -4 249.909 27.3707   1
   7  -7  -4 227.848 15.8843   3
  -7   7   4 224.032 22.9682   2
  -7   7   4 205.237 25.6531   1
   6  -7  -4 881.961 55.9060   1
   6  -7  -4 848.490 49.7169   3
  -6  -7   4 913.712 50.9425   2
  -6  -7   4 836.052 49.5383   3
   6  -7  -4 873.176 50.2076   3
  -6  -7   4 798.793 51.1510   4
  -6  -7   4 882.378 53.3102   1
  -6   7   4 887.055 55.4400   1
   6   7  -4 861.676 54.8884   1
  -6   7   4 815.430 51.8079   2
  -5  -7   4 977.636 59.2731   1
  -5  -7   4 941.095 57.2526   4
   5  -7  -4 942.349 61.1874   1
   5  -7  -4 967.170 56.4687   2
  -5  -7   4 1010.50 57.1112   2
  -5  -7   4 982.863 56.4016   3
   5  -7  -4 1003.26 56.7702   3
   5  -7  -4 966.014 56.4809   3
   5   7  -4 1037.36 56.1399   3
  -5   7   4 925.451 57.4152   2
  -5   7   4 1011.55 61.0840   1
   5   7  -4 1011.89 60.5876   1
  -4  -7   4 10.2825 6.38561   4
  -4  -7   4 10.6500 5.07048   3
   4  -7  -4 0.59463 5.45453   3
  -4  -7   4 3.51471 6.02252   1
  -4  -7   4 7.67837 5.75365   2
   4  -7  -4 -1.3981 4.44002   2
  -4   7   4 7.84810 5.87137   2
   4   7  -4 16.7252 6.69155   1
   4   7  -4 0.66206 8.26427   3
  -4   7   4 5.55407 12.6038   1
  -3  -7   4 483.011 27.9367   2
   3  -7  -4 463.412 27.2800   2
  -3  -7   4 484.812 28.3079   4
  -3  -7   4 492.743 30.4264   1
  -3  -7   4 482.363 28.2257   3
   3  -7  -4 424.671 30.9726   1
   3  -7  -4 482.307 28.4020   3
  -3   7   4 438.973 27.3528   2
   3   7  -4 422.946 28.4448   3
  -3   7   4 478.665 31.1311   1
   3   7  -4 465.200 27.9690   2
  -2  -7   4 100.174 11.7502   1
  -2  -7   4 96.6564 9.28707   2
  -2  -7   4 108.113 10.1591   4
  -2  -7   4 110.537 10.2333   3
   2  -7  -4 99.4152 7.76820   2
   2  -7  -4 106.070 10.4581   3
   2  -7  -4 94.8942 11.3723   1
   2   7  -4 106.271 13.2019   1
  -2   7   4 117.063 12.3204   1
   2   7  -4 93.9778 9.41284   2
   2   7  -4 96.0824 10.1356   3
  -2   7   4 99.4546 7.78937   2
   1  -7  -4 1605.83 85.6955   3
   1  -7  -4 1482.79 86.5075   1
   1  -7  -4 1455.66 84.5140   2
  -1  -7   4 1442.57 86.9387   1
  -1  -7   4 1564.09 85.2639   4
  -1  -7   4 1468.00 85.1220   2
  -1  -7   4 1548.73 85.6753   3
   1   7  -4 1527.27 85.1870   2
   1   7  -4 1518.68 87.2318   1
  -1   7   4 1523.93 86.8448   1
  -1   7   4 1393.26 84.4953   2
   1   7  -4 1558.63 85.5822   3
   0  -7   4 202.943 14.1083   2
   0  -7   4 184.919 15.6225   1
   0  -7  -4 211.342 14.5918   3
   0  -7  -4 197.875 14.0637   1
   0  -7   4 212.411 14.9278   3
   0  -7  -4 198.181 12.2421   2
   0  -7   4 212.184 13.5792   4
   0   7  -4 207.356 14.1179   2
   0   7  -4 214.272 14.4961   3
   0   7   4 202.555 14.5242   1
   0   7   4 191.267 12.3633   2
   1  -7   4 970.748 57.3514   1
  -1  -7  -4 993.317 55.4657   3
  -1  -7  -4 961.860 55.1033   1
   1  -7   4 944.196 55.1425   2
   1  -7   4 953.919 55.6011   3
   1  -7   4 928.405 57.0664   1
  -1  -7  -4 957.674 54.3882   2
  -1   7  -4 989.074 55.6175   3
  -1   7  -4 966.050 55.1110   2
   1   7   4 974.327 55.2771   1
  -2  -7  -4 2166.04 120.107   2
  -2  -7  -4 2171.72 120.878   3
   2  -7   4 2102.33 122.642   1
   2  -7   4 2121.96 120.973   3
   2  -7   4 2069.19 122.719   1
   2  -7   4 2089.15 120.629   2
  -2   7  -4 2117.81 120.617   2
  -2   7  -4 2275.70 121.079   3
  -3  -7  -4 -0.9119 4.12415   2
   3  -7   4 -8.2461 5.95366   2
   3  -7   4 -0.6867 6.09842   3
   3  -7   4 2.05795 6.96420   1
   3  -7   4 -2.2379 5.37031   1
  -3  -7  -4 -2.6255 4.91440   3
  -3   7  -4 4.79839 5.87687   3
  -3   7  -4 -1.3302 6.06720   2
  -4  -7  -4 56.9972 7.03222   2
   4  -7   4 48.6667 9.30705   1
   4  -7   4 71.7655 9.06725   2
  -4  -7  -4 67.6603 7.53981   3
   4  -7   4 66.3133 8.43231   3
   4  -7   4 78.2454 10.9404   1
  -4   7  -4 75.7818 8.06371   3
  -4   7  -4 73.1609 9.01154   2
   5  -7   4 96.3773 13.5709   1
  -5  -7  -4 101.985 11.2550   3
  -5  -7  -4 89.1207 9.28199   2
  -5  -7  -4 105.436 10.1445   4
  -5  -7  -4 103.225 9.98787   2
   5  -7   4 129.940 12.0397   2
   5  -7   4 112.501 10.8076   3
  -5   7  -4 111.053 11.7571   2
  -5   7  -4 104.221 11.8463   3
   6  -7   4 408.139 26.8356   3
  -6  -7  -4 359.667 25.9446   2
   6  -7   4 398.488 31.8844   1
  -6  -7  -4 390.302 25.7004   3
  -6  -7  -4 416.087 25.1648   4
  -6  -7  -4 400.043 26.4268   2
   6  -7   4 416.712 30.8915   2
  -6   7  -4 467.849 29.3811   2
  -6   7  -4 420.813 26.0041   3
  -7  -7  -4 112.848 11.7883   4
   7  -7   4 86.5810 10.9636   3
  -7  -7  -4 101.294 9.77589   3
  -7  -7  -4 111.488 12.2918   2
  -7   7  -4 112.548 12.3117   3
  -7   7  -4 129.697 14.6917   2
   8  -7   4 -9.5662 8.59194   3
  -8  -7  -4 -0.8818 10.8473   2
  -8  -7  -4 4.33709 6.72834   4
   8  -7   4 9.09966 5.71804   4
  -8  -7  -4 13.8519 6.40018   3
  -8   7  -4 25.4430 12.8108   2
  -8   7  -4 6.95738 6.70934   3
  -9  -7  -4 90.0356 13.7944   2
   9  -7   4 93.0898 11.7404   3
  -9  -7  -4 98.6096 9.48655   3
  -9   7  -4 106.958 16.9536   2
 -10  -7  -4 35.6152 13.4553   2
 -10   7  -4 19.1363 16.7011   2
 -11  -7  -4 21.7401 14.4735   2
 -11   7  -4 -14.852 16.8584   2
 -11  -8   4 16.2276 17.4051   2
 -11   8   4 7.55286 20.7444   2
 -10  -8   4 30.8092 15.8032   2
 -10   8   4 35.8884 17.9501   2
  -9  -8   4 4.27604 13.9868   2
   9  -8  -4 23.5188 6.32800   3
  -9   8   4 15.4977 26.2349   2
   8  -8  -4 337.006 21.5127   3
  -8  -8   4 265.215 24.5015   4
  -8  -8   4 245.970 19.0605   3
   8  -8  -4 343.040 20.3197   3
  -8   8   4 324.139 28.8633   2
   7  -8  -4 88.2494 16.5127   1
   7  -8  -4 143.735 14.1949   3
   7  -8  -4 158.910 12.7707   3
  -7  -8   4 138.466 11.4294   3
   7  -8  -4 131.229 12.2271   2
  -7  -8   4 115.870 13.1792   4
  -7   8   4 180.986 24.4595   1
  -7   8   4 101.668 15.2138   2
   6  -8  -4 80.4693 8.77525   3
  -6  -8   4 100.091 12.2443   2
   6  -8  -4 93.4097 9.55367   2
   6  -8  -4 95.4919 15.7706   1
   6  -8  -4 92.0527 9.35534   3
  -6  -8   4 88.9466 11.0363   4
  -6  -8   4 111.682 12.7153   1
  -6  -8   4 100.992 10.2529   3
  -6   8   4 103.974 15.8536   1
  -6   8   4 76.4322 11.8631   2
   6   8  -4 67.6598 12.2305   1
  -5  -8   4 138.043 14.6439   4
   5  -8  -4 123.662 12.2898   2
  -5  -8   4 129.554 11.9431   3
   5  -8  -4 144.164 12.6743   3
  -5  -8   4 140.701 14.0279   2
   5  -8  -4 134.132 12.9574   3
   5  -8  -4 127.949 18.4509   1
  -5  -8   4 132.395 15.0539   1
   5   8  -4 140.901 17.4915   1
  -5   8   4 137.044 18.8562   1
   5   8  -4 133.878 11.3872   3
  -5   8   4 112.352 11.9881   2
   4  -8  -4 64.0162 7.82970   3
  -4  -8   4 75.9301 8.07806   2
  -4  -8   4 67.3610 8.74371   4
  -4  -8   4 58.7439 8.98724   1
   4  -8  -4 62.2781 6.75972   2
   4  -8  -4 45.7251 8.87184   1
  -4  -8   4 55.2248 7.05201   3
  -4   8   4 57.4669 10.4698   1
  -4   8   4 59.3025 7.54211   2
   4   8  -4 70.4127 7.18101   3
   4   8  -4 76.5542 10.5910   1
   3  -8  -4 769.284 45.5894   2
  -3  -8   4 786.362 46.6076   4
  -3  -8   4 789.528 46.2194   2
  -3  -8   4 797.138 46.3719   3
   3  -8  -4 801.720 49.0036   1
   3  -8  -4 798.888 46.6645   3
   3   8  -4 853.618 46.5187   2
   3   8  -4 808.691 46.3470   3
  -3   8   4 812.137 49.3078   1
  -3   8   4 753.320 45.6425   2
  -2  -8   4 31.9872 5.87194   2
   2  -8  -4 28.2281 6.78672   1
  -2  -8   4 26.1263 6.37514   1
   2  -8  -4 32.0095 6.24567   3
  -2  -8   4 41.6792 6.17383   4
   2  -8  -4 32.6293 4.15364   2
  -2  -8   4 33.3388 6.60649   3
  -2   8   4 16.6505 6.20666   1
   2   8  -4 39.9709 6.39493   3
   2   8  -4 33.8537 9.06581   1
  -2   8   4 30.1073 4.19465   2
   2   8  -4 30.3433 5.85027   2
   1  -8  -4 337.992 19.7320   3
  -1  -8   4 293.936 19.7226   3
   1  -8  -4 303.318 20.5435   1
  -1  -8   4 292.764 19.2512   4
  -1  -8   4 286.954 19.0946   2
  -1  -8   4 299.274 21.2149   1
   1  -8  -4 287.887 17.9090   2
   1   8  -4 300.041 21.5211   1
   1   8  -4 313.336 19.5727   2
   1   8  -4 309.464 19.7094   3
  -1   8   4 313.996 20.9155   1
  -1   8   4 289.922 17.9555   2
   0  -8   4 432.834 28.1977   1
   0  -8  -4 464.364 26.6428   3
   0  -8  -4 414.090 26.5946   1
   0  -8   4 435.368 26.0976   2
   0  -8   4 433.935 28.6399   1
   0  -8  -4 414.230 24.9861   2
   0  -8   4 431.463 26.7440   3
   0   8   4 441.410 26.9425   1
   0   8   4 418.363 25.1072   2
   0   8  -4 450.256 26.4159   2
   0   8  -4 435.323 26.6939   3
   1  -8   4 261.549 19.1788   3
   1  -8   4 295.827 20.9851   1
   1  -8   4 275.084 18.1882   2
   1  -8   4 254.477 20.2642   1
  -1  -8  -4 290.843 16.7482   2
  -1  -8  -4 282.829 18.3804   3
  -1  -8  -4 287.234 17.4617   1
   1   8   4 275.765 17.5384   1
  -1   8  -4 280.921 18.7035   3
  -1   8  -4 264.928 18.1537   2
  -2  -8  -4 305.396 17.8905   2
   2  -8   4 285.377 20.1354   3
   2  -8   4 287.722 22.0436   1
   2  -8   4 277.141 19.7133   2
   2  -8   4 283.530 21.7110   1
  -2  -8  -4 298.177 19.1720   3
  -2   8  -4 294.661 19.3354   2
  -2   8  -4 293.537 19.5495   3
   3  -8   4 118.043 14.3159   1
  -3  -8  -4 118.058 11.8061   3
   3  -8   4 111.064 12.9775   3
   3  -8   4 112.010 14.7251   1
  -3  -8  -4 118.191 10.1516   2
   3  -8   4 105.890 12.1776   2
  -3   8  -4 127.207 13.2575   2
  -3   8  -4 126.808 11.7182   3
   4  -8   4 721.950 45.1881   1
   4  -8   4 647.480 41.9403   2
   4  -8   4 717.781 42.1968   3
  -4  -8  -4 697.092 41.4808   3
   4  -8   4 678.999 44.9771   1
  -4  -8  -4 667.484 41.1064   2
  -4   8  -4 728.737 42.2478   2
  -4   8  -4 752.314 41.8091   3
   5  -8   4 12.4002 8.81087   1
  -5  -8  -4 25.7029 7.28808   2
  -5  -8  -4 23.4844 5.82408   4
  -5  -8  -4 15.8545 6.20487   3
   5  -8   4 12.7237 7.55918   3
  -5  -8  -4 13.5660 6.64165   2
   5  -8   4 -7.2059 8.36026   2
  -5   8  -4 15.5215 6.68842   3
  -5   8  -4 13.9612 9.08851   2
  -6  -8  -4 15.8687 7.70853   2
  -6  -8  -4 20.5970 8.41547   2
   6  -8   4 16.2256 11.7184   1
  -6  -8  -4 31.6890 6.50611   4
  -6  -8  -4 21.5360 6.62077   3
   6  -8   4 15.6449 8.46691   3
  -6   8  -4 23.6524 10.7393   2
  -6   8  -4 16.8281 6.87957   3
   7  -8   4 1.22034 8.20997   3
  -7  -8  -4 2.86964 8.75154   2
  -7  -8  -4 8.05274 6.61849   3
  -7  -8  -4 1.46152 6.42505   4
  -7   8  -4 12.1673 6.99257   3
  -7   8  -4 -5.6208 12.1516   2
  -8  -8  -4 -5.5051 12.1326   2
  -8  -8  -4 1.58877 5.71321   3
  -8  -8  -4 2.80225 6.66238   3
  -8  -8  -4 -1.3098 7.15770   4
   8  -8   4 2.53031 8.86374   3
  -8   8  -4 1.55787 13.0430   2
  -8   8  -4 0.27050 7.20491   3
   9  -8   4 -2.3339 9.33457   3
  -9  -8  -4 -0.3452 11.5077   2
  -9  -8  -4 9.71545 5.12936   3
  -9  -8  -4 15.6403 8.21960   4
  -9   8  -4 -1.2883 15.1564   2
 -10  -8  -4 3.69951 12.9834   2
 -10   8  -4 21.7795 16.8265   2
 -11  -8  -4 0.03975 14.4146   2
 -11   8  -4 -7.8663 18.8329   2
 -11  -9   4 53.3346 18.3079   2
 -11   9   4 -13.198 19.5357   2
 -10  -9   4 109.940 17.9156   2
 -10   9   4 62.1360 20.1907   2
   9  -9  -4 5.18581 6.83339   3
  -9   9   4 11.6242 16.5957   2
  -8  -9   4 293.308 24.9614   4
   8  -9  -4 345.968 25.9958   3
  -8  -9   4 267.577 18.9441   3
   8  -9  -4 320.862 21.0019   3
  -8   9   4 311.265 28.9543   2
  -7  -9   4 588.266 43.5658   4
   7  -9  -4 696.660 40.5760   3
   7  -9  -4 734.139 49.9286   1
   7  -9  -4 679.700 41.6086   2
  -7  -9   4 678.301 39.8915   3
  -7   9   4 647.500 43.9830   2
  -7   9   4 722.299 48.6356   1
   6  -9  -4 48.4536 8.28916   3
   6  -9  -4 49.4404 13.9213   1
  -6  -9   4 40.7981 9.83774   1
  -6  -9   4 36.5678 9.22011   4
  -6  -9   4 40.1753 6.75270   3
   6  -9  -4 27.6750 7.60825   2
   6  -9  -4 39.4473 7.53752   3
  -6   9   4 22.0478 10.7304   2
  -6   9   4 42.2599 13.3045   1
   5  -9  -4 78.2864 8.38114   2
   5  -9  -4 83.7835 14.4626   1
  -5  -9   4 77.6411 8.25364   3
   5  -9  -4 88.9504 9.71786   3
  -5  -9   4 77.3093 10.9178   1
  -5  -9   4 74.4984 9.91730   4
   5  -9  -4 83.5613 9.36105   3
  -5  -9   4 88.1112 10.1275   2
   5   9  -4 90.2153 10.2553   3
  -5   9   4 77.2837 10.0624   2
   5   9  -4 90.1970 12.3212   1
  -5   9   4 84.5091 13.7877   1
  -4  -9   4 7.56683 6.15373   3
   4  -9  -4 8.74433 7.10961   3
   4  -9  -4 21.0955 8.75297   1
  -4  -9   4 -1.3338 6.53976   2
  -4  -9   4 5.33125 6.92923   4
   4  -9  -4 13.1485 6.64252   3
   4  -9  -4 12.3064 5.51497   2
  -4  -9   4 14.6496 7.34428   1
   4   9  -4 16.0152 8.07259   1
  -4   9   4 7.64909 6.59568   2
   4   9  -4 6.70022 5.73485   3
  -4   9   4 4.80197 8.59669   1
  -3  -9   4 40.7431 6.73368   2
  -3  -9   4 32.3168 6.93661   3
   3  -9  -4 36.3587 5.22991   2
   3  -9  -4 20.0236 7.44550   1
  -3  -9   4 34.8986 8.08090   1
   3  -9  -4 34.0858 7.25915   3
  -3  -9   4 20.9794 6.79671   4
   3   9  -4 34.1348 6.35023   3
  -3   9   4 14.7828 7.58503   1
   3   9  -4 52.6219 8.68915   1
  -3   9   4 28.9204 5.48145   2
   3   9  -4 28.1926 6.92119   2
  -2  -9   4 18.0873 6.61539   3
   2  -9  -4 2.26185 6.00057   3
   2  -9  -4 10.4397 3.88296   2
   2  -9  -4 4.22365 6.08527   1
  -2  -9   4 9.16802 5.75963   4
  -2  -9   4 5.18483 5.64065   2
  -2  -9   4 16.8945 6.60824   1
  -2   9   4 13.0839 4.21301   2
   2   9  -4 11.4589 6.08833   2
   2   9  -4 11.8376 5.79707   3
  -2   9   4 8.11086 7.00103   1
   1  -9  -4 453.248 26.6837   2
  -1  -9   4 456.593 28.2972   3
  -1  -9   4 463.011 29.9016   1
   1  -9  -4 487.103 28.5764   3
  -1  -9   4 449.240 27.7051   2
  -1  -9   4 455.153 27.8781   4
   1  -9  -4 451.959 29.2421   1
  -1   9   4 445.381 29.4713   1
  -1   9   4 445.491 26.7085   2
   1   9  -4 474.896 28.5363   3
   1   9  -4 464.437 27.8896   2
   0  -9   4 61.9180 13.0012   1
   0  -9   4 84.3763 11.4979   1
   0  -9  -4 76.1191 7.12762   2
   0  -9  -4 69.2313 8.26216   3
   0  -9   4 68.1393 8.62108   3
   0  -9   4 80.5445 8.07352   2
   0  -9  -4 81.9193 9.17500   1
   0   9   4 80.7320 9.55729   1
   0   9  -4 96.3757 8.33263   2
   0   9  -4 87.9171 8.56285   3
   0   9   4 73.0599 7.44035   2
  -1  -9  -4 36.9294 6.51028   3
   1  -9   4 27.5257 7.99783   1
   1  -9   4 23.5862 7.21353   1
   1  -9   4 24.6062 6.86800   3
  -1  -9  -4 18.0123 4.22585   1
   1  -9   4 40.4050 6.64730   2
  -1  -9  -4 26.8443 4.01052   2
  -1   9  -4 31.2284 6.91656   3
   1   9   4 20.5396 4.58895   1
  -1   9  -4 25.0782 6.42999   2
   2  -9   4 175.769 16.8099   1
   2  -9   4 163.809 17.2921   1
   2  -9   4 162.873 14.8774   3
  -2  -9  -4 181.600 14.2370   3
   2  -9   4 169.702 14.4582   2
  -2  -9  -4 193.265 12.4892   2
  -2   9  -4 187.574 15.2111   2
  -2   9  -4 209.688 15.2448   3
   3  -9   4 500.637 31.7641   3
   3  -9   4 469.991 34.1163   1
   3  -9   4 501.439 34.0037   1
  -3  -9  -4 521.380 30.0380   2
  -3  -9  -4 513.623 30.7068   3
   3  -9   4 443.296 30.9537   2
  -3   9  -4 529.455 31.4131   2
  -3   9  -4 534.200 31.3699   3
  -4  -9  -4 26.9960 6.83379   3
   4  -9   4 7.47131 8.93713   1
   4  -9   4 25.6683 8.13324   3
   4  -9   4 39.0772 13.3239   1
   4  -9   4 9.07961 8.32346   2
  -4  -9  -4 14.0884 5.96547   2
  -4   9  -4 23.2458 9.10908   2
  -4   9  -4 28.3694 7.68530   3
   5  -9   4 1.96514 8.18130   3
   5  -9   4 -0.8674 10.2453   2
   5  -9   4 10.4848 10.8289   1
  -5  -9  -4 9.44791 7.08108   2
  -5  -9  -4 3.05825 6.22321   3
  -5   9  -4 1.35832 9.68870   2
  -5   9  -4 -2.7198 6.65541   3
  -6  -9  -4 3.36475 7.99434   2
  -6  -9  -4 7.95283 7.86476   2
   6  -9   4 -1.7786 8.02280   3
  -6  -9  -4 2.35569 6.60128   3
   6  -9   4 -3.1605 11.9566   1
  -6  -9  -4 1.68776 6.34103   4
  -6   9  -4 10.2050 7.32685   3
  -6   9  -4 9.88263 11.3659   2
  -7  -9  -4 139.178 14.5913   3
  -7  -9  -4 146.710 13.8219   2
  -7  -9  -4 133.270 13.4048   3
   7  -9   4 142.075 16.8041   3
  -7  -9  -4 134.952 13.9742   4
  -7   9  -4 131.158 17.2227   2
  -7   9  -4 133.589 14.8092   3
  -8  -9  -4 324.741 21.1758   3
   8  -9   4 297.367 24.2527   3
  -8  -9  -4 304.537 25.8478   2
  -8  -9  -4 310.936 22.6493   4
  -8   9  -4 354.990 28.6743   2
  -9  -9  -4 82.6560 8.16151   3
  -9  -9  -4 82.7288 14.2486   2
  -9  -9  -4 95.1537 10.9096   4
   9  -9   4 77.0001 12.2812   3
  -9   9  -4 95.4778 17.7828   2
 -10  -9  -4 189.459 18.8055   2
 -10   9  -4 160.469 21.6187   2
 -10 -10   4 34.7236 16.3884   2
 -10  10   4 42.3191 19.0730   2
   9 -10  -4 66.9513 9.05590   3
  -9  10   4 26.3892 17.8247   2
  -8 -10   4 22.9887 11.2380   4
  -8 -10   4 19.0901 5.77776   3
   8 -10  -4 13.7091 7.90777   3
  -8  10   4 22.6940 14.7603   2
  -7 -10   4 11.2172 6.14161   3
   7 -10  -4 0.36302 7.54460   3
  -7 -10   4 -7.7922 9.92691   4
   7 -10  -4 -2.3917 8.84806   2
   7 -10  -4 20.6932 8.54760   3
   7 -10  -4 21.8118 16.4620   1
  -7  10   4 21.8468 15.4709   1
  -7  10   4 15.6438 13.2568   2
  -6 -10   4 117.051 12.9313   4
   6 -10  -4 140.625 14.9234   3
   6 -10  -4 132.231 14.0860   3
  -6 -10   4 147.497 12.9912   3
   6 -10  -4 127.154 11.8086   2
   6 -10  -4 90.1258 15.0550   1
  -6  10   4 136.241 14.2538   2
  -6  10   4 177.858 25.9426   1
   5 -10  -4 3.32989 6.44749   2
  -5 -10   4 -3.4515 7.66970   1
   5 -10  -4 7.66358 11.1302   1
   5 -10  -4 3.76249 7.20965   3
   5 -10  -4 -3.0907 7.48525   3
  -5 -10   4 3.92600 8.09432   4
  -5 -10   4 -5.8892 6.29273   3
  -5  10   4 8.60124 10.0437   1
  -5  10   4 4.14990 8.66628   2
   5  10  -4 -8.9154 8.34007   1
  -4 -10   4 14.8293 7.84944   1
  -4 -10   4 20.2304 6.86808   3
   4 -10  -4 11.6919 7.58302   3
  -4 -10   4 12.6194 7.49276   4
   4 -10  -4 11.1380 8.66026   1
  -4 -10   4 18.6292 7.43393   2
   4 -10  -4 14.1159 7.66702   3
   4 -10  -4 10.2365 5.90951   2
  -4  10   4 21.3718 10.1838   1
   4  10  -4 11.7560 8.63638   1
  -4  10   4 5.08724 6.92221   2
   4  10  -4 16.5338 6.55813   3
  -3 -10   4 24.4840 7.96198   1
   3 -10  -4 15.6493 6.05222   2
   3 -10  -4 20.1004 7.40201   3
  -3 -10   4 31.8370 7.14458   3
   3 -10  -4 12.5876 7.94188   1
  -3 -10   4 23.5110 7.06177   2
   3 -10  -4 21.9272 7.34986   3
  -3 -10   4 15.3751 7.09672   4
  -3  10   4 27.9600 9.47897   1
   3  10  -4 20.9655 7.90810   1
  -3  10   4 17.5030 5.66432   2
   3  10  -4 36.9238 6.77455   3
   3  10  -4 22.9600 7.09448   2
   2 -10  -4 76.7511 9.07987   3
  -2 -10   4 76.1648 8.88389   3
  -2 -10   4 76.3987 8.28236   2
  -2 -10   4 61.5775 8.15096   4
   2 -10  -4 63.2214 9.20337   1
   2 -10  -4 81.0846 8.26153   2
   2  10  -4 71.9969 8.44283   2
   2  10  -4 78.6761 8.62701   3
  -2  10   4 67.9793 6.60661   2
  -2  10   4 62.3931 9.72917   1
   1 -10  -4 438.623 27.9899   1
  -1 -10   4 410.166 26.3713   2
  -1 -10   4 412.014 28.6824   1
   1 -10  -4 462.364 27.5148   3
  -1 -10   4 425.019 26.2964   4
  -1 -10   4 427.885 27.0806   3
  -1 -10   4 447.704 29.4247   1
   1 -10  -4 433.544 25.2974   2
   1  10  -4 413.628 26.9347   3
  -1  10   4 410.411 28.0870   1
   1  10  -4 445.369 27.0107   2
  -1  10   4 411.743 25.3393   2
   0 -10   4 90.8465 9.06230   2
   0 -10  -4 98.6228 10.4617   1
   0 -10  -4 96.6516 9.60941   3
   0 -10  -4 95.3918 8.45464   2
   0 -10   4 99.1955 11.7734   3
   0 -10   4 91.6561 12.3692   1
   0 -10   4 106.970 13.5509   1
   0  10  -4 91.5101 9.35863   2
   0  10  -4 81.9712 9.47589   3
   0  10   4 92.2965 10.4052   1
   0  10   4 95.2474 8.68556   2
   1 -10   4 5.35569 7.76820   1
  -1 -10  -4 -0.0886 6.43721   3
   1 -10   4 -2.9857 7.15126   3
   1 -10   4 -4.2940 5.80825   1
   1 -10   4 -9.9982 6.13695   2
  -1 -10  -4 5.76563 4.00237   1
  -1 -10  -4 3.35132 4.03048   2
  -1  10  -4 1.92398 6.41162   2
  -1  10  -4 6.01833 6.61863   3
   1  10   4 5.69504 4.22826   1
   2 -10   4 303.953 22.4639   3
   2 -10   4 296.405 24.7415   1
   2 -10   4 303.720 21.3133   2
  -2 -10  -4 328.922 21.3106   3
  -2 -10  -4 343.045 19.7527   2
   2 -10   4 321.799 24.2611   1
  -2  10  -4 312.139 21.5015   2
  -2  10  -4 307.639 21.4744   3
   3 -10   4 785.401 46.9764   2
  -3 -10  -4 794.533 46.4768   3
   3 -10   4 754.672 50.0782   1
  -3 -10  -4 819.178 45.8007   2
   3 -10   4 789.415 47.3038   3
   3 -10   4 763.159 49.6513   1
  -3  10  -4 786.470 47.2312   2
  -3  10  -4 802.680 47.1176   3
   4 -10   4 14.2385 8.71616   2
  -4 -10  -4 13.2514 6.29270   2
   4 -10   4 35.5598 11.3888   1
   4 -10   4 12.4265 10.5687   1
   4 -10   4 25.2355 8.77257   3
  -4 -10  -4 21.0129 7.46843   3
  -4  10  -4 6.75809 9.78790   2
  -4  10  -4 25.3641 8.33187   3
  -5 -10  -4 132.142 12.0027   2
   5 -10   4 151.499 16.1204   3
   5 -10   4 105.909 15.3258   1
   5 -10   4 117.693 17.6109   1
  -5 -10  -4 155.963 14.1664   3
  -5  10  -4 135.114 14.5784   2
  -5  10  -4 144.940 14.9689   3
   6 -10   4 66.4673 10.8187   3
   6 -10   4 67.3936 15.8534   1
  -6 -10  -4 83.0634 10.7075   2
  -6 -10  -4 86.7523 9.48348   4
  -6 -10  -4 76.4924 9.64202   3
  -6  10  -4 96.0004 10.6328   3
  -6  10  -4 55.3795 13.7830   2
  -7 -10  -4 118.794 13.6636   3
  -7 -10  -4 107.923 13.3369   2
  -7 -10  -4 96.1845 11.3892   3
  -7 -10  -4 136.477 13.8998   4
   7 -10   4 121.021 13.2769   3
  -7  10  -4 141.649 16.6644   2
  -8 -10  -4 78.9865 9.07386   3
   8 -10   4 77.5154 11.8782   3
  -8 -10  -4 87.5756 10.6949   4
  -8 -10  -4 78.2913 12.9997   2
  -8  10  -4 56.3238 16.2934   2
  -9 -10  -4 36.2534 8.81687   3
   9 -10   4 32.4696 11.2381   3
  -9 -10  -4 23.8333 11.1755   4
  -9 -10  -4 21.6998 12.6393   2
  -9  10  -4 22.0268 16.6072   2
 -10 -10  -4 -4.3724 13.3816   2
 -10  10  -4 7.15398 17.9566   2
 -10 -11   4 4.66311 16.2928   2
 -10  11   4 6.93985 19.7980   2
   9 -11  -4 2.02141 8.40362   3
  -9 -11   4 -12.894 11.2931   4
  -9  11   4 -11.438 16.3938   2
  -8 -11   4 48.0763 12.3125   4
  -8 -11   4 26.6493 6.74417   3
   8 -11  -4 29.1447 9.08836   3
  -8  11   4 31.9194 20.0872   2
  -7 -11   4 156.409 15.1253   4
   7 -11  -4 141.430 16.3036   3
   7 -11  -4 101.830 18.5873   1
  -7 -11   4 158.367 13.9945   3
   7 -11  -4 160.162 17.5555   3
  -7  11   4 132.606 16.6959   2
  -6 -11   4 269.092 19.1541   3
   6 -11  -4 254.364 20.3042   2
   6 -11  -4 273.309 21.2373   3
   6 -11  -4 201.841 28.5639   1
   6 -11  -4 289.529 20.5056   3
  -6  11   4 254.749 29.7223   1
  -6  11   4 241.385 22.6432   2
  -5 -11   4 17.1675 8.78827   4
  -5 -11   4 16.3222 7.23907   3
  -5 -11   4 12.9268 8.85646   1
   5 -11  -4 30.2011 12.3247   1
   5 -11  -4 6.52688 6.85050   2
   5 -11  -4 17.1789 8.84899   3
   5 -11  -4 9.24280 8.27449   3
  -5  11   4 20.8654 9.28149   2
  -5  11   4 19.1203 12.5927   1
  -4 -11   4 507.626 32.8930   4
  -4 -11   4 557.304 32.5584   3
   4 -11  -4 511.157 31.7124   2
   4 -11  -4 525.962 32.8886   3
   4 -11  -4 539.762 32.7279   3
  -4 -11   4 511.861 35.0365   1
   4 -11  -4 471.635 36.3943   1
  -4  11   4 494.312 36.9288   1
   4  11  -4 536.871 32.3329   3
  -4  11   4 504.762 31.9021   2
   4  11  -4 561.329 32.8057   2
   4  11  -4 510.945 35.5736   1
   3 -11  -4 210.004 14.7160   2
  -3 -11   4 195.319 18.6526   1
  -3 -11   4 211.249 15.9654   3
   3 -11  -4 176.578 19.2594   1
   3 -11  -4 215.810 17.4021   3
  -3 -11   4 190.720 16.3000   2
   3 -11  -4 196.347 17.4165   3
  -3 -11   4 210.760 17.1077   4
   3  11  -4 184.558 15.8019   3
   3  11  -4 232.774 17.3976   2
  -3  11   4 200.718 20.1911   1
   3  11  -4 188.711 19.0981   1
  -3  11   4 185.890 14.7639   2
   2 -11  -4 172.123 15.3422   3
  -2 -11   4 170.762 15.0211   4
  -2 -11   4 162.143 14.5910   3
   2 -11  -4 148.516 12.4227   2
  -2 -11   4 166.087 16.8761   1
   2 -11  -4 175.001 14.8736   3
  -2 -11   4 168.995 15.2073   2
   2 -11  -4 155.868 16.4880   1
  -2  11   4 158.703 16.7893   1
  -2  11   4 169.625 12.4705   2
   2  11  -4 165.954 15.1802   3
   2  11  -4 173.161 14.8209   2
  -1 -11   4 78.5256 10.3992   1
  -1 -11   4 58.4275 9.38355   1
   1 -11  -4 67.1329 9.33375   1
  -1 -11   4 90.2664 10.1190   3
  -1 -11   4 90.2895 9.21636   4
   1 -11  -4 81.8206 9.46038   3
  -1 -11   4 81.0117 8.87790   2
  -1  11   4 69.7797 7.01878   2
   1  11  -4 88.8650 9.27729   2
  -1  11   4 90.8112 10.3396   1
   1  11  -4 83.6078 9.47694   3
   0 -11  -4 125.801 10.4721   2
   0 -11   4 120.514 14.4760   1
   0 -11   4 124.834 15.7561   1
   0 -11  -4 143.070 12.3937   1
   0 -11   4 112.127 12.7570   2
   0 -11   4 120.435 14.7127   3
   0 -11  -4 129.446 13.2300   3
   0  11   4 128.287 12.7337   1
   0  11  -4 146.538 14.1109   2
   0  11  -4 141.413 13.5280   3
   0  11   4 131.401 10.8894   2
  -1 -11  -4 2233.04 120.574   3
   1 -11   4 2170.24 123.076   1
  -1 -11  -4 2099.50 119.284   2
   1 -11   4 2106.08 122.682   1
   1 -11   4 2105.23 120.555   3
   1 -11   4 2047.59 120.050   2
  -1 -11  -4 2125.78 120.035   1
  -1  11  -4 2141.52 120.560   3
  -1  11  -4 2102.62 120.096   2
   1  11   4 2075.29 119.926   1
  -2 -11  -4 69.0079 7.09314   2
  -2 -11  -4 76.7969 9.53749   3
   2 -11   4 57.0292 9.75413   3
   2 -11   4 90.2955 9.58942   2
   2 -11   4 67.5679 10.1062   1
   2 -11   4 61.9744 10.3228   1
  -2  11  -4 77.7351 9.82463   2
  -2  11  -4 70.8898 9.51347   3
   3 -11   4 66.6515 10.2059   2
  -3 -11  -4 80.7768 9.65926   3
  -3 -11  -4 85.4779 8.18472   2
   3 -11   4 71.6549 10.3851   3
   3 -11   4 84.9730 14.2176   1
   3 -11   4 85.1360 12.8246   1
  -3  11  -4 88.0133 11.1990   2
  -3  11  -4 83.6947 10.7897   3
   4 -11   4 418.976 34.2538   1
  -4 -11  -4 397.120 27.6886   2
  -4 -11  -4 437.513 28.8451   3
   4 -11   4 465.621 34.0393   1
   4 -11   4 459.977 29.8909   3
  -4  11  -4 481.863 30.8649   2
  -4  11  -4 436.312 29.4901   3
   5 -11   4 299.450 28.6182   1
   5 -11   4 284.031 29.4546   1
  -5 -11  -4 294.322 21.2454   2
  -5 -11  -4 294.152 21.7113   3
   5 -11   4 297.330 23.2909   3
  -5 -11  -4 278.387 21.4061   3
  -5  11  -4 301.848 24.5156   2
  -6 -11  -4 55.1335 9.60506   3
  -6 -11  -4 80.3386 9.66461   4
   6 -11   4 56.5265 10.9859   3
  -6 -11  -4 66.8047 9.51393   3
   6 -11   4 71.9223 17.2647   1
  -6  11  -4 59.9710 14.3337   2
  -7 -11  -4 46.3491 8.64568   3
  -7 -11  -4 37.9501 15.0899   2
   7 -11   4 39.8139 11.5910   3
  -7 -11  -4 57.3130 9.57758   4
  -7 -11  -4 41.1929 9.22109   3
  -7  11  -4 61.7370 15.6048   2
  -8 -11  -4 239.619 18.3018   3
   8 -11   4 201.783 22.3292   3
  -8 -11  -4 223.190 20.0407   4
  -8 -11  -4 220.234 23.3179   2
  -8  11  -4 230.236 22.9394   2
   9 -11   4 39.0754 15.6517   3
  -9 -11  -4 27.7045 9.94887   4
  -9 -11  -4 42.9504 12.8955   2
  -9  11  -4 35.7449 17.8992   2
 -10 -11  -4 -5.1326 13.9480   2
 -10 -11  -4 11.7576 10.1977   4
 -10  11  -4 -0.3336 18.7070   2
   9 -12  -4 2.14532 10.4403   3
  -9 -12   4 21.3613 13.0505   4
  -9  12   4 13.9881 18.1481   2
  -8 -12   4 15.8121 11.7714   4
   8 -12  -4 9.40221 9.32938   3
  -8 -12   4 9.14719 6.83129   3
  -8  12   4 11.4044 15.7576   2
   7 -12  -4 27.0196 9.85962   3
  -7 -12   4 30.4726 10.9598   4
  -7 -12   4 43.5913 8.01775   3
  -7  12   4 46.8092 13.8133   2
   6 -12  -4 180.721 18.3391   2
  -6 -12   4 196.711 16.9244   3
  -6 -12   4 178.900 18.6568   4
   6 -12  -4 216.870 18.7775   3
  -6  12   4 187.242 21.1915   2
   5 -12  -4 114.719 11.4520   2
   5 -12  -4 102.377 16.5259   1
  -5 -12   4 149.506 14.7201   3
   5 -12  -4 143.952 16.2874   3
  -5 -12   4 171.634 17.2802   4
  -5  12   4 127.365 12.8229   2
   4 -12  -4 98.2837 14.9731   1
   4 -12  -4 108.853 17.6687   3
  -4 -12   4 103.656 12.8016   1
   4 -12  -4 90.4154 9.62275   2
  -4 -12   4 93.5257 10.3778   3
   4 -12  -4 113.732 12.1514   3
  -4 -12   4 110.716 11.7762   4
  -4  12   4 84.3378 9.97960   2
   4  12  -4 116.138 11.5054   2
  -4  12   4 65.0491 13.4369   1
   3 -12  -4 144.057 15.8850   3
  -3 -12   4 167.985 16.2618   4
   3 -12  -4 168.330 13.7690   2
  -3 -12   4 186.597 18.2380   1
   3 -12  -4 173.663 17.4660   3
   3 -12  -4 158.382 18.7968   1
  -3 -12   4 177.618 16.2965   3
   3  12  -4 152.866 15.7039   3
  -3  12   4 137.235 13.8744   2
   3  12  -4 176.932 15.8141   2
  -3  12   4 150.189 19.8052   1
  -2 -12   4 43.5068 8.06184   4
  -2 -12   4 26.8509 8.12316   1
  -2 -12   4 18.4578 7.93282   2
   2 -12  -4 21.9819 8.87564   3
  -2 -12   4 20.6955 8.79420   1
   2 -12  -4 25.9316 8.44804   3
   2 -12  -4 25.0323 5.84598   2
   2 -12  -4 34.9459 8.80122   1
  -2 -12   4 28.1015 8.63746   3
   2  12  -4 23.2301 8.14300   3
  -2  12   4 24.4924 6.13187   2
  -2  12   4 30.7673 9.29299   1
   2  12  -4 39.6602 8.47345   2
   1 -12  -4 148.979 16.5227   3
   1 -12  -4 157.556 12.6103   2
  -1 -12   4 184.761 17.4784   1
  -1 -12   4 176.528 15.0623   4
  -1 -12   4 156.812 16.3254   3
  -1 -12   4 159.185 15.3951   2
   1 -12  -4 155.985 15.7284   1
  -1 -12   4 153.802 17.2947   1
   1 -12  -4 173.989 15.4093   3
   1  12  -4 162.691 15.3983   3
  -1  12   4 169.838 16.3675   1
  -1  12   4 143.718 12.7818   2
   1  12  -4 134.010 14.9275   2
   0 -12   4 20.3329 8.56171   1
   0 -12   4 13.4193 7.71011   2
   0 -12   4 10.0071 8.55812   3
   0 -12  -4 23.1842 8.29695   3
   0 -12  -4 10.0958 6.09546   1
   0 -12  -4 13.2334 8.51588   3
   0 -12  -4 3.44288 4.95392   2
   0 -12   4 4.37725 7.20687   1
   0  12  -4 17.0385 8.15682   2
   0  12  -4 19.4401 8.06247   3
   0  12   4 8.21540 5.40899   2
   0  12   4 -1.0133 6.21363   1
  -1 -12  -4 8.59456 5.02502   2
  -1 -12  -4 4.25058 4.79503   1
   1 -12   4 -2.9302 7.72416   2
  -1 -12  -4 5.72498 8.21031   3
   1 -12   4 2.67438 8.99345   1
   1 -12   4 0.98597 8.94943   1
   1 -12   4 8.22354 8.78148   3
   1  12   4 0.52985 5.64592   2
  -1  12  -4 5.56743 7.88346   2
  -1  12  -4 -4.1572 7.82488   3
   2 -12   4 4.47734 12.6848   2
   2 -12   4 -14.927 9.37217   1
   2 -12   4 1.48157 7.31951   1
  -2 -12  -4 6.13439 7.80000   3
   2 -12   4 5.37530 9.23305   3
  -2 -12  -4 -2.2776 5.35118   2
  -2  12  -4 -13.579 8.07552   3
  -2  12  -4 -8.1965 8.72794   2
  -3 -12  -4 65.2932 9.89723   3
   3 -12   4 84.0484 11.4735   3
  -3 -12  -4 62.5102 8.19896   2
   3 -12   4 74.0821 14.0441   1
   3 -12   4 64.7300 13.7850   1
  -3 -12  -4 68.8101 10.0720   3
  -3  12  -4 66.7750 10.9877   2
  -4 -12  -4 40.5243 9.05198   3
   4 -12   4 35.4832 12.8598   1
   4 -12   4 31.6993 10.0791   3
   4 -12   4 27.2178 11.7688   1
  -4 -12  -4 36.7808 9.01066   3
  -4 -12  -4 45.0430 8.33895   2
  -4  12  -4 57.3263 11.6972   2
  -5 -12  -4 76.0459 12.2765   3
  -5 -12  -4 64.4062 10.0566   3
   5 -12   4 58.1848 15.5968   1
   5 -12   4 63.4040 11.2186   3
   5 -12   4 68.7563 16.9108   1
  -6 -12  -4 -10.946 7.96670   3
  -6 -12  -4 12.7302 8.51166   4
   6 -12   4 10.8710 10.2195   3
  -6  12  -4 -7.8705 13.4898   2
  -7 -12  -4 34.7170 10.8952   4
  -7 -12  -4 45.7538 9.30990   3
   7 -12   4 19.8081 17.8113   3
  -7 -12  -4 61.2964 11.5492   2
  -7  12  -4 44.3537 16.3900   2
  -8 -12  -4 181.535 16.4956   3
   8 -12   4 136.474 15.9213   3
  -8 -12  -4 155.627 14.9579   4
  -8 -12  -4 159.975 17.0775   2
  -8  12  -4 171.681 21.5232   2
   9 -12   4 36.9733 12.4431   3
  -9 -12  -4 31.7478 10.5927   4
  -9 -12  -4 31.5028 13.4896   2
  -9  12  -4 6.10448 18.4017   2
  -9 -13   4 11.4962 12.9426   4
  -9  13   4 -3.2024 17.4218   2
   8 -13  -4 88.6808 14.4498   3
  -8 -13   4 90.9141 14.0817   4
  -8 -13   4 81.4207 9.67605   3
  -8  13   4 80.1641 17.3769   2
  -7 -13   4 86.0989 13.3999   4
  -7 -13   4 89.3076 10.1399   3
   7 -13  -4 70.4340 18.3757   3
  -7  13   4 37.9711 15.5229   2
  -6 -13   4 20.9077 8.27914   3
  -6 -13   4 27.3771 11.1208   4
   6 -13  -4 16.2591 10.4255   3
  -6  13   4 14.5883 11.7474   2
   5 -13  -4 11.5503 8.45239   2
  -5 -13   4 34.3291 9.02821   3
   5 -13  -4 24.1701 10.0173   3
  -5 -13   4 16.9371 9.85504   4
  -5  13   4 32.3423 10.1315   2
   4 -13  -4 122.251 13.8794   2
  -4 -13   4 157.894 15.4780   4
  -4 -13   4 146.070 15.6885   3
   4 -13  -4 111.396 13.4258   3
  -4  13   4 116.443 11.8880   2
   4  13  -4 119.212 14.6774   2
   3 -13  -4 244.983 17.9406   2
   3 -13  -4 239.806 20.4747   3
   3 -13  -4 244.731 25.0060   1
  -3 -13   4 244.869 20.5675   4
  -3 -13   4 255.738 20.5321   3
   3  13  -4 247.348 20.0429   2
  -3  13   4 235.691 18.1762   2
  -2 -13   4 32.4726 9.77471   1
   2 -13  -4 19.8161 10.1070   3
  -2 -13   4 22.1532 9.31514   1
   2 -13  -4 19.7723 9.07319   1
   2 -13  -4 14.6469 6.23132   2
  -2 -13   4 10.8394 8.42941   4
  -2 -13   4 17.5690 9.31425   3
   2  13  -4 15.7490 8.63094   2
  -2  13   4 9.00204 6.53341   2
  -1 -13   4 139.766 15.7099   3
   1 -13  -4 147.418 14.4250   3
  -1 -13   4 140.919 14.9986   4
   1 -13  -4 136.215 12.3027   2
   1 -13  -4 134.722 16.0592   1
  -1 -13   4 144.785 17.3506   1
  -1 -13   4 165.631 22.8800   1
   1  13  -4 156.741 16.5042   2
  -1  13   4 136.569 12.9584   2
   0 -13   4 320.352 25.2521   1
   0 -13  -4 326.142 20.7158   2
   0 -13  -4 319.700 23.6608   3
   0 -13  -4 307.685 22.8254   1
   0 -13   4 353.232 23.7138   3
   0 -13   4 345.406 26.3100   1
   0  13   4 294.758 23.6203   1
   0  13  -4 314.395 23.8276   2
   0  13   4 328.585 21.0068   2
  -1 -13  -4 74.8463 10.5958   1
   1 -13   4 90.6395 11.9051   3
   1 -13   4 104.340 13.5407   1
   1 -13   4 69.8420 11.3978   1
  -1 -13  -4 88.2706 8.34747   2
  -1 -13  -4 79.1658 11.6126   3
   1  13   4 84.7110 8.69823   2
  -1  13  -4 83.3908 11.0721   2
   2 -13   4 5.03150 9.83790   3
   2 -13   4 9.22778 8.69473   1
  -2 -13  -4 8.21907 9.54414   3
  -2 -13  -4 -1.3139 5.95843   2
   2 -13   4 0.70725 10.3391   1
  -2  13  -4 -3.4040 9.37687   2
  -3 -13  -4 246.782 20.0832   3
   3 -13   4 263.801 22.2806   3
   3 -13   4 213.340 26.1221   1
  -3 -13  -4 259.810 18.2803   2
   3 -13   4 229.934 26.5037   1
  -3  13  -4 233.058 21.2616   2
  -4 -13  -4 8.23029 9.38276   3
  -4 -13  -4 -4.0958 7.43469   2
   4 -13   4 -0.3106 10.1349   3
   4 -13   4 8.42832 13.9670   1
   5 -13   4 198.860 22.1926   3
  -5 -13  -4 197.435 18.5589   3
   5 -13   4 132.651 21.0750   1
  -5  13  -4 231.176 22.3069   2
   6 -13   4 -5.4586 11.0837   3
  -6 -13  -4 2.41777 8.93410   3
  -6  13  -4 -10.956 14.3343   2
  -7 -13  -4 97.4855 12.2292   4
  -7 -13  -4 84.1422 11.4169   3
   7 -13   4 82.2395 13.5390   3
  -7 -13  -4 103.388 13.5522   2
  -7  13  -4 107.992 18.7170   2
  -8 -13  -4 33.0710 12.1985   2
   8 -13   4 1.68732 11.5358   3
  -8 -13  -4 5.25296 9.01830   3
  -8 -13  -4 11.9529 10.2985   4
  -8  13  -4 9.67031 18.1595   2
  -9 -13  -4 27.3818 11.2341   4
   9 -13   4 26.7367 12.8375   3
  -9 -13  -4 25.2739 14.5394   2
  -9  13  -4 37.6286 20.1964   2
  -8 -14   4 128.946 16.4588   4
   8 -14  -4 107.813 13.6686   3
  -8  14   4 73.1986 18.6211   2
  -7 -14   4 -3.8212 11.3878   4
   7 -14  -4 1.14337 11.2996   3
  -7 -14   4 2.56556 8.46066   3
  -7  14   4 21.4372 14.4938   2
   6 -14  -4 10.0393 10.9325   3
  -6 -14   4 15.8751 9.27685   3
  -6 -14   4 10.6897 10.6994   4
  -6  14   4 22.8139 12.5711   2
  -5 -14   4 104.609 11.9737   3
  -5 -14   4 95.2523 13.3144   4
   5 -14  -4 80.1279 14.3413   3
   5 -14  -4 81.1957 13.3501   2
  -5  14   4 105.775 12.5280   2
   4 -14  -4 157.022 16.1536   2
  -4 -14   4 143.298 14.7255   4
  -4 -14   4 173.201 17.6514   3
   4  14  -4 188.225 17.8917   2
  -4  14   4 127.575 13.3876   2
   3 -14  -4 385.757 28.0991   3
   3 -14  -4 335.863 24.4908   2
  -3 -14   4 431.610 27.1572   3
  -3  14   4 363.630 24.7569   2
   3  14  -4 300.355 35.0973   2
  -2 -14   4 -3.1617 9.73805   3
   2 -14  -4 0.05506 6.56216   2
  -2 -14   4 1.48653 9.05829   4
   2 -14  -4 5.29086 10.2686   3
  -2  14   4 -0.5184 7.04739   2
   2  14  -4 -5.3621 9.11473   2
  -1 -14   4 281.074 20.7085   4
   1 -14  -4 253.499 18.3555   2
  -1 -14   4 265.912 21.9754   3
   1 -14  -4 235.841 21.5136   3
   1  14  -4 267.259 21.5301   2
  -1  14   4 241.096 18.5775   2
   0 -14   4 256.964 25.6128   1
   0 -14   4 297.094 23.0520   3
   0 -14  -4 305.234 19.8484   2
   0 -14  -4 292.056 24.3930   3
   0  14   4 300.069 20.4133   2
   0  14  -4 307.564 23.5276   2
   1 -14   4 91.5455 14.5996   1
  -1 -14  -4 119.490 11.8993   1
  -1 -14  -4 110.568 13.4759   3
   1 -14   4 149.164 14.3757   3
  -1 -14  -4 118.951 12.3496   2
  -1  14  -4 108.950 12.9109   2
   1  14   4 129.974 12.9073   2
  -2 -14  -4 103.372 13.3109   3
  -2 -14  -4 122.678 12.8815   2
   2 -14   4 89.4865 14.9521   1
   2 -14   4 118.104 14.0486   3
  -2  14  -4 146.675 14.3478   2
   3 -14   4 -14.757 12.5678   1
  -3 -14  -4 10.5520 7.61740   2
  -3 -14  -4 4.73032 10.2473   3
  -3  14  -4 4.09506 17.3761   2
   4 -14   4 286.568 24.1162   3
  -4 -14  -4 247.176 22.7297   3
   4 -14   4 242.801 31.5543   1
  -4  14  -4 274.228 24.4286   2
   5 -14   4 33.5246 33.2631   1
  -5 -14  -4 62.9046 13.1060   3
   5 -14   4 84.6482 13.5107   3
  -5  14  -4 82.3370 15.7092   2
   6 -14   4 6.64622 11.9560   3
  -6 -14  -4 9.83486 9.80928   4
  -6  14  -4 -9.1307 15.0925   2
  -7 -14  -4 19.9729 10.3456   4
   7 -14   4 36.0156 12.8687   3
  -7 -14  -4 36.8435 12.2602   2
  -7 -14  -4 24.1323 10.9755   3
  -7  14  -4 31.4113 17.9874   2
  -8 -14  -4 34.3225 11.5344   4
   8 -14   4 7.29848 13.3897   3
  -8 -14  -4 28.2542 9.95314   3
  -8 -14  -4 21.5059 13.6787   2
  -8  14  -4 16.2459 19.1525   2
  -8 -15   4 50.7010 14.2699   4
   8 -15  -4 47.0787 12.8481   3
  -8  15   4 18.3872 17.0573   2
  -7 -15   4 36.0617 13.5697   4
   7 -15  -4 32.2279 12.7789   3
  -7  15   4 10.9204 15.3790   2
   6 -15  -4 129.469 15.3997   3
  -6 -15   4 128.473 15.4006   4
  -5 -15   4 122.486 14.9961   4
   5 -15  -4 152.678 16.3545   3
  -5  15   4 144.775 15.0129   2
   4 -15  -4 1.68945 10.1884   2
   4 -15  -4 -2.8272 11.8286   3
  -4 -15   4 2.36651 10.5961   4
   4  15  -4 4.83942 10.3421   2
  -4  15   4 7.51824 9.48354   2
  -3 -15   4 120.773 13.2067   4
   3 -15  -4 96.3158 10.9575   2
   3 -15  -4 98.0952 14.3389   3
  -3  15   4 116.525 11.7324   2
   3  15  -4 147.135 14.2189   2
   2 -15  -4 22.7024 7.69975   2
  -2 -15   4 23.4570 10.6934   4
   2 -15  -4 27.7730 11.9446   3
  -2  15   4 19.7836 8.28491   2
   2  15  -4 21.8083 10.4492   2
   1 -15  -4 293.445 25.1195   3
  -1 -15   4 319.284 23.9822   4
   1 -15  -4 278.035 20.3540   2
  -1  15   4 270.191 20.7009   2
   1  15  -4 285.662 22.8167   2
   0 -15  -4 0.71323 7.01009   2
   0 -15   4 -3.3904 15.7320   3
   0 -15  -4 2.37491 11.6914   3
   0  15  -4 0.52193 11.7586   2
   0  15   4 4.24756 7.46289   2
   1 -15   4 101.885 14.0851   3
  -1 -15  -4 93.9711 11.6869   1
  -1 -15  -4 105.626 10.1111   2
  -1 -15  -4 92.4158 13.5476   3
  -1  15  -4 74.1662 12.8056   2
  -2 -15  -4 248.162 20.0280   2
   2 -15   4 275.474 24.5368   3
  -2 -15  -4 286.801 22.8853   3
  -2  15  -4 265.789 23.1678   2
  -3 -15  -4 5.53146 11.0297   3
   3 -15   4 9.60632 11.9000   3
  -3  15  -4 4.15425 12.1459   2
   4 -15   4 0.31948 11.9411   3
  -4 -15  -4 0.25728 10.3421   3
  -4  15  -4 1.84661 13.6908   2
   5 -15   4 24.7367 12.6236   3
  -5 -15  -4 15.7317 11.0225   3
  -5  15  -4 22.7203 15.5174   2
  -6 -15  -4 97.6285 13.3552   3
   6 -15   4 116.854 15.4889   3
  -6 -15  -4 111.305 13.6580   4
  -6  15  -4 143.630 19.9511   2
   7 -15   4 31.9888 13.9309   3
  -7 -15  -4 10.0536 12.7921   2
  -7 -15  -4 11.3304 10.9684   4
  -7 -15  -4 15.0346 10.9242   3
  -7  15  -4 -19.625 17.7171   2
  -8 -15  -4 2.83354 11.1419   4
  -8 -15  -4 0.97818 13.0466   2
  -8 -15  -4 12.3668 13.2443   3
   8 -15   4 -23.984 12.8134   3
  -8  15  -4 2.62168 19.6566   2
  -7 -16   4 1.08357 12.7018   4
   7 -16  -4 16.5173 13.2902   3
  -7 -16   4 -9.3100 9.83029   3
  -7  16   4 11.9303 14.9153   2
  -6 -16   4 -3.0499 10.5038   3
   6 -16  -4 2.42067 12.3672   3
  -6 -16   4 -3.7675 12.3649   4
  -6  16   4 10.6208 13.1677   2
  -5 -16   4 92.0598 14.0283   4
   5 -16  -4 95.1407 15.1262   3
  -5 -16   4 108.441 13.5638   3
  -5  16   4 99.5808 15.8130   2
   4 -16  -4 127.135 15.5809   3
  -4 -16   4 115.768 14.1380   3
  -4 -16   4 136.603 15.2157   4
  -4  16   4 104.039 13.2259   2
   3 -16  -4 22.5256 12.7459   3
  -3 -16   4 6.81810 11.0429   3
  -3 -16   4 16.3060 11.0353   4
   3  16  -4 26.5243 11.4886   2
  -3  16   4 22.3318 9.57916   2
  -2 -16   4 61.7686 12.3851   3
   2 -16  -4 56.3610 9.83354   2
  -2 -16   4 63.8383 11.5157   4
   2 -16  -4 49.0571 13.0438   3
  -2  16   4 43.2698 9.57339   2
   2  16  -4 65.3678 12.6599   2
   1 -16  -4 -3.9629 7.85458   2
  -1 -16   4 1.32016 11.6107   3
  -1 -16   4 4.72935 10.4385   4
   1 -16  -4 1.74990 11.8627   3
  -1  16   4 -2.9836 8.19895   2
   1  16  -4 1.35640 10.7089   2
   0 -16  -4 0.87434 8.19344   2
   0 -16   4 27.3336 12.5115   3
   0 -16  -4 30.7965 12.3284   3
   0  16  -4 35.6924 11.8009   2
   0  16   4 19.9874 8.54899   2
  -1 -16  -4 72.6004 13.5662   3
   1 -16   4 42.0312 12.5976   3
  -1  16  -4 39.7083 12.5258   2
   2 -16   4 117.133 15.7783   3
  -2 -16  -4 122.229 15.3401   3
  -2  16  -4 101.290 14.9942   2
   3 -16   4 17.5745 12.9330   3
  -3 -16  -4 -4.6981 10.9237   3
  -3  16  -4 -0.4102 13.1002   2
   4 -16   4 -8.1405 12.4950   3
  -4 -16  -4 10.2342 11.4096   3
  -4  16  -4 -6.5090 14.2513   2
   5 -16   4 269.197 26.0733   3
  -5 -16  -4 232.277 23.7031   3
  -5  16  -4 254.890 28.0060   2
   6 -16   4 22.0407 13.4673   3
  -6 -16  -4 21.8895 11.9266   3
  -6 -16  -4 30.5222 11.6390   4
  -6  16  -4 21.5325 18.3272   2
  -7 -16  -4 27.0476 11.6634   3
  -7 -16  -4 39.8310 12.2751   4
  -7 -16  -4 28.7968 13.1725   2
   7 -16   4 36.3624 14.7809   3
  -7  16  -4 13.1955 19.4222   2
   6 -17  -4 9.52095 13.2888   3
  -6 -17   4 7.21045 11.4411   3
  -6 -17   4 6.94427 13.5342   4
  -6  17   4 22.1827 13.9794   2
  -5 -17   4 19.2462 11.8607   3
  -5 -17   4 13.4505 12.2089   4
   5 -17  -4 39.0301 13.8400   3
  -5  17   4 21.7218 12.4294   2
  -4 -17   4 19.8086 12.4088   4
   4 -17  -4 11.8904 13.4380   3
  -4 -17   4 16.1409 11.2654   3
   3 -17  -4 -14.670 12.7932   3
  -3 -17   4 -2.1405 11.2671   3
  -3 -17   4 9.37432 12.2967   4
  -3  17   4 -0.1343 9.95501   2
   3  17  -4 15.8209 12.4691   2
   2 -17  -4 86.6280 15.7402   3
  -2 -17   4 72.7515 13.2748   4
  -2 -17   4 91.6424 14.3923   3
   2  17  -4 91.6236 13.9457   2
  -2  17   4 93.2263 11.8583   2
   1 -17  -4 161.899 18.1403   3
  -1 -17   4 141.793 17.1414   3
  -1 -17   4 178.726 19.0259   4
  -1  17   4 174.621 17.4642   2
   1  17  -4 181.686 17.0380   2
   0 -17  -4 2.07428 12.5203   3
   0 -17   4 6.21125 12.3364   3
   0  17   4 11.2881 9.07829   2
   0  17  -4 2.03712 11.8600   2
   1 -17   4 101.421 15.2150   3
  -1 -17  -4 72.4562 14.4609   3
  -1  17  -4 102.051 15.1814   2
   2 -17   4 65.2598 14.1944   3
  -2 -17  -4 56.2745 13.5991   3
  -2  17  -4 40.8064 14.2374   2
   3 -17   4 57.2476 14.7254   3
  -3 -17  -4 42.3128 13.8270   3
  -3  17  -4 30.8298 14.6148   2
   4 -17   4 15.3131 13.3306   3
  -4 -17  -4 9.98988 12.7020   3
  -4  17  -4 -7.4953 14.9524   2
   5 -17   4 -6.4103 14.1363   3
  -5 -17  -4 -12.715 12.5572   3
  -5  17  -4 5.08600 16.5200   2
   6 -17   4 -6.5403 13.7446   3
  -6 -17  -4 12.5200 12.1334   3
  -6 -17  -4 26.1787 13.0504   4
  -6  17  -4 4.06297 18.9998   2
  -5 -18   4 -1.4154 12.9865   4
   5 -18  -4 0.84507 14.1913   3
  -5 -18   4 -11.114 11.5715   3
  -5  18   4 5.66361 12.9346   2
  -4 -18   4 35.7628 13.6491   4
   4 -18  -4 58.2041 16.3159   3
  -4 -18   4 62.4928 14.0149   3
  -4  18   4 56.1586 13.1064   2
  -3 -18   4 24.7899 13.1718   3
   3 -18  -4 -1.6257 13.9017   3
  -3 -18   4 15.2787 13.0746   4
   3  18  -4 13.2817 12.8415   2
  -3  18   4 7.65487 11.3518   2
   2 -18  -4 227.267 24.7445   3
  -2 -18   4 223.498 25.4412   3
  -2 -18   4 231.105 24.2441   4
   2  18  -4 222.058 23.5350   2
  -1 -18   4 319.755 29.4976   3
  -1 -18   4 320.758 27.8170   4
   1 -18  -4 330.595 29.5190   3
  -1  18   4 286.521 32.3391   2
   1  18  -4 364.460 28.7743   2
   0 -18   4 13.8749 13.9105   3
   0 -18  -4 17.3532 14.0286   3
   0  18  -4 0.40269 12.9995   2
  -1 -18  -4 -2.8071 13.9275   3
   1 -18   4 22.1747 14.2695   3
  -1  18  -4 1.18009 12.8907   2
   2 -18   4 42.9664 14.5702   3
  -2 -18  -4 49.1091 14.7352   3
  -2  18  -4 22.3663 14.5694   2
  -3 -18  -4 267.692 28.0571   3
   3 -18   4 339.462 28.7031   3
  -3  18  -4 354.152 31.6834   2
  -4 -18  -4 38.5148 13.9052   3
   4 -18   4 60.8348 15.6584   3
  -4  18  -4 61.2777 17.9036   2
  -5 -18  -4 2.41754 12.5303   3
   5 -18   4 -5.7705 15.2101   3
  -5 -18  -4 -9.3915 12.5142   4
  -5  18  -4 -5.7795 18.8091   2
  -4 -19   4 13.0251 13.1598   3
   4 -19  -4 15.8704 16.1089   3
  -4 -19   4 18.7138 13.7017   4
  -4  19   4 5.63892 12.6586   2
   3 -19  -4 43.9074 16.9480   3
  -3 -19   4 41.6138 14.0512   3
  -3 -19   4 32.2614 13.8051   4
  -3  19   4 8.49202 12.1543   2
   3  19  -4 27.0859 14.2066   2
  -2 -19   4 15.6041 13.7019   3
   2 -19  -4 -9.3089 15.2898   3
  -2 -19   4 13.7709 12.8865   4
  -2  19   4 12.0730 11.3764   2
   2  19  -4 0.56189 13.8142   2
  -1 -19   4 1.28277 12.5574   4
  -1 -19   4 1.16586 13.9275   3
   1 -19  -4 -10.768 15.1202   3
   1  19  -4 -5.1227 13.7430   2
  -1  19   4 -2.2511 10.9027   2
   0 -19   4 1.56561 12.7025   4
   0 -19  -4 -3.1132 14.2468   3
   0 -19   4 -18.970 13.8848   3
   0  19   4 1.45923 10.5717   2
   0  19  -4 21.3000 14.0873   2
  -1 -19  -4 77.6021 16.0408   3
   1 -19   4 70.6369 16.0301   3
  -1  19  -4 86.6153 16.0481   2
   2 -19   4 0.99360 15.0872   3
  -2 -19  -4 -9.2677 14.2878   3
  -2  19  -4 -2.3116 15.7011   2
   3 -19   4 23.7691 15.9565   3
  -3 -19  -4 -15.859 14.2480   3
  -3  19  -4 16.7334 16.6703   2
  -4 -19  -4 11.3243 14.7212   3
   4 -19   4 27.5448 16.7086   3
  -4  19  -4 1.98374 17.8430   2
   2 -20  -4 111.929 19.9107   3
  -2 -20   4 115.743 18.6052   3
  -2 -20   4 153.814 18.2868   4
   2  20  -4 152.386 18.9179   2
  -2  20   4 97.6910 14.9566   2
  -1 -20   4 -2.8733 14.3840   4
  -1 -20   4 20.0621 16.0888   3
   1 -20  -4 15.5263 16.0528   3
  -1  20   4 7.61600 11.6350   2
   1  20  -4 13.3465 15.3724   2
   0 -20   4 -8.3900 13.0836   4
   0 -20   4 -22.483 15.2495   3
   0 -20  -4 18.3857 16.8479   3
   0  20  -4 12.5607 15.1167   2
   1 -20   4 27.9959 16.7465   3
  -1 -20  -4 9.56154 16.8280   3
  -1  20  -4 8.99817 16.1683   2
  -2 -20  -4 3.23792 16.0004   3
   2 -20   4 -0.6986 15.5070   3
  -2  20  -4 -12.646 16.5414   2
 -12   0   5 -4.5861 19.6665   2
 -11   0   5 73.4073 19.2852   2
 -10   0   5 48.1755 16.1943   2
  -9   0   5 317.881 28.0581   2
  -8   0   5 179.821 17.4379   2
  -8   0   5 180.228 23.6199   1
  -7   0   5 321.418 24.3117   2
   7   0  -5 260.377 24.6472   4
  -7   0   5 272.106 25.3629   1
   7   0  -5 295.793 17.4891   3
   7   0  -5 322.029 26.8083   1
   6   0  -5 1301.49 71.7901   3
   6   0  -5 1314.55 74.2845   4
   6   0  -5 1263.68 76.5074   1
  -6   0   5 1258.77 73.3081   2
  -6   0   5 1186.92 75.8801   1
   5   0  -5 49.6648 8.75489   4
  -5   0   5 59.7727 6.20212   3
   5   0  -5 46.1866 9.29070   1
  -5   0   5 39.7360 7.72369   2
  -5   0   5 57.6408 10.1158   1
   5   0  -5 48.7072 6.30006   3
   4   0  -5 26.7204 7.14899   4
  -4   0   5 36.6644 4.54768   2
  -4   0   5 32.4189 5.78445   3
   4   0  -5 33.9260 5.90482   3
   4   0  -5 33.3252 8.20575   1
  -4   0   5 32.6366 8.33712   1
  -4   0   5 29.1725 6.06649   2
  -3   0   5 2.10669 2.76820   2
   3   0  -5 -3.3442 4.94452   1
  -3   0   5 -1.5776 5.54182   1
   3   0  -5 6.91269 6.17646   4
   3   0  -5 8.44620 4.90751   3
  -3   0   5 4.64899 5.18804   3
  -2   0   5 2494.82 136.908   2
   2   0  -5 2548.03 138.003   4
  -2   0   5 2218.97 137.967   3
   2   0  -5 2414.04 139.465   1
  -2   0   5 2571.04 140.025   1
   2   0  -5 2443.13 138.091   3
   1   0  -5 69.8793 8.16782   3
   1   0  -5 67.2112 8.90435   1
  -1   0   5 55.5575 7.31858   3
   1   0  -5 62.1604 6.12465   4
  -1   0   5 55.8183 7.38001   1
  -1   0   5 63.6228 4.67418   2
   1   0  -5 60.0711 4.56958   2
   0   0  -5 191.475 14.6433   1
   0   0  -5 181.186 14.2345   3
   0   0  -5 198.375 11.9024   2
   0   0   5 189.805 15.4446   3
   0   0   5 222.611 15.5400   1
   0   0   5 226.372 12.2957   2
   1   0   5 629.737 34.6786   2
   1   0   5 641.953 36.5403   1
  -1   0  -5 570.038 35.5726   3
  -1   0  -5 588.398 35.8877   1
   1   0   5 576.086 36.0594   3
  -2   0  -5 759.393 43.4882   1
  -2   0  -5 688.597 43.1883   3
   2   0   5 762.717 43.9228   1
  -2   0  -5 786.022 42.1649   2
   2   0   5 681.569 43.9226   3
  -2   0  -5 700.309 41.5449   4
   2   0   5 797.637 42.9213   2
   3   0   5 361.532 22.8559   1
   3   0   5 337.232 24.6025   1
  -3   0  -5 385.118 22.9776   3
   3   0   5 363.515 23.0381   2
   3   0   5 301.530 23.8033   3
  -3   0  -5 385.821 21.8586   2
  -4   0  -5 259.599 17.4747   3
  -4   0  -5 263.856 16.5563   2
   4   0   5 235.531 17.4378   1
   4   0   5 198.594 18.7544   3
   4   0   5 249.277 17.7635   1
   4   0   5 262.331 19.0446   2
   5   0   5 242.059 19.5811   2
   5   0   5 238.317 18.3260   1
  -5   0  -5 191.133 22.9850   3
   5   0   5 240.001 17.9096   1
  -5   0  -5 255.893 17.1533   2
   5   0   5 223.964 19.7680   3
   6   0   5 431.685 29.2506   3
   6   0   5 407.848 29.2566   1
  -6   0  -5 480.386 28.6202   2
  -6   0  -5 446.518 26.9471   3
   6   0   5 399.882 28.4019   1
  -7   0  -5 150.113 13.9558   2
  -7   0  -5 162.051 12.8281   3
   7   0   5 124.099 16.3191   1
   7   0   5 150.060 17.6380   1
   7   0   5 146.659 13.8515   3
  -8   0  -5 2.56396 8.52080   3
   8   0   5 7.90618 8.13953   3
  -8   0  -5 15.5559 10.5699   2
  -9   0  -5 299.981 25.5637   2
  -9   0  -5 302.936 19.6791   3
 -10   0  -5 -6.2615 13.2444   2
 -11   0  -5 60.7423 16.1029   2
 -12  -1   5 29.3074 21.0308   2
 -12   1   5 0.68751 19.6815   2
 -11  -1   5 11.7518 17.3000   2
 -11   1   5 25.6150 18.4417   2
 -10  -1   5 19.8238 15.1809   2
 -10   1   5 39.6598 17.4391   2
  -9  -1   5 40.2762 14.2146   2
  -9   1   5 43.2760 15.4862   2
  -8  -1   5 11.6802 11.5450   2
  -8  -1   5 -3.6625 8.32725   2
  -8   1   5 34.5641 12.8562   2
  -8   1   5 16.7088 11.3249   1
  -7  -1   5 77.5647 9.14700   2
   7  -1  -5 68.0566 11.5450   4
   7  -1  -5 85.5356 7.65458   3
  -7  -1   5 63.7050 11.2657   1
  -7  -1   5 84.7711 12.1457   2
   7  -1  -5 76.7014 14.7763   1
   7   1  -5 53.9436 11.7623   4
  -7   1   5 83.3238 13.2174   1
   7   1  -5 73.0453 5.98682   3
  -7   1   5 95.3771 12.4416   2
   7   1  -5 67.1158 12.3901   1
  -6  -1   5 96.0641 12.9341   1
  -6  -1   5 141.383 15.3443   2
  -6  -1   5 126.367 9.83212   3
   6  -1  -5 97.2636 13.5484   1
  -6  -1   5 117.578 11.8846   2
   6   1  -5 140.637 13.3628   4
  -6   1   5 189.369 23.4785   1
   6   1  -5 114.022 9.50409   3
   6   1  -5 136.662 21.4741   1
  -5  -1   5 120.887 10.4779   2
   5  -1  -5 144.457 16.4810   1
  -5  -1   5 119.616 15.8372   1
  -5  -1   5 124.104 10.7985   3
   5  -1  -5 126.487 11.3991   3
  -5  -1   5 122.415 13.2171   2
   5  -1  -5 123.413 13.4267   4
  -5   1   5 133.127 10.7481   3
  -5   1   5 116.196 15.5179   1
   5   1  -5 127.000 10.7206   3
   5   1  -5 130.060 15.5189   1
  -5   1   5 127.674 13.3204   2
   5   1  -5 115.500 11.9451   4
  -4  -1   5 55.5392 9.41031   1
   4  -1  -5 51.4639 8.36936   1
   4  -1  -5 58.5115 6.78004   3
  -4  -1   5 67.7987 6.78219   2
   4  -1  -5 56.4225 7.86739   4
  -4  -1   5 46.1231 6.34530   3
  -4   1   5 57.2172 6.84318   2
  -4   1   5 56.8186 8.89732   1
  -4   1   5 56.5147 6.51148   3
   4   1  -5 59.5240 8.09132   4
   4   1  -5 56.8630 6.75178   3
   4   1  -5 44.1882 7.24265   1
   3  -1  -5 89.7013 11.2363   1
  -3  -1   5 78.4343 9.61298   3
  -3  -1   5 95.2916 12.1325   1
   3  -1  -5 86.7708 9.15926   3
  -3  -1   5 86.7079 7.11965   2
   3   1  -5 81.4870 9.59393   4
  -3   1   5 84.0607 10.2796   1
   3   1  -5 95.5889 11.1968   1
  -3   1   5 82.8192 8.43224   2
  -3   1   5 82.0670 6.62192   2
   3   1  -5 89.2234 9.74135   3
  -3   1   5 97.1869 9.98093   3
   2  -1  -5 156.051 12.2852   3
  -2  -1   5 175.804 14.9124   1
  -2  -1   5 169.658 10.3373   2
  -2  -1   5 150.863 12.9407   3
   2  -1  -5 171.051 13.9504   1
   2   1  -5 166.520 12.5593   3
   2   1  -5 164.032 12.7238   4
  -2   1   5 167.426 14.9943   1
   2   1  -5 174.612 14.4110   1
  -2   1   5 165.332 13.3190   3
  -2   1   5 160.621 9.83947   2
  -1  -1   5 14.5712 5.39959   3
   1  -1  -5 6.91043 3.96791   1
  -1  -1   5 9.77264 2.34997   2
  -1  -1   5 8.33069 4.25244   1
   1  -1  -5 7.39416 4.41263   3
  -1   1   5 13.9163 5.80269   3
   1   1  -5 7.87551 5.06963   3
   1   1  -5 9.99321 4.84627   1
  -1   1   5 11.1403 1.56152   2
   1   1  -5 8.11098 4.09351   4
  -1   1   5 2.43967 4.95608   1
   0  -1   5 407.189 23.6763   1
   0  -1  -5 355.324 22.7909   1
   0  -1  -5 311.793 22.1870   3
   0  -1   5 331.842 22.8397   3
   0  -1  -5 350.517 20.2501   2
   0  -1   5 391.485 20.8209   2
   0   1   5 376.702 23.7191   1
   0   1  -5 342.133 22.6396   3
   0   1  -5 344.529 21.2413   4
   0   1   5 337.221 23.3228   3
   0   1   5 370.656 20.6433   2
   0   1  -5 372.198 23.1226   1
   1  -1   5 906.094 45.7746   2
  -1  -1  -5 829.412 45.2325   2
  -1  -1  -5 692.703 46.5010   3
  -1  -1  -5 767.996 46.7637   1
   1  -1   5 719.760 46.7765   3
   1  -1   5 872.370 47.6690   1
  -1   1  -5 832.451 45.3650   4
  -1   1  -5 855.142 45.4314   2
  -1   1  -5 755.646 46.6951   3
   1   1   5 828.853 45.7056   2
   1   1   5 751.331 47.1055   3
  -1   1  -5 807.039 47.2125   1
   1   1   5 794.062 47.4040   1
  -2  -1  -5 118.494 11.0425   3
  -2  -1  -5 119.151 9.95637   1
   2  -1   5 130.370 11.3222   1
   2  -1   5 124.250 10.5451   2
  -2  -1  -5 125.177 8.72908   2
   2  -1   5 125.066 12.2452   3
   2   1   5 112.303 10.2382   2
   2   1   5 106.674 12.2944   3
  -2   1  -5 133.873 11.6506   3
  -2   1  -5 127.170 9.12501   2
   2   1   5 115.639 10.9478   1
  -3  -1  -5 243.909 14.7855   2
  -3  -1  -5 218.688 15.8572   3
   3  -1   5 212.426 17.0416   3
   3  -1   5 242.068 16.7634   2
  -3   1  -5 228.411 16.2813   3
   3   1   5 198.472 16.2824   2
   3   1   5 179.563 16.8553   3
   3   1   5 230.942 15.5237   1
  -3   1  -5 241.288 14.9439   2
   3   1   5 226.776 16.0188   1
  -4  -1  -5 7.52344 5.51048   3
   4  -1   5 3.81543 5.16508   1
  -4  -1  -5 2.47478 5.06260   2
   4  -1   5 1.35627 7.50014   2
   4  -1   5 -4.1084 6.84737   3
   4   1   5 1.23901 4.54639   1
   4   1   5 0.28872 7.87558   3
   4   1   5 -3.3852 14.0501   2
  -4   1  -5 0.02495 5.42271   2
   4   1   5 -6.3470 4.44540   1
   5  -1   5 196.623 18.5003   3
   5  -1   5 255.904 18.3670   1
  -5  -1  -5 233.462 16.5315   2
   5  -1   5 216.369 17.7400   1
   5  -1   5 210.815 18.8996   2
   5   1   5 207.838 16.8790   1
  -5   1  -5 252.115 17.5346   2
   5   1   5 218.509 18.8051   3
   5   1   5 224.467 17.2181   1
  -5   1  -5 254.025 16.5827   3
   6  -1   5 275.469 22.1562   1
  -6  -1  -5 310.249 20.9618   2
   6  -1   5 279.071 22.9848   1
   6  -1   5 350.499 25.1874   2
   6  -1   5 306.627 22.6077   3
  -6  -1  -5 296.719 20.1476   3
   6   1   5 273.710 21.8942   1
   6   1   5 297.976 22.2550   3
   6   1   5 272.789 21.0660   1
  -6   1  -5 315.468 20.0453   3
  -6   1  -5 317.510 21.2606   2
   7  -1   5 8.29150 8.94140   1
   7  -1   5 -1.7788 8.14049   1
  -7  -1  -5 4.58989 8.97806   2
   7  -1   5 19.7747 12.9124   2
   7  -1   5 31.1674 9.34280   3
  -7  -1  -5 -4.5960 5.79679   3
  -7   1  -5 18.0553 9.06555   2
  -7   1  -5 3.24901 5.69703   3
   7   1   5 16.7683 8.21446   3
   7   1   5 3.25774 7.91062   1
   7   1   5 3.53120 7.70671   1
   8  -1   5 63.5771 10.4946   3
  -8  -1  -5 74.9482 11.5627   2
  -8   1  -5 57.7474 11.8250   2
  -8   1  -5 50.8415 6.99980   3
  -9  -1  -5 -0.7293 11.4045   2
  -9  -1  -5 4.84578 4.78965   3
  -9   1  -5 -4.8533 12.0747   2
 -10  -1  -5 25.9515 13.3777   2
 -10   1  -5 16.8024 14.0860   2
 -11  -1  -5 -9.4667 14.7924   2
 -11   1  -5 20.9659 15.5155   2
 -11  -2   5 -4.6850 17.3355   2
 -11   2   5 -28.884 17.4259   2
 -10  -2   5 16.6151 14.6943   2
 -10   2   5 9.73716 17.4034   2
  -9  -2   5 359.504 30.6285   2
  -9   2   5 338.741 31.0991   2
  -8  -2   5 -7.0416 11.1457   2
  -8   2   5 -0.7879 12.8726   2
  -8   2   5 -1.1833 10.5338   1
   7  -2  -5 34.1268 12.1336   1
   7  -2  -5 31.0636 10.6101   4
  -7  -2   5 34.9455 10.3178   1
  -7  -2   5 37.2500 7.35173   2
   7  -2  -5 24.8158 5.17108   3
  -7  -2   5 32.3810 9.88992   2
   7   2  -5 31.7165 3.26540   3
   7   2  -5 24.0292 9.32777   1
  -7   2   5 28.8122 10.8431   2
  -7   2   5 15.6861 9.91220   1
   7   2  -5 38.0316 11.8189   4
  -6  -2   5 321.683 26.3451   1
  -6  -2   5 373.221 21.1014   3
   6  -2  -5 354.243 24.2724   4
  -6  -2   5 345.083 22.3091   2
  -6  -2   5 352.841 24.5440   2
   6  -2  -5 307.929 21.8476   3
   6  -2  -5 337.704 27.8430   1
   6   2  -5 376.728 25.8283   4
   6   2  -5 323.400 27.2405   1
  -6   2   5 354.694 24.8234   2
   6   2  -5 344.223 20.6273   3
  -6   2   5 354.959 27.3246   1
  -5  -2   5 6.94992 7.87109   1
  -5  -2   5 7.19785 4.84692   3
   5  -2  -5 -3.6434 4.66373   3
   5  -2  -5 0.65101 6.68121   4
   5  -2  -5 21.2108 9.07450   1
  -5  -2   5 8.32275 4.93345   2
  -5   2   5 11.8840 7.55233   1
  -5   2   5 2.78820 7.14738   2
   5   2  -5 13.6253 7.81932   4
   5   2  -5 4.68486 7.10012   1
  -4  -2   5 106.006 8.82079   2
   4  -2  -5 103.594 13.7825   1
  -4  -2   5 115.953 13.8131   1
   4  -2  -5 81.3594 9.72489   3
  -4  -2   5 86.8730 9.84101   3
   4   2  -5 112.758 10.3874   4
   4   2  -5 100.463 12.6814   1
  -4   2   5 103.453 13.9585   1
   4   2  -5 99.3797 9.99255   3
  -4   2   5 102.994 10.2276   3
  -4   2   5 92.6227 10.5201   2
   3  -2  -5 679.981 45.1474   3
   3  -2  -5 782.473 47.5259   1
  -3  -2   5 818.610 47.9342   1
  -3  -2   5 799.500 44.4950   2
  -3   2   5 864.366 45.6313   3
  -3   2   5 737.175 45.2161   2
   3   2  -5 812.774 45.5646   3
   3   2  -5 767.602 47.6476   1
   3   2  -5 750.430 45.8095   4
  -3   2   5 812.187 48.3419   1
  -2  -2   5 233.288 13.1595   2
  -2  -2   5 187.250 15.0627   3
   2  -2  -5 199.664 14.6389   3
  -2  -2   5 225.090 17.0827   1
  -2   2   5 207.638 12.3551   2
   2   2  -5 228.894 13.2788   2
   2   2  -5 227.099 15.1743   4
  -2   2   5 225.045 17.5946   1
  -2   2   5 189.334 12.9465   2
  -2   2   5 216.656 15.6055   3
   2   2  -5 228.342 15.4781   3
   1  -2  -5 89.4180 8.90750   3
   1  -2  -5 102.138 9.84719   1
  -1  -2   5 106.053 9.65630   3
  -1  -2   5 106.237 7.22986   2
  -1  -2   5 103.561 11.1113   1
   1   2  -5 100.950 7.18749   2
   1   2  -5 105.032 10.5855   3
   1   2  -5 102.658 8.78617   4
  -1   2   5 89.8126 11.3730   1
  -1   2   5 93.7146 10.5337   3
   1   2  -5 99.9834 10.9634   1
   0  -2   5 130.640 11.1772   1
   0  -2  -5 102.338 9.61998   1
   0  -2   5 107.222 10.0462   3
   0  -2  -5 80.2423 8.97074   3
   0  -2   5 109.939 7.62281   2
   0   2  -5 98.9738 8.03428   4
   0   2   5 82.7426 10.9804   1
   0   2  -5 100.845 10.5499   3
   0   2  -5 109.300 7.33661   2
   0   2  -5 111.377 10.5585   1
   0   2   5 105.440 11.8144   3
  -1  -2  -5 2165.70 124.185   1
  -1  -2  -5 2216.21 122.801   2
  -1  -2  -5 1876.81 123.725   3
   1  -2   5 2105.68 124.087   3
  -1   2  -5 2386.39 124.966   1
   1   2   5 2038.69 124.295   3
  -1   2  -5 2397.16 123.111   2
  -1   2  -5 2377.24 124.257   3
   1   2   5 2192.92 124.903   1
   2  -2   5 696.447 41.7692   1
  -2  -2  -5 713.902 39.6645   2
  -2  -2  -5 681.160 40.5759   1
   2  -2   5 680.135 41.2380   3
   2   2   5 620.286 41.3967   3
  -2   2  -5 738.154 39.8986   2
   2   2   5 695.946 41.3643   1
  -2   2  -5 731.379 41.0257   3
   3  -2   5 75.3621 10.4641   1
   3  -2   5 75.3641 9.09718   3
  -3  -2  -5 81.2086 8.13280   3
  -3  -2  -5 94.0918 8.18549   2
   3  -2   5 73.8253 10.5868   1
   3  -2   5 89.9614 8.71178   2
  -3   2  -5 70.5300 9.01902   3
   3   2   5 85.7126 10.0779   3
   3   2   5 84.8171 9.40322   1
   3   2   5 80.3198 8.32520   1
  -3   2  -5 100.557 9.14001   2
  -4  -2  -5 904.723 52.7600   4
   4  -2   5 891.969 55.6203   1
  -4  -2  -5 941.716 53.9597   2
   4  -2   5 958.149 54.7990   2
   4   2   5 960.371 55.4575   3
   4   2   5 927.562 54.6811   1
  -4   2  -5 962.717 55.3717   3
  -4   2  -5 971.580 54.2347   2
   4   2   5 936.846 54.4690   1
  -5  -2  -5 170.221 13.8736   2
   5  -2   5 166.495 16.0111   2
   5  -2   5 146.977 15.2427   3
   5  -2   5 146.378 14.8789   1
  -5  -2  -5 144.705 14.9319   3
  -5   2  -5 189.554 15.1322   2
  -5   2  -5 176.975 13.5361   3
   5   2   5 160.272 16.3110   3
   5   2   5 144.986 13.5247   1
   5   2   5 154.299 13.5691   1
   6  -2   5 235.919 19.2729   3
  -6  -2  -5 217.436 16.7229   3
   6  -2   5 253.685 20.6952   2
  -6  -2  -5 207.890 18.3882   2
   6  -2   5 207.153 19.5140   1
   6   2   5 215.143 17.3547   1
   6   2   5 235.648 19.0188   3
   6   2   5 230.759 18.2998   1
  -6   2  -5 241.145 16.7478   3
  -6   2  -5 268.668 19.3650   2
   7  -2   5 51.8774 14.1509   2
  -7  -2  -5 83.2821 8.40166   3
   7  -2   5 70.7601 10.7641   3
   7  -2   5 90.4200 12.5608   1
  -7  -2  -5 81.9198 10.8109   2
   7  -2   5 64.7368 12.1092   1
   7   2   5 94.4917 10.2240   3
  -7   2  -5 89.7810 11.3803   2
   7   2   5 56.5954 9.92825   1
   7   2   5 79.9772 11.5518   1
  -7   2  -5 78.5680 8.04084   3
  -8  -2  -5 495.091 33.8038   2
   8  -2   5 478.575 32.9996   3
  -8   2  -5 491.485 33.8600   2
  -8   2  -5 522.865 30.3106   3
  -9  -2  -5 178.325 16.9445   2
  -9  -2  -5 162.954 12.4915   3
   9  -2   5 171.518 17.2990   3
  -9   2  -5 182.384 17.8584   2
  -9   2  -5 162.348 14.7460   3
 -10  -2  -5 2.25096 12.7966   2
 -10   2  -5 -15.187 13.4492   2
 -11  -2  -5 -11.419 13.8124   2
 -11   2  -5 -15.849 14.8556   2
 -11  -3   5 -1.9841 16.3335   2
 -11   3   5 12.8559 19.6206   2
 -10  -3   5 451.949 36.6578   2
 -10   3   5 485.024 38.4281   2
  -9   3   5 54.9450 16.3642   2
   8  -3  -5 32.1014 4.57551   3
  -8  -3   5 33.3471 12.0964   2
  -8   3   5 34.0937 13.5846   2
  -8   3   5 19.4243 11.6323   1
  -7  -3   5 474.704 24.7693   3
   7  -3  -5 336.053 28.3645   4
   7  -3  -5 342.920 32.6252   1
   7  -3  -5 368.318 24.9086   3
  -7  -3   5 371.655 30.0642   1
  -7  -3   5 512.891 29.5440   2
  -7  -3   5 452.636 26.3109   2
  -7   3   5 366.295 31.8405   1
   7   3  -5 415.157 23.2432   3
  -7   3   5 390.597 29.6695   2
   7   3  -5 432.749 31.4968   4
   7   3  -5 348.738 31.0649   1
  -6  -3   5 97.5331 9.30502   3
   6  -3  -5 78.6076 13.3646   1
  -6  -3   5 83.7887 11.2087   1
  -6  -3   5 110.997 11.4662   2
   6  -3  -5 92.2616 10.3256   3
   6   3  -5 117.561 12.3895   4
   6   3  -5 114.471 15.8174   1
  -6   3   5 85.4808 11.2753   2
  -6   3   5 140.293 17.8691   1
   6   3  -5 87.0860 8.27052   3
  -5  -3   5 979.321 58.7814   1
  -5  -3   5 1024.98 55.2882   2
  -5  -3   5 853.213 55.0574   3
   5  -3  -5 866.179 55.2103   3
   5  -3  -5 972.115 59.2168   1
   5   3  -5 1027.27 54.8721   3
   5   3  -5 1053.17 57.1992   4
   5   3  -5 981.110 58.9754   1
  -5   3   5 989.476 59.3435   1
  -5   3   5 885.126 55.9448   2
  -4  -3   5 4.29748 5.26932   2
   4  -3  -5 1.12718 6.37422   1
   4  -3  -5 7.25783 4.80115   3
  -4  -3   5 3.01181 5.64671   1
  -4  -3   5 0.02408 4.63270   3
   4   3  -5 14.2281 6.76701   4
   4   3  -5 10.8773 5.61854   1
  -4   3   5 3.08632 5.54749   2
   4   3  -5 6.52784 4.70935   3
  -4   3   5 4.47320 7.21018   1
  -3  -3   5 900.962 49.6282   2
   3  -3  -5 825.442 50.2133   3
  -3  -3   5 760.415 50.2179   3
   3  -3  -5 833.805 52.3692   1
  -3  -3   5 886.983 52.8220   1
  -3   3   5 943.498 50.5178   3
   3   3  -5 942.391 50.4893   3
   3   3  -5 875.267 50.8759   4
   3   3  -5 901.128 53.1146   1
  -3   3   5 845.738 52.9589   1
  -2  -3   5 1146.63 66.9205   1
  -2  -3   5 985.308 64.6559   4
  -2  -3   5 1246.22 64.1836   2
   2  -3  -5 1052.89 64.7574   3
   2  -3  -5 1125.14 66.4459   1
  -2  -3   5 979.985 64.8076   3
  -2   3   5 1027.12 63.6547   2
  -2   3   5 1190.67 67.3971   1
   2   3  -5 1160.39 66.9750   1
   2   3  -5 1208.18 65.0666   4
  -2   3   5 1211.79 65.2099   3
   2   3  -5 1179.39 64.2058   2
   2   3  -5 1276.71 65.3442   3
  -1  -3   5 1953.65 110.634   3
   1  -3  -5 1848.58 111.414   1
   1  -3  -5 1766.32 110.304   3
  -1  -3   5 1944.62 112.005   1
  -1  -3   5 1831.65 110.083   4
  -1  -3   5 2069.86 109.721   2
   1   3  -5 2172.53 110.259   4
   1   3  -5 2119.10 110.854   3
  -1   3   5 1875.43 112.106   1
  -1   3   5 2008.30 110.881   3
   1   3  -5 1910.01 111.967   1
   1   3  -5 1961.61 109.679   2
   0  -3  -5 37.8984 5.38622   1
   0  -3   5 32.3594 5.93339   3
   0  -3   5 30.4836 5.72346   1
   0  -3  -5 35.8312 5.37649   3
   0  -3   5 32.3142 4.27328   4
   0  -3   5 32.4647 4.24546   2
   0   3  -5 50.7302 8.66390   1
   0   3   5 37.5406 6.44642   1
   0   3  -5 46.1015 6.24305   3
   0   3  -5 34.4676 4.11056   4
   0   3  -5 32.0052 3.80396   2
   0   3   5 36.5038 6.86220   3
   1  -3   5 218.067 12.6702   2
  -1  -3  -5 193.023 11.2030   2
  -1  -3  -5 189.823 13.1219   1
   1  -3   5 180.096 13.8721   3
   1  -3   5 205.484 14.9841   1
   1  -3   5 149.688 12.1865   4
  -1  -3  -5 159.479 13.1144   3
   1   3   5 176.333 15.4743   3
   1   3   5 165.026 14.2845   1
  -1   3  -5 203.989 14.5883   1
  -1   3  -5 207.335 12.2596   2
  -1   3  -5 195.826 14.4414   3
  -2  -3  -5 2882.97 159.378   1
  -2  -3  -5 2481.44 159.267   3
  -2  -3  -5 2805.62 158.596   2
   2  -3   5 2719.10 159.649   3
   2  -3   5 2902.55 160.633   1
   2  -3   5 3191.02 159.160   2
   2  -3   5 2959.35 160.795   1
   2   3   5 2994.70 160.089   3
  -2   3  -5 2908.04 158.823   2
  -2   3  -5 2697.16 161.692   3
   2   3   5 2604.16 160.633   1
   3  -3   5 138.685 13.6240   1
   3  -3   5 138.017 13.1888   3
   3  -3   5 131.607 14.3916   2
   3  -3   5 127.105 12.9709   1
  -3  -3  -5 136.956 10.6538   2
   3   3   5 146.558 10.6225   1
   3   3   5 141.097 11.7117   1
  -3   3  -5 138.678 11.5285   2
   3   3   5 154.200 13.5505   3
  -3   3  -5 142.736 11.9046   3
   4  -3   5 164.238 15.2120   2
   4  -3   5 161.837 14.5672   1
  -4  -3  -5 122.073 13.9519   3
   4  -3   5 137.018 14.4877   3
  -4  -3  -5 160.854 12.3463   2
  -4  -3  -5 153.768 11.4930   4
   4  -3   5 146.507 14.6989   1
  -4   3  -5 173.910 13.5524   2
   4   3   5 159.554 12.6819   1
   4   3   5 161.250 12.0069   1
  -4   3  -5 182.111 13.5722   3
   4   3   5 162.007 15.4419   3
   5  -3   5 393.228 28.2620   1
   5  -3   5 423.715 28.8459   1
   5  -3   5 419.458 28.3614   2
  -5  -3  -5 432.245 24.4115   4
  -5  -3  -5 378.258 26.1032   3
  -5  -3  -5 416.406 26.4604   2
   5   3   5 427.804 27.7615   3
  -5   3  -5 411.274 26.7237   2
   5   3   5 401.814 26.3578   1
  -5   3  -5 453.287 26.3553   3
   5   3   5 439.978 26.4070   1
   6  -3   5 137.679 15.0888   3
   6  -3   5 125.971 13.8695   2
  -6  -3  -5 129.225 14.1773   2
   6  -3   5 137.589 16.0797   1
  -6  -3  -5 109.805 12.3336   3
   6   3   5 104.429 12.6238   1
   6   3   5 113.377 13.2441   1
   6   3   5 137.636 15.0189   3
  -6   3  -5 155.902 12.7239   3
  -6   3  -5 160.431 14.9522   2
  -7  -3  -5 17.4742 8.93435   2
   7  -3   5 28.6216 9.21190   3
  -7  -3  -5 17.6924 6.50174   3
  -7   3  -5 14.9781 6.30416   3
   7   3   5 20.0194 9.05983   1
  -7   3  -5 20.3948 9.89600   2
   7   3   5 15.9225 8.67987   1
  -8  -3  -5 82.0312 9.74001   3
  -8  -3  -5 84.2568 12.6895   2
  -8   3  -5 121.914 11.4730   3
  -8   3  -5 85.5242 13.4695   2
  -9  -3  -5 20.1743 11.7542   2
   9  -3   5 42.8137 10.2991   3
  -9   3  -5 16.2509 8.54089   3
  -9   3  -5 37.0481 12.9539   2
 -10  -3  -5 14.4485 12.8030   2
 -10   3  -5 -19.314 13.8097   2
 -11  -3  -5 14.9548 15.2203   2
 -11   3  -5 10.3464 16.0239   2
 -11  -4   5 -5.2702 15.8830   2
 -11   4   5 -27.348 19.1951   2
 -10  -4   5 130.433 18.3261   2
 -10   4   5 104.279 20.0120   2
  -9  -4   5 236.178 20.7050   2
  -9   4   5 187.902 21.5449   2
   8  -4  -5 426.612 25.4715   3
   8  -4  -5 405.927 24.4935   3
  -8  -4   5 421.579 31.2749   2
  -8   4   5 408.068 32.3680   2
  -8   4   5 420.663 40.1629   1
   7  -4  -5 1186.79 65.2755   3
   7  -4  -5 1063.02 65.7996   3
  -7  -4   5 1158.46 66.6679   2
   7  -4  -5 1166.92 72.4184   1
  -7  -4   5 1149.69 70.0949   1
  -7   4   5 1052.87 74.1835   1
   7   4  -5 1209.33 64.7876   3
  -7   4   5 1143.63 68.4330   2
   7   4  -5 1203.43 71.6285   1
  -6  -4   5 17.0560 6.93493   2
  -6  -4   5 7.63761 8.98853   1
   6  -4  -5 17.9580 9.76820   1
  -6  -4   5 14.0131 4.85778   3
   6  -4  -5 10.0199 5.61238   3
   6   4  -5 23.4437 9.50091   4
   6   4  -5 2.01829 8.61766   1
   6   4  -5 13.5932 3.96495   3
  -6   4   5 10.6064 8.86072   2
  -6   4   5 33.6371 10.6992   1
  -5  -4   5 1355.20 73.0050   2
  -5  -4   5 1316.80 76.2127   1
   5  -4  -5 1257.00 76.7409   1
   5  -4  -5 1166.10 72.8457   3
   5   4  -5 1381.08 77.0500   1
   5   4  -5 1322.09 72.4655   3
  -5   4   5 1122.51 73.3855   2
   5   4  -5 1296.41 74.4211   4
  -5   4   5 1294.97 77.0222   1
  -4  -4   5 -1.6172 4.88399   3
   4  -4  -5 1.37153 7.21403   1
  -4  -4   5 0.42467 6.31559   4
   4  -4  -5 -2.1440 4.91762   3
  -4  -4   5 5.51290 4.68187   2
  -4  -4   5 7.67615 6.64594   1
   4   4  -5 6.54525 4.59633   3
   4   4  -5 7.03977 6.90170   4
   4   4  -5 3.44591 7.15514   1
  -4   4   5 9.38549 5.59214   2
  -4   4   5 3.01669 6.70975   1
   3  -4  -5 1240.15 73.9699   1
   3  -4  -5 1199.75 71.7126   3
  -3  -4   5 1170.47 71.7676   3
  -3  -4   5 1173.55 71.9538   4
  -3  -4   5 1206.13 74.0188   1
  -3  -4   5 1293.40 71.3720   2
  -3   4   5 1301.85 74.6333   1
   3   4  -5 1319.21 74.6810   1
   3   4  -5 1325.74 71.8342   3
   3   4  -5 1367.89 72.3701   4
   2  -4  -5 55.4211 7.86435   1
   2  -4  -5 48.1778 6.31290   3
  -2  -4   5 56.9968 5.19815   2
  -2  -4   5 59.5836 8.11378   1
  -2  -4   5 40.9237 6.24339   3
  -2  -4   5 51.9659 6.37737   4
   2   4  -5 47.4117 6.46401   4
  -2   4   5 62.5120 8.83185   1
   2   4  -5 54.2773 5.28381   2
  -2   4   5 45.3080 7.01567   3
   2   4  -5 53.0075 6.46583   3
  -2   4   5 42.9892 3.85909   2
   2   4  -5 44.2947 7.11231   1
  -1  -4   5 1109.50 61.7904   4
  -1  -4   5 1057.43 62.1694   3
  -1  -4   5 1142.71 61.4307   2
   1  -4  -5 957.695 62.0655   3
   1  -4  -5 1002.79 62.9499   1
   1   4  -5 1075.27 61.3557   2
  -1   4   5 1077.88 63.9394   1
  -1   4   5 1102.46 62.5347   3
   1   4  -5 1057.85 63.8115   1
   1   4  -5 1231.01 61.9108   4
   1   4  -5 1118.96 62.3538   3
   0  -4  -5 2668.48 167.369   3
   0  -4   5 2954.71 168.413   1
   0  -4  -5 2834.34 167.574   1
   0  -4   5 3038.84 166.506   4
   0  -4   5 3169.93 166.469   2
   0  -4   5 2873.36 167.119   3
   0   4  -5 3081.93 166.394   2
   0   4   5 3102.38 167.530   3
   0   4  -5 3150.51 167.520   3
   0   4   5 2910.85 168.274   1
   0   4  -5 2881.57 168.374   1
  -1  -4  -5 211.230 13.6096   2
  -1  -4  -5 220.748 15.2331   1
   1  -4   5 219.810 16.4205   3
   1  -4   5 235.495 17.3308   1
   1  -4   5 263.230 15.1992   2
   1  -4   5 232.936 14.2532   4
  -1  -4  -5 223.913 13.4789   2
   1   4   5 231.164 16.6963   1
   1   4   5 230.915 16.9507   3
  -1   4  -5 242.096 17.2323   1
  -1   4  -5 245.237 14.7861   2
   2  -4   5 6.43023 8.46708   1
   2  -4   5 -4.4369 8.82193   1
  -2  -4  -5 3.00083 3.02339   2
   2  -4   5 5.46946 5.03559   2
   2  -4   5 4.35874 2.52903   4
   2  -4   5 -1.6737 5.49436   3
  -2  -4  -5 0.46632 2.97385   1
  -2  -4  -5 1.22462 5.74303   3
   2   4   5 -3.8585 6.83155   3
  -2   4  -5 1.12556 4.52606   2
   2   4   5 5.57065 4.88864   1
  -2   4  -5 6.97664 5.70464   3
   3  -4   5 858.935 54.5442   3
  -3  -4  -5 911.874 53.4202   2
   3  -4   5 917.440 55.8140   1
   3  -4   5 914.260 52.5836   4
   3  -4   5 934.150 55.8667   1
  -3  -4  -5 795.878 53.8633   3
   3  -4   5 1035.62 54.3733   2
   3   4   5 918.886 54.3970   1
   3   4   5 1013.25 55.1652   3
  -3   4  -5 1003.83 53.9722   2
  -3   4  -5 974.011 54.3173   3
   3   4   5 979.489 53.6452   1
  -4  -4  -5 72.0286 7.08758   2
   4  -4   5 46.6960 7.89536   1
   4  -4   5 66.8114 8.97000   2
   4  -4   5 58.3721 8.32762   3
  -4  -4  -5 59.6243 7.20867   3
   4  -4   5 64.3397 9.88542   1
   4   4   5 75.6261 8.70172   1
   4   4   5 69.9215 9.75219   3
  -4   4  -5 61.4276 7.96059   2
  -4   4  -5 67.3660 7.75750   3
   4   4   5 68.9632 7.59486   1
  -5  -4  -5 195.468 12.7896   4
  -5  -4  -5 193.132 15.3366   2
  -5  -4  -5 181.839 14.9136   3
   5  -4   5 180.607 18.0238   1
   5  -4   5 174.390 18.6173   1
   5  -4   5 210.011 17.7444   2
   5  -4   5 196.653 16.8342   3
  -5   4  -5 201.106 16.1834   2
  -5   4  -5 197.497 15.4562   3
   5   4   5 204.094 17.3548   3
   5   4   5 204.205 14.5171   1
   5   4   5 202.926 14.7213   1
   6  -4   5 182.323 19.3792   1
   6  -4   5 177.056 20.3432   1
  -6  -4  -5 202.510 15.5646   3
  -6  -4  -5 201.118 16.0998   2
   6  -4   5 166.676 17.0009   3
  -6  -4  -5 191.959 13.2884   4
   6  -4   5 213.483 20.0560   2
   6   4   5 180.152 15.2449   1
  -6   4  -5 226.220 15.8128   3
  -6   4  -5 218.118 17.6760   2
  -7  -4  -5 188.499 18.2697   2
   7  -4   5 163.978 18.0503   3
  -7  -4  -5 211.461 15.6085   3
  -7   4  -5 215.158 15.6383   3
  -7   4  -5 212.495 20.5431   2
   7   4   5 171.787 17.3593   1
  -8  -4  -5 6.25696 10.1618   2
  -8  -4  -5 16.4233 6.33764   3
   8  -4   5 25.5204 9.37855   3
  -8   4  -5 6.77562 6.24518   3
   8   4   5 24.6714 15.9037   1
   9  -4   5 1.08564 9.59538   3
  -9  -4  -5 4.92501 11.1528   2
  -9   4  -5 9.40683 12.7590   2
 -10  -4  -5 320.812 30.3095   2
 -10   4  -5 390.010 32.4706   2
 -11  -4  -5 14.1711 14.6694   2
 -11   4  -5 11.7058 16.0748   2
 -11  -5   5 118.307 19.0398   2
 -11   5   5 82.8447 20.6282   2
 -10  -5   5 41.9230 15.1914   2
 -10   5   5 40.4343 17.3585   2
  -9  -5   5 -7.3359 12.4935   2
  -9   5   5 2.52877 14.5842   2
   8  -5  -5 22.0791 6.43691   3
  -8  -5   5 21.6628 11.8954   2
   8  -5  -5 34.4852 5.15973   3
  -8   5   5 28.2946 13.6922   2
  -8   5   5 25.9746 23.2104   1
  -7  -5   5 28.8002 9.18252   1
   7  -5  -5 31.9144 6.77106   3
  -7  -5   5 23.9542 8.15457   2
   7  -5  -5 24.8277 18.6263   1
   7  -5  -5 21.9872 5.29826   3
  -7  -5   5 24.1872 4.75195   3
  -7   5   5 21.2564 12.8507   1
  -7   5   5 38.9243 11.5109   2
  -6  -5   5 71.2783 8.76154   2
  -6  -5   5 65.8253 10.8902   1
  -6  -5   5 55.2106 6.69537   3
   6  -5  -5 62.2899 11.3583   1
   6   5  -5 76.2485 11.4130   4
  -6   5   5 119.100 20.4864   1
  -6   5   5 43.1376 10.3979   2
   6   5  -5 68.2220 21.7817   1
   6   5  -5 74.8883 6.24706   3
  -5  -5   5 21.0479 7.68416   1
   5  -5  -5 12.3559 8.03575   1
  -5  -5   5 18.5176 5.40137   3
   5  -5  -5 17.8221 5.87333   3
  -5  -5   5 13.7422 7.42101   4
  -5  -5   5 22.2505 6.11898   2
   5   5  -5 25.7147 8.61120   4
   5   5  -5 11.8174 9.37747   1
  -5   5   5 27.6608 10.3077   1
  -5   5   5 13.6063 7.57237   2
   5   5  -5 20.5132 4.91654   3
  -4  -5   5 70.4392 8.62794   4
  -4  -5   5 77.5678 7.80886   3
   4  -5  -5 65.7670 9.53904   1
   4  -5  -5 60.2353 7.55347   3
  -4  -5   5 95.1217 11.0871   1
  -4  -5   5 78.4897 7.35500   2
  -4   5   5 45.3197 13.2371   1
   4   5  -5 81.6054 9.35109   4
   4   5  -5 80.2505 8.99891   3
  -4   5   5 64.5043 7.49557   2
   4   5  -5 106.517 12.1879   1
  -3  -5   5 12.4435 4.66662   2
  -3  -5   5 6.45243 5.99312   4
   3  -5  -5 4.25433 5.66600   1
  -3  -5   5 12.5743 5.36544   3
   3  -5  -5 9.42046 5.13125   3
  -3  -5   5 4.78520 5.61957   1
   3   5  -5 9.03414 4.51336   2
   3   5  -5 18.0285 5.26278   3
   3   5  -5 9.47535 6.33824   1
  -3   5   5 11.0141 3.87494   2
   3   5  -5 17.5320 6.16129   4
  -2  -5   5 -1.7701 4.87319   4
  -2  -5   5 -2.7461 5.09390   3
   2  -5  -5 3.08553 5.01092   1
   2  -5  -5 2.49921 4.91777   3
  -2  -5   5 1.14172 5.60565   1
  -2  -5   5 0.78393 3.92130   2
   2   5  -5 0.18208 3.87675   2
   2   5  -5 -0.0104 5.03343   1
  -2   5   5 -3.6971 6.77836   1
   2   5  -5 -0.6081 5.87436   3
  -2   5   5 1.15963 1.76205   2
  -1  -5   5 1741.51 97.8315   3
  -1  -5   5 1722.59 99.4019   1
  -1  -5   5 1690.51 97.3085   4
  -1  -5   5 1700.92 97.0241   2
   1  -5  -5 1658.67 97.6628   3
   1  -5  -5 1736.37 98.7668   1
   1   5  -5 1825.71 97.1088   2
   1   5  -5 1714.26 99.4840   1
   0  -5   5 27.8025 4.79738   2
   0  -5   5 16.7346 5.63023   1
   0  -5   5 17.7226 4.29943   4
   0  -5  -5 12.5094 4.21301   1
   0  -5   5 13.1895 5.77628   3
   0  -5  -5 19.1653 1.71439   2
   0  -5  -5 18.4303 5.12563   3
   0   5   5 19.7454 7.12215   3
   0   5  -5 20.8092 4.44377   2
   0   5  -5 29.1161 6.08967   3
   0   5   5 6.06745 10.1565   1
   0   5  -5 24.3886 6.41193   1
   1  -5   5 153.268 13.9381   3
  -1  -5  -5 168.336 10.5811   2
   1  -5   5 149.738 12.0479   2
  -1  -5  -5 178.348 12.2645   1
  -1  -5  -5 173.224 10.3137   2
   1  -5   5 175.441 14.7781   1
   1  -5   5 173.708 11.3597   4
  -1  -5  -5 164.306 13.1299   3
  -1   5  -5 183.383 13.8888   3
   1   5   5 170.243 14.4153   3
   1   5   5 184.176 13.6994   1
  -1   5  -5 173.190 11.8660   2
   2  -5   5 595.488 37.4282   3
  -2  -5  -5 605.658 35.9590   2
  -2  -5  -5 620.013 36.4099   1
  -2  -5  -5 610.007 36.0516   2
  -2  -5  -5 594.286 37.1913   3
   2  -5   5 649.299 39.2569   1
   2  -5   5 681.020 37.0577   2
   2  -5   5 609.092 35.9135   4
   2  -5   5 617.341 38.9992   1
  -2   5  -5 628.456 36.6440   2
   2   5   5 670.565 38.4398   3
  -2   5  -5 658.747 37.4452   3
   2   5   5 662.770 37.4347   1
   3  -5   5 795.874 45.3484   4
  -3  -5  -5 753.723 46.7373   3
   3  -5   5 762.381 47.3295   3
   3  -5   5 868.294 47.1636   2
   3  -5   5 787.900 48.8507   1
   3  -5   5 757.062 48.8090   1
  -3  -5  -5 782.086 46.0329   2
  -3   5  -5 778.652 46.5352   2
   3   5   5 845.190 47.7755   3
   3   5   5 853.235 45.8811   1
  -3   5  -5 842.106 47.2376   3
   3   5   5 810.210 46.5559   1
  -4  -5  -5 810.349 47.4648   2
   4  -5   5 756.996 48.4212   3
  -4  -5  -5 745.693 47.7709   3
   4  -5   5 826.684 50.4399   1
   4  -5   5 828.813 50.3475   1
   4  -5   5 835.220 48.7517   2
  -4   5  -5 891.314 48.2406   3
  -4   5  -5 871.160 48.2646   2
   4   5   5 841.052 47.1263   1
   4   5   5 805.393 47.3247   1
  -5  -5  -5 59.0681 7.97908   3
   5  -5   5 59.4304 10.0934   1
   5  -5   5 75.0467 11.7981   1
  -5  -5  -5 65.5115 8.03962   2
   5  -5   5 71.4081 10.4439   2
   5  -5   5 65.7770 9.49524   3
  -5  -5  -5 70.5646 7.62157   4
  -5   5  -5 77.1646 9.51306   2
  -5   5  -5 83.1702 8.76900   3
  -6  -5  -5 447.843 28.4401   2
  -6  -5  -5 405.431 27.7059   3
   6  -5   5 402.578 32.2769   1
   6  -5   5 386.272 28.9194   3
   6  -5   5 422.715 30.2777   2
   6  -5   5 417.051 31.7857   1
  -6  -5  -5 447.768 26.4384   4
   6   5   5 473.261 27.4929   1
  -6   5  -5 508.327 30.3530   2
  -6   5  -5 477.110 28.0717   3
   6   5   5 454.821 27.0744   1
  -7  -5  -5 2.70043 8.85281   2
   7  -5   5 1.78104 8.33828   3
  -7  -5  -5 -1.8996 6.44244   3
  -7  -5  -5 -4.5844 4.84955   4
   7   5   5 -2.1109 6.85837   1
  -7   5  -5 -0.9955 6.57099   3
   7   5   5 4.39766 7.36476   1
  -7   5  -5 -9.2293 10.4049   2
  -8  -5  -5 2.57323 9.65338   2
  -8  -5  -5 8.93697 6.46282   3
   8  -5   5 6.91992 9.11703   3
  -8   5  -5 -1.3150 6.60850   3
   8   5   5 2.66964 9.49806   1
  -8   5  -5 2.48404 12.0949   2
   9  -5   5 -4.8170 9.36342   3
  -9  -5  -5 -3.2530 11.2586   2
  -9   5  -5 -15.475 12.9390   2
 -10  -5  -5 149.126 17.4745   2
 -10   5  -5 155.568 18.9632   2
 -11  -5  -5 34.9653 14.9295   2
 -11   5  -5 45.2199 17.6940   2
 -11  -6   5 17.7054 17.0873   2
 -11   6   5 39.3131 19.8970   2
 -10  -6   5 -3.8343 15.0932   2
 -10   6   5 9.64464 17.7936   2
  -9  -6   5 44.5421 14.4002   2
   9  -6  -5 49.0002 5.72453   3
  -9   6   5 29.8444 15.7297   2
   8  -6  -5 10.9556 5.38938   3
  -8   6   5 20.1604 15.2022   1
  -8   6   5 12.0281 13.1139   2
   7  -6  -5 8.14382 6.35845   3
   7  -6  -5 9.13334 5.48672   3
   7  -6  -5 2.67836 11.2786   1
  -7  -6   5 10.7011 4.75641   3
  -7   6   5 -1.8467 10.8521   2
  -7   6   5 5.35451 15.7448   1
  -6  -6   5 -1.2613 5.02203   3
  -6  -6   5 -1.8848 7.09549   2
  -6  -6   5 8.41061 8.56742   1
   6  -6  -5 7.01241 6.17558   3
  -6  -6   5 -7.3622 8.11049   4
  -6   6   5 -2.7928 9.20037   2
   6   6  -5 1.95971 4.29179   3
  -6   6   5 -10.041 9.41303   1
  -5  -6   5 14.9999 8.06379   1
  -5  -6   5 2.06434 6.08389   2
  -5  -6   5 -5.1427 7.31620   4
   5  -6  -5 0.20386 5.74307   3
   5  -6  -5 -2.4112 8.49273   1
  -5  -6   5 3.06906 5.41513   3
  -5   6   5 -0.7370 7.81221   1
   5   6  -5 12.7800 4.91322   3
  -5   6   5 11.1890 7.39108   2
   5   6  -5 8.10483 12.0388   1
  -4  -6   5 69.2812 7.43165   3
   4  -6  -5 75.2394 18.3924   1
   4  -6  -5 67.5573 7.79096   3
  -4  -6   5 77.4106 7.35988   2
  -4  -6   5 64.8669 8.78220   4
  -4  -6   5 47.8105 8.50176   1
   4  -6  -5 68.4675 7.48749   2
  -4   6   5 57.5192 7.00282   2
   4   6  -5 52.9574 9.96570   1
  -4   6   5 62.3295 10.2100   1
  -3  -6   5 99.5670 11.1225   3
  -3  -6   5 116.291 11.1368   4
   3  -6  -5 118.302 8.28271   2
  -3  -6   5 104.464 9.87153   2
  -3  -6   5 101.835 13.3279   1
   3  -6  -5 110.610 11.2203   3
   3  -6  -5 114.401 14.4031   1
  -3   6   5 124.481 14.9995   1
   3   6  -5 112.736 10.7595   3
   3   6  -5 119.779 10.0332   2
   3   6  -5 118.377 14.1582   1
  -3   6   5 107.709 8.58797   2
  -2  -6   5 11.7742 5.54390   3
   2  -6  -5 14.4217 6.06284   1
  -2  -6   5 6.61585 4.60717   2
  -2  -6   5 7.98782 5.54204   4
   2  -6  -5 12.6739 2.40865   2
  -2  -6   5 10.2589 5.21539   1
   2  -6  -5 9.24061 5.24274   3
   2   6  -5 12.2705 6.63810   1
  -2   6   5 9.72559 2.33818   2
  -2   6   5 17.5799 6.59672   1
   2   6  -5 17.9968 4.80900   2
   2   6  -5 9.15892 5.25462   3
  -1  -6   5 209.214 15.0191   3
  -1  -6   5 194.993 17.1070   1
   1  -6  -5 203.058 12.0580   2
  -1  -6   5 208.785 14.0564   2
   1  -6  -5 214.591 15.6123   1
  -1  -6   5 202.224 14.1281   4
   1  -6  -5 194.585 14.5852   3
   1   6  -5 222.686 17.3470   1
  -1   6   5 194.531 11.9892   2
   1   6  -5 217.055 14.1012   2
   1   6  -5 224.758 15.5265   3
  -1   6   5 214.051 16.4978   1
   0  -6  -5 198.885 14.4352   3
   0  -6  -5 199.493 11.8669   2
   0  -6   5 190.631 13.6924   4
   0  -6   5 208.332 13.7008   2
   0  -6   5 213.986 16.7243   1
   0  -6  -5 201.503 14.5176   1
   0  -6   5 213.647 15.0696   3
   0   6  -5 205.487 16.4700   1
   0   6  -5 203.729 15.0421   3
   0   6  -5 199.969 13.5824   2
   0   6   5 210.066 15.5362   1
  -1  -6  -5 494.577 30.4258   3
   1  -6   5 516.993 29.5308   4
   1  -6   5 488.212 30.8057   3
  -1  -6  -5 506.776 28.8377   2
   1  -6   5 496.246 29.9907   2
  -1  -6  -5 467.386 30.9202   1
  -1   6  -5 530.623 30.0827   2
  -1   6  -5 534.554 30.9190   3
   1   6   5 529.651 30.8843   1
   2  -6   5 154.187 12.5337   2
   2  -6   5 156.836 13.4432   3
  -2  -6  -5 158.259 10.8906   2
  -2  -6  -5 152.240 12.4643   3
  -2  -6  -5 163.072 10.6081   2
   2  -6   5 160.774 10.7642   4
   2  -6   5 143.055 15.0505   1
  -2   6  -5 162.024 13.8135   3
   2   6   5 165.932 11.6452   1
  -2   6  -5 160.433 12.2824   2
   3  -6   5 195.611 16.1806   3
   3  -6   5 290.109 23.5015   1
   3  -6   5 206.439 18.3746   1
  -3  -6  -5 211.125 14.2744   2
   3  -6   5 200.352 15.9489   2
  -3  -6  -5 217.207 14.3593   2
  -3  -6  -5 193.406 15.6319   3
  -3   6  -5 239.484 16.3612   2
  -3   6  -5 221.227 16.6425   3
   4  -6   5 18.6193 7.86922   2
   4  -6   5 26.6391 8.59334   1
   4  -6   5 49.7218 14.1500   1
  -4  -6  -5 25.7133 6.12549   3
  -4  -6  -5 13.9222 5.17406   2
   4  -6   5 18.6880 7.22092   3
  -4  -6  -5 12.6447 5.45812   2
  -4   6  -5 34.9822 7.16579   3
  -4   6  -5 26.7355 7.52160   2
   5  -6   5 111.158 12.1422   2
  -5  -6  -5 101.632 10.1245   3
   5  -6   5 96.0376 12.6462   1
  -5  -6  -5 130.277 9.87649   4
   5  -6   5 97.7473 10.8748   3
  -5  -6  -5 118.261 11.9195   2
   5  -6   5 120.418 16.5187   1
  -5   6  -5 134.227 12.8292   3
  -5   6  -5 118.044 11.9546   2
   6  -6   5 -14.244 11.9488   2
   6  -6   5 12.3937 8.10484   3
  -6  -6  -5 6.00462 6.27568   3
  -6  -6  -5 11.1504 4.95047   4
   6  -6   5 5.62010 9.18664   1
  -6  -6  -5 11.4647 7.41134   2
   6  -6   5 22.3770 10.8234   1
  -6   6  -5 20.4118 7.24423   3
  -6   6  -5 16.4652 9.67835   2
  -7  -6  -5 55.9276 8.17617   3
   7  -6   5 61.6150 5.75100   4
   7  -6   5 40.9008 9.72744   3
   7  -6   5 30.3918 13.7307   1
  -7  -6  -5 53.7504 6.95716   4
  -7  -6  -5 55.7088 10.0496   2
  -7   6  -5 70.7578 8.64256   3
  -7   6  -5 59.0678 12.2450   2
  -8  -6  -5 229.712 21.8362   2
  -8  -6  -5 213.983 17.7597   3
   8  -6   5 205.288 20.3582   3
  -8   6  -5 265.169 23.2738   2
  -8   6  -5 246.335 17.9059   3
  -9  -6  -5 5.86110 11.4548   2
   9  -6   5 19.5581 9.61696   3
  -9   6  -5 0.97658 13.5433   2
 -10  -6  -5 14.2319 12.7811   2
 -10   6  -5 -4.3151 15.0672   2
 -11  -6  -5 29.1240 14.7759   2
 -11   6  -5 29.5449 17.7891   2
 -11  -7   5 68.0463 18.0116   2
 -11   7   5 92.1521 21.9840   2
 -10  -7   5 53.1862 16.0613   2
 -10   7   5 23.9681 17.3383   2
   9  -7  -5 164.976 12.7920   3
  -9  -7   5 178.761 18.4650   2
  -9   7   5 115.561 19.0729   2
   8  -7  -5 46.3338 7.07916   3
   8  -7  -5 55.6593 8.18816   3
  -8   7   5 47.0061 13.9687   2
   7  -7  -5 8.37860 6.09343   3
   7  -7  -5 16.6261 14.3731   1
  -7  -7   5 4.04443 9.14101   4
   7  -7  -5 -0.7626 6.89364   3
  -7  -7   5 1.88579 4.89469   3
  -7   7   5 1.91142 11.2139   2
  -7   7   5 0.98330 12.8847   1
  -6  -7   5 70.0134 10.9751   4
  -6  -7   5 81.0259 12.3212   1
  -6  -7   5 89.9640 10.1204   2
   6  -7  -5 82.6354 15.2234   1
   6  -7  -5 87.5521 8.54043   3
   6  -7  -5 60.5903 8.68552   3
  -6  -7   5 65.6865 7.79036   3
  -6   7   5 71.8236 11.1953   2
   6   7  -5 114.695 14.7810   1
  -6   7   5 92.0148 15.2681   1
   5  -7  -5 168.654 21.0036   1
  -5  -7   5 208.687 18.8056   1
   5  -7  -5 173.995 15.0590   2
  -5  -7   5 192.650 15.3000   2
  -5  -7   5 199.613 14.8156   3
  -5  -7   5 172.087 16.1173   4
   5  -7  -5 202.237 15.6946   3
  -5   7   5 200.450 21.1053   1
   5   7  -5 189.121 14.1497   3
  -5   7   5 188.415 16.3584   2
  -4  -7   5 698.525 46.0382   1
   4  -7  -5 715.798 42.2330   2
   4  -7  -5 717.414 46.5852   1
  -4  -7   5 702.845 43.8266   4
  -4  -7   5 766.104 43.0215   2
   4  -7  -5 740.448 43.3971   3
  -4  -7   5 745.212 43.2101   3
  -4   7   5 701.477 42.5566   2
  -4   7   5 785.329 47.4560   1
   4   7  -5 769.545 43.0275   3
   3  -7  -5 746.354 44.0010   2
  -3  -7   5 816.638 45.0050   2
   3  -7  -5 803.853 47.9351   1
   3  -7  -5 757.441 45.4359   3
  -3  -7   5 759.306 47.8205   1
  -3  -7   5 761.999 45.2906   4
  -3  -7   5 769.090 45.3741   3
   3   7  -5 817.190 44.9225   2
  -3   7   5 770.427 48.3924   1
  -3   7   5 721.785 43.9934   2
   3   7  -5 775.254 48.4066   1
   3   7  -5 788.502 45.2375   3
   2  -7  -5 79.6759 9.61180   3
  -2  -7   5 85.3693 8.40327   4
   2  -7  -5 77.2685 6.47547   2
  -2  -7   5 75.7958 9.70095   1
  -2  -7   5 78.7528 7.68929   2
   2  -7  -5 84.1808 11.7051   1
  -2  -7   5 66.1922 8.14625   3
   2   7  -5 84.1935 8.96847   2
   2   7  -5 83.6817 8.45027   3
   2   7  -5 90.8851 10.7701   1
  -2   7   5 89.7394 12.4862   1
  -1  -7   5 267.176 20.2833   1
  -1  -7   5 259.814 17.4846   4
  -1  -7   5 266.617 17.0749   2
   1  -7  -5 262.608 15.4305   2
   1  -7  -5 279.722 18.8047   1
  -1  -7   5 259.177 18.0949   3
   1  -7  -5 270.007 17.8394   3
  -1   7   5 265.285 19.5721   1
   1   7  -5 252.886 20.1544   1
   1   7  -5 271.506 18.1142   3
   1   7  -5 288.372 17.5277   2
  -1   7   5 237.546 15.3605   2
   0  -7   5 2.68163 5.31180   1
   0  -7   5 5.09743 6.03175   3
   0  -7   5 6.97479 5.10038   2
   0  -7  -5 7.16180 5.39207   3
   0  -7   5 0.77618 4.46005   4
   0  -7  -5 -0.0486 3.93252   1
   0  -7  -5 4.64205 2.15919   2
   0   7   5 7.30801 5.19072   1
   0   7  -5 1.18705 4.84676   2
   0   7  -5 16.6941 6.93152   1
   0   7  -5 -1.3499 5.85364   3
   1  -7   5 1036.66 64.8951   1
  -1  -7  -5 1131.75 62.9522   1
   1  -7   5 1088.15 63.3944   3
   1  -7   5 1110.45 65.3171   1
   1  -7   5 1108.09 62.7311   2
  -1  -7  -5 1104.18 61.7681   2
   1  -7   5 1078.38 62.3177   4
  -1  -7  -5 1085.73 63.1034   3
  -1   7  -5 1087.26 62.6300   2
  -1   7  -5 1140.94 63.3908   3
   1   7   5 1101.00 63.2743   1
   2  -7   5 2.19390 6.52359   3
   2  -7   5 10.6790 6.08801   2
   2  -7   5 10.0253 6.51769   1
  -2  -7  -5 7.73967 5.52190   3
  -2  -7  -5 3.96514 2.75461   1
  -2  -7  -5 4.34656 3.33617   2
   2  -7   5 1.95565 6.89717   1
   2   7   5 7.94254 3.35757   1
  -2   7  -5 15.0201 6.62100   3
  -2   7  -5 3.93929 5.72953   2
   3  -7   5 49.1165 8.39716   2
   3  -7   5 32.2202 8.39763   1
  -3  -7  -5 59.3211 6.23886   2
   3  -7   5 47.8204 9.86510   1
  -3  -7  -5 58.4142 7.35045   3
   3  -7   5 57.5591 8.43459   3
  -3  -7  -5 53.9799 6.01308   2
  -3   7  -5 71.5420 8.51272   3
  -3   7  -5 71.5435 8.23103   2
   4  -7   5 513.780 32.7255   3
   4  -7   5 522.609 35.5369   1
   4  -7   5 504.820 33.3153   2
  -4  -7  -5 550.252 32.3507   3
  -4  -7  -5 509.081 31.6063   2
   4  -7   5 485.245 35.5231   1
  -4  -7  -5 534.706 31.7444   2
  -4   7  -5 560.130 32.5978   3
  -4   7  -5 569.366 32.8371   2
   5  -7   5 -1.7233 9.06431   2
   5  -7   5 5.62868 10.0363   1
  -5  -7  -5 4.84819 6.03638   3
  -5  -7  -5 9.56588 6.19424   2
  -5  -7  -5 6.82716 4.95459   4
  -5  -7  -5 5.61738 6.21237   2
   5  -7   5 4.06338 8.90923   1
   5  -7   5 1.31570 7.45068   3
  -5   7  -5 -1.3944 8.39326   2
  -5   7  -5 10.5520 7.24203   3
   6  -7   5 6.19094 10.3104   1
  -6  -7  -5 4.19431 6.29845   3
   6  -7   5 7.76025 8.57594   3
   6  -7   5 -12.589 9.60553   1
  -6  -7  -5 -0.4527 5.26579   4
  -6  -7  -5 5.79023 7.20670   2
  -6  -7  -5 -3.5801 7.25488   2
  -6   7  -5 -4.2490 6.78270   3
  -6   7  -5 1.80019 9.97536   2
   7  -7   5 77.3243 15.1563   1
   7  -7   5 122.720 12.2829   3
  -7  -7  -5 94.1548 10.2475   3
   7  -7   5 98.5119 8.58782   4
  -7  -7  -5 82.5410 11.2482   2
  -7  -7  -5 114.672 11.2017   4
  -7   7  -5 91.1234 10.1662   3
  -7   7  -5 88.9316 13.8686   2
  -8  -7  -5 -3.3775 6.19345   4
   8  -7   5 5.68560 4.32915   4
  -8  -7  -5 0.18567 6.93631   3
   8  -7   5 13.8584 9.80060   3
  -8   7  -5 -7.0273 12.6280   2
  -8   7  -5 3.38271 7.44358   3
   9  -7   5 34.5355 10.4282   3
  -9  -7  -5 21.2146 6.14591   3
  -9  -7  -5 23.7085 11.6439   2
  -9   7  -5 27.4270 15.0239   2
 -10  -7  -5 17.8426 12.6743   2
 -10   7  -5 13.0276 16.1670   2
 -11  -8   5 36.7384 17.6759   2
 -11   8   5 -14.870 19.0476   2
 -10  -8   5 73.4114 16.9144   2
 -10   8   5 87.6558 19.3931   2
   9  -8  -5 50.8547 7.49592   3
  -9  -8   5 55.5386 14.6387   2
  -9   8   5 35.4240 27.7775   2
  -8  -8   5 13.3183 4.80994   3
   8  -8  -5 18.9214 6.79618   3
   8  -8  -5 0.47516 10.2110   3
  -8   8   5 32.1471 13.7030   2
   7  -8  -5 14.1483 6.83766   3
  -7  -8   5 12.2624 14.9052   4
   7  -8  -5 13.0188 7.54505   3
  -7  -8   5 9.91348 5.59838   3
   7  -8  -5 -15.977 12.8066   1
  -7   8   5 15.4946 14.3923   1
  -7   8   5 22.9669 11.4061   2
   6  -8  -5 186.761 15.5441   3
  -6  -8   5 205.500 15.0604   3
   6  -8  -5 168.050 15.1331   2
  -6  -8   5 169.179 20.2910   1
   6  -8  -5 178.614 24.3614   1
  -6  -8   5 167.645 17.3201   4
   6  -8  -5 188.419 16.5841   3
   6   8  -5 207.505 14.3371   3
  -6   8   5 214.153 24.2009   1
  -6   8   5 186.315 18.7940   2
  -5  -8   5 18.2578 6.44019   3
  -5  -8   5 22.2196 8.61735   4
   5  -8  -5 32.0256 10.9980   1
   5  -8  -5 19.6344 6.99692   3
  -5  -8   5 24.1952 7.69313   2
   5  -8  -5 21.3609 5.94350   2
  -5  -8   5 18.8096 8.83175   1
  -5   8   5 26.3155 10.9796   1
   5   8  -5 13.3902 5.82514   3
   5   8  -5 41.9130 9.25543   1
  -5   8   5 22.9948 7.67612   2
   4  -8  -5 30.8760 8.94174   1
  -4  -8   5 30.1109 6.94329   3
  -4  -8   5 36.4321 7.21207   2
  -4  -8   5 23.6412 7.63125   4
  -4  -8   5 25.0267 8.56806   1
   4  -8  -5 29.9065 5.10671   2
   4  -8  -5 32.8737 7.38172   3
   4   8  -5 27.9540 6.49540   3
  -4   8   5 20.4690 9.04733   1
  -4   8   5 18.7674 5.86197   2
  -3  -8   5 52.6187 9.34891   1
  -3  -8   5 94.1972 9.29179   4
  -3  -8   5 85.2226 8.28221   2
   3  -8  -5 82.3964 7.68671   2
   3  -8  -5 81.9810 8.70950   3
   3  -8  -5 106.067 14.0137   1
  -3  -8   5 90.5219 9.02910   3
  -3   8   5 69.0806 11.1963   1
   3   8  -5 91.0552 10.4375   3
   3   8  -5 46.8599 11.1334   1
  -3   8   5 75.1593 7.81789   2
   3   8  -5 75.1772 8.18381   2
  -2  -8   5 479.069 33.0120   1
   2  -8  -5 482.809 30.9662   3
  -2  -8   5 503.956 30.7445   3
  -2  -8   5 514.586 30.3621   2
   2  -8  -5 529.591 32.7029   1
  -2  -8   5 495.816 30.6286   4
   2  -8  -5 481.128 28.9382   2
   2   8  -5 518.278 30.5158   2
  -2   8   5 479.260 28.8324   2
  -2   8   5 514.909 33.3120   1
   2   8  -5 520.963 33.7178   1
   2   8  -5 525.752 30.9253   3
  -1  -8   5 58.5932 6.53886   2
   1  -8  -5 62.8666 7.75355   1
  -1  -8   5 31.4824 7.38115   1
  -1  -8   5 42.3054 7.73193   3
  -1  -8   5 37.1401 6.40328   4
   1  -8  -5 45.9705 7.30374   3
   1  -8  -5 50.5306 4.12100   2
  -1   8   5 42.9476 4.10761   2
   1   8  -5 49.0405 6.58622   2
  -1   8   5 45.4715 7.24100   1
   1   8  -5 31.9432 6.72350   1
   1   8  -5 51.3026 7.50890   3
   0  -8  -5 2.15582 4.30294   1
   0  -8   5 5.59293 4.85977   4
   0  -8   5 6.40741 6.04773   1
   0  -8   5 -1.7914 5.46695   2
   0  -8  -5 3.20072 5.69306   3
   0  -8   5 -4.5060 6.23850   3
   0  -8  -5 2.66162 2.61182   2
   0   8   5 3.03150 4.99328   1
   0   8  -5 4.73971 6.13441   3
   0   8  -5 4.52389 5.40827   2
   1  -8   5 22.5012 8.23444   1
  -1  -8  -5 13.1428 3.13010   2
   1  -8   5 12.0916 4.78758   4
   1  -8   5 17.4611 7.16290   3
  -1  -8  -5 12.6257 4.10891   1
   1  -8   5 26.2198 6.33670   2
   1  -8   5 8.75878 6.37314   1
  -1  -8  -5 16.6482 6.37532   3
  -1   8  -5 8.04860 6.48143   3
   1   8   5 11.8679 4.66337   1
  -1   8  -5 14.6235 6.11808   2
   2  -8   5 20.2497 6.98154   2
   2  -8   5 23.4630 8.24249   1
  -2  -8  -5 25.5726 4.11869   2
   2  -8   5 25.9018 7.67226   3
   2  -8   5 25.4568 8.85844   1
  -2  -8  -5 16.8712 6.31763   3
  -2   8  -5 18.9293 7.30911   3
  -2   8  -5 26.3948 6.72592   2
  -3  -8  -5 227.721 16.8895   3
   3  -8   5 231.313 18.5485   3
   3  -8   5 219.511 20.5021   1
   3  -8   5 202.034 20.0876   1
   3  -8   5 215.742 17.9903   2
  -3   8  -5 220.985 17.1059   2
  -3   8  -5 268.014 17.9736   3
   4  -8   5 64.1668 10.2422   2
  -4  -8  -5 60.8576 8.55506   3
  -4  -8  -5 81.0123 8.01485   2
   4  -8   5 85.4642 18.2562   1
   4  -8   5 66.4038 9.84614   3
  -4  -8  -5 80.3675 8.01484   2
   4  -8   5 82.7832 13.1404   1
  -4   8  -5 77.1444 10.4038   2
  -4   8  -5 78.1958 9.83724   3
   5  -8   5 222.375 22.2352   2
   5  -8   5 244.801 24.8849   1
  -5  -8  -5 264.820 18.6197   2
  -5  -8  -5 248.371 19.0735   3
   5  -8   5 243.993 20.5086   3
   5  -8   5 261.119 24.1802   1
  -5  -8  -5 281.181 19.0297   2
  -5   8  -5 276.641 19.6006   3
  -5   8  -5 272.537 21.0133   2
  -6  -8  -5 21.6966 6.11512   4
  -6  -8  -5 22.7554 7.45078   3
   6  -8   5 16.3277 9.06930   3
  -6  -8  -5 23.0296 8.14788   2
   6  -8   5 17.7860 12.8413   1
   6  -8   5 25.4937 11.1480   1
  -6  -8  -5 23.3913 8.47095   2
  -6   8  -5 23.6173 10.9891   2
  -6   8  -5 27.8733 7.99535   3
  -7  -8  -5 39.6989 8.27925   3
  -7  -8  -5 55.0302 10.2475   2
   7  -8   5 32.6716 15.3177   1
   7  -8   5 44.8841 10.4832   3
  -7  -8  -5 46.2396 7.29626   4
  -7   8  -5 53.5829 13.2061   2
  -7   8  -5 39.9660 8.93748   3
   8  -8   5 22.3789 10.4215   3
  -8  -8  -5 40.6424 11.0702   2
  -8  -8  -5 29.9797 7.42898   4
  -8   8  -5 37.9844 13.8905   2
  -8   8  -5 12.1642 8.23974   3
  -9  -8  -5 3.14664 11.5562   2
   9  -8   5 31.7313 10.9876   3
  -9  -8  -5 24.1463 6.51292   3
  -9   8  -5 39.1135 15.5164   2
 -10  -8  -5 -1.7327 12.4042   2
 -10   8  -5 3.93420 16.8236   2
 -10  -9   5 30.5984 16.2894   2
 -10   9   5 16.0180 17.4759   2
   9  -9  -5 43.6106 7.97467   3
  -9   9   5 36.4281 18.3819   2
  -8  -9   5 39.1410 6.11991   3
   8  -9  -5 45.0033 8.14007   3
  -8  -9   5 51.9011 11.6228   4
  -8   9   5 44.7703 14.4784   2
  -7  -9   5 64.6662 12.1688   4
  -7  -9   5 71.9980 8.22789   3
   7  -9  -5 74.3038 9.20911   3
   7  -9  -5 64.7299 9.87018   3
   7  -9  -5 92.5783 17.6011   1
  -7   9   5 70.4137 16.5537   1
  -7   9   5 63.8940 13.1508   2
   6  -9  -5 13.9938 8.05751   3
  -6  -9   5 7.58845 6.32637   3
   6  -9  -5 8.97290 12.6575   1
   6  -9  -5 21.8322 7.21196   2
   6  -9  -5 14.3086 7.41552   3
  -6  -9   5 0.28077 9.16474   4
  -6   9   5 -0.7001 11.3986   1
  -6   9   5 13.7145 9.72147   2
   5  -9  -5 41.0661 12.2712   1
   5  -9  -5 34.2241 6.38556   2
   5  -9  -5 28.9133 8.14890   3
  -5  -9   5 18.9257 9.64256   2
  -5  -9   5 20.6457 8.72128   1
  -5  -9   5 38.1290 9.18050   4
   5  -9  -5 37.5538 8.28857   3
  -5  -9   5 43.4179 7.44445   3
  -5   9   5 31.2681 12.2837   1
   5   9  -5 41.2826 7.06491   3
   5   9  -5 25.4504 10.8612   1
  -5   9   5 23.1852 7.86918   2
   4  -9  -5 635.373 38.3327   2
   4  -9  -5 690.156 39.8637   3
  -4  -9   5 627.428 39.9978   4
  -4  -9   5 643.206 47.0862   1
   4  -9  -5 668.858 43.6094   1
  -4  -9   5 675.867 39.4112   3
  -4  -9   5 661.267 39.3307   2
   4   9  -5 665.047 39.2623   3
  -4   9   5 635.985 38.4218   2
  -4   9   5 659.307 43.8519   1
  -3  -9   5 9.58744 6.43125   3
   3  -9  -5 8.36834 7.94492   1
  -3  -9   5 11.6373 6.91860   4
   3  -9  -5 10.2869 4.30537   2
   3  -9  -5 -1.7931 6.79794   3
  -3  -9   5 8.77959 7.48303   1
  -3  -9   5 8.08962 6.30222   2
   3   9  -5 4.48424 6.63319   2
  -3   9   5 6.87370 4.43143   2
  -3   9   5 -0.9237 7.42026   1
   3   9  -5 0.61986 6.34088   3
  -2  -9   5 121.095 14.8543   1
  -2  -9   5 112.610 11.3744   2
   2  -9  -5 96.8364 13.6968   1
   2  -9  -5 116.500 12.7618   3
  -2  -9   5 119.870 12.9610   3
  -2  -9   5 109.659 12.3936   4
   2  -9  -5 121.953 9.01944   2
  -2   9   5 104.214 14.7725   1
  -2   9   5 108.994 8.86263   2
   2   9  -5 134.841 15.5947   1
   2   9  -5 121.041 12.5843   3
   2   9  -5 142.375 12.6699   2
  -1  -9   5 433.744 28.1175   3
   1  -9  -5 458.628 29.0274   1
  -1  -9   5 446.790 27.5569   4
  -1  -9   5 442.557 27.7087   2
  -1  -9   5 432.817 30.2639   1
   1  -9  -5 470.942 28.3836   3
   1  -9  -5 427.375 25.8331   2
   1   9  -5 442.594 30.7242   1
  -1   9   5 427.024 25.8401   2
  -1   9   5 469.680 29.5232   1
   1   9  -5 438.688 28.4691   3
   1   9  -5 466.863 27.4344   2
   0  -9  -5 122.493 11.7697   1
   0  -9   5 114.501 12.8271   2
   0  -9   5 136.248 11.5896   4
   0  -9  -5 141.894 12.5133   3
   0  -9   5 150.892 15.2189   1
   0  -9   5 124.925 13.1460   3
   0  -9   5 107.415 15.2864   1
   0  -9  -5 127.387 9.12550   2
   0   9  -5 137.433 12.0491   2
   0   9  -5 131.724 13.1045   3
   0   9   5 142.058 12.7234   1
   1  -9   5 155.521 14.8888   3
   1  -9   5 151.142 13.0605   2
   1  -9   5 151.246 19.2469   1
  -1  -9  -5 148.525 10.3755   2
  -1  -9  -5 156.521 11.5845   1
   1  -9   5 147.859 15.8978   1
  -1  -9  -5 153.771 13.2496   3
  -1   9  -5 141.260 12.9981   2
  -1   9  -5 140.980 13.7942   3
   1   9   5 146.248 11.9348   1
   2  -9   5 102.339 12.4598   1
  -2  -9  -5 82.8448 9.71270   3
   2  -9   5 81.7215 9.73241   2
  -2  -9  -5 104.428 8.66508   2
   2  -9   5 112.371 13.2596   1
   2  -9   5 79.9353 10.3095   3
  -2   9  -5 112.470 12.3711   3
  -2   9  -5 111.837 10.0846   2
   3  -9   5 439.273 30.2063   3
  -3  -9  -5 453.637 29.2217   3
   3  -9   5 472.351 33.2120   1
   3  -9   5 448.349 32.6757   1
   3  -9   5 435.861 29.3673   2
  -3  -9  -5 494.280 27.8814   2
  -3   9  -5 452.116 29.8501   2
  -3   9  -5 503.831 30.1069   3
   4  -9   5 377.729 29.1562   1
  -4  -9  -5 364.632 24.8730   3
   4  -9   5 472.162 33.6971   1
   4  -9   5 337.822 25.7293   2
  -4  -9  -5 355.824 23.7427   2
   4  -9   5 359.639 25.4779   3
  -4   9  -5 385.398 25.5965   3
  -4   9  -5 401.410 26.7362   2
   5  -9   5 178.435 21.3846   1
  -5  -9  -5 167.973 15.4921   3
  -5  -9  -5 180.939 15.4402   2
  -5  -9  -5 149.115 15.1330   2
   5  -9   5 159.370 22.8573   1
   5  -9   5 159.319 17.2942   3
  -5   9  -5 163.049 18.1868   2
  -5   9  -5 190.779 16.7441   3
  -6  -9  -5 433.870 25.3984   4
   6  -9   5 428.564 33.8711   1
  -6  -9  -5 384.297 26.3058   2
  -6  -9  -5 356.925 26.4260   3
   6  -9   5 407.665 28.0084   3
  -6  -9  -5 370.832 26.9179   2
  -6   9  -5 383.176 29.1491   2
  -6   9  -5 415.611 27.3422   3
   7  -9   5 176.873 19.3074   3
  -7  -9  -5 182.185 15.4985   4
  -7  -9  -5 160.447 16.9575   3
  -7  -9  -5 195.477 18.9991   2
   7  -9   5 168.275 23.4607   1
  -7   9  -5 210.910 22.0426   2
   8  -9   5 117.078 14.1147   3
  -8  -9  -5 133.494 14.2578   4
  -8  -9  -5 123.968 14.4034   2
  -8  -9  -5 125.917 13.5657   3
  -8   9  -5 104.623 17.0402   2
   9  -9   5 18.8548 11.1068   3
  -9  -9  -5 -5.0904 6.30438   3
  -9  -9  -5 -1.7695 11.5559   2
  -9  -9  -5 6.24601 8.01615   4
  -9   9  -5 -7.7143 15.7021   2
 -10  -9  -5 35.2401 13.4283   2
 -10   9  -5 3.33764 16.9094   2
 -10 -10   5 -3.6291 16.7850   2
 -10  10   5 3.92231 17.7876   2
   9 -10  -5 41.9816 8.76820   3
  -9  10   5 46.0051 16.7009   2
   8 -10  -5 149.931 15.1303   3
  -8 -10   5 114.445 14.4544   4
  -8 -10   5 111.754 12.0201   3
  -8  10   5 93.8756 16.5547   2
   7 -10  -5 49.5732 18.3420   1
   7 -10  -5 46.3858 9.60157   2
   7 -10  -5 48.8981 9.07971   3
  -7 -10   5 48.0531 11.4461   4
  -7 -10   5 64.3401 8.06795   3
   7 -10  -5 44.2965 10.1130   3
  -7  10   5 39.3032 17.6153   1
  -7  10   5 50.7066 12.9169   2
  -6 -10   5 69.3161 8.87676   3
   6 -10  -5 89.0482 10.2014   3
   6 -10  -5 81.4170 17.4527   1
   6 -10  -5 77.1135 9.35173   2
   6 -10  -5 81.7320 10.8188   3
  -6 -10   5 55.3811 17.0227   4
  -6  10   5 65.5146 11.1438   2
  -6  10   5 117.426 19.1292   1
   5 -10  -5 259.703 20.3197   3
   5 -10  -5 256.175 26.8034   1
  -5 -10   5 261.936 19.0445   3
   5 -10  -5 267.962 19.6050   3
  -5 -10   5 213.645 22.8451   1
   5 -10  -5 243.631 18.0736   2
  -5 -10   5 220.384 19.9568   4
  -5  10   5 253.259 19.3947   2
   5  10  -5 282.640 18.6936   3
  -5  10   5 287.939 27.0996   1
   4 -10  -5 35.1580 8.54514   3
  -4 -10   5 35.3645 7.97889   3
  -4 -10   5 9.73737 8.50835   1
   4 -10  -5 28.9494 10.2073   1
   4 -10  -5 37.4001 5.98614   2
  -4 -10   5 15.5937 8.02902   2
  -4 -10   5 29.1276 8.84321   4
   4  10  -5 20.7175 9.38532   1
  -4  10   5 18.7487 6.33442   2
  -4  10   5 39.1687 11.5183   1
   4  10  -5 49.9560 7.76382   3
   4  10  -5 35.2533 8.14193   2
  -3 -10   5 1025.11 60.0956   4
  -3 -10   5 996.321 62.9352   1
   3 -10  -5 1018.77 58.9281   2
   3 -10  -5 1061.42 60.5916   3
  -3 -10   5 1008.11 59.9431   2
  -3 -10   5 1011.98 60.2488   3
   3 -10  -5 1031.85 63.0520   1
  -3  10   5 987.240 58.8075   2
  -3  10   5 1047.41 63.6760   1
   3  10  -5 1140.10 60.3518   2
   3  10  -5 1051.99 60.1041   3
   2 -10  -5 39.8451 8.35618   1
   2 -10  -5 40.0766 8.02582   3
  -2 -10   5 35.6112 8.00916   3
  -2 -10   5 17.0105 7.74517   1
  -2 -10   5 21.8360 7.43703   4
  -2 -10   5 24.9993 7.08012   2
   2 -10  -5 23.4531 4.52575   2
  -2  10   5 13.4183 4.48383   2
  -2  10   5 27.5102 8.95062   1
   2  10  -5 24.9694 7.60839   3
   2  10  -5 28.1208 7.42640   2
   2  10  -5 21.9487 8.84015   1
  -1 -10   5 -1.4287 7.04412   1
  -1 -10   5 12.5648 6.72994   2
  -1 -10   5 3.06599 7.31604   3
   1 -10  -5 -1.6811 6.96284   3
   1 -10  -5 6.66254 6.17422   1
  -1 -10   5 -1.0528 6.43708   4
   1 -10  -5 2.20320 3.63550   2
  -1  10   5 4.43669 6.71790   1
   1  10  -5 5.45014 6.82032   2
  -1  10   5 3.92325 3.86827   2
   1  10  -5 0.24583 6.88291   3
   0 -10  -5 350.275 23.3063   1
   0 -10  -5 379.505 21.1567   2
   0 -10   5 358.202 27.0118   1
   0 -10  -5 363.466 23.5529   3
   0 -10   5 341.068 22.6002   4
   0 -10   5 362.951 23.1706   2
   0 -10   5 336.856 23.8822   3
   0 -10   5 345.245 25.9135   1
   0  10   5 346.614 23.7689   1
   0  10  -5 358.897 24.3015   3
   0  10  -5 361.766 23.1096   2
   0  10   5 345.954 21.3151   2
  -1 -10  -5 576.664 32.1497   2
  -1 -10  -5 563.060 34.0407   3
  -1 -10  -5 552.404 33.1037   1
   1 -10   5 549.415 37.2444   1
   1 -10   5 555.814 34.8917   3
   1 -10   5 540.788 33.6787   2
   1 -10   5 515.208 36.4815   1
  -1  10  -5 556.815 33.7037   2
   1  10   5 542.745 33.1992   1
  -1  10  -5 579.942 34.4082   3
  -2 -10  -5 74.1866 7.28843   2
   2 -10   5 71.1975 10.0378   3
   2 -10   5 49.8221 11.3461   1
   2 -10   5 53.7204 9.84841   1
  -2 -10  -5 77.9429 9.39980   3
   2 -10   5 75.1488 9.61527   2
  -2  10  -5 73.0601 9.86214   3
  -2  10  -5 79.9108 9.41348   2
  -3 -10  -5 24.0802 5.81869   2
  -3 -10  -5 43.3849 8.26771   3
   3 -10   5 25.9393 11.1437   1
   3 -10   5 20.0748 9.39803   1
   3 -10   5 28.1934 9.33036   3
   3 -10   5 30.3460 8.87100   2
  -3  10  -5 19.9410 8.26227   3
  -3  10  -5 27.7934 9.11441   2
   4 -10   5 559.414 38.1760   1
   4 -10   5 504.818 33.3175   3
  -4 -10  -5 516.214 31.1277   2
   4 -10   5 504.488 36.8313   1
  -4 -10  -5 489.908 32.0138   3
  -4  10  -5 531.112 33.7062   2
  -4  10  -5 476.370 32.3446   3
  -5 -10  -5 7.35467 7.50580   2
   5 -10   5 8.27972 13.6833   1
   5 -10   5 17.3961 12.7043   1
  -5 -10  -5 -0.2596 7.18958   2
  -5 -10  -5 -0.3710 7.51575   3
   5 -10   5 5.52871 9.58675   3
  -5  10  -5 14.5986 10.2020   3
  -5  10  -5 10.9838 10.9193   2
  -6 -10  -5 105.136 9.71859   4
  -6 -10  -5 62.3238 10.2697   3
  -6 -10  -5 100.340 10.9909   2
   6 -10   5 93.7817 17.3393   1
   6 -10   5 69.8772 11.7029   3
  -6  10  -5 63.2575 16.0470   2
   7 -10   5 155.996 15.0889   3
  -7 -10  -5 140.307 14.0215   2
  -7 -10  -5 105.336 12.5862   3
  -7 -10  -5 149.713 14.5315   4
   7 -10   5 131.955 24.4750   1
  -7  10  -5 121.274 16.6965   2
   8 -10   5 16.6539 11.0168   3
  -8 -10  -5 13.7576 11.2995   2
  -8 -10  -5 13.4125 8.37643   4
  -8 -10  -5 17.6656 7.99896   3
  -8  10  -5 14.3289 14.7439   2
  -9 -10  -5 40.1347 12.5776   2
  -9 -10  -5 47.1215 9.81010   4
   9 -10   5 52.3609 14.4815   3
  -9 -10  -5 14.3620 13.2406   3
  -9  10  -5 43.7374 16.9420   2
 -10 -10  -5 20.5648 13.6829   2
 -10  10  -5 18.2593 18.2760   2
 -10 -11   5 218.747 23.8343   2
 -10  11   5 207.230 24.2128   2
   9 -11  -5 40.9434 12.3787   3
  -9  11   5 -0.5001 15.9634   2
  -8 -11   5 1.46760 11.1023   4
  -8 -11   5 15.6120 6.68564   3
   8 -11  -5 25.5454 9.40650   3
  -8  11   5 7.56399 14.1294   2
   7 -11  -5 116.747 13.8082   2
  -7 -11   5 175.388 15.1176   3
   7 -11  -5 160.999 17.1418   3
  -7 -11   5 173.755 16.2439   4
  -7  11   5 154.625 16.4069   2
   6 -11  -5 34.8246 15.9204   1
  -6 -11   5 89.7419 12.0797   4
   6 -11  -5 63.7515 9.81768   2
   6 -11  -5 97.0739 11.4170   3
  -6 -11   5 96.7979 9.98808   3
  -6  11   5 79.8191 11.5876   2
   5 -11  -5 741.957 44.4449   2
   5 -11  -5 773.167 51.7122   1
   5 -11  -5 775.156 46.1098   3
  -5 -11   5 653.150 45.9363   4
  -5 -11   5 795.582 45.2580   3
   5 -11  -5 810.263 45.9207   3
  -5  11   5 726.058 52.2875   1
  -5  11   5 738.990 44.8904   2
  -4 -11   5 -7.0020 8.52953   4
   4 -11  -5 13.1464 8.51784   3
  -4 -11   5 1.95709 7.74102   3
   4 -11  -5 -1.0530 5.69354   2
   4 -11  -5 -0.7012 10.5159   1
  -4 -11   5 6.06063 8.62218   1
   4 -11  -5 -1.2465 8.59748   3
  -4  11   5 6.71782 11.5675   1
   4  11  -5 11.8578 7.68683   3
   4  11  -5 8.09090 8.07666   2
  -4  11   5 -1.2189 6.32171   2
   3 -11  -5 736.598 43.4894   3
  -3 -11   5 735.890 44.8101   2
  -3 -11   5 735.268 46.4064   1
  -3 -11   5 690.042 43.1640   3
  -3 -11   5 735.523 43.1934   4
   3 -11  -5 739.736 46.6339   1
   3 -11  -5 670.328 42.1722   2
   3  11  -5 783.020 43.6547   2
  -3  11   5 680.144 46.7966   1
   3  11  -5 748.756 43.5286   3
  -3  11   5 681.652 41.6973   2
   3  11  -5 707.664 46.0634   1
   2 -11  -5 922.649 53.0965   2
  -2 -11   5 892.445 54.2904   2
  -2 -11   5 947.463 57.6114   1
   2 -11  -5 927.570 56.7351   1
   2 -11  -5 955.034 54.8972   3
  -2 -11   5 918.991 54.5566   4
  -2 -11   5 927.987 54.7368   3
   2  11  -5 952.518 55.1461   3
  -2  11   5 884.764 53.0181   2
   2  11  -5 974.878 54.4710   2
  -2  11   5 925.720 57.2702   1
   1 -11  -5 459.073 28.6407   3
   1 -11  -5 441.715 26.1978   2
  -1 -11   5 440.645 31.1659   1
  -1 -11   5 444.957 29.2894   3
  -1 -11   5 419.754 27.8429   4
  -1 -11   5 458.158 31.8464   1
  -1 -11   5 426.005 27.9659   2
   1 -11  -5 448.032 29.5602   1
   1  11  -5 458.368 29.1980   3
  -1  11   5 430.517 29.8551   1
   1  11  -5 469.084 28.1574   2
  -1  11   5 420.111 26.2649   2
   0 -11   5 92.1840 9.98748   2
   0 -11   5 89.0870 10.8574   3
   0 -11  -5 98.1224 11.0361   1
   0 -11   5 97.6608 13.2797   1
   0 -11  -5 89.4165 10.4084   3
   0 -11   5 89.4605 9.21714   4
   0 -11  -5 77.6790 8.29748   2
   0 -11   5 78.3794 12.0212   1
   0  11  -5 88.6229 10.6299   3
   0  11   5 72.6366 7.14097   2
   0  11   5 72.5898 9.41390   1
   0  11  -5 92.2586 9.72574   2
   1 -11   5 10.1265 9.31169   1
   1 -11   5 9.89148 7.54111   1
  -1 -11  -5 11.1177 5.45266   2
  -1 -11  -5 26.1553 8.21426   3
  -1 -11  -5 17.7099 5.05983   1
   1 -11   5 14.3135 8.71429   3
   1 -11   5 -1.9834 7.71100   2
  -1  11  -5 20.0822 8.64593   3
   1  11   5 3.47532 5.23076   1
  -1  11  -5 3.26193 7.90484   2
  -2 -11  -5 1072.50 59.3155   2
   2 -11   5 1059.35 61.5914   3
   2 -11   5 989.565 60.8128   2
  -2 -11  -5 1034.77 60.8020   3
   2 -11   5 988.755 63.9294   1
   2 -11   5 1026.52 64.3868   1
  -2  11  -5 1085.25 60.9461   2
  -2  11  -5 1042.27 61.4391   3
   3 -11   5 3.43155 9.45946   3
  -3 -11  -5 5.97975 7.95784   3
   3 -11   5 0.45994 9.07511   1
   3 -11   5 4.21033 9.13056   1
  -3 -11  -5 4.19543 5.66166   2
  -3  11  -5 11.1694 9.19351   2
  -3  11  -5 10.8949 10.0094   3
   4 -11   5 6.12108 10.5063   1
  -4 -11  -5 -6.5739 6.43030   2
   4 -11   5 10.2040 9.51902   3
  -4 -11  -5 -1.6964 7.83534   3
   4 -11   5 -9.2574 11.9860   1
  -4  11  -5 -12.244 9.87444   2
   5 -11   5 467.222 36.5519   1
  -5 -11  -5 458.495 29.3118   2
   5 -11   5 434.472 37.4144   1
   5 -11   5 484.956 31.5153   3
  -5 -11  -5 420.495 30.3260   3
   6 -11   5 9.22474 10.2820   3
  -6 -11  -5 5.20134 7.58475   4
  -6 -11  -5 15.7331 9.30781   2
   6 -11   5 -5.0799 15.5927   1
  -6  11  -5 6.10046 12.8963   2
   7 -11   5 10.5562 11.6392   3
  -7 -11  -5 11.1670 8.35394   3
  -7 -11  -5 23.1415 10.4613   2
  -7 -11  -5 8.01876 7.99550   4
  -7  11  -5 2.01292 14.2287   2
   8 -11   5 108.582 15.9798   3
  -8 -11  -5 63.2649 10.9126   4
  -8 -11  -5 99.5086 10.7310   3
  -8 -11  -5 105.414 13.8606   2
  -8  11  -5 94.6432 17.9908   2
  -9 -11  -5 16.3935 12.2349   2
  -9 -11  -5 24.4067 9.93725   4
   9 -11   5 27.8935 12.6370   3
  -9  11  -5 54.9190 17.8682   2
  -9 -12   5 122.651 16.6847   4
  -9  12   5 128.072 19.5501   2
   8 -12  -5 -6.6531 9.62607   3
  -8 -12   5 -7.0629 6.93839   3
  -8 -12   5 -4.9594 11.3463   4
  -8  12   5 -10.059 23.0891   2
   7 -12  -5 77.1941 11.4718   3
  -7 -12   5 70.6247 9.65234   3
  -7 -12   5 97.1862 13.7295   4
  -7  12   5 65.7346 13.9607   2
  -6 -12   5 89.8702 12.4983   4
   6 -12  -5 100.831 10.7552   2
  -6 -12   5 97.0424 10.8635   3
   6 -12  -5 98.4744 12.0648   3
  -6  12   5 73.7788 12.1416   2
  -5 -12   5 56.2570 11.3943   4
  -5 -12   5 32.2793 8.86532   3
   5 -12  -5 39.4551 10.3269   3
   5 -12  -5 48.3624 8.18927   2
  -5  12   5 40.5656 9.08062   2
   4 -12  -5 18.5828 9.62616   3
   4 -12  -5 9.84004 11.6210   1
  -4 -12   5 16.5463 9.08923   4
  -4 -12   5 23.1370 8.44644   3
   4 -12  -5 26.1696 6.82099   2
   4  12  -5 23.3080 8.57237   3
  -4  12   5 18.5726 7.20923   2
   4  12  -5 18.8647 9.21941   2
  -3 -12   5 222.049 18.5577   3
   3 -12  -5 205.507 18.4901   3
  -3 -12   5 190.808 21.6595   1
   3 -12  -5 211.223 22.2327   1
   3 -12  -5 207.139 15.1530   2
  -3 -12   5 208.007 18.5316   4
   3  12  -5 216.480 18.9580   2
   3  12  -5 171.680 18.0005   3
  -3  12   5 200.362 15.0832   2
   2 -12  -5 156.248 17.8856   1
  -2 -12   5 146.888 18.3471   1
   2 -12  -5 134.490 11.8607   2
  -2 -12   5 159.533 15.1325   4
  -2 -12   5 184.089 19.2373   1
  -2 -12   5 144.716 16.5594   3
  -2  12   5 149.586 11.9231   2
  -2  12   5 97.3389 15.0108   1
   2  12  -5 131.495 15.1544   2
   2  12  -5 150.840 16.7000   3
   1 -12  -5 24.3668 8.20139   1
  -1 -12   5 35.6105 10.5215   1
  -1 -12   5 30.9735 10.3720   1
  -1 -12   5 29.6541 9.16636   3
   1 -12  -5 26.8214 5.36840   2
  -1 -12   5 31.4701 8.43067   4
  -1  12   5 29.0473 8.88355   1
   1  12  -5 36.0405 9.84449   3
  -1  12   5 32.4643 5.66638   2
   1  12  -5 35.0761 8.63564   2
   0 -12   5 15.3926 9.52347   1
   0 -12  -5 21.2440 6.55917   1
   0 -12   5 -7.8754 14.2559   2
   0 -12   5 9.34922 7.41412   1
   0 -12  -5 15.7989 4.92478   2
   0 -12   5 19.0313 9.01100   3
   0 -12   5 8.76857 7.10923   4
   0  12  -5 19.2561 14.2724   3
   0  12   5 21.6252 7.63622   1
   0  12  -5 16.0258 8.38596   2
   0  12   5 13.3488 5.28955   2
  -1 -12  -5 425.614 26.4082   1
  -1 -12  -5 443.990 25.7390   2
   1 -12   5 379.371 30.9148   1
   1 -12   5 436.823 28.6701   3
   1 -12   5 415.762 32.4314   1
  -1  12  -5 445.479 28.4290   2
   1  12   5 417.394 26.6224   1
   2 -12   5 119.398 15.5250   1
   2 -12   5 67.7170 12.8170   1
  -2 -12  -5 115.082 10.7236   2
   2 -12   5 86.3897 12.0629   3
  -2  12  -5 106.312 11.8571   2
   3 -12   5 30.2423 19.9489   1
   3 -12   5 21.6088 10.6472   1
   3 -12   5 11.7566 9.89484   3
  -3 -12  -5 8.19660 6.07604   2
  -3  12  -5 21.3815 9.89620   2
   4 -12   5 18.5470 20.8761   1
  -4 -12  -5 12.5340 7.28457   2
   4 -12   5 31.0225 11.0602   3
   4 -12   5 31.6688 11.8303   1
  -4  12  -5 31.9224 11.6651   2
   5 -12   5 21.4856 15.6954   1
   5 -12   5 15.8449 10.5979   3
  -5  12  -5 -2.2108 12.0779   2
  -6 -12  -5 126.807 13.0669   2
  -6 -12  -5 134.701 12.7276   4
  -6 -12  -5 106.062 12.7181   3
  -6  12  -5 119.093 16.5436   2
  -7 -12  -5 11.3896 9.26322   3
  -7 -12  -5 9.33083 9.97552   4
   7 -12   5 5.84967 12.0512   3
  -7 -12  -5 15.4281 10.8588   2
  -7  12  -5 -0.4518 15.7427   2
   8 -12   5 74.6939 13.9598   3
  -8 -12  -5 83.2885 10.7586   3
  -8 -12  -5 68.8384 11.1822   4
  -8 -12  -5 63.6965 13.0439   2
  -8  12  -5 57.8074 18.6158   2
   9 -12   5 26.8665 12.5546   3
  -9 -12  -5 30.1902 10.3128   4
  -9 -12  -5 35.4416 13.6809   2
  -9  12  -5 20.5844 18.1610   2
  -9 -13   5 5.29446 12.9160   4
  -9  13   5 -34.133 16.0738   2
  -8 -13   5 -4.2393 9.43604   3
  -8 -13   5 5.15761 12.6704   4
   8 -13  -5 17.1070 10.7446   3
  -8  13   5 6.34976 15.2018   2
   7 -13  -5 36.1827 11.2955   3
  -7 -13   5 24.8914 11.7298   4
  -7 -13   5 21.3919 8.68397   3
  -7  13   5 16.3086 12.9874   2
  -6 -13   5 78.0339 10.8269   3
  -6 -13   5 96.5303 13.5675   4
  -6  13   5 71.4178 12.3340   2
   5 -13  -5 -0.1100 11.0072   3
  -5 -13   5 0.67466 9.83842   4
   5 -13  -5 4.78989 7.71450   2
  -5 -13   5 2.93930 8.57751   3
  -5  13   5 3.48188 8.74920   2
   4 -13  -5 14.4909 10.8482   3
   4 -13  -5 1.94609 7.01423   2
  -4 -13   5 3.39330 11.0752   4
  -4 -13   5 -2.2491 8.88539   3
  -4  13   5 2.12937 7.31805   2
   4  13  -5 8.88852 10.0211   2
  -3 -13   5 56.7708 10.2113   4
   3 -13  -5 43.6433 11.6165   3
  -3 -13   5 48.6533 9.82927   3
   3 -13  -5 59.6347 7.67733   2
   3  13  -5 70.3455 10.7194   2
  -3  13   5 47.8445 7.64296   2
  -2 -13   5 61.8634 13.3223   1
   2 -13  -5 101.205 8.59372   2
  -2 -13   5 103.177 11.7051   3
   2 -13  -5 80.7849 12.2402   3
  -2 -13   5 116.623 11.8741   4
   2  13  -5 109.972 11.8069   2
  -2  13   5 75.5815 8.37008   2
  -1 -13   5 287.943 21.4516   4
  -1 -13   5 283.085 25.9518   1
   1 -13  -5 280.669 22.7076   3
  -1 -13   5 300.344 23.2793   3
   1 -13  -5 283.781 18.9676   2
   1  13  -5 318.270 22.7313   2
  -1  13   5 277.805 19.0777   2
   0 -13  -5 25.6013 5.73553   2
   0 -13   5 21.6242 10.7859   1
   0 -13  -5 28.3236 9.06145   1
   0 -13   5 41.2091 10.4856   3
   0 -13   5 9.43290 7.98027   4
   0 -13   5 15.2333 10.2747   1
   0  13   5 21.0507 6.11873   2
   0  13  -5 26.8336 9.40572   2
  -1 -13  -5 -0.1156 5.52486   1
   1 -13   5 1.96279 9.76418   3
  -1 -13  -5 -0.0673 5.22241   2
   1 -13   5 29.5847 12.0451   1
   1 -13   5 3.91003 11.5316   1
  -1  13  -5 4.88329 8.98412   2
  -2 -13  -5 40.0252 6.76129   2
   2 -13   5 16.6267 12.9396   1
   2 -13   5 42.7259 11.2726   3
  -2  13  -5 41.5925 10.7822   2
   3 -13   5 283.910 37.8527   1
   3 -13   5 222.310 22.4210   3
  -3 -13  -5 233.546 17.4368   2
  -3  13  -5 216.676 23.2257   2
  -4 -13  -5 187.064 19.8768   3
   4 -13   5 200.976 23.7945   1
  -4 -13  -5 204.254 17.3611   2
  -4  13  -5 216.448 21.3445   2
  -5 -13  -5 165.788 19.3224   3
   5 -13   5 201.861 18.2651   3
  -5  13  -5 182.214 19.1305   2
  -6 -13  -5 154.968 20.1123   4
  -6 -13  -5 139.223 16.5274   3
   6 -13   5 167.285 17.3446   3
  -6  13  -5 177.892 19.1492   2
   7 -13   5 6.10335 11.9353   3
  -7 -13  -5 4.06296 9.23422   4
  -7 -13  -5 22.7799 11.0425   2
  -7  13  -5 5.08147 16.1078   2
   8 -13   5 20.9466 12.8547   3
  -8 -13  -5 6.75089 9.77169   3
  -8 -13  -5 13.0923 12.4098   2
  -8 -13  -5 15.6887 10.5100   4
  -8  13  -5 -4.4387 17.4539   2
   8 -14  -5 20.5209 11.6891   3
  -8 -14   5 15.0960 12.6934   4
  -8  14   5 -2.0650 14.7678   2
   7 -14  -5 143.840 16.3538   3
  -7 -14   5 151.089 17.7950   3
  -7 -14   5 186.527 18.0064   4
   6 -14  -5 140.882 15.3930   3
  -6 -14   5 103.107 14.4956   4
  -6 -14   5 114.058 12.6311   3
  -6  14   5 136.475 14.2963   2
   5 -14  -5 3.88972 10.8803   3
  -5 -14   5 -4.4646 9.26348   3
  -5 -14   5 13.2854 11.3222   4
  -5  14   5 12.6516 9.49504   2
  -4 -14   5 15.5603 9.50798   3
  -4 -14   5 19.9290 10.3524   4
   4 -14  -5 35.4282 7.95593   2
   4 -14  -5 28.2751 11.2491   3
   4  14  -5 14.5839 10.2097   2
  -4  14   5 19.7259 8.12839   2
  -3 -14   5 0.04007 9.49418   3
   3 -14  -5 1.13017 17.0029   3
  -3 -14   5 4.22248 10.0157   4
   3 -14  -5 -7.0338 6.60887   2
   3  14  -5 6.61279 9.92014   2
  -3  14   5 -4.6923 7.02973   2
  -2 -14   5 75.3544 11.9842   3
  -2 -14   5 83.2813 11.7983   4
   2 -14  -5 86.2759 8.74712   2
  -2  14   5 87.0467 8.92118   2
   1 -14  -5 375.966 23.9330   2
  -1 -14   5 404.642 28.2673   3
  -1 -14   5 371.320 25.8237   4
   1 -14  -5 390.633 36.6045   3
  -1  14   5 361.284 24.1713   2
   0 -14  -5 25.9719 14.6028   3
   0 -14   5 12.7140 8.75292   4
   0 -14   5 24.3431 12.5135   3
   0 -14  -5 23.3761 6.44250   2
   0  14   5 19.1977 6.63602   2
   0  14  -5 32.0675 15.3772   2
   1 -14   5 65.2904 16.2128   1
  -1 -14  -5 64.4451 13.7023   3
   2 -14   5 92.2270 15.4074   3
  -2 -14  -5 93.4729 9.32010   2
   2 -14   5 100.485 16.8659   1
  -2  14  -5 93.1543 13.2483   2
  -3 -14  -5 10.9098 7.64014   2
   3 -14   5 9.90490 11.6027   3
   3 -14   5 33.5736 15.2800   1
  -3  14  -5 -3.2613 11.2742   2
   4 -14   5 8.17900 12.0920   3
  -4 -14  -5 4.75125 11.4002   3
   4 -14   5 2.75032 17.9099   1
  -4  14  -5 12.4145 12.9653   2
  -5 -14  -5 2.06677 10.7646   3
   5 -14   5 -3.5408 11.8344   3
  -5  14  -5 -4.5085 13.9015   2
  -6 -14  -5 46.7766 11.5440   2
   6 -14   5 35.3804 12.9269   3
  -6 -14  -5 22.7971 10.6555   3
  -6 -14  -5 42.7658 10.9660   4
  -6  14  -5 53.2135 16.9924   2
   7 -14   5 4.05594 13.2103   3
  -7 -14  -5 -2.3713 10.9583   2
  -7 -14  -5 -0.8758 10.4362   4
  -7 -14  -5 -3.3715 10.1446   3
  -7  14  -5 -2.8514 16.5288   2
  -8 -14  -5 -9.9774 9.73287   3
   8 -14   5 6.73414 12.7846   3
  -8 -14  -5 -18.258 12.0729   2
  -8 -14  -5 7.10349 10.7706   4
  -8  14  -5 15.7999 18.4146   2
   8 -15  -5 35.1419 13.2298   3
  -8 -15   5 51.4565 14.9788   4
  -8  15   5 31.7592 16.3579   2
  -7 -15   5 -5.9288 11.9934   4
   7 -15  -5 23.7360 12.9662   3
  -7 -15   5 3.67279 9.84855   3
  -7  15   5 3.80079 13.5408   2
  -6 -15   5 11.3328 9.86907   3
   6 -15  -5 3.67794 12.4613   3
  -6 -15   5 -6.1574 11.9941   4
  -6  15   5 9.46177 11.7411   2
  -5 -15   5 28.9540 11.8624   4
   5 -15  -5 55.6504 13.3548   3
  -5 -15   5 43.1832 11.4895   3
  -5  15   5 27.6277 10.4657   2
   4 -15  -5 163.694 17.3578   3
  -4 -15   5 149.105 15.7910   4
  -4 -15   5 175.316 19.0158   3
  -4  15   5 155.871 16.6974   2
   4  15  -5 159.746 16.0144   2
   3 -15  -5 121.361 12.2435   2
  -3 -15   5 162.893 15.7972   4
  -3 -15   5 162.779 15.7629   3
   3 -15  -5 133.907 16.3231   3
  -3  15   5 171.241 15.3506   2
   3  15  -5 188.362 19.7594   2
   2 -15  -5 10.2342 12.0641   3
  -2 -15   5 8.22193 10.2223   4
  -2 -15   5 7.28746 10.3301   3
   2 -15  -5 2.61145 6.92760   2
  -2  15   5 6.95883 7.28211   2
   2  15  -5 3.80060 10.4076   2
   1 -15  -5 9.68268 6.73852   2
  -1 -15   5 19.2696 11.6438   3
   1 -15  -5 7.33481 11.8341   3
  -1  15   5 8.06486 7.17516   2
   1  15  -5 2.76483 10.3104   2
   0 -15  -5 14.6233 11.3726   3
   0 -15   5 5.90759 9.24881   4
   0 -15   5 6.28012 11.4356   3
   0 -15  -5 2.42230 6.83744   2
   0  15   5 6.94480 6.99868   2
   0  15  -5 10.2402 10.5343   2
  -1 -15  -5 84.5981 11.2062   1
  -1 -15  -5 69.5034 8.87717   2
  -1 -15  -5 106.643 14.0691   3
   1 -15   5 109.773 13.9828   3
  -1  15  -5 91.8326 13.0287   2
   2 -15   5 -2.5201 11.6797   3
  -2 -15  -5 2.66423 7.22749   2
  -2 -15  -5 -2.6815 11.1650   3
  -2  15  -5 14.0231 11.4664   2
  -3 -15  -5 -1.1875 11.2432   3
   3 -15   5 -5.7045 11.9101   3
  -3  15  -5 10.8988 12.7699   2
  -4 -15  -5 51.7151 12.1001   3
   4 -15   5 65.3257 14.4675   3
  -4  15  -5 51.7010 14.5928   2
  -5 -15  -5 12.0925 10.9306   3
   5 -15   5 -0.3117 12.1342   3
  -5  15  -5 15.1311 14.9337   2
   6 -15   5 -10.875 12.7048   3
  -6 -15  -5 12.3852 10.8204   3
  -6 -15  -5 6.39018 11.0194   4
  -6  15  -5 -19.007 15.6736   2
  -7 -15  -5 46.9557 11.6992   3
   7 -15   5 36.1546 14.4618   3
  -7 -15  -5 78.3285 13.5338   2
  -7 -15  -5 89.0316 13.2699   4
  -7  15  -5 43.2518 18.5991   2
  -7 -16   5 24.0920 10.9670   3
  -7 -16   5 25.7053 13.6143   4
   7 -16  -5 30.9033 14.2835   3
  -7  16   5 17.4383 15.3447   2
  -6 -16   5 34.1286 11.6869   3
   6 -16  -5 38.5136 13.4605   3
  -6 -16   5 33.2948 13.4533   4
  -6  16   5 42.1331 12.9278   2
  -5 -16   5 -8.0707 11.6375   4
   5 -16  -5 14.0403 13.1154   3
  -5 -16   5 -6.8892 10.9755   3
  -5  16   5 6.02824 10.3652   2
  -4 -16   5 5.48747 10.7826   3
  -4 -16   5 15.3069 11.9600   4
   4 -16  -5 11.3308 12.8719   3
   4  16  -5 -2.5856 11.3503   2
  -4  16   5 14.4320 9.56404   2
  -3 -16   5 44.2869 12.6653   3
   3 -16  -5 87.9429 14.9233   3
  -3 -16   5 88.7999 13.6870   4
  -3  16   5 54.8920 9.67011   2
   3  16  -5 65.4159 12.6075   2
  -2 -16   5 4.14806 11.0206   3
  -2 -16   5 16.1346 11.1021   4
   2 -16  -5 18.3622 12.7371   3
   2  16  -5 3.89253 11.1697   2
  -2  16   5 -5.0017 7.90341   2
  -1 -16   5 65.2768 11.8497   4
  -1 -16   5 57.5208 13.5237   3
   1 -16  -5 68.8723 10.5102   2
   1 -16  -5 68.1548 13.8819   3
  -1  16   5 62.3925 9.25441   2
   1  16  -5 59.1549 12.4020   2
   0 -16   5 22.6592 11.0746   4
   0 -16   5 51.6353 13.0442   3
   0 -16  -5 18.9839 7.90310   2
   0 -16  -5 21.5179 12.7736   3
   0  16  -5 37.3977 11.9794   2
  -1 -16  -5 187.064 18.7902   3
   1 -16   5 175.907 21.4634   3
  -1 -16  -5 188.611 16.8852   2
  -1  16  -5 213.900 18.4022   2
   2 -16   5 10.7832 12.8877   3
  -2 -16  -5 34.3876 13.0317   3
  -2  16  -5 0.52094 12.6041   2
   3 -16   5 12.3198 13.2370   3
  -3 -16  -5 13.1786 11.7215   3
  -3  16  -5 21.5269 13.4532   2
  -4 -16  -5 120.720 16.3872   3
   4 -16   5 150.135 18.3409   3
  -4  16  -5 189.158 19.2193   2
  -5 -16  -5 60.4189 13.0912   3
   5 -16   5 90.0359 15.2258   3
  -5  16  -5 67.0614 17.9424   2
  -6 -16  -5 31.6740 12.5338   4
   6 -16   5 12.4078 14.3226   3
  -6 -16  -5 19.9249 12.7333   3
  -6  16  -5 8.44663 17.3734   2
  -7 -16  -5 15.4104 13.2772   2
   7 -16   5 46.4750 15.4843   3
  -7 -16  -5 27.4187 12.3674   3
  -7 -16  -5 -0.0731 12.2871   4
  -7  16  -5 14.4433 19.9262   2
  -6 -17   5 45.3254 12.7938   3
   6 -17  -5 47.8932 14.7639   3
  -6 -17   5 23.9611 13.7583   4
  -6  17   5 11.4147 16.5472   2
  -5 -17   5 106.933 14.7406   3
  -5 -17   5 70.6806 14.7954   4
   5 -17  -5 90.0958 15.7010   3
  -5  17   5 68.7147 15.1142   2
  -4 -17   5 95.4400 15.1678   4
  -4 -17   5 105.589 14.3212   3
   4 -17  -5 110.748 16.3599   3
  -4  17   5 79.4008 12.4519   2
  -3 -17   5 28.9091 12.1896   3
   3 -17  -5 47.4913 14.5799   3
  -3 -17   5 0.09784 12.6719   4
  -3  17   5 6.66117 9.60004   2
   3  17  -5 16.7784 12.5184   2
  -2 -17   5 12.7509 12.3795   4
  -2 -17   5 -0.1582 11.8641   3
   2 -17  -5 -16.173 13.6285   3
   2  17  -5 -1.9530 11.8861   2
  -2  17   5 13.2618 9.13335   2
  -1 -17   5 119.997 16.2246   3
   1 -17  -5 94.1527 16.3711   3
  -1 -17   5 155.660 15.6801   4
   1  17  -5 144.830 15.5846   2
  -1  17   5 116.808 12.2748   2
   0 -17   5 19.0034 11.6001   4
   0 -17   5 20.4428 13.1846   3
   0 -17  -5 11.2713 13.4070   3
   0  17  -5 14.2998 12.6151   2
   1 -17   5 1.63298 12.7425   3
  -1 -17  -5 -7.0652 12.4832   3
  -1  17  -5 9.32420 13.0953   2
  -2 -17  -5 31.0096 13.4106   3
   2 -17   5 28.6871 14.3892   3
  -2  17  -5 21.0643 13.5314   2
  -3 -17  -5 54.0578 14.3842   3
   3 -17   5 56.2458 15.7566   3
  -3  17  -5 38.5451 15.3485   2
   4 -17   5 48.9478 15.8035   3
  -4 -17  -5 40.2499 14.0570   3
  -4  17  -5 48.4859 16.1421   2
   5 -17   5 4.27586 13.7574   3
  -5 -17  -5 -10.320 12.9547   3
  -5  17  -5 10.0145 16.9014   2
  -6 -17  -5 47.4937 13.2031   4
   6 -17   5 63.9011 16.7052   3
  -6 -17  -5 39.4409 13.0606   3
  -6  17  -5 56.6072 20.5501   2
  -5 -18   5 134.222 17.3192   4
  -5 -18   5 120.555 16.5942   3
   5 -18  -5 144.867 18.8091   3
  -4 -18   5 29.4040 13.2813   3
   4 -18  -5 24.2183 15.9321   3
  -4 -18   5 34.1600 13.9395   4
  -4  18   5 33.0465 11.1124   2
   3 -18  -5 229.292 26.3418   3
  -3 -18   5 200.197 19.5951   4
  -3 -18   5 172.080 19.1577   3
  -3  18   5 177.291 18.9828   2
   3  18  -5 237.928 23.3195   2
   2 -18  -5 -7.2786 14.0145   3
  -2 -18   5 12.5604 13.7285   3
  -2 -18   5 -14.521 12.4697   4
  -2  18   5 2.61092 9.85591   2
   2  18  -5 2.84312 12.9772   2
   1 -18  -5 -20.862 14.1903   3
  -1 -18   5 2.85938 13.2263   3
  -1 -18   5 -20.739 11.6615   4
  -1  18   5 6.19689 9.68920   2
   1  18  -5 -5.2204 13.0059   2
   0 -18   5 358.002 28.5842   4
   0 -18  -5 321.025 29.7156   3
   0 -18   5 350.219 29.7127   3
   0  18  -5 361.944 30.2148   2
  -1 -18  -5 -14.392 13.9118   3
   1 -18   5 -5.9506 13.8533   3
   1 -18   5 -6.8010 12.4505   4
  -1  18  -5 1.77448 13.1595   2
  -2 -18  -5 14.4507 13.9694   3
   2 -18   5 20.8005 14.4748   3
  -2  18  -5 9.68684 14.2989   2
  -3 -18  -5 40.5624 14.8505   3
   3 -18   5 86.5341 17.4119   3
  -3  18  -5 76.9226 16.5713   2
  -4 -18  -5 96.7199 16.4015   3
   4 -18   5 151.920 19.3220   3
  -4  18  -5 125.942 19.9083   2
   5 -18   5 16.3347 15.3907   3
  -5 -18  -5 6.24947 13.2175   3
  -5  18  -5 -15.182 18.1282   2
  -4 -19   5 4.64037 14.1399   3
   4 -19  -5 -9.0795 15.4030   3
  -4 -19   5 1.31654 13.9346   4
  -3 -19   5 10.0729 13.6991   4
  -3 -19   5 4.84053 14.6772   3
   3 -19  -5 9.48812 16.4102   3
   3  19  -5 13.0557 14.1915   2
  -2 -19   5 20.1883 14.3773   3
  -2 -19   5 17.7724 13.3407   4
   2 -19  -5 37.4986 16.5835   3
   2  19  -5 50.0412 15.3057   2
  -2  19   5 23.0831 10.7167   2
  -1 -19   5 71.7651 16.4764   3
   1 -19  -5 37.4909 15.7608   3
  -1 -19   5 62.4080 14.6406   4
  -1  19   5 75.3008 11.5606   2
   1  19  -5 41.3030 15.3969   2
   0 -19   5 17.1904 15.3900   3
   0 -19   5 -21.348 12.9720   4
   0 -19  -5 -8.8357 15.2705   3
   0  19  -5 -10.081 14.0591   2
   1 -19   5 -6.1671 15.0174   3
   1 -19   5 -8.1360 12.3996   4
  -1 -19  -5 8.33732 15.0062   3
  -1  19  -5 -5.2549 14.5940   2
   2 -19   5 27.0474 15.7115   3
  -2 -19  -5 28.7828 15.9873   3
  -2  19  -5 25.3997 16.8628   2
   3 -19   5 23.3779 16.2184   3
  -3 -19  -5 40.7306 15.4052   3
  -3  19  -5 62.7863 18.0660   2
  -1 -20   5 13.3999 14.5391   4
  -1 -20   5 3.89506 15.3195   3
   1 -20  -5 -2.0266 17.0628   3
   1  20  -5 19.4370 16.2119   2
   0 -20   5 27.0530 14.2356   4
   0 -20   5 26.1627 16.3791   3
   0 -20  -5 35.9449 16.2404   3
   0  20  -5 35.0404 16.2630   2
   1 -20   5 121.297 19.3040   3
  -1 -20  -5 124.558 19.6300   3
 -11   0   6 122.090 21.4026   2
 -10   0   6 23.7194 16.7093   2
  -9   0   6 343.947 30.0510   2
  -8   0   6 172.041 16.7787   2
   8   0  -6 162.227 9.95770   3
  -8   0   6 163.847 17.0254   2
  -7   0   6 188.512 20.3668   2
  -7   0   6 168.492 15.9088   2
  -7   0   6 181.550 22.5859   1
   7   0  -6 222.377 13.7494   3
   7   0  -6 181.720 23.2802   1
  -6   0   6 1.05288 8.44483   1
   6   0  -6 3.13491 5.50360   3
  -6   0   6 4.83627 5.46229   3
  -6   0   6 6.79040 5.67380   2
   6   0  -6 -3.2626 16.5660   1
   6   0  -6 -4.7133 8.75300   4
  -6   0   6 -4.4115 8.18969   2
  -5   0   6 1352.90 73.3806   3
  -5   0   6 1225.27 77.3101   1
   5   0  -6 1273.16 73.5391   3
   5   0  -6 1325.23 74.7558   4
  -5   0   6 1309.59 73.7967   2
   5   0  -6 1198.41 76.8863   1
   4   0  -6 742.731 42.5546   3
   4   0  -6 688.062 45.1980   1
  -4   0   6 725.072 40.9763   2
   4   0  -6 741.924 42.9518   4
  -4   0   6 666.794 45.7100   1
  -4   0   6 720.536 42.4348   3
   3   0  -6 494.986 30.1124   3
  -3   0   6 505.401 30.3877   3
   3   0  -6 520.396 30.4201   4
  -3   0   6 466.296 28.0612   2
  -3   0   6 464.907 33.0276   1
   2   0  -6 79.5809 7.95652   4
  -2   0   6 64.2245 9.90265   1
   2   0  -6 105.333 13.2806   1
  -2   0   6 67.6384 5.58745   2
   2   0  -6 61.1204 8.08851   3
  -2   0   6 63.2074 8.90288   3
   1   0  -6 1447.50 85.0804   4
  -1   0   6 1549.21 84.1612   2
   1   0  -6 1474.26 86.9763   1
   1   0  -6 1483.92 84.1292   2
   1   0  -6 1463.66 86.5279   3
  -1   0   6 1551.16 87.6848   1
  -1   0   6 1542.29 86.1855   3
   0   0   6 2356.77 133.047   3
   0   0  -6 2303.52 133.436   1
   0   0   6 2495.97 131.305   2
   0   0  -6 2153.51 131.655   4
   0   0  -6 2241.54 131.064   2
   0   0   6 2521.52 134.326   1
  -1   0  -6 98.5605 10.1777   1
   1   0   6 85.4097 9.97365   3
   1   0   6 94.9554 8.58669   2
  -1   0  -6 93.0217 9.19509   3
  -1   0  -6 86.3538 7.29365   4
   1   0   6 79.2306 11.4296   1
  -1   0  -6 89.7123 6.77161   2
  -2   0  -6 442.347 28.8523   3
  -2   0  -6 440.809 28.7122   1
  -2   0  -6 463.519 26.2750   4
   2   0   6 503.284 28.2127   2
   2   0   6 450.736 29.7053   1
   2   0   6 448.232 30.1448   3
  -2   0  -6 477.867 26.8916   2
  -3   0  -6 1754.45 94.5041   3
   3   0   6 1578.27 95.1067   3
   3   0   6 1616.92 94.0672   2
   3   0   6 1641.99 95.1781   1
   3   0   6 1621.81 94.7649   1
  -3   0  -6 1699.18 93.2749   2
  -4   0  -6 9.28055 6.51281   3
   4   0   6 6.25619 5.88070   1
   4   0   6 1.53645 9.12447   3
   4   0   6 14.9797 8.91775   2
  -4   0  -6 8.25515 5.69090   2
   4   0   6 6.84295 5.68647   1
  -5   0  -6 355.441 22.7919   2
   5   0   6 358.834 24.4458   1
   5   0   6 333.186 24.6160   1
  -5   0  -6 362.601 23.6352   3
   5   0   6 332.171 26.3466   3
   5   0   6 355.533 25.4899   2
  -6   0  -6 1980.92 102.246   3
   6   0   6 1774.70 103.980   1
   6   0   6 1674.69 103.414   3
  -6   0  -6 1811.18 102.259   2
   6   0   6 1710.32 103.802   1
  -7   0  -6 282.269 21.6060   2
   7   0   6 231.793 23.8814   3
  -7   0  -6 298.156 20.1067   3
  -8   0  -6 8.15264 6.67494   3
   8   0   6 64.5649 10.9619   3
  -8   0  -6 6.12469 10.7854   2
   9   0   6 61.8112 10.6789   3
  -9   0  -6 63.3421 13.3708   2
 -10   0  -6 481.488 36.8066   2
 -11   0  -6 141.434 19.5106   2
 -11  -1   6 22.0974 18.2688   2
 -11   1   6 35.3808 19.4763   2
 -10  -1   6 25.7923 15.7592   2
 -10   1   6 42.9342 18.3148   2
  -9  -1   6 124.305 17.8718   2
  -9   1   6 152.728 18.8972   2
   8  -1  -6 72.7488 6.67340   3
  -8  -1   6 46.4386 10.1981   2
  -8  -1   6 55.9664 12.9394   2
  -8   1   6 74.0776 14.2199   2
   7  -1  -6 19.4569 5.47955   3
  -7  -1   6 27.2490 10.8839   2
  -7  -1   6 9.66809 6.97541   2
  -7  -1   6 6.03216 9.37988   1
   7  -1  -6 11.0540 9.66423   1
  -7   1   6 16.6486 10.4686   1
   7   1  -6 1.00299 11.0654   1
  -7   1   6 37.0187 11.0203   2
   7   1  -6 13.2697 4.25152   3
   6  -1  -6 36.1094 6.66012   3
  -6  -1   6 23.3446 6.25875   2
  -6  -1   6 27.0626 9.22476   1
   6  -1  -6 35.8019 9.81958   4
   6  -1  -6 36.0693 10.2827   1
  -6  -1   6 31.1460 9.41129   2
  -6  -1   6 30.3375 6.00868   3
  -6   1   6 12.0919 9.45928   1
  -6   1   6 36.3516 9.35107   2
   6   1  -6 36.9493 11.3813   1
   6   1  -6 34.0395 5.92465   3
  -6   1   6 28.4375 6.26526   2
   6   1  -6 38.4626 10.6722   4
  -5  -1   6 904.201 55.6860   2
   5  -1  -6 1005.86 56.6101   3
  -5  -1   6 979.970 60.5956   1
  -5  -1   6 963.293 56.3200   3
   5  -1  -6 1005.32 57.7821   4
   5  -1  -6 881.020 59.7904   1
  -5   1   6 1000.71 56.7253   2
  -5   1   6 909.293 60.2587   1
   5   1  -6 1022.46 57.9747   4
   5   1  -6 973.036 56.4285   3
  -5   1   6 960.120 55.5913   2
  -5   1   6 1123.49 56.4490   3
   5   1  -6 923.737 59.9183   1
  -4  -1   6 334.213 26.4375   1
  -4  -1   6 353.592 21.2875   2
   4  -1  -6 376.332 24.0343   4
   4  -1  -6 343.607 25.9386   1
  -4  -1   6 325.401 23.0273   3
   4  -1  -6 341.239 22.9902   3
  -4   1   6 387.886 23.2811   3
   4   1  -6 370.855 23.2323   3
  -4   1   6 340.677 27.2640   1
  -4   1   6 352.559 20.9741   2
   4   1  -6 364.824 23.8198   4
  -4   1   6 337.071 22.4662   2
   4   1  -6 352.777 25.8769   1
  -3  -1   6 8.75003 6.26402   3
   3  -1  -6 -0.3659 5.13562   1
  -3  -1   6 7.15062 3.21054   2
   3  -1  -6 2.85939 5.63962   4
  -3  -1   6 0.01342 7.33274   1
   3  -1  -6 7.40108 5.56394   3
   3   1  -6 6.61057 6.17114   3
   3   1  -6 23.8740 6.67209   4
  -3   1   6 2.73350 2.64540   2
   3   1  -6 5.42315 6.75818   1
  -3   1   6 3.49646 6.73661   3
  -3   1   6 4.64991 7.26675   1
  -3   1   6 7.85892 4.34275   2
  -2  -1   6 993.280 57.3643   3
  -2  -1   6 1034.68 55.5533   2
   2  -1  -6 945.488 58.5505   1
  -2  -1   6 1032.91 59.5966   1
   2  -1  -6 933.465 57.0758   3
  -2   1   6 945.362 57.2963   3
   2   1  -6 1035.76 57.4022   3
   2   1  -6 1011.83 59.0368   1
  -2   1   6 952.251 55.2701   2
   2   1  -6 975.626 56.8616   4
  -2   1   6 978.341 59.6127   1
  -1  -1   6 1497.59 87.2827   3
   1  -1  -6 1486.09 88.1677   1
  -1  -1   6 1625.34 85.6049   2
  -1  -1   6 1630.30 89.0747   1
   1   1  -6 1508.17 89.9358   3
  -1   1   6 1509.50 85.3241   2
   1   1  -6 1452.06 85.5288   2
  -1   1   6 1456.21 87.3221   3
   1   1  -6 1537.27 86.4430   4
  -1   1   6 1539.69 89.0866   1
   1   1  -6 1534.15 88.3803   1
   0  -1  -6 166.019 16.8844   3
   0  -1   6 188.775 15.8596   1
   0  -1  -6 176.297 10.7950   2
   0  -1   6 196.364 11.8544   2
   0  -1  -6 185.512 14.7278   1
   0  -1   6 182.445 15.5187   3
   0   1  -6 175.051 12.5276   4
   0   1   6 191.182 11.6412   2
   0   1  -6 199.713 11.4418   2
   0   1   6 188.918 15.7079   3
   0   1   6 199.456 16.4613   1
   0   1  -6 190.994 15.1599   1
   0   1  -6 150.222 15.8416   3
   1  -1   6 57.9790 7.91039   1
   1  -1   6 48.8175 5.43629   2
   1  -1   6 44.5668 7.71343   3
  -1  -1  -6 48.4343 6.36810   1
  -1  -1  -6 39.1776 6.93230   3
  -1  -1  -6 49.3091 5.16627   2
  -1   1  -6 53.0490 7.66493   3
   1   1   6 38.7385 7.01713   1
   1   1   6 45.4125 5.29033   2
   1   1   6 69.5490 9.34711   3
  -1   1  -6 52.5706 6.73645   1
  -1   1  -6 54.3494 5.56303   4
  -1   1  -6 55.1517 5.56189   2
  -2  -1  -6 557.413 31.4430   2
  -2  -1  -6 507.817 32.9822   3
   2  -1   6 511.340 34.0962   3
  -2  -1  -6 525.326 33.1263   1
   2  -1   6 631.937 32.7740   2
   2   1   6 544.368 32.5242   2
  -2   1  -6 555.804 33.6115   3
   2   1   6 509.669 33.9461   1
   2   1   6 542.636 34.8997   3
  -2   1  -6 559.442 31.5886   2
  -2   1  -6 558.959 33.7516   1
   3  -1   6 53.3959 7.85996   1
  -3  -1  -6 75.0077 8.00368   2
   3  -1   6 50.4018 9.46183   3
   3  -1   6 54.0164 8.36792   2
  -3  -1  -6 64.7139 7.88977   3
   3   1   6 72.6482 8.51746   2
  -3   1  -6 73.6995 8.80297   3
   3   1   6 61.5214 10.4246   3
   3   1   6 69.3339 9.21413   1
   3   1   6 60.9259 8.11379   1
  -3   1  -6 77.0986 8.34320   2
  -4  -1  -6 305.459 19.0642   2
   4  -1   6 280.403 21.4741   1
   4  -1   6 243.440 21.7711   3
   4  -1   6 305.909 21.8381   2
   4  -1   6 297.278 20.5046   1
  -4  -1  -6 310.857 20.4023   3
   4   1   6 286.689 20.6245   1
   4   1   6 266.233 21.7670   2
   4   1   6 261.586 23.0773   3
   4   1   6 275.512 20.0002   1
  -4   1  -6 276.446 20.4050   3
  -4   1  -6 321.352 19.3948   2
  -5  -1  -6 2.89109 6.41373   2
   5  -1   6 13.2711 9.65040   2
  -5  -1  -6 1.87367 6.82846   3
   5  -1   6 0.89912 8.94044   3
   5  -1   6 -4.7600 6.85796   1
   5  -1   6 -3.4976 6.02126   1
   5   1   6 1.39629 6.19462   1
  -5   1  -6 21.5690 7.24743   2
  -5   1  -6 -1.0841 6.91757   3
   5   1   6 6.45339 10.3087   3
   5   1   6 0.66002 6.22280   1
  -6  -1  -6 127.451 13.3950   2
   6  -1   6 115.625 16.0350   1
  -6  -1  -6 125.056 13.6069   3
   6  -1   6 131.807 15.6100   1
   6   1   6 129.217 15.0708   1
   6   1   6 108.475 13.7881   3
   6   1   6 100.411 12.1211   1
  -7  -1  -6 122.252 12.7052   2
   7  -1   6 172.765 19.2079   3
  -7  -1  -6 136.617 13.8627   3
   7   1   6 93.6021 14.1314   1
  -7   1  -6 134.673 13.2438   2
   7   1   6 112.173 13.7927   3
  -7   1  -6 164.972 13.7521   3
  -8  -1  -6 296.176 20.6871   3
  -8  -1  -6 277.579 24.6737   2
   8  -1   6 291.690 25.1814   3
   8   1   6 290.226 23.6855   3
  -8   1  -6 333.174 24.1998   2
  -8   1  -6 295.665 20.7948   3
   9  -1   6 9.19074 9.78028   3
  -9  -1  -6 3.52388 11.4912   2
  -9   1  -6 -12.765 12.3991   2
 -10  -1  -6 68.6792 14.5714   2
 -10   1  -6 67.1346 15.1294   2
 -11  -1  -6 100.209 17.2393   2
 -11   1  -6 127.100 18.0564   2
 -11  -2   6 20.0674 18.4428   2
 -11   2   6 -12.394 19.3499   2
 -10  -2   6 60.2878 16.1732   2
 -10   2   6 81.9819 18.4626   2
  -9  -2   6 22.4886 21.6913   2
  -9   2   6 14.1120 15.3065   2
  -8  -2   6 29.7615 12.5209   2
   8  -2  -6 28.0215 4.60560   3
   8  -2  -6 28.9352 5.07596   3
  -8   2   6 31.9321 13.5476   2
  -7  -2   6 76.7137 11.8081   2
  -7  -2   6 67.5539 13.1315   1
   7  -2  -6 73.5287 7.73946   3
   7  -2  -6 98.2327 16.3012   1
  -7  -2   6 52.6538 8.51002   2
  -7  -2   6 74.6055 6.71333   3
  -7   2   6 39.2660 12.1261   1
   7   2  -6 70.6719 7.61860   3
  -7   2   6 62.2327 12.0350   2
   6  -2  -6 8.15716 8.77195   4
  -6  -2   6 7.56595 8.96476   2
   6  -2  -6 -8.7459 8.56966   1
  -6  -2   6 8.24682 6.27724   2
   6  -2  -6 -0.4178 6.10289   3
  -6  -2   6 -0.4797 5.46239   3
  -6  -2   6 10.7200 8.49756   1
  -6   2   6 12.2592 8.85213   2
   6   2  -6 8.18743 4.89463   3
   6   2  -6 10.1718 9.54879   4
   6   2  -6 0.89036 8.66280   1
  -6   2   6 -5.1955 14.1931   1
  -5  -2   6 374.229 25.1986   3
   5  -2  -6 401.816 27.0271   4
  -5  -2   6 402.246 24.6031   2
   5  -2  -6 399.947 25.4963   3
  -5  -2   6 377.995 29.7029   1
  -5   2   6 393.291 30.3595   1
   5   2  -6 390.798 27.5129   4
   5   2  -6 406.722 29.3023   1
   5   2  -6 421.848 25.1845   3
  -5   2   6 424.351 26.2684   2
  -4  -2   6 159.824 18.6822   1
   4  -2  -6 187.760 18.1700   1
  -4  -2   6 182.536 13.0924   2
   4  -2  -6 177.615 14.6275   3
  -4  -2   6 184.366 15.1961   3
  -4   2   6 206.332 19.7192   1
  -4   2   6 213.556 15.3985   3
   4   2  -6 215.599 15.2642   3
  -4   2   6 189.922 12.3164   2
  -4   2   6 176.906 14.6575   2
   4   2  -6 219.825 17.0483   4
  -3  -2   6 1261.69 70.0034   2
   3  -2  -6 1206.38 73.2312   1
  -3  -2   6 1068.77 71.0643   3
  -3  -2   6 1310.21 74.0701   1
   3   2  -6 1263.32 71.4447   4
   3   2  -6 1320.58 71.4677   3
   3   2  -6 1272.23 73.8724   1
  -3   2   6 1177.54 69.5859   2
  -3   2   6 1293.48 71.3964   3
  -2  -2   6 724.649 50.7608   3
   2  -2  -6 872.857 52.5614   1
  -2  -2   6 975.378 49.6186   2
  -2   2   6 809.460 49.2382   2
  -2   2   6 814.836 48.9973   2
  -2   2   6 949.678 51.6431   3
   2   2  -6 912.334 53.2513   1
  -2   2   6 931.824 53.9349   1
   2   2  -6 930.609 49.6607   2
   2   2  -6 821.252 53.0103   4
   2   2  -6 892.790 52.4471   3
   1  -2  -6 90.7329 10.9113   1
  -1  -2   6 111.029 12.7758   1
  -1  -2   6 93.6022 7.15484   2
  -1  -2   6 85.8758 9.14082   3
   1  -2  -6 61.1397 8.76638   3
   1   2  -6 86.3861 9.02145   4
  -1   2   6 74.4533 10.2869   1
  -1   2   6 81.5934 9.92417   3
   1   2  -6 90.8606 11.6389   1
   1   2  -6 94.5168 6.90297   2
   0  -2   6 36.0085 4.25000   2
   0  -2  -6 36.5448 5.92593   1
   0  -2   6 47.7554 7.73636   1
   0  -2  -6 28.7853 6.01988   3
   0  -2   6 24.0492 6.75470   3
   0   2  -6 29.0958 6.76403   3
   0   2  -6 40.9539 4.74287   4
   0   2   6 31.7711 7.39358   1
   0   2  -6 35.4153 3.75774   2
   0   2  -6 32.4023 6.10134   1
   0   2   6 23.9519 7.85545   3
  -1  -2  -6 347.569 19.4872   2
  -1  -2  -6 323.017 21.9160   1
   1  -2   6 379.465 23.6542   1
   1  -2   6 317.701 22.7973   3
   1  -2   6 353.714 20.6493   2
  -1  -2  -6 277.602 21.7532   3
  -1   2  -6 353.347 22.8006   3
   1   2   6 299.787 23.8792   3
  -1   2  -6 357.134 22.8812   1
  -1   2  -6 352.566 20.1589   2
  -1   2  -6 374.350 19.9414   4
   1   2   6 294.648 26.2010   1
   2  -2   6 1400.51 71.9079   2
  -2  -2  -6 1239.65 72.6585   1
  -2  -2  -6 1097.00 72.1038   3
  -2  -2  -6 1321.10 71.0438   2
   2  -2   6 1308.36 74.1371   1
   2  -2   6 1114.01 72.5774   3
  -2   2  -6 1414.67 72.9344   3
   2   2   6 1198.97 73.2142   1
  -2   2  -6 1322.67 71.2999   2
   2   2   6 1182.68 73.4204   3
   3  -2   6 453.334 30.1649   1
   3  -2   6 383.523 29.4239   3
   3  -2   6 484.065 30.5412   1
  -3  -2  -6 501.511 27.6628   2
  -3  -2  -6 468.976 29.1071   3
   3  -2   6 356.704 33.5587   2
   3   2   6 460.121 29.7289   1
   3   2   6 454.644 31.2515   3
  -3   2  -6 521.861 29.6786   3
  -3   2  -6 506.888 28.1196   2
   3   2   6 494.108 28.9464   1
   4  -2   6 572.919 34.2332   2
  -4  -2  -6 522.405 33.0360   3
  -4  -2  -6 547.625 32.1688   2
  -4  -2  -6 528.115 30.4271   4
   4  -2   6 525.520 34.6484   1
   4  -2   6 435.551 33.9709   3
   4   2   6 530.554 35.3828   3
  -4   2  -6 561.766 32.4944   2
  -4   2  -6 604.029 33.6147   3
   4   2   6 563.216 33.1100   1
   4   2   6 538.196 33.7043   1
  -5  -2  -6 74.5271 8.40735   2
   5  -2   6 64.2523 9.78878   1
   5  -2   6 49.7242 10.1697   3
  -5  -2  -6 57.6541 8.24455   3
   5  -2   6 69.0843 11.1306   2
  -5   2  -6 85.7328 8.92111   3
   5   2   6 67.5839 8.68509   1
   5   2   6 59.4340 11.3391   3
  -5   2  -6 68.4770 8.56299   2
   5   2   6 55.0425 8.12747   1
   6  -2   6 12.1013 9.53046   3
   6  -2   6 4.55314 8.27025   1
  -6  -2  -6 11.1185 7.19718   3
   6  -2   6 5.21321 11.2326   2
  -6  -2  -6 12.9362 7.86628   2
   6  -2   6 33.5873 8.45184   1
  -6   2  -6 17.9671 8.25991   2
   6   2   6 12.1993 7.54906   1
  -6   2  -6 10.9364 6.94956   3
   6   2   6 17.4521 10.3881   3
   6   2   6 5.32292 7.40784   1
  -7  -2  -6 3.87550 8.43863   2
   7  -2   6 13.4789 10.0459   3
  -7  -2  -6 0.58357 6.79066   3
  -7   2  -6 -0.1118 6.83607   3
   7   2   6 -0.1344 8.37597   1
   7   2   6 6.11661 9.98787   3
  -7   2  -6 10.0258 9.52471   2
   8  -2   6 57.0190 11.4908   3
  -8  -2  -6 2.18046 6.88948   3
  -8  -2  -6 8.05780 10.5381   2
   8   2   6 10.7484 9.62367   3
  -8   2  -6 41.7993 20.1043   2
  -8   2  -6 10.7112 7.05087   3
  -9  -2  -6 74.7527 13.8593   2
   9  -2   6 95.1801 12.8311   3
  -9   2  -6 63.8193 13.7994   2
 -10  -2  -6 -0.5243 13.4114   2
 -10   2  -6 12.3346 13.9271   2
 -11  -2  -6 16.1871 15.1999   2
 -11   2  -6 46.5438 16.8132   2
 -11  -3   6 10.8839 17.2297   2
 -11   3   6 15.3658 18.9537   2
 -10  -3   6 17.5201 14.8048   2
 -10   3   6 19.2346 16.9349   2
  -9  -3   6 225.549 22.8002   2
  -9   3   6 211.736 21.4203   2
  -8  -3   6 114.844 15.0678   2
   8  -3  -6 104.619 10.7820   3
   8  -3  -6 94.5271 8.97482   3
  -8   3   6 117.724 15.4055   2
  -7  -3   6 62.3634 8.83560   2
   7  -3  -6 37.1710 12.9409   1
  -7  -3   6 68.5903 13.2088   1
   7  -3  -6 48.4983 7.82223   3
  -7   3   6 63.3048 11.9556   2
   7   3  -6 82.7517 7.61058   3
  -6  -3   6 117.503 15.3119   1
  -6  -3   6 121.172 12.4242   2
   6  -3  -6 82.4322 14.3195   1
  -6  -3   6 127.247 11.3761   3
   6  -3  -6 118.796 12.3351   4
   6  -3  -6 98.1960 10.3985   3
  -6   3   6 85.3863 14.6441   1
  -6   3   6 80.4780 11.7687   2
   6   3  -6 109.344 13.1650   4
   6   3  -6 134.092 10.3251   3
   6   3  -6 106.227 14.3816   1
  -5  -3   6 12.4250 6.14233   3
  -5  -3   6 7.08585 8.26229   1
   5  -3  -6 14.6787 10.9246   3
  -5  -3   6 10.2682 5.59263   2
   5  -3  -6 20.3177 15.3703   1
  -5   3   6 16.9515 7.49629   2
   5   3  -6 22.2328 8.76303   4
   5   3  -6 18.6564 8.18339   1
   5   3  -6 13.2611 5.65523   3
  -5   3   6 18.5364 9.51122   1
  -4  -3   6 705.094 44.5617   1
  -4  -3   6 726.709 40.3380   2
  -4  -3   6 604.210 41.0201   3
   4  -3  -6 575.276 41.3843   3
  -4   3   6 632.002 40.6688   2
   4   3  -6 797.881 41.4430   3
  -4   3   6 768.395 41.5064   3
   4   3  -6 744.317 45.1536   1
  -4   3   6 708.181 45.2427   1
   4   3  -6 714.317 42.0206   4
  -3  -3   6 115.032 8.90095   2
  -3  -3   6 122.213 14.8195   1
   3  -3  -6 97.2059 10.4679   3
   3  -3  -6 102.593 13.1797   1
  -3  -3   6 90.0645 9.44883   3
  -3   3   6 118.524 12.4817   3
  -3   3   6 119.212 15.8223   1
   3   3  -6 112.318 14.4841   1
  -3   3   6 86.0790 8.66511   2
  -3   3   6 101.820 7.01846   2
   3   3  -6 100.462 11.3657   4
  -2  -3   6 30.8331 6.75551   3
   2  -3  -6 31.3560 6.41249   3
   2  -3  -6 39.1856 7.58407   1
  -2  -3   6 45.9534 4.75023   2
  -2  -3   6 40.2275 7.70901   1
   2   3  -6 38.0426 7.60574   1
   2   3  -6 45.6654 4.74451   2
   2   3  -6 44.7694 7.51095   4
  -2   3   6 39.7816 8.06116   3
  -2   3   6 32.7394 8.04292   1
   2   3  -6 37.9219 8.04352   3
  -1  -3   6 373.024 20.4677   2
   1  -3  -6 309.561 22.7834   1
   1  -3  -6 286.101 21.7711   3
  -1  -3   6 338.904 22.1579   3
   1   3  -6 378.249 21.3424   4
   1   3  -6 356.697 24.0820   1
   1   3  -6 359.536 22.5314   3
  -1   3   6 351.648 23.6357   3
   1   3  -6 340.313 20.2491   2
  -1   3   6 328.738 24.9380   1
   0  -3   6 146.067 12.9403   3
   0  -3   6 173.693 14.7064   1
   0  -3  -6 138.610 12.6744   1
   0  -3   6 164.945 10.5036   2
   0  -3  -6 114.010 11.7493   3
   0   3   6 118.674 16.8136   1
   0   3  -6 153.844 14.0587   1
   0   3  -6 168.011 10.7333   4
   0   3  -6 158.686 10.1984   2
   0   3  -6 148.457 13.2116   3
   0   3   6 120.797 14.2025   3
   1  -3   6 -4.5173 5.09469   1
  -1  -3  -6 2.43596 5.01535   3
  -1  -3  -6 -1.1271 1.85116   2
   1  -3   6 -0.1794 4.47027   2
  -1  -3  -6 -3.3225 3.80614   1
   1  -3   6 -3.6287 6.04522   3
  -1   3  -6 -1.7449 6.23338   3
   1   3   6 -0.2299 7.99031   3
  -1   3  -6 6.74512 4.92315   1
  -1   3  -6 -1.0833 3.66042   2
   1   3   6 0.28066 5.64489   1
   2  -3   6 18.2263 6.89060   1
   2  -3   6 19.6472 5.95226   2
   2  -3   6 5.06324 7.03266   3
  -2  -3  -6 8.71854 5.61834   3
  -2  -3  -6 15.5767 5.02674   1
  -2  -3  -6 13.8637 3.36490   2
  -2   3  -6 17.9095 6.91493   3
   2   3   6 17.3446 6.11374   1
  -2   3  -6 19.7343 4.69449   2
   2   3   6 10.7804 8.92364   3
  -3  -3  -6 3.83015 5.57055   3
  -3  -3  -6 1.72981 4.03865   2
   3  -3   6 0.54680 7.22654   3
   3  -3   6 1.98454 5.88089   1
   3  -3   6 -0.9705 5.02508   1
   3  -3   6 -1.0887 6.45497   2
   3   3   6 4.28709 4.17375   1
  -3   3  -6 5.34968 6.40904   3
   3   3   6 2.39394 8.59261   3
   3   3   6 11.9159 5.48308   1
  -3   3  -6 4.01145 5.13684   2
  -4  -3  -6 112.526 10.9039   2
   4  -3   6 86.5245 10.9523   3
   4  -3   6 115.030 14.1178   1
   4  -3   6 109.390 14.5722   1
  -4  -3  -6 106.976 12.3335   3
   4  -3   6 151.799 15.2221   2
   4   3   6 112.679 12.4747   1
  -4   3  -6 107.720 11.3404   2
  -4   3  -6 135.854 13.3133   3
   4   3   6 121.694 10.9425   1
   4   3   6 113.087 13.0777   3
  -5  -3  -6 26.2244 4.04059   4
   5  -3   6 32.9383 9.27688   1
   5  -3   6 27.0875 7.88261   1
   5  -3   6 22.5288 8.35501   3
  -5  -3  -6 23.9170 6.59396   2
  -5  -3  -6 24.3869 7.25345   3
   5  -3   6 15.7069 10.0692   2
   5   3   6 8.39400 9.71524   3
   5   3   6 31.1342 6.57130   1
  -5   3  -6 12.7243 7.11344   3
  -5   3  -6 30.9692 8.11532   2
   5   3   6 27.7245 7.06935   1
   6  -3   6 21.4899 12.8280   1
  -6  -3  -6 12.6095 7.31395   3
   6  -3   6 24.2433 9.22069   1
   6  -3   6 17.3822 11.1618   2
  -6  -3  -6 36.5966 8.07650   2
   6  -3   6 11.7853 9.06774   3
  -6   3  -6 18.6861 8.65608   2
  -6   3  -6 18.1547 7.20335   3
   6   3   6 13.1331 7.39926   1
   6   3   6 10.9867 7.41040   1
   6   3   6 23.1749 10.3057   3
   7  -3   6 68.2509 11.7558   3
  -7  -3  -6 65.4950 8.95846   3
  -7  -3  -6 67.3204 10.2386   2
  -7   3  -6 73.7275 8.90828   3
  -7   3  -6 66.3955 11.2109   2
   7   3   6 53.0665 11.4460   1
   7   3   6 72.1886 11.2689   3
  -8  -3  -6 39.2239 7.88166   3
   8  -3   6 30.8599 11.4290   3
  -8  -3  -6 39.8814 11.0029   2
  -8   3  -6 19.1875 13.8069   2
  -8   3  -6 52.4651 8.33144   3
   9  -3   6 57.1617 12.2119   3
  -9  -3  -6 41.2489 12.1405   2
  -9   3  -6 39.1925 13.2100   2
 -10  -3  -6 91.4694 15.1063   2
 -10   3  -6 111.676 16.8914   2
 -11  -3  -6 -4.4646 14.7229   2
 -11   3  -6 13.1965 15.5302   2
 -11  -4   6 204.395 22.7281   2
 -11   4   6 224.840 24.5355   2
 -10  -4   6 9.16427 15.5201   2
 -10   4   6 -11.016 16.4901   2
  -9  -4   6 18.4143 14.2927   2
  -9   4   6 1.80383 15.0212   2
   8  -4  -6 188.423 13.1793   3
  -8  -4   6 214.640 22.9713   2
   8  -4  -6 184.883 15.0640   3
  -8   4   6 161.272 17.9646   2
  -7  -4   6 623.489 38.2398   2
  -7  -4   6 642.021 36.8694   3
  -7  -4   6 600.122 43.5137   1
  -7   4   6 582.824 40.3954   2
   7   4  -6 651.045 36.3377   3
  -7   4   6 651.235 45.3033   1
  -6  -4   6 374.015 23.9461   2
  -6  -4   6 326.943 22.9860   3
   6  -4  -6 320.484 23.3912   3
  -6  -4   6 361.412 28.8519   1
   6  -4  -6 367.580 31.8583   1
  -6   4   6 389.254 30.8378   1
   6   4  -6 379.323 22.3772   3
   6   4  -6 368.955 27.5826   4
  -6   4   6 344.583 25.6608   2
   6   4  -6 394.327 30.0487   1
  -5  -4   6 43.2797 6.69086   2
  -5  -4   6 34.9483 6.89797   3
   5  -4  -6 55.2127 11.8395   1
   5  -4  -6 32.5361 6.76234   3
  -5  -4   6 67.7974 11.2913   1
  -5   4   6 37.7631 8.03253   2
   5   4  -6 47.0718 6.44274   3
   5   4  -6 51.8412 9.74310   4
  -5   4   6 30.3912 9.78485   1
   5   4  -6 47.2500 11.4471   1
  -4  -4   6 294.883 22.3404   3
  -4  -4   6 373.861 26.3854   1
  -4  -4   6 368.831 21.6894   2
   4  -4  -6 319.522 22.3897   3
   4  -4  -6 348.757 26.3945   1
   4   4  -6 372.759 27.3014   1
   4   4  -6 362.890 24.0436   4
  -4   4   6 378.026 27.4020   1
  -4   4   6 322.345 21.7668   2
  -3  -4   6 246.867 20.0014   4
   3  -4  -6 300.368 23.0697   1
   3  -4  -6 295.853 20.2106   3
  -3  -4   6 288.252 19.7095   2
  -3  -4   6 274.195 20.4220   3
  -3   4   6 346.828 24.5784   1
  -3   4   6 340.190 21.6790   3
   3   4  -6 337.220 24.0284   1
   3   4  -6 333.117 20.6802   3
   3   4  -6 335.041 21.2527   4
  -3   4   6 293.098 18.0580   2
   2  -4  -6 62.6109 7.31760   3
  -2  -4   6 77.1649 13.6315   1
  -2  -4   6 60.5721 7.93002   3
   2  -4  -6 48.7218 7.36310   1
  -2  -4   6 65.5567 7.39432   2
  -2  -4   6 59.0909 7.31498   4
  -2   4   6 53.8788 9.60631   1
   2   4  -6 71.4765 8.31975   3
   2   4  -6 73.7086 6.16540   2
   2   4  -6 93.9882 10.8445   1
  -2   4   6 65.7113 9.01674   3
   2   4  -6 62.7038 7.43317   4
   1  -4  -6 7.15324 4.96651   1
  -1  -4   6 13.2292 6.32938   3
   1  -4  -6 7.22456 5.16964   3
  -1  -4   6 13.6773 6.30434   1
  -1  -4   6 -2.2821 4.70460   4
  -1  -4   6 2.37101 4.04784   2
   1   4  -6 6.44505 4.87489   4
   1   4  -6 4.73410 3.82753   2
  -1   4   6 1.89778 7.36364   3
  -1   4   6 11.2853 6.90730   1
   1   4  -6 16.5281 6.64655   3
   1   4  -6 -0.6316 5.01846   1
   0  -4   6 106.047 9.53763   4
   0  -4   6 134.905 9.64805   2
   0  -4  -6 102.984 10.5535   3
   0  -4  -6 100.924 11.0075   1
   0  -4   6 116.947 11.6989   3
   0  -4   6 115.136 13.4971   1
   0   4  -6 118.757 12.0036   3
   0   4  -6 116.578 8.92836   2
   0   4  -6 115.877 12.9861   1
   0   4   6 110.487 13.2328   3
   0   4   6 115.773 13.7460   1
   1  -4   6 41.6624 4.98645   4
  -1  -4  -6 58.5117 4.24741   2
   1  -4   6 59.6472 6.16035   2
  -1  -4  -6 51.3155 6.90198   3
   1  -4   6 52.4762 7.74095   3
  -1  -4  -6 54.7493 4.40791   2
   1  -4   6 66.0876 8.99060   1
   1   4   6 50.8087 8.16063   1
  -1   4  -6 33.9843 6.18748   1
  -1   4  -6 55.6748 5.57249   2
  -1   4  -6 60.1635 8.03988   3
   1   4   6 63.5932 9.88219   3
  -2  -4  -6 23.6607 6.24433   3
   2  -4   6 26.5444 7.64099   1
  -2  -4  -6 28.3587 3.72797   2
   2  -4   6 28.5766 6.14381   2
  -2  -4  -6 19.9694 4.58928   1
   2  -4   6 25.6560 7.45480   3
   2   4   6 19.8147 6.51539   1
   2   4   6 29.7470 9.38601   3
  -2   4  -6 20.1838 6.93290   3
  -2   4  -6 31.2897 5.28946   2
   3  -4   6 10.4400 7.14584   2
   3  -4   6 11.1923 7.52773   3
   3  -4   6 10.3620 7.17364   1
  -3  -4  -6 6.06650 5.74371   3
  -3  -4  -6 7.23569 4.26053   2
   3  -4   6 8.83185 6.86635   1
   3   4   6 7.70310 8.89312   3
  -3   4  -6 11.9265 5.40448   2
   3   4   6 9.98776 4.29406   1
   3   4   6 14.2571 6.18788   1
  -3   4  -6 13.0586 7.09431   3
   4  -4   6 276.304 22.4577   1
   4  -4   6 229.280 20.4091   3
   4  -4   6 277.466 20.7551   2
   4  -4   6 304.460 22.3675   1
  -4  -4  -6 233.535 19.6067   3
  -4  -4  -6 288.691 18.7108   2
   4   4   6 290.268 18.7946   1
   4   4   6 293.875 22.5282   3
  -4   4  -6 325.846 20.1720   3
   4   4   6 302.390 20.1873   1
  -4   4  -6 319.203 19.9316   2
  -5  -4  -6 45.5621 4.61108   4
  -5  -4  -6 51.2609 7.61355   2
   5  -4   6 39.9525 8.94903   3
   5  -4   6 28.9042 8.58042   1
   5  -4   6 57.4326 10.5479   2
   5  -4   6 41.0542 10.0737   1
  -5  -4  -6 38.9641 7.83833   3
   5   4   6 41.9304 7.44465   1
   5   4   6 48.6752 6.93228   1
  -5   4  -6 55.0986 8.63668   2
   5   4   6 52.0629 11.1908   3
  -5   4  -6 49.8662 8.34175   3
   6  -4   6 119.302 14.9066   1
   6  -4   6 99.3597 12.4251   3
  -6  -4  -6 99.5023 10.8144   2
   6  -4   6 103.583 14.4846   1
   6  -4   6 117.672 14.0676   2
  -6  -4  -6 104.764 8.94813   4
  -6  -4  -6 96.7513 10.5542   3
  -6   4  -6 122.488 12.1335   2
  -6   4  -6 113.065 10.7837   3
   6   4   6 113.491 13.1393   3
   6   4   6 116.059 13.4721   1
   6   4   6 140.248 13.0100   1
  -7  -4  -6 421.299 28.2270   3
   7  -4   6 364.849 29.9796   3
  -7  -4  -6 435.513 28.8422   2
   7   4   6 433.952 29.4988   1
  -7   4  -6 463.364 30.8131   2
  -7   4  -6 484.105 28.4202   3
   8  -4   6 12.2192 10.5915   3
  -8  -4  -6 17.6914 7.52421   3
  -8  -4  -6 13.1205 10.2562   2
  -8   4  -6 17.8753 11.6136   2
  -8   4  -6 12.3829 7.41510   3
   9  -4   6 20.7469 11.6535   3
  -9  -4  -6 30.5104 12.2119   2
  -9   4  -6 20.5887 13.5839   2
 -10  -4  -6 11.2123 12.9889   2
 -10   4  -6 29.3147 14.8617   2
 -11  -4  -6 -7.1291 14.1914   2
 -11   4  -6 33.8558 17.3799   2
 -11  -5   6 4.66270 16.9755   2
 -11   5   6 -19.396 19.7603   2
 -10  -5   6 -8.4819 14.6868   2
 -10   5   6 5.11343 17.3916   2
   9  -5  -6 3.24698 4.48314   3
  -9  -5   6 -2.8016 12.8391   2
  -9   5   6 13.0779 15.0631   2
  -8  -5   6 87.4408 14.2668   2
   8  -5  -6 87.7057 9.83827   3
  -8   5   6 71.1472 14.6189   2
   7  -5  -6 129.178 14.1276   3
  -7  -5   6 146.708 12.7240   3
   7  -5  -6 135.973 19.2798   1
  -7   5   6 150.772 15.2929   2
  -7   5   6 198.762 21.9200   1
   7   5  -6 158.106 11.5060   3
   6  -5  -6 47.3069 13.4052   1
  -6  -5   6 35.3109 8.01823   2
  -6  -5   6 26.4267 6.53138   3
  -6  -5   6 17.6966 9.93042   1
   6  -5  -6 36.5085 7.42397   3
   6   5  -6 42.6432 6.04782   3
  -6   5   6 32.8685 9.59504   2
   6   5  -6 53.5808 12.9715   1
  -6   5   6 30.1960 11.9096   1
   5  -5  -6 126.636 13.3959   3
  -5  -5   6 137.395 12.9616   3
   5  -5  -6 138.402 16.2961   1
  -5  -5   6 158.480 13.1509   2
  -5  -5   6 133.123 18.0806   1
   5   5  -6 160.504 12.6005   3
   5   5  -6 139.661 13.8902   4
   5   5  -6 158.351 20.2046   1
  -5   5   6 170.606 20.3487   1
  -5   5   6 129.196 14.1906   2
  -4  -5   6 408.473 28.0821   1
   4  -5  -6 370.659 28.4188   1
  -4  -5   6 338.350 24.1783   3
  -4  -5   6 397.131 23.4797   2
   4  -5  -6 355.162 24.2448   3
  -4  -5   6 357.960 24.9523   4
   4   5  -6 406.051 24.2695   3
   4   5  -6 418.773 28.8804   1
  -4   5   6 342.718 23.0985   2
   4   5  -6 393.042 26.0193   4
  -3  -5   6 274.736 16.9992   2
  -3  -5   6 243.809 18.4728   4
   3  -5  -6 254.160 17.9321   3
   3  -5  -6 168.926 26.3157   1
  -3  -5   6 246.307 21.1053   1
  -3  -5   6 243.261 18.2436   3
  -3   5   6 272.567 22.3433   1
   3   5  -6 287.390 18.4927   3
   3   5  -6 279.875 21.8319   1
   3   5  -6 304.918 19.1747   4
  -3   5   6 230.694 15.1966   2
   3   5  -6 257.201 16.5993   2
  -2  -5   6 378.383 26.4109   3
   2  -5  -6 383.280 26.1167   3
  -2  -5   6 400.781 25.8794   4
  -2  -5   6 423.330 28.8153   1
  -2  -5   6 432.818 24.9811   2
  -2   5   6 427.526 29.2221   1
   2   5  -6 411.320 25.0332   2
   2   5  -6 443.315 25.9343   4
   2   5  -6 434.721 29.1097   1
   2   5  -6 441.603 26.4681   3
  -1  -5   6 487.313 32.7667   1
   1  -5  -6 487.099 30.5875   3
  -1  -5   6 483.555 30.9711   3
  -1  -5   6 487.422 29.9006   4
   1   5  -6 536.799 31.0507   3
   1   5  -6 527.371 33.0387   1
  -1   5   6 464.470 32.7109   1
   1   5  -6 503.625 29.2696   2
  -1   5   6 534.018 31.6440   3
   0  -5   6 1284.39 72.0832   4
   0  -5  -6 1154.31 72.6093   3
   0  -5   6 1173.89 72.9164   3
   0  -5   6 1243.85 74.6167   1
   0  -5  -6 1263.68 73.6150   1
   0   5   6 1372.68 73.9073   3
   0   5  -6 1357.94 73.4165   3
   0   5  -6 1227.69 74.5956   1
   0   5   6 1271.20 74.5639   1
   0   5  -6 1358.61 71.9784   2
  -1  -5  -6 192.632 12.2017   2
  -1  -5  -6 173.044 14.8164   3
   1  -5   6 217.962 17.9608   1
   1  -5   6 225.182 14.6743   2
   1  -5   6 187.162 15.7891   3
   1  -5   6 208.981 13.5194   4
  -1  -5  -6 199.787 14.6683   1
  -1  -5  -6 197.767 11.9649   2
  -1   5  -6 221.658 16.0861   3
   1   5   6 195.242 16.6223   1
  -1   5  -6 233.406 14.2498   2
   1   5   6 235.713 17.7185   3
  -2  -5  -6 580.748 33.8603   1
   2  -5   6 569.700 36.5982   1
  -2  -5  -6 575.282 32.8675   2
   2  -5   6 555.569 33.8788   2
  -2  -5  -6 526.190 34.2660   3
   2  -5   6 521.837 34.7902   3
   2  -5   6 559.165 36.6784   1
   2  -5   6 554.734 32.8299   4
  -2  -5  -6 577.421 32.7687   2
  -2   5  -6 623.758 33.8283   2
  -2   5  -6 603.668 35.3521   3
   2   5   6 582.714 35.3841   1
   2   5   6 605.947 36.0053   3
   3  -5   6 30.4505 7.62479   2
   3  -5   6 28.2512 7.76466   3
   3  -5   6 40.1922 8.60286   1
   3  -5   6 15.4084 6.77411   1
  -3  -5  -6 26.5834 6.41433   3
   3  -5   6 31.6597 3.34615   4
  -3  -5  -6 25.6160 4.73405   2
   3   5   6 33.6580 10.2194   3
  -3   5  -6 34.0110 7.83439   3
  -3   5  -6 32.1667 6.42596   2
   3   5   6 32.1579 4.90621   1
   3   5   6 27.8053 6.50560   1
   4  -5   6 539.270 37.2248   3
  -4  -5  -6 537.185 36.2948   3
  -4  -5  -6 612.564 35.4606   2
   4  -5   6 583.885 39.2209   1
   4  -5   6 569.948 36.8366   2
   4  -5   6 582.676 39.0050   1
   4   5   6 627.800 36.5726   1
  -4   5  -6 641.935 36.4740   2
   4   5   6 609.350 36.3981   1
   4   5   6 664.319 38.5953   3
  -4   5  -6 633.986 36.9036   3
   5  -5   6 2.56173 8.59647   3
  -5  -5  -6 -1.6307 6.39938   3
   5  -5   6 3.63592 8.73834   1
   5  -5   6 5.56718 9.39745   2
  -5  -5  -6 -2.4809 6.06751   2
   5  -5   6 -6.6048 7.34088   1
  -5  -5  -6 2.10297 3.82198   4
  -5   5  -6 -0.5212 7.69368   2
   5   5   6 2.74053 6.09277   1
   5   5   6 -1.0112 4.67559   1
  -5   5  -6 5.55066 7.20631   3
   6  -5   6 117.878 16.0675   1
   6  -5   6 149.905 16.8183   3
  -6  -5  -6 134.094 10.5594   4
  -6  -5  -6 122.482 14.2227   3
  -6  -5  -6 122.413 14.1156   2
   6  -5   6 139.755 19.1848   1
   6   5   6 131.513 12.8488   1
   6   5   6 133.479 13.5023   1
  -6   5  -6 143.366 14.7681   3
  -6   5  -6 151.354 13.8189   2
  -7  -5  -6 158.652 15.4979   3
  -7  -5  -6 153.475 16.7969   2
  -7   5  -6 152.416 15.4519   2
   7   5   6 151.683 15.5500   1
  -7   5  -6 144.720 15.6621   3
   8  -5   6 4.63160 10.0449   3
  -8  -5  -6 -10.850 7.27165   3
  -8  -5  -6 -3.9069 11.1295   2
  -8   5  -6 -0.3825 11.8221   2
   8   5   6 6.27226 11.7033   1
  -8   5  -6 -3.6863 7.54923   3
  -9  -5  -6 1.46770 11.0459   2
   9  -5   6 11.5487 11.1193   3
  -9   5  -6 -9.6143 13.7051   2
 -10  -5  -6 45.2753 13.8781   2
 -10   5  -6 -4.9701 14.9421   2
 -11  -5  -6 -7.6609 13.9302   2
 -11   5  -6 -9.0284 16.1799   2
 -11  -6   6 18.9694 17.3273   2
 -11   6   6 -11.497 18.4759   2
 -10  -6   6 63.7569 17.2460   2
 -10   6   6 45.0584 17.5632   2
   9  -6  -6 10.0845 5.35032   3
  -9  -6   6 6.02119 14.2011   2
  -9   6   6 -7.7961 15.1798   2
   8  -6  -6 36.9586 8.05030   3
  -8  -6   6 60.5220 6.53255   3
   8  -6  -6 50.6193 7.10701   3
  -8   6   6 46.1666 13.9130   2
   7  -6  -6 173.973 15.9766   3
   7  -6  -6 119.238 18.3970   1
  -7  -6   6 185.751 14.0842   3
  -7   6   6 244.255 31.8381   1
   7   6  -6 198.740 13.0918   3
  -7   6   6 156.330 16.1218   2
  -6  -6   6 133.017 11.4130   2
   6  -6  -6 114.859 16.7390   1
  -6  -6   6 96.1010 9.81033   3
  -6  -6   6 94.4479 13.6267   1
   6  -6  -6 117.214 13.1497   3
  -6   6   6 100.557 11.9278   2
   6   6  -6 132.141 17.5282   1
   6   6  -6 122.397 11.1505   3
  -6   6   6 173.899 25.3855   1
   5  -6  -6 4.44775 6.30210   3
  -5  -6   6 -5.6486 6.55986   2
  -5  -6   6 1.83840 7.88381   4
  -5  -6   6 12.3091 7.62471   1
  -5  -6   6 5.71342 6.19138   3
   5  -6  -6 28.2722 16.9176   1
  -5   6   6 5.63029 9.66300   1
   5   6  -6 3.52208 8.92057   4
  -5   6   6 13.1647 6.94288   2
   5   6  -6 15.7092 5.87624   3
   5   6  -6 15.3376 9.97938   1
  -4  -6   6 -0.8064 6.11514   3
   4  -6  -6 11.1754 9.03115   1
  -4  -6   6 11.5983 5.73971   2
  -4  -6   6 4.91065 7.95281   1
   4  -6  -6 13.0080 6.73689   3
  -4  -6   6 7.69444 7.23918   4
   4   6  -6 9.72109 8.89842   1
  -4   6   6 7.35901 4.74092   2
   4   6  -6 8.87659 6.19792   3
  -4   6   6 2.55468 9.18598   1
  -3  -6   6 1190.70 73.1984   4
  -3  -6   6 1217.33 73.3840   3
  -3  -6   6 1301.28 72.6320   2
  -3  -6   6 1225.63 76.0133   1
   3  -6  -6 1286.11 75.8428   1
   3  -6  -6 1257.68 73.3976   3
  -3   6   6 1143.48 72.0128   2
   3   6  -6 1381.44 73.5282   3
  -3   6   6 1338.49 76.8079   1
   3   6  -6 1401.02 76.7744   1
   3   6  -6 1330.10 72.7788   2
  -2  -6   6 24.7643 6.38892   4
  -2  -6   6 19.2472 6.73353   3
   2  -6  -6 29.2903 7.22884   1
  -2  -6   6 23.0827 5.40300   2
   2  -6  -6 21.6202 6.35074   3
  -2  -6   6 17.5841 7.01563   1
   2   6  -6 35.2884 8.81341   1
   2   6  -6 30.2271 5.72583   2
  -2   6   6 24.0064 8.19794   1
   2   6  -6 32.7233 7.34879   3
  -2   6   6 34.8994 2.35163   2
  -1  -6   6 12.9705 6.69087   3
   1  -6  -6 26.1232 6.23695   3
   1  -6  -6 21.3042 5.95359   1
  -1  -6   6 26.2536 5.27334   2
  -1  -6   6 32.5119 11.3981   1
  -1  -6   6 20.2186 5.74290   4
   1   6  -6 35.9370 8.50207   1
   1   6  -6 23.7095 4.99606   2
   1   6  -6 16.0868 7.15141   3
  -1   6   6 21.5228 7.21964   1
   0  -6   6 210.509 14.6565   4
   0  -6   6 221.339 15.0802   2
   0  -6  -6 204.462 15.7058   3
   0  -6   6 216.729 16.4326   3
   0  -6  -6 207.885 15.7855   1
   0  -6   6 221.937 18.4567   1
   0   6  -6 202.810 17.9956   1
   0   6   6 238.681 17.6164   1
   0   6  -6 214.967 14.4875   2
   0   6  -6 215.299 16.6354   3
  -1  -6  -6 574.086 33.1243   2
   1  -6   6 617.395 37.7651   1
   1  -6   6 664.377 34.9405   2
   1  -6   6 593.861 34.1130   4
  -1  -6  -6 560.323 35.1283   3
   1  -6   6 531.734 35.5866   3
  -1  -6  -6 550.596 33.2708   2
  -1  -6  -6 590.816 35.1210   1
  -1   6  -6 590.620 34.3549   2
   1   6   6 604.819 36.2269   1
  -1   6  -6 584.171 35.7997   3
   2  -6   6 600.507 39.2090   1
  -2  -6  -6 602.738 35.7972   1
  -2  -6  -6 591.705 35.0539   2
  -2  -6  -6 628.512 34.9401   2
   2  -6   6 597.501 36.4722   2
  -2  -6  -6 564.772 36.7194   3
   2  -6   6 613.787 35.1791   4
   2  -6   6 570.517 37.4407   3
  -2   6  -6 666.863 36.2775   2
  -2   6  -6 661.373 37.5919   3
   2   6   6 618.306 37.0106   1
   3  -6   6 -8.7381 7.09797   2
  -3  -6  -6 9.90447 6.54519   3
   3  -6   6 2.07994 3.34015   4
   3  -6   6 -1.6272 7.56071   1
   3  -6   6 -5.5490 7.36526   3
  -3  -6  -6 3.26695 4.28978   2
  -3  -6  -6 1.44410 4.16705   2
   3  -6   6 2.66489 6.16650   1
  -3   6  -6 -0.8815 6.12504   2
  -3   6  -6 10.2914 7.41021   3
   3   6   6 5.17527 3.89939   1
   3   6   6 -9.5523 4.64339   1
   4  -6   6 600.935 40.8189   1
   4  -6   6 586.898 38.6268   2
  -4  -6  -6 637.042 36.8128   2
   4  -6   6 653.953 35.3954   4
  -4  -6  -6 600.090 36.7003   2
   4  -6   6 663.526 41.2031   1
  -4  -6  -6 563.784 37.3636   3
   4  -6   6 574.185 38.4976   3
  -4   6  -6 643.645 37.6970   2
  -4   6  -6 708.896 38.2351   3
   5  -6   6 166.957 19.4778   1
  -5  -6  -6 164.082 11.6558   4
   5  -6   6 136.525 19.0046   1
   5  -6   6 149.664 16.2532   3
   5  -6   6 158.439 15.1972   2
  -5  -6  -6 141.975 14.5416   3
  -5  -6  -6 150.639 13.9917   2
  -5   6  -6 161.205 15.3959   3
  -5   6  -6 167.491 15.6336   2
  -6  -6  -6 136.668 14.8074   3
   6  -6   6 124.172 15.9215   1
   6  -6   6 145.983 17.7026   3
  -6  -6  -6 144.935 15.0958   2
  -6  -6  -6 180.604 12.1181   4
  -6   6  -6 173.597 18.6643   2
  -6   6  -6 181.017 16.0946   3
   7  -6   6 0.35757 9.53864   3
  -7  -6  -6 -0.3567 5.04164   4
  -7  -6  -6 8.20167 7.62304   3
  -7  -6  -6 12.1063 9.28339   2
  -7   6  -6 13.0663 13.1475   2
  -7   6  -6 2.52321 7.86665   3
   8  -6   6 -7.2978 9.87306   3
  -8  -6  -6 2.22825 7.77073   3
  -8   6  -6 8.77998 8.17817   3
  -8   6  -6 4.39279 12.6809   2
   9  -6   6 73.9964 13.1669   3
  -9  -6  -6 114.927 14.5005   2
  -9   6  -6 96.4757 16.2378   2
 -10  -6  -6 13.5692 13.1246   2
 -10   6  -6 25.8417 15.9691   2
 -11  -7   6 -9.5722 16.5530   2
 -11   7   6 30.8312 19.4010   2
 -10  -7   6 93.2138 17.2159   2
 -10   7   6 50.1163 18.0200   2
   9  -7  -6 209.742 16.1721   3
  -9  -7   6 219.962 24.6707   2
  -9   7   6 268.631 27.5742   2
  -8  -7   6 5.08926 5.06115   3
   8  -7  -6 12.1730 6.58644   3
  -8   7   6 19.0398 12.8351   2
   7  -7  -6 491.686 41.4811   1
   7  -7  -6 517.844 32.6323   3
  -7  -7   6 458.721 31.2358   3
   7  -7  -6 560.944 31.7856   3
  -7   7   6 556.759 42.7657   1
  -7   7   6 493.948 34.8977   2
   7   7  -6 531.569 31.8570   3
  -6  -7   6 37.8605 10.4046   4
  -6  -7   6 42.7821 10.3000   2
  -6  -7   6 38.0174 10.7730   1
   6  -7  -6 42.2845 12.5733   1
   6  -7  -6 41.9381 8.15585   3
  -6  -7   6 45.2450 7.31101   3
  -6   7   6 25.9440 9.31256   2
   6   7  -6 44.4722 6.73553   3
  -6   7   6 35.8617 13.7083   1
   5  -7  -6 599.600 39.8063   1
   5  -7  -6 535.209 34.2841   3
  -5  -7   6 505.789 35.2181   4
  -5  -7   6 596.475 34.2975   2
  -5  -7   6 508.352 33.8029   3
  -5  -7   6 533.544 37.9602   1
  -5   7   6 617.337 40.2416   1
   5   7  -6 614.924 39.8521   1
   5   7  -6 573.911 33.6637   3
  -5   7   6 507.484 33.4528   2
  -4  -7   6 335.428 23.5478   3
   4  -7  -6 346.097 27.4950   1
  -4  -7   6 348.906 26.8332   1
  -4  -7   6 352.997 24.2613   4
  -4  -7   6 394.947 23.3563   2
   4  -7  -6 335.468 23.6806   3
  -4   7   6 338.436 21.6019   2
  -4   7   6 360.014 28.6643   1
   4   7  -6 375.701 28.2427   1
   4   7  -6 366.078 23.2866   3
   3  -7  -6 80.9870 11.5226   1
   3  -7  -6 106.473 12.1586   3
  -3  -7   6 105.833 10.7784   2
  -3  -7   6 71.4005 9.25447   4
  -3  -7   6 101.967 9.82785   3
  -3  -7   6 110.069 15.1449   1
  -3   7   6 72.2954 7.42923   2
   3   7  -6 104.057 10.8672   2
   3   7  -6 84.7843 11.6108   1
  -3   7   6 65.7938 11.4054   1
   3   7  -6 109.901 12.3026   3
  -2  -7   6 823.502 52.3848   1
  -2  -7   6 858.467 49.0306   2
   2  -7  -6 894.672 51.8312   1
  -2  -7   6 827.906 49.8845   3
   2  -7  -6 831.090 49.7459   3
   2  -7  -6 806.539 47.7200   2
  -2  -7   6 833.666 49.4337   4
  -2   7   6 887.253 52.7938   1
  -2   7   6 817.068 47.6878   2
   2   7  -6 875.578 49.0607   2
   2   7  -6 913.670 50.2626   3
   1  -7  -6 369.382 22.0016   2
  -1  -7   6 390.695 24.3086   4
   1  -7  -6 398.215 25.8878   1
  -1  -7   6 389.023 25.2962   3
   1  -7  -6 378.472 24.8127   3
  -1  -7   6 394.499 27.6850   1
  -1  -7   6 394.366 24.2160   2
   1   7  -6 397.864 23.9486   2
  -1   7   6 397.818 27.1079   1
   1   7  -6 415.453 25.8518   3
   1   7  -6 385.484 27.7962   1
   0  -7   6 68.2390 7.53982   2
   0  -7   6 54.5010 6.85558   4
   0  -7  -6 66.9749 4.86516   2
   0  -7  -6 72.6909 9.39952   1
   0  -7   6 84.5474 10.6628   1
   0  -7   6 61.4506 8.76925   3
   0  -7  -6 63.9986 8.10955   3
   0   7  -6 70.6803 7.21614   2
   0   7  -6 74.2168 9.06027   3
   0   7  -6 74.1045 10.6221   1
   0   7   6 75.3247 9.15670   1
  -1  -7  -6 842.204 47.7783   2
   1  -7   6 808.616 52.0494   1
   1  -7   6 848.224 48.6830   4
  -1  -7  -6 882.670 49.5938   1
   1  -7   6 928.877 49.3875   2
   1  -7   6 808.546 50.0467   3
  -1  -7  -6 813.042 49.6171   3
  -1   7  -6 848.570 50.1286   3
   1   7   6 846.391 50.2511   1
  -1   7  -6 847.523 48.9575   2
   2  -7   6 57.2065 10.3962   1
   2  -7   6 110.744 12.9600   1
  -2  -7  -6 79.7824 7.84320   2
   2  -7   6 86.3840 10.3394   3
  -2  -7  -6 93.0478 8.27554   1
  -2  -7  -6 97.4070 9.46646   3
  -2  -7  -6 88.2788 7.31283   2
   2  -7   6 65.3487 8.82472   2
   2  -7   6 80.9692 8.34549   4
  -2   7  -6 97.0532 10.4233   3
   2   7   6 73.9341 9.41121   1
  -2   7  -6 94.3695 8.84024   2
   3  -7   6 121.469 13.4926   2
  -3  -7  -6 127.735 10.7251   2
   3  -7   6 135.075 17.3776   1
   3  -7   6 130.686 15.1595   3
  -3  -7  -6 128.952 13.4478   3
   3  -7   6 131.152 9.85724   4
   3  -7   6 142.102 17.7475   1
  -3  -7  -6 125.527 10.5751   2
  -3   7  -6 133.699 12.9623   2
  -3   7  -6 143.945 15.0033   3
  -4  -7  -6 257.682 17.4179   2
   4  -7   6 233.772 20.3481   3
   4  -7   6 250.976 23.3382   1
   4  -7   6 240.915 23.3001   1
  -4  -7  -6 242.741 18.6637   3
  -4  -7  -6 256.115 17.5516   2
   4  -7   6 263.234 15.6729   4
   4  -7   6 249.953 19.9329   2
  -4   7  -6 278.733 20.2776   3
  -4   7  -6 262.805 19.2883   2
  -5  -7  -6 233.466 18.0026   3
   5  -7   6 215.359 23.2941   1
   5  -7   6 225.905 19.6775   3
   5  -7   6 215.673 20.4456   2
  -5  -7  -6 217.785 17.1508   2
  -5  -7  -6 248.849 17.5040   2
   5  -7   6 210.600 23.5310   1
  -5   7  -6 259.101 20.2779   2
  -5   7  -6 250.365 19.6667   3
  -6  -7  -6 3.07544 5.21341   4
  -6  -7  -6 13.7487 7.61846   3
   6  -7   6 -9.8495 9.33936   3
   6  -7   6 -6.3614 9.47590   1
  -6  -7  -6 -9.0099 7.23801   2
  -6  -7  -6 4.15938 7.83267   2
  -6   7  -6 5.45600 10.6324   2
  -6   7  -6 4.05148 8.57775   3
  -7  -7  -6 0.60400 7.95467   3
   7  -7   6 -5.2633 9.71519   3
  -7  -7  -6 2.03951 5.69258   4
  -7  -7  -6 4.96083 8.49607   2
  -7   7  -6 8.62656 8.72126   3
  -7   7  -6 10.7920 11.5485   2
   8  -7   6 692.529 47.1732   3
  -8  -7  -6 746.864 44.3733   4
  -8  -7  -6 721.207 48.8303   2
  -8   7  -6 800.029 47.3590   3
  -8   7  -6 840.009 49.3946   2
  -9  -7  -6 39.7440 12.5155   2
   9  -7   6 32.9791 11.6606   3
  -9   7  -6 33.6468 14.7102   2
 -10  -7  -6 -4.9801 12.5990   2
 -10   7  -6 -15.425 15.1955   2
 -10  -8   6 6.96358 15.3510   2
 -10   8   6 5.63718 17.2940   2
  -9  -8   6 44.0824 14.8232   2
   9  -8  -6 44.0132 7.93402   3
  -9   8   6 19.3057 15.8620   2
  -8  -8   6 18.5791 5.79767   3
   8  -8  -6 16.0754 7.45624   3
  -8   8   6 20.9072 13.0285   2
  -7  -8   6 59.7793 8.14133   3
   7  -8  -6 67.9799 9.25901   3
   7  -8  -6 78.7223 10.3823   3
   7  -8  -6 111.719 18.6829   1
  -7   8   6 63.9989 12.2912   2
  -7   8   6 84.4764 18.0182   1
  -6  -8   6 24.7819 9.93946   4
   6  -8  -6 27.0522 13.1362   1
  -6  -8   6 35.7327 7.50363   3
   6  -8  -6 50.5010 8.70327   3
   6   8  -6 42.3041 7.02513   3
  -6   8   6 40.9963 9.32533   2
  -6   8   6 53.4829 14.4351   1
  -5  -8   6 189.209 16.3036   2
  -5  -8   6 202.930 16.3304   3
  -5  -8   6 156.515 17.7426   4
  -5  -8   6 204.413 20.9207   1
   5  -8  -6 180.510 16.9768   3
   5  -8  -6 173.777 23.2608   1
  -5   8   6 195.528 15.3533   2
  -5   8   6 212.464 23.8570   1
   5   8  -6 193.871 15.7672   3
  -4  -8   6 75.1935 8.53238   2
  -4  -8   6 66.8940 9.83048   4
   4  -8  -6 76.3520 9.13443   3
   4  -8  -6 44.4918 10.7714   1
  -4  -8   6 59.7866 11.2876   1
  -4  -8   6 69.4375 8.89851   3
   4   8  -6 44.2368 10.2114   1
   4   8  -6 83.3031 8.82778   3
  -4   8   6 53.9156 6.20572   2
  -4   8   6 31.6488 10.1404   1
   3  -8  -6 491.561 29.6487   2
   3  -8  -6 496.223 32.1669   3
   3  -8  -6 505.279 34.7111   1
  -3  -8   6 493.328 35.2689   1
  -3  -8   6 530.775 32.3249   4
  -3  -8   6 521.088 32.2916   3
  -3  -8   6 503.936 31.5767   2
   3   8  -6 553.353 36.3258   1
  -3   8   6 487.355 29.5909   2
   3   8  -6 551.312 32.3552   3
   3   8  -6 545.793 31.3457   2
  -3   8   6 529.256 35.9428   1
   2  -8  -6 -1.6697 6.54525   1
  -2  -8   6 -4.0625 6.30248   4
   2  -8  -6 2.12030 6.85092   3
  -2  -8   6 -11.283 5.64778   2
  -2  -8   6 3.61588 7.17529   1
  -2  -8   6 4.27870 6.93988   3
   2  -8  -6 0.34757 2.54683   2
  -2   8   6 1.74920 3.15540   2
   2   8  -6 -0.4383 7.07156   3
   2   8  -6 -4.6131 7.70987   1
  -2   8   6 10.0836 7.81816   1
   2   8  -6 1.29964 6.02777   2
  -1  -8   6 411.644 27.2938   4
   1  -8  -6 431.560 25.3243   2
   1  -8  -6 436.860 28.3615   3
  -1  -8   6 472.762 27.5857   2
  -1  -8   6 432.850 28.8600   3
   1  -8  -6 452.573 29.1141   1
  -1  -8   6 441.728 31.0797   1
   1   8  -6 448.671 27.1927   2
  -1   8   6 451.392 30.2398   1
   1   8  -6 473.636 29.0086   3
   1   8  -6 447.284 30.9563   1
   0  -8   6 417.854 25.7032   4
   0  -8  -6 428.765 26.6360   3
   0  -8  -6 415.982 23.9214   2
   0  -8  -6 409.427 26.6960   1
   0  -8   6 405.057 27.2002   3
   0  -8   6 391.526 25.9171   2
   0  -8   6 427.246 29.3958   1
   0   8   6 418.598 27.9342   1
   0   8  -6 445.421 26.1770   2
   0   8  -6 431.094 27.2829   3
  -1  -8  -6 19.7994 6.70434   3
   1  -8   6 24.4766 5.47229   4
   1  -8   6 0.78544 7.07221   1
   1  -8   6 20.8645 8.24768   3
  -1  -8  -6 16.0274 4.94271   1
   1  -8   6 7.69802 7.56405   1
  -1  -8  -6 22.4245 3.09196   2
   1  -8   6 22.9237 6.76542   2
  -1   8  -6 14.8533 7.54676   3
   1   8   6 3.79310 5.79950   1
  -1   8  -6 18.3140 6.67465   2
  -2  -8  -6 455.756 30.1297   3
   2  -8   6 462.639 30.6813   3
   2  -8   6 472.282 30.0882   2
  -2  -8  -6 488.089 27.7915   2
   2  -8   6 481.108 33.6300   1
  -2  -8  -6 487.923 28.2687   1
   2  -8   6 457.318 33.3806   1
   2  -8   6 480.761 28.4530   4
  -2   8  -6 489.158 30.9437   3
   2   8   6 480.660 28.6690   1
  -2   8  -6 494.160 29.5325   2
  -3  -8  -6 247.800 20.3293   3
  -3  -8  -6 265.152 18.8812   2
   3  -8   6 382.765 31.2159   1
   3  -8   6 291.404 17.9159   4
   3  -8   6 270.617 21.1904   3
   3  -8   6 268.447 20.5359   2
  -3  -8  -6 265.771 18.3078   2
   3  -8   6 296.317 24.5492   1
  -3   8  -6 301.056 20.9728   3
  -3   8  -6 309.657 20.2644   2
   4  -8   6 111.046 12.8710   2
   4  -8   6 162.998 23.6146   1
  -4  -8  -6 132.493 12.2823   2
   4  -8   6 145.815 19.2829   1
  -4  -8  -6 134.534 12.3010   2
  -4  -8  -6 123.659 13.1696   3
   4  -8   6 122.465 13.4695   3
  -4   8  -6 140.641 13.1592   3
  -4   8  -6 137.280 12.7119   2
   5  -8   6 6.44951 9.45696   3
  -5  -8  -6 -0.2181 6.59936   2
  -5  -8  -6 -8.6549 6.88360   3
   5  -8   6 -1.4740 10.5079   1
  -5  -8  -6 3.98460 6.63947   2
   5  -8   6 -5.2435 11.3033   1
  -5   8  -6 -3.7658 9.71892   2
  -5   8  -6 -0.4104 8.42895   3
  -6  -8  -6 652.939 35.3862   4
  -6  -8  -6 523.541 36.4738   2
  -6  -8  -6 502.960 36.7503   3
   6  -8   6 543.279 42.5125   1
  -6  -8  -6 646.209 36.8491   2
   6  -8   6 569.877 38.3431   3
  -6   8  -6 620.594 37.5509   3
  -6   8  -6 694.125 39.5362   2
  -7  -8  -6 101.092 9.66437   4
  -7  -8  -6 97.9686 11.5529   3
  -7  -8  -6 128.941 12.8170   2
   7  -8   6 118.782 13.9122   3
  -7   8  -6 110.773 14.7018   2
  -8  -8  -6 73.6588 8.51985   4
   8  -8   6 67.3935 13.0530   3
  -8  -8  -6 57.7878 12.1569   2
  -8   8  -6 54.8584 14.8106   2
   9  -8   6 62.4099 12.7915   3
  -9  -8  -6 57.0485 12.7005   2
  -9   8  -6 38.1792 15.5380   2
 -10  -8  -6 104.175 15.6489   2
 -10   8  -6 121.143 19.2994   2
 -10  -9   6 78.1763 17.3643   2
 -10   9   6 77.2802 18.3463   2
   9  -9  -6 60.2361 10.2634   3
  -8  -9   6 71.0646 8.13785   3
   8  -9  -6 74.9505 9.74385   3
  -8   9   6 78.9611 14.7583   2
  -7  -9   6 101.545 12.4863   3
   7  -9  -6 112.714 11.1871   3
   7  -9  -6 90.2286 20.0503   1
  -7  -9   6 81.1738 13.1163   4
   7  -9  -6 117.186 12.3240   3
  -7   9   6 158.727 22.9136   1
  -7   9   6 109.000 13.2897   2
  -6  -9   6 17.5232 14.7415   4
   6  -9  -6 1.75225 12.9059   1
   6  -9  -6 34.9583 9.18785   3
  -6  -9   6 45.7254 8.04771   3
   6  -9  -6 25.0017 8.40214   3
  -6   9   6 42.1196 9.28034   2
  -6   9   6 25.4333 13.6543   1
   6   9  -6 32.2498 7.06316   3
  -5  -9   6 711.877 50.9562   1
   5  -9  -6 710.246 49.7538   1
   5  -9  -6 711.573 42.8848   2
  -5  -9   6 727.166 45.3759   4
  -5  -9   6 748.242 44.2618   3
   5  -9  -6 752.085 44.8438   3
  -5   9   6 732.817 43.3248   2
  -5   9   6 763.227 50.9060   1
   5   9  -6 771.515 44.0425   3
  -4  -9   6 6.69787 7.53524   3
  -4  -9   6 -2.1268 7.58809   2
   4  -9  -6 -3.8519 9.76180   1
  -4  -9   6 -12.390 7.80886   1
  -4  -9   6 3.46735 8.23617   4
   4  -9  -6 8.27391 7.62911   3
   4  -9  -6 5.67653 4.48990   2
   4   9  -6 6.65644 6.94940   3
  -4   9   6 7.93306 4.91370   2
  -4   9   6 4.27745 10.7258   1
   4   9  -6 19.3883 15.2585   1
  -3  -9   6 47.9981 8.52901   4
   3  -9  -6 65.9954 9.28508   3
   3  -9  -6 59.9637 10.8750   1
  -3  -9   6 61.0861 8.07008   2
  -3  -9   6 61.7081 11.2783   1
   3  -9  -6 46.2828 5.02096   2
  -3  -9   6 40.2790 8.45743   3
  -3   9   6 48.3723 5.05551   2
   3   9  -6 64.9285 8.66236   3
  -3   9   6 40.4888 9.79863   1
   3   9  -6 61.5670 8.29747   2
   3   9  -6 50.1043 11.3256   1
  -2  -9   6 7.25880 7.13780   4
   2  -9  -6 15.5901 7.70488   1
  -2  -9   6 15.2075 6.50377   2
  -2  -9   6 9.93109 7.80334   3
   2  -9  -6 14.7173 7.29893   3
   2  -9  -6 6.63257 3.26297   2
  -2  -9   6 8.73837 8.19573   1
   2   9  -6 10.4007 6.73494   2
   2   9  -6 12.2387 7.78484   3
  -2   9   6 19.0226 8.43538   1
   2   9  -6 10.9482 9.02654   1
  -2   9   6 9.93227 3.22907   2
   1  -9  -6 981.583 56.4894   2
  -1  -9   6 1001.90 58.0388   4
   1  -9  -6 995.718 58.7072   3
  -1  -9   6 1005.69 58.0977   2
  -1  -9   6 986.601 61.4400   1
  -1  -9   6 980.274 58.7608   3
   1  -9  -6 987.047 59.5882   1
   1   9  -6 1031.37 59.0770   3
  -1   9   6 975.665 60.3246   1
   1   9  -6 1001.64 61.5710   1
   1   9  -6 1084.49 58.1645   2
   0  -9   6 822.117 46.6398   4
   0  -9  -6 802.215 45.2295   2
   0  -9  -6 824.467 47.7230   1
   0  -9  -6 784.777 47.4014   3
   0  -9   6 778.467 46.8336   2
   0  -9   6 744.311 49.9751   1
   0  -9   6 783.387 47.7962   3
   0   9  -6 836.067 47.0225   2
   0   9  -6 833.327 48.2008   3
   0   9   6 785.444 48.3488   1
  -1  -9  -6 192.037 13.1675   1
   1  -9   6 155.776 15.7457   3
  -1  -9  -6 168.802 10.8170   2
   1  -9   6 121.717 16.7321   1
  -1  -9  -6 144.866 14.4218   3
   1  -9   6 156.332 18.3501   1
   1  -9   6 156.658 14.2891   2
   1  -9   6 167.404 13.2331   4
  -1   9  -6 193.368 16.7301   3
   1   9   6 150.406 13.7003   1
  -1   9  -6 173.644 13.9299   2
   2  -9   6 48.8418 6.57876   4
  -2  -9  -6 67.5556 7.05178   2
  -2  -9  -6 50.5621 8.59803   3
   2  -9   6 55.5152 10.5587   1
   2  -9   6 51.0575 8.87222   2
   2  -9   6 63.5803 10.1844   3
   2  -9   6 49.1414 10.0104   1
  -2   9  -6 61.0906 8.78333   2
  -2   9  -6 60.6451 9.66296   3
   3  -9   6 12.3701 9.05875   2
  -3  -9  -6 30.5367 7.67806   3
  -3  -9  -6 19.7936 5.38552   2
   3  -9   6 18.5428 5.23225   4
  -3  -9  -6 21.8513 5.06359   2
   3  -9   6 10.4362 9.13317   3
   3  -9   6 -6.2256 9.23552   1
   3  -9   6 26.0596 11.2798   1
  -3   9  -6 12.1861 8.11998   2
  -3   9  -6 11.1681 9.03841   3
   4  -9   6 37.6223 10.3243   3
   4  -9   6 55.6307 13.1062   1
  -4  -9  -6 39.3884 9.06873   3
   4  -9   6 64.7600 14.1993   1
  -4  -9  -6 61.4627 7.54715   2
  -4  -9  -6 63.2646 7.47596   2
  -4   9  -6 62.3035 10.2417   2
  -4   9  -6 78.1804 10.8952   3
  -5  -9  -6 89.5104 9.65580   2
   5  -9   6 79.3134 15.6022   1
   5  -9   6 68.9847 11.5087   3
   5  -9   6 93.1104 16.1697   1
  -5  -9  -6 67.1647 10.0177   3
  -5  -9  -6 82.1161 9.08930   2
  -5   9  -6 88.6072 12.1916   2
   6  -9   6 251.318 28.6136   1
  -6  -9  -6 228.927 19.7347   3
  -6  -9  -6 252.301 17.3306   4
  -6  -9  -6 236.470 19.1973   2
  -6  -9  -6 213.537 19.2244   2
   6  -9   6 236.350 21.5430   3
  -6   9  -6 189.009 26.2517   2
  -7  -9  -6 174.425 14.5364   4
  -7  -9  -6 141.754 14.0929   2
   7  -9   6 172.142 19.5734   3
  -7   9  -6 129.061 16.8470   2
   8  -9   6 -2.6544 11.8191   3
  -8  -9  -6 10.7505 7.40022   4
  -8  -9  -6 9.82455 10.5363   2
  -8   9  -6 20.2171 14.2840   2
  -9  -9  -6 17.1937 8.73104   3
  -9  -9  -6 26.2396 8.29824   4
  -9  -9  -6 20.4695 12.0277   2
  -9   9  -6 -0.9239 15.7656   2
 -10  -9  -6 57.5514 14.2928   2
 -10   9  -6 56.0772 18.6447   2
 -10 -10   6 -7.3415 16.8987   2
 -10  10   6 -4.5705 16.7439   2
  -9  10   6 17.0284 15.7881   2
  -8 -10   6 16.7909 6.61287   3
   8 -10  -6 24.4790 9.08091   3
  -8  10   6 21.4022 13.2909   2
   7 -10  -6 6.77983 11.8556   3
  -7 -10   6 32.9283 7.91655   3
   7 -10  -6 46.3715 9.48231   3
  -7 -10   6 35.9330 11.2193   4
  -7  10   6 48.0336 11.6436   2
   6 -10  -6 94.5660 11.9767   3
  -6 -10   6 99.5797 13.1368   4
   6 -10  -6 105.275 11.8957   3
  -6 -10   6 122.978 11.1112   3
   6 -10  -6 52.5747 15.3786   1
   6  10  -6 120.333 13.4803   3
  -6  10   6 92.8455 11.0852   2
   5 -10  -6 19.2209 6.10317   2
  -5 -10   6 34.2732 8.34817   3
  -5 -10   6 20.3731 10.0113   4
   5 -10  -6 20.5925 9.02627   3
   5 -10  -6 20.1167 11.6876   1
  -5  10   6 12.1513 13.7822   1
   5  10  -6 26.1209 8.18409   3
  -5  10   6 17.6502 7.01478   2
   4 -10  -6 10.1763 8.18554   3
   4 -10  -6 10.2717 10.3178   1
  -4 -10   6 4.63351 7.65589   3
  -4 -10   6 8.19145 8.45003   4
  -4 -10   6 7.11540 9.26351   1
   4 -10  -6 -1.0502 4.74761   2
  -4  10   6 0.25178 5.19513   2
  -4  10   6 10.2927 11.6543   1
   4  10  -6 3.02796 7.85436   3
   4  10  -6 -1.8949 7.58994   2
   3 -10  -6 1.27640 4.05874   2
   3 -10  -6 7.51328 8.83942   1
  -3 -10   6 4.72417 8.00171   4
  -3 -10   6 2.28162 7.99908   3
  -3 -10   6 6.17482 9.17435   1
   3 -10  -6 5.46060 8.33518   3
  -3 -10   6 5.98848 7.66127   2
   3  10  -6 -4.5171 9.70734   1
   3  10  -6 0.54968 7.63208   2
  -3  10   6 0.14164 4.13384   2
   3  10  -6 -0.7876 8.00665   3
  -3  10   6 11.5729 9.98016   1
  -2 -10   6 292.472 21.8094   3
   2 -10  -6 258.032 17.3044   2
   2 -10  -6 282.625 20.6839   3
  -2 -10   6 267.612 19.8157   2
  -2 -10   6 272.426 23.9258   1
   2 -10  -6 297.609 22.7465   1
  -2 -10   6 282.004 20.6524   4
   2  10  -6 297.403 24.4722   1
   2  10  -6 326.635 21.5847   3
  -2  10   6 301.582 24.2550   1
   2  10  -6 299.761 20.0631   2
  -2  10   6 268.124 17.2407   2
  -1 -10   6 2.20645 7.54656   1
  -1 -10   6 2.69947 6.81319   4
   1 -10  -6 11.1130 6.82679   1
  -1 -10   6 -10.023 7.83116   3
   1 -10  -6 2.67278 7.31694   3
  -1 -10   6 2.56593 7.13130   2
   1 -10  -6 4.06079 3.30833   2
   1  10  -6 -4.4656 6.82486   2
   1  10  -6 9.57272 8.14781   3
  -1  10   6 -3.5259 7.02652   1
  -1  10   6 1.21656 3.47615   2
   0 -10  -6 16.5709 3.54325   2
   0 -10   6 20.3105 9.50259   1
   0 -10   6 14.8867 6.45414   4
   0 -10  -6 10.3139 5.87006   1
   0 -10   6 9.27363 8.34676   3
   0 -10  -6 5.64364 7.39603   3
   0 -10   6 5.13452 9.20048   1
   0 -10   6 15.2569 7.76453   2
   0  10  -6 14.2749 7.11314   2
   0  10  -6 8.81298 8.28117   3
   0  10   6 15.1319 7.13674   1
   1 -10   6 131.533 12.1333   4
  -1 -10  -6 119.971 9.13352   2
  -1 -10  -6 116.388 11.6805   3
   1 -10   6 104.909 12.2925   3
   1 -10   6 136.614 16.1162   1
   1 -10   6 123.055 14.4586   1
  -1 -10  -6 113.309 11.1669   1
   1 -10   6 106.097 11.3408   2
  -1  10  -6 117.420 13.1671   2
  -1  10  -6 127.326 14.7820   3
   1  10   6 128.861 11.9962   1
   2 -10   6 124.882 13.0447   3
  -2 -10  -6 116.862 9.79268   2
   2 -10   6 99.4952 11.9069   2
   2 -10   6 116.134 11.7069   4
   2 -10   6 120.545 15.9710   1
  -2 -10  -6 113.777 13.5080   3
  -2  10  -6 120.319 11.5237   2
  -2  10  -6 123.482 12.6530   3
   3 -10   6 42.6446 13.0029   1
  -3 -10  -6 29.4148 5.69571   2
   3 -10   6 32.3569 12.5904   1
   3 -10   6 31.4231 10.1299   3
  -3 -10  -6 9.60664 7.76933   3
  -3  10  -6 30.8334 10.7363   3
  -3  10  -6 21.9511 9.30431   2
  -4 -10  -6 -5.6194 6.03436   2
   4 -10   6 3.45578 9.60467   3
  -4 -10  -6 -1.0969 5.99006   2
  -4 -10  -6 5.48431 7.94469   3
   4 -10   6 -13.010 18.5309   1
   4 -10   6 -3.2550 18.2660   1
  -4  10  -6 17.3491 10.1975   2
  -5 -10  -6 10.6249 7.37590   2
   5 -10   6 1.86964 10.2893   3
  -5 -10  -6 3.99583 7.12031   2
  -5 -10  -6 -1.9855 9.89612   3
   5 -10   6 -0.3931 12.0649   1
  -5  10  -6 10.1389 11.1485   2
  -6 -10  -6 22.7399 8.71619   2
   6 -10   6 11.2830 10.7227   3
   6 -10   6 38.8605 20.9139   1
  -6 -10  -6 18.4583 7.28235   4
  -6  10  -6 32.5089 12.5249   2
  -7 -10  -6 -0.7354 7.19647   4
   7 -10   6 -18.172 11.1756   3
  -7 -10  -6 -1.3714 11.2765   2
  -7  10  -6 -7.6184 13.1125   2
   8 -10   6 20.1591 13.9597   3
  -8 -10  -6 36.2081 8.65573   4
  -8 -10  -6 14.6397 10.9552   2
  -8  10  -6 28.3371 15.1748   2
   9 -10   6 8.70929 12.5039   3
  -9 -10  -6 -4.5565 10.9945   4
  -9 -10  -6 8.60561 12.1353   2
  -9  10  -6 -8.3418 16.5186   2
  -9  11   6 170.736 19.8148   2
  -8 -11   6 159.449 17.1749   4
  -8 -11   6 139.624 14.4841   3
   8 -11  -6 172.134 17.6675   3
  -8  11   6 140.663 16.9755   2
  -7 -11   6 4.73165 10.8354   4
  -7 -11   6 -1.2768 7.67918   3
   7 -11  -6 -2.2019 9.47622   3
  -7  11   6 14.8531 11.2060   2
  -6 -11   6 108.342 11.4474   3
  -6 -11   6 119.076 13.9470   4
   6 -11  -6 120.346 10.8684   2
   6 -11  -6 118.713 12.7220   3
  -6  11   6 102.172 11.8701   2
   5 -11  -6 15.7541 6.39795   2
   5 -11  -6 21.0416 9.89153   3
  -5 -11   6 19.0066 8.57352   3
  -5  11   6 7.16830 7.03880   2
   5  11  -6 7.71667 8.24033   3
   4 -11  -6 159.493 17.5370   2
  -4 -11   6 172.895 16.9644   4
  -4 -11   6 166.189 16.8442   3
   4  11  -6 177.276 17.3989   3
  -4  11   6 174.110 13.5087   2
   4  11  -6 177.003 17.2106   2
  -3 -11   6 7.70784 8.69099   3
  -3 -11   6 -9.2444 8.21798   4
  -3 -11   6 -9.2727 8.82277   1
   3 -11  -6 4.65845 9.62175   1
   3 -11  -6 -1.3681 4.57638   2
   3  11  -6 8.92763 8.82127   3
   3  11  -6 -4.5702 8.09316   2
  -3  11   6 -21.131 13.7134   1
  -3  11   6 4.77345 4.65890   2
  -2 -11   6 5.87510 8.90987   1
  -2 -11   6 -14.601 11.4587   2
   2 -11  -6 1.44622 7.98797   1
  -2 -11   6 5.51540 8.11496   4
   2 -11  -6 1.76917 4.09392   2
  -2 -11   6 1.24279 8.79723   3
  -2  11   6 -2.0374 9.14922   1
  -2  11   6 -1.9153 4.15160   2
   2  11  -6 1.27088 8.22509   3
   2  11  -6 -0.3994 7.76500   2
  -1 -11   6 416.463 27.2248   3
  -1 -11   6 361.995 26.5941   2
  -1 -11   6 408.221 26.1439   4
  -1 -11   6 402.648 30.4388   1
   1 -11  -6 414.856 32.9918   3
   1 -11  -6 372.349 27.3674   1
  -1 -11   6 426.747 31.1788   1
   1 -11  -6 398.629 23.5636   2
  -1  11   6 361.007 28.5797   1
   1  11  -6 404.782 27.2375   3
  -1  11   6 387.007 23.5631   2
   1  11  -6 435.566 26.7937   2
   0 -11   6 -1.7977 8.40194   1
   0 -11  -6 -0.4300 8.93552   3
   0 -11   6 7.57892 8.87729   3
   0 -11   6 13.3256 7.08800   4
   0 -11  -6 0.99976 5.84344   1
   0 -11   6 -11.935 7.77539   2
   0 -11  -6 4.89094 3.80304   2
   0 -11   6 18.9650 10.1588   1
   0  11   6 4.57358 7.05796   1
   0  11  -6 -3.9823 9.83507   3
   0  11  -6 6.30234 7.77314   2
   1 -11   6 34.9724 10.6533   2
   1 -11   6 73.8337 14.0158   1
   1 -11   6 40.1580 7.81440   4
   1 -11   6 59.9641 10.6787   3
   1 -11   6 75.9553 13.3959   1
  -1 -11  -6 59.8399 7.25820   1
  -1 -11  -6 46.7951 5.50845   2
  -1  11  -6 54.6692 9.30554   2
   1  11   6 54.3012 7.63233   1
   2 -11   6 185.202 23.5512   1
  -2 -11  -6 194.223 13.5731   2
   2 -11   6 207.059 18.5596   3
   2 -11   6 181.177 15.1442   4
   2 -11   6 169.560 22.0198   1
  -2  11  -6 197.026 17.8712   2
  -3 -11  -6 11.3878 5.67271   2
   3 -11   6 26.0330 21.0228   1
   3 -11   6 25.6883 12.7147   1
   3 -11   6 8.77786 9.99918   3
  -3  11  -6 18.2120 9.57325   2
  -4 -11  -6 17.6105 6.68320   2
  -4 -11  -6 22.0243 7.08074   2
   4 -11   6 1.97738 12.9880   1
   4 -11   6 15.8635 10.6331   3
   4 -11   6 16.3793 16.0932   1
  -4  11  -6 23.6573 10.7754   2
  -5 -11  -6 -4.9359 7.50541   2
  -5 -11  -6 3.00345 7.62467   2
   5 -11   6 22.8204 22.7719   1
   5 -11   6 -13.629 10.5666   3
  -5  11  -6 12.2667 11.6670   2
  -6 -11  -6 35.8374 8.59139   4
  -6 -11  -6 38.8341 9.44786   2
  -6  11  -6 32.8249 13.2534   2
   7 -11   6 88.8932 14.0612   3
  -7 -11  -6 95.3218 10.6298   4
  -7 -11  -6 91.2271 12.2319   2
  -7  11  -6 102.759 16.6606   2
  -8 -11  -6 88.9525 10.9628   4
  -8 -11  -6 77.5473 11.0947   3
   8 -11   6 65.5716 13.6833   3
  -8 -11  -6 79.6356 13.1709   2
  -8  11  -6 87.3286 17.5024   2
  -9 -11  -6 61.1139 14.1004   2
   9 -11   6 34.2855 13.9883   3
  -9  11  -6 30.3516 17.7502   2
  -9  12   6 -5.5387 14.9788   2
  -8 -12   6 25.6921 9.83447   3
  -8 -12   6 21.9565 13.1291   4
   8 -12  -6 24.2543 12.4633   3
  -8  12   6 28.2094 14.1616   2
  -7 -12   6 94.8070 14.6917   4
  -7 -12   6 124.942 12.2039   3
  -7  12   6 116.392 14.0805   2
  -6 -12   6 4.37906 8.33498   3
  -6 -12   6 3.65009 10.5164   4
   6 -12  -6 -6.4099 10.6144   3
  -6  12   6 -3.9406 8.97428   2
   5 -12  -6 95.1027 12.6888   3
  -5 -12   6 88.2708 13.0415   4
   5 -12  -6 101.286 9.46682   2
  -5 -12   6 103.015 11.7799   3
  -5  12   6 83.4802 9.77346   2
  -4 -12   6 6.49772 8.99819   3
   4 -12  -6 11.1045 5.84640   2
   4 -12  -6 6.00268 10.4609   3
  -4  12   6 -2.1863 5.92556   2
  -3 -12   6 72.7050 10.7898   4
  -3 -12   6 75.4495 10.8993   3
   3  12  -6 110.640 11.4873   2
  -3  12   6 66.9519 7.25036   2
   2 -12  -6 56.9876 6.37583   2
  -2 -12   6 51.7761 10.4998   3
  -2 -12   6 59.8148 9.74807   4
   2  12  -6 92.0049 10.2656   2
  -2  12   6 57.6672 6.33421   2
  -1 -12   6 90.3388 14.6360   1
   1 -12  -6 69.8577 6.89456   2
  -1 -12   6 93.4266 12.0407   3
  -1 -12   6 91.4476 14.1224   1
   1 -12  -6 86.5888 12.2802   1
  -1 -12   6 77.1733 10.2247   4
   1  12  -6 91.5849 10.5852   2
  -1  12   6 66.5759 6.93304   2
   0 -12  -6 9.28097 7.01201   1
   0 -12   6 17.1909 10.0770   3
   0 -12   6 8.40893 7.78799   4
   0 -12  -6 13.1808 4.69650   2
   0 -12   6 1.85112 10.6723   1
   0 -12   6 19.7866 10.7687   1
   0  12  -6 5.35227 8.55469   2
  -1 -12  -6 161.365 13.5360   1
   1 -12   6 141.158 20.4394   1
  -1 -12  -6 169.684 11.9937   2
   1 -12   6 151.612 14.8094   4
   1 -12   6 178.668 19.0481   3
   1 -12   6 144.824 18.1896   1
  -1  12  -6 151.760 16.1043   2
   2 -12   6 101.094 13.1239   3
  -2 -12  -6 105.297 10.2727   2
   2 -12   6 93.2917 9.78899   4
   2 -12   6 118.383 16.6292   1
   2 -12   6 71.5646 13.1658   1
  -2  12  -6 122.368 12.5654   2
   3 -12   6 79.7281 19.6212   1
   3 -12   6 64.6751 12.2567   3
   3 -12   6 78.1791 16.0604   1
  -3 -12  -6 72.5458 7.88889   2
  -3  12  -6 57.4903 11.7614   2
   4 -12   6 42.5210 15.1597   1
  -4 -12  -6 20.8900 7.35421   2
   4 -12   6 14.3173 17.6995   3
  -4  12  -6 25.5189 11.5770   2
  -5 -12  -6 36.7936 10.2857   2
  -5 -12  -6 29.6004 8.70058   2
   5 -12   6 35.0840 12.1971   3
  -5  12  -6 43.9856 13.1721   2
  -6 -12  -6 14.9714 9.10256   2
  -6 -12  -6 7.59164 8.60854   4
   6 -12   6 32.1008 12.2126   3
  -6  12  -6 25.6012 13.8012   2
   7 -12   6 49.6131 13.5166   3
  -7 -12  -6 49.5726 11.4227   2
  -7 -12  -6 54.2844 11.5110   4
  -7  12  -6 53.2710 16.7564   2
  -8 -12  -6 -1.2932 9.49408   3
  -8 -12  -6 11.9421 9.64528   4
  -8 -12  -6 -0.6785 11.7083   2
   8 -12   6 -26.577 11.7976   3
  -8  12  -6 -10.508 16.7336   2
   8 -13  -6 150.275 15.1372   3
  -8 -13   6 90.9439 15.7357   4
  -8  13   6 125.238 16.7648   2
   7 -13  -6 7.93428 10.8389   3
  -7 -13   6 24.2723 9.68919   3
  -7 -13   6 4.63417 12.4384   4
  -7  13   6 20.9889 11.9109   2
   6 -13  -6 39.1432 11.6502   3
  -6 -13   6 48.0964 12.4643   4
  -6 -13   6 32.1161 9.73955   3
  -6  13   6 40.3984 9.93589   2
   5 -13  -6 132.005 15.1295   3
  -5 -13   6 134.327 13.4396   3
  -5 -13   6 104.437 13.5595   4
  -5  13   6 92.8838 10.6721   2
   4 -13  -6 7.22493 6.51986   2
  -4 -13   6 19.7786 10.4057   4
  -4 -13   6 4.30761 9.57972   3
   4  13  -6 16.3824 10.1504   2
  -4  13   6 3.94155 6.64582   2
  -3 -13   6 40.1576 16.4219   4
  -3 -13   6 47.7250 11.0027   3
   3 -13  -6 29.2262 18.3162   3
   3 -13  -6 34.5983 6.63159   2
   3  13  -6 50.4553 14.1395   2
  -3  13   6 42.0739 6.69274   2
  -2 -13   6 31.2958 9.90845   4
   2 -13  -6 35.2545 5.92039   2
  -2 -13   6 46.9807 11.1208   3
   2  13  -6 31.1304 10.8853   2
  -2  13   6 21.4470 5.92625   2
  -1 -13   6 369.379 25.0924   4
   1 -13  -6 334.186 21.8619   2
  -1 -13   6 352.196 25.9780   3
  -1 -13   6 346.625 30.9751   1
   1  13  -6 394.479 25.1941   2
  -1  13   6 330.004 21.9491   2
   0 -13  -6 311.816 19.5410   2
   0 -13   6 314.415 22.5454   4
   0 -13   6 320.850 24.3773   3
   0 -13   6 290.241 28.7223   1
   0  13  -6 288.245 23.0306   2
  -1 -13  -6 19.0643 5.41012   2
   1 -13   6 25.2718 13.3409   1
   1 -13   6 25.9932 8.66327   4
   1 -13   6 23.5086 10.9109   3
  -1  13  -6 15.0198 10.0918   2
  -2 -13  -6 654.977 39.1037   2
   2 -13   6 685.866 47.7470   1
   2 -13   6 662.753 40.3744   4
   3 -13   6 18.2346 15.5568   1
  -3 -13  -6 20.6705 6.85033   2
   3 -13   6 17.3769 12.1285   3
  -3  13  -6 23.8676 11.2387   2
   4 -13   6 492.645 51.8991   1
  -4 -13  -6 474.017 29.7651   2
   4 -13   6 453.938 33.0079   3
  -4  13  -6 470.217 34.1154   2
   5 -13   6 54.0104 13.8337   3
  -5 -13  -6 47.3047 9.86546   2
  -5  13  -6 36.4784 14.1394   2
   6 -13   6 72.0404 14.4427   3
  -6 -13  -6 68.4795 11.2668   4
  -6 -13  -6 65.9966 11.7279   3
  -6  13  -6 94.2200 16.9225   2
  -7 -13  -6 170.816 15.3240   2
  -7 -13  -6 105.556 13.9521   3
  -7 -13  -6 135.499 13.7366   4
   7 -13   6 141.449 17.5169   3
  -7  13  -6 114.897 18.7877   2
  -8 -13  -6 -2.1941 10.0402   4
  -8 -13  -6 4.58023 9.85269   3
   8 -13   6 -2.1372 13.1128   3
  -8 -13  -6 -23.456 11.2823   2
  -8  13  -6 5.97444 17.2468   2
  -8 -14   6 24.0448 14.4663   4
   8 -14  -6 7.98774 12.2832   3
   7 -14  -6 239.212 23.4036   3
  -7 -14   6 216.600 23.0248   4
  -7  14   6 193.737 22.4889   2
  -6 -14   6 21.0503 12.0058   4
  -6 -14   6 14.1104 17.1603   3
   6 -14  -6 20.6646 12.3955   3
  -6  14   6 14.7610 9.87680   2
  -5 -14   6 100.807 14.2620   4
   5 -14  -6 96.5922 14.2118   3
  -5  14   6 91.9177 10.6092   2
   4 -14  -6 220.405 20.8494   3
  -4 -14   6 151.440 23.3442   3
  -4 -14   6 184.327 20.5368   4
   4  14  -6 218.432 20.7416   2
  -4  14   6 178.240 16.0252   2
  -3 -14   6 92.0507 12.2851   4
   3 -14  -6 85.5934 13.8372   3
   3 -14  -6 76.4834 8.73569   2
   3  14  -6 100.393 12.5366   2
  -3  14   6 77.4599 8.62371   2
  -2 -14   6 84.6405 17.6705   3
   2 -14  -6 79.4578 8.29405   2
   2 -14  -6 91.9831 13.6675   3
  -2  14   6 87.4426 8.41085   2
   2  14  -6 82.2204 11.9447   2
  -1 -14   6 6.74156 9.22627   4
   1 -14  -6 11.6142 11.2572   3
  -1 -14   6 9.55057 11.6333   3
   1 -14  -6 14.6223 5.99489   2
   1  14  -6 4.98141 10.4576   2
  -1  14   6 5.12740 5.94663   2
   0 -14  -6 198.779 14.5871   2
   0 -14   6 190.063 18.1623   4
   0 -14   6 187.406 18.1026   3
   0  14  -6 183.568 19.0460   2
   1 -14   6 198.197 21.1166   3
   1 -14   6 223.501 18.6650   4
  -1 -14  -6 193.616 15.4733   2
  -1  14  -6 224.014 21.4553   2
   2 -14   6 26.7274 25.4361   1
   2 -14   6 19.7401 8.73279   4
  -2 -14  -6 15.6608 6.50299   2
   2 -14   6 14.1224 12.2731   3
  -2  14  -6 11.4869 11.2414   2
  -3 -14  -6 244.151 18.6551   2
   3 -14   6 198.271 32.0336   1
   3 -14   6 262.175 24.8301   3
  -3  14  -6 257.170 24.3792   2
   4 -14   6 11.2606 12.9978   3
  -4 -14  -6 6.20424 10.8108   3
  -4  14  -6 2.30838 12.8501   2
  -5 -14  -6 -11.708 10.9318   3
   5 -14   6 1.10108 12.3973   3
  -5 -14  -6 8.20833 9.22519   2
  -5  14  -6 15.7536 14.2556   2
  -6 -14  -6 271.058 24.9196   3
   6 -14   6 295.983 27.8862   3
  -6 -14  -6 297.755 23.9654   2
  -6 -14  -6 298.393 24.1540   4
  -6  14  -6 297.112 30.0739   2
  -7 -14  -6 8.54879 10.6873   3
  -7 -14  -6 -21.540 10.5412   2
   7 -14   6 8.74458 13.3524   3
  -7 -14  -6 14.9982 10.7155   4
  -7  14  -6 -29.583 16.0716   2
   7 -15  -6 61.5123 14.3477   3
  -7 -15   6 27.7446 10.8677   3
  -7 -15   6 51.3752 14.5889   4
   6 -15  -6 13.1715 13.2734   3
  -6 -15   6 1.30764 10.2293   3
  -6 -15   6 6.79283 12.9396   4
  -6  15   6 19.4899 10.3863   2
  -5 -15   6 50.9209 12.8035   4
  -5 -15   6 53.1280 11.8259   3
   5 -15  -6 52.9700 14.3319   3
  -5  15   6 38.6522 9.70307   2
  -4 -15   6 93.1492 13.7023   4
  -4 -15   6 99.6008 13.3764   3
   4 -15  -6 126.144 16.2624   3
   4  15  -6 121.530 14.2162   2
  -4  15   6 84.6029 10.4101   2
   3 -15  -6 7.38868 12.1806   3
  -3 -15   6 -5.3823 10.3912   4
  -3 -15   6 1.89390 10.9110   3
  -3  15   6 7.76364 7.11321   2
   3  15  -6 4.66206 11.0490   2
  -2 -15   6 107.622 14.6115   3
  -2 -15   6 118.515 13.9710   4
   2 -15  -6 136.879 16.5400   3
   2  15  -6 151.376 14.6837   2
  -2  15   6 134.451 13.1013   2
   1 -15  -6 42.1279 12.9450   3
  -1 -15   6 44.8867 10.8645   4
  -1 -15   6 41.1757 12.8061   3
   1 -15  -6 37.0379 7.46486   2
   1  15  -6 61.2819 11.6172   2
  -1  15   6 42.4412 7.51174   2
   0 -15  -6 -3.2298 6.19834   2
   0 -15  -6 3.22888 11.6815   3
   0 -15   6 -0.1124 12.0697   3
   0  15  -6 -14.369 10.3830   2
  -1 -15  -6 70.2417 13.8754   3
   1 -15   6 108.539 12.4088   4
   1 -15   6 109.743 14.9570   3
  -1 -15  -6 115.966 11.9541   2
  -1 -15  -6 73.1183 10.9667   1
  -1  15  -6 110.584 13.9194   2
   2 -15   6 73.7994 14.2641   3
   2 -15   6 65.5738 10.6578   4
  -2 -15  -6 54.9711 13.0466   3
  -2  15  -6 92.8342 13.6614   2
   3 -15   6 2.32540 12.6762   3
  -3 -15  -6 26.5090 12.5338   3
  -3  15  -6 17.1745 12.8900   2
   4 -15   6 97.3627 15.7709   3
  -4 -15  -6 98.6676 14.0244   3
  -4  15  -6 84.3181 16.2198   2
   5 -15   6 30.7675 14.4396   3
  -5 -15  -6 39.9427 12.4748   3
  -5  15  -6 59.0441 16.4045   2
   6 -15   6 -9.2473 14.3599   3
  -6 -15  -6 11.0773 10.5849   2
  -6 -15  -6 8.42824 11.7793   3
  -6 -15  -6 -5.2433 10.4312   4
  -6  15  -6 -21.607 15.7511   2
  -7 -15  -6 14.1306 12.2349   2
  -7 -15  -6 -3.4010 11.2964   3
  -7 -15  -6 17.4290 11.6204   4
   7 -15   6 -21.751 14.3220   3
  -7  15  -6 42.7072 19.0894   2
  -6 -16   6 11.8928 13.0270   4
  -6 -16   6 23.7913 11.7840   3
   6 -16  -6 8.69842 13.3026   3
  -5 -16   6 43.2359 13.0512   4
   5 -16  -6 39.7879 14.2320   3
  -5 -16   6 47.8409 12.4375   3
  -5  16   6 44.7636 10.4179   2
  -4 -16   6 20.5523 11.6030   3
  -4 -16   6 27.4827 12.3520   4
   4 -16  -6 16.5985 13.5358   3
   4  16  -6 32.4819 12.3101   2
  -4  16   6 20.8035 8.83849   2
  -3 -16   6 231.295 24.0471   3
  -3 -16   6 228.129 23.1926   4
   3 -16  -6 232.856 26.1238   3
   3  16  -6 253.857 22.7352   2
  -3  16   6 215.651 18.6264   2
   2 -16  -6 158.198 17.8431   3
  -2 -16   6 141.809 16.2833   3
  -2 -16   6 126.979 15.3418   4
   2  16  -6 203.414 21.1232   2
  -2  16   6 134.106 14.6168   2
   1 -16  -6 25.7812 13.8959   3
  -1 -16   6 11.8327 12.8088   3
  -1 -16   6 -0.7609 10.4923   4
   1  16  -6 36.1910 11.8718   2
   0 -16   6 10.9787 13.0926   3
   0 -16   6 18.4970 10.7790   4
   0 -16  -6 12.0914 12.6429   3
   0  16  -6 21.9407 11.6944   2
   1 -16   6 22.5601 13.6580   3
  -1 -16  -6 23.2371 13.3809   3
   1 -16   6 19.7124 10.9509   4
  -1  16  -6 26.7128 12.2078   2
   2 -16   6 366.631 30.1642   3
  -2 -16  -6 311.325 29.5257   3
   2 -16   6 353.219 26.7267   4
  -2  16  -6 367.768 28.4675   2
   3 -16   6 47.7371 14.7300   3
  -3 -16  -6 61.6006 13.8358   3
  -3  16  -6 65.7252 15.0464   2
  -4 -16  -6 112.752 15.7455   3
   4 -16   6 129.491 17.5102   3
  -4  16  -6 117.650 17.6085   2
   5 -16   6 7.35571 14.9060   3
  -5 -16  -6 12.2608 12.1654   3
  -5  16  -6 19.0449 16.0679   2
  -6 -16  -6 -2.3902 11.7516   4
  -6 -16  -6 16.6983 12.8613   3
  -6 -16  -6 17.3032 11.7587   2
   6 -16   6 14.6760 15.0171   3
  -6  16  -6 23.2353 18.2269   2
  -5 -17   6 52.7624 13.2761   3
  -5 -17   6 23.9368 13.6233   4
   5 -17  -6 12.4010 14.7006   3
   4 -17  -6 -1.1394 14.8004   3
  -4 -17   6 20.3703 13.0402   4
  -4 -17   6 2.03941 12.0494   3
  -3 -17   6 19.9238 12.9752   3
   3 -17  -6 3.70337 14.1825   3
  -3 -17   6 35.6989 12.8843   4
   3  17  -6 38.7745 13.0893   2
  -3  17   6 30.5829 8.89428   2
  -2 -17   6 7.66320 12.6945   3
   2 -17  -6 -2.3479 13.7725   3
  -2 -17   6 26.8661 12.2692   4
   2  17  -6 21.4196 12.7128   2
  -2  17   6 22.1728 8.47976   2
  -1 -17   6 15.4840 11.6512   4
   1 -17  -6 19.5937 13.9914   3
  -1 -17   6 17.7327 13.6992   3
   1  17  -6 23.6119 12.6154   2
   0 -17  -6 86.0997 16.2809   3
   0 -17   6 108.686 16.7443   3
   0 -17   6 74.2879 13.9094   4
   0  17  -6 91.0795 14.5625   2
  -1 -17  -6 36.7016 14.7136   3
   1 -17   6 43.5256 14.7276   3
   1 -17   6 22.1111 11.2891   4
  -1  17  -6 61.4299 13.8814   2
   2 -17   6 -18.322 11.0257   4
  -2 -17  -6 -1.1977 13.7401   3
   2 -17   6 -10.248 13.7318   3
  -2  17  -6 -24.607 12.9996   2
   3 -17   6 14.2063 14.5238   3
   3 -17   6 -12.235 10.6974   4
  -3 -17  -6 28.9683 13.6159   3
  -3  17  -6 35.1272 14.4887   2
   4 -17   6 -1.4627 14.6112   3
  -4 -17  -6 -12.351 13.3437   3
  -4  17  -6 12.4060 16.0211   2
  -5 -17  -6 32.3053 13.8958   3
   5 -17   6 27.8861 16.5118   3
  -5  17  -6 35.3106 17.9254   2
  -4 -18   6 48.7580 14.5935   4
   4 -18  -6 30.8203 15.8914   3
  -4 -18   6 47.4673 13.7086   3
  -3 -18   6 59.1698 14.3482   3
   3 -18  -6 25.5036 16.5311   3
  -3 -18   6 35.7943 13.5997   4
   3  18  -6 51.2497 14.0301   2
  -2 -18   6 27.9351 14.1221   3
   2 -18  -6 30.3863 16.1730   3
  -2 -18   6 7.45050 12.7366   4
   2  18  -6 20.4689 13.5296   2
  -1 -18   6 53.9227 14.0332   4
   1 -18  -6 31.6546 15.9691   3
  -1 -18   6 47.9013 15.2711   3
   1  18  -6 68.9241 14.5491   2
   0 -18  -6 -8.5530 14.5432   3
   0 -18   6 9.12411 14.7208   3
   0 -18   6 -18.722 12.2219   4
   0  18  -6 -1.6461 12.9449   2
  -1 -18  -6 22.4742 14.6456   3
   1 -18   6 22.3624 14.8213   3
   1 -18   6 59.5023 13.4309   4
  -1  18  -6 53.2506 14.6702   2
   2 -18   6 10.0850 11.8736   4
  -2 -18  -6 15.1501 14.4947   3
   2 -18   6 -12.935 14.8151   3
  -2  18  -6 14.0196 15.3513   2
   3 -18   6 -0.5535 15.4687   3
  -3 -18  -6 -3.0202 14.7477   3
   3 -18   6 -3.3596 11.8461   4
  -3  18  -6 11.9679 15.6727   2
   4 -18   6 34.9948 16.9138   3
  -4 -18  -6 70.3254 15.9605   3
  -4  18  -6 74.8537 18.2965   2
   3 -19  -6 18.7471 16.5005   3
  -3 -19   6 32.2578 14.8450   3
  -3 -19   6 6.70329 13.8365   4
  -2 -19   6 -3.2086 15.2867   3
   2 -19  -6 21.4932 16.0485   3
  -2 -19   6 -12.186 13.6275   4
   2  19  -6 26.9349 15.0740   2
   1 -19  -6 -2.4141 15.8935   3
  -1 -19   6 -10.905 13.5944   4
  -1 -19   6 -9.7665 14.5252   3
   1  19  -6 8.14980 14.4401   2
   0 -19   6 -0.7260 13.1072   4
   0 -19   6 19.6918 15.3205   3
   0 -19  -6 15.1902 15.7079   3
   0  19  -6 9.99939 14.3915   2
  -1 -19  -6 0.36010 15.6464   3
   1 -19   6 -23.451 12.3781   4
   1 -19   6 30.8177 16.0252   3
  -1  19  -6 15.7097 15.2680   2
  -2 -19  -6 -8.2106 15.2362   3
   2 -19   6 -11.463 16.2295   3
   2 -19   6 -14.570 12.4183   4
  -2  19  -6 0.83036 15.9346   2
 -11   0   7 296.044 28.7989   2
 -10   0   7 6.48396 17.2149   2
  -9   0   7 35.9817 15.5887   2
  -8   0   7 570.783 37.7942   2
  -8   0   7 695.725 41.4109   2
   8   0  -7 587.625 35.1923   3
   7   0  -7 121.926 18.8051   1
   7   0  -7 148.620 12.9544   3
  -7   0   7 110.340 16.6242   1
  -7   0   7 137.372 13.7797   2
  -6   0   7 172.031 13.4450   2
   6   0  -7 153.682 16.0315   4
  -6   0   7 132.076 13.6970   2
  -6   0   7 184.067 22.6390   1
  -6   0   7 158.683 14.6211   3
   6   0  -7 147.125 21.3504   1
   5   0  -7 295.694 26.4230   1
  -5   0   7 308.580 28.5228   1
   5   0  -7 346.353 23.7647   4
  -5   0   7 313.803 22.7019   2
   5   0  -7 338.830 22.7146   3
  -5   0   7 338.955 22.6548   3
  -4   0   7 133.478 13.6359   3
  -4   0   7 79.7630 7.94711   2
   4   0  -7 78.2052 9.81378   3
  -4   0   7 73.6813 13.4364   1
   4   0  -7 90.2747 10.5869   4
   4   0  -7 88.3659 12.7586   1
  -3   0   7 287.539 17.6923   2
  -3   0   7 274.298 25.2055   1
   3   0  -7 350.066 21.3451   4
  -3   0   7 291.934 21.9396   3
   3   0  -7 280.044 23.0079   1
   3   0  -7 312.971 21.0084   3
   2   0  -7 162.399 12.9341   4
   2   0  -7 153.752 13.5058   3
  -2   0   7 135.352 17.1105   1
  -2   0   7 142.219 9.36285   2
   2   0  -7 124.770 15.2418   1
  -2   0   7 156.284 15.7301   3
   1   0  -7 423.274 25.6702   4
   1   0  -7 416.832 28.1407   1
  -1   0   7 426.350 24.0428   2
   1   0  -7 415.398 23.9081   2
  -1   0   7 429.085 27.6713   3
  -1   0   7 390.063 29.4670   1
   1   0  -7 415.882 27.1493   3
   0   0  -7 1960.60 112.814   3
   0   0  -7 1956.57 113.767   1
   0   0   7 2011.36 113.299   3
   0   0   7 2059.95 111.209   2
   0   0  -7 1914.83 111.624   4
  -1   0  -7 52.9179 5.02695   4
   1   0   7 43.8305 9.92198   3
  -1   0  -7 57.3725 8.28240   3
   1   0   7 42.9925 6.10746   2
  -1   0  -7 40.3885 7.42507   1
   1   0   7 45.9162 8.13876   1
  -1   0  -7 53.5922 5.37799   2
   2   0   7 1299.62 78.9513   1
   2   0   7 1371.78 78.7963   3
   2   0   7 1409.89 76.9197   2
  -2   0  -7 1292.56 78.1231   1
  -2   0  -7 1382.29 77.9019   3
  -2   0  -7 1350.96 75.9453   2
  -2   0  -7 1327.80 75.6514   4
   3   0   7 624.286 36.7947   2
   3   0   7 646.963 39.2356   3
  -3   0  -7 609.013 35.0445   2
  -3   0  -7 638.936 37.2831   3
   3   0   7 558.061 37.0606   1
   3   0   7 545.528 37.9399   1
   4   0   7 1104.55 67.7452   1
   4   0   7 1075.10 68.2180   1
   4   0   7 1185.46 67.4675   2
   4   0   7 1175.33 68.8423   3
  -4   0  -7 1146.69 65.7626   2
  -4   0  -7 1224.14 67.3217   3
  -5   0  -7 30.5013 8.09502   3
   5   0   7 66.1203 12.2348   2
   5   0   7 21.0288 7.84149   1
   5   0   7 65.6494 12.4117   3
  -5   0  -7 33.1305 7.24494   2
   5   0   7 25.7196 8.96222   1
   6   0   7 145.741 21.3474   1
  -6   0  -7 164.373 15.4063   2
   6   0   7 172.047 17.8137   3
   6   0   7 150.857 17.9088   1
  -6   0  -7 188.259 16.6631   3
  -7   0  -7 705.491 42.5607   3
  -7   0  -7 694.664 43.4947   2
   7   0   7 693.378 45.8082   3
  -8   0  -7 165.257 16.4754   3
   8   0   7 174.992 17.7351   3
   9   0   7 130.792 15.0220   3
  -9   0  -7 123.346 15.3521   2
 -10   0  -7 21.9159 14.4018   2
 -11   0  -7 12.4726 15.8246   2
 -11  -1   7 63.4822 20.6926   2
 -11   1   7 124.302 21.8752   2
 -10  -1   7 37.4461 16.6426   2
 -10   1   7 35.4735 17.6413   2
  -9  -1   7 157.746 18.5199   2
  -9   1   7 148.394 18.7647   2
   8  -1  -7 314.373 18.6121   3
  -8  -1   7 278.933 25.0611   2
  -8  -1   7 292.951 26.3691   2
   8   1  -7 263.740 17.6223   3
  -8   1   7 270.123 21.6978   2
  -7  -1   7 501.746 33.2064   2
  -7  -1   7 600.327 36.1895   2
   7  -1  -7 508.895 40.8018   1
  -7  -1   7 494.590 40.1152   1
   7  -1  -7 566.435 33.1146   3
  -7   1   7 564.491 36.2921   2
   7   1  -7 554.918 32.3996   3
  -7   1   7 493.080 41.0327   1
  -7   1   7 541.809 32.9962   2
  -6  -1   7 42.2210 9.59507   2
   6  -1  -7 18.4277 12.3047   1
   6  -1  -7 4.91793 10.1146   4
  -6  -1   7 33.4958 7.24331   3
  -6  -1   7 36.8720 6.52432   2
   6  -1  -7 9.97521 7.31546   3
  -6  -1   7 19.3113 16.3119   1
  -6   1   7 20.0027 5.86447   2
   6   1  -7 8.39361 11.3034   4
   6   1  -7 11.1863 10.1834   1
  -6   1   7 41.3559 9.45215   2
  -6   1   7 31.4818 14.6853   1
   5  -1  -7 21.7185 7.28125   3
  -5  -1   7 16.3483 5.33446   2
  -5  -1   7 12.3945 10.9664   1
   5  -1  -7 1.08739 8.15878   4
   5  -1  -7 24.3549 9.82377   1
  -5  -1   7 19.3553 7.61402   3
   5   1  -7 31.2820 7.67381   3
  -5   1   7 39.1837 7.85963   2
   5   1  -7 2.70997 7.37025   1
  -5   1   7 35.6057 8.30196   3
  -5   1   7 25.0941 4.99888   2
   5   1  -7 32.0756 9.61538   4
  -5   1   7 16.5462 9.57768   1
   4  -1  -7 958.743 55.5961   4
  -4  -1   7 904.834 53.4358   2
   4  -1  -7 980.677 55.2444   3
  -4  -1   7 962.835 59.1127   1
   4  -1  -7 904.192 58.0086   1
  -4  -1   7 913.040 55.2639   3
  -4   1   7 958.835 55.3753   3
  -4   1   7 942.221 59.5750   1
   4   1  -7 1027.21 55.9522   4
  -4   1   7 924.591 54.1975   2
  -4   1   7 880.334 53.1748   2
   3  -1  -7 228.979 23.9886   1
  -3  -1   7 162.188 20.4336   1
   3  -1  -7 144.488 13.4480   4
  -3  -1   7 144.868 15.1949   3
  -3  -1   7 145.722 10.5585   2
   3  -1  -7 160.998 14.0796   3
  -3   1   7 147.702 9.87972   2
  -3   1   7 135.093 11.7028   2
   3   1  -7 142.631 17.1009   1
   3   1  -7 169.145 14.0830   4
  -3   1   7 164.376 16.2993   3
  -3   1   7 180.695 19.5692   1
   3   1  -7 174.294 14.7706   3
  -2  -1   7 6.36311 7.68126   1
  -2  -1   7 7.75690 3.16756   2
   2  -1  -7 6.38393 7.11770   1
  -2  -1   7 2.04668 7.63696   3
   2  -1  -7 8.69980 6.29825   3
  -2   1   7 9.45433 2.31855   2
   2   1  -7 14.2585 7.13317   3
  -2   1   7 11.0067 8.15736   1
   2   1  -7 4.58584 6.70526   1
  -2   1   7 9.72158 8.13982   3
   2   1  -7 15.0294 6.00807   4
  -1  -1   7 114.436 12.8406   3
   1  -1  -7 117.416 13.1823   1
  -1  -1   7 103.070 7.89858   2
  -1  -1   7 116.980 15.2417   1
   1  -1  -7 107.388 11.4973   3
  -1   1   7 90.8909 11.8572   3
   1   1  -7 103.644 7.52242   2
   1   1  -7 92.8445 13.0344   1
   1   1  -7 120.276 12.1428   3
   1   1  -7 99.3604 10.3367   4
  -1   1   7 95.5252 7.03860   2
   0  -1  -7 937.012 59.0397   3
   0  -1  -7 937.638 57.0003   2
   0  -1   7 1064.53 57.6527   2
   0  -1  -7 957.611 60.0743   1
   0  -1   7 1076.79 61.4688   1
   0  -1   7 1013.27 59.9939   3
   0   1  -7 1031.01 60.5863   1
   0   1   7 1028.57 57.4735   2
   0   1   7 1057.38 61.5691   1
   0   1   7 1065.46 60.5919   3
   0   1  -7 1036.93 59.6462   3
   0   1  -7 998.296 57.3078   2
   0   1  -7 1040.72 58.0720   4
   1  -1   7 -0.5150 4.82860   2
   1  -1   7 2.93871 6.60520   1
   1  -1   7 1.35467 7.70246   3
  -1  -1  -7 8.67861 6.25517   3
  -1  -1  -7 -1.7882 3.69508   2
  -1   1  -7 4.94261 3.18436   2
   1   1   7 3.22653 4.56699   2
  -1   1  -7 5.70314 3.38315   4
   1   1   7 -1.0567 6.90783   1
   1   1   7 -5.5104 8.57090   3
  -1   1  -7 -4.7604 5.14097   1
  -1   1  -7 5.55434 6.75991   3
   2  -1   7 363.863 22.1588   2
   2  -1   7 315.628 24.2963   1
   2  -1   7 330.387 24.5073   3
  -2  -1  -7 315.973 22.3818   3
  -2  -1  -7 343.332 19.9643   2
  -2  -1  -7 350.627 22.7540   1
  -2   1  -7 361.553 23.0691   3
  -2   1  -7 335.339 20.2399   2
   2   1   7 330.967 21.7370   2
   2   1   7 319.789 24.7113   3
  -2   1  -7 333.011 23.2883   1
   2   1   7 313.809 23.7902   1
  -3  -1  -7 18.8956 7.15638   3
  -3  -1  -7 26.6105 2.33347   4
   3  -1   7 20.0568 7.56650   1
  -3  -1  -7 19.6210 4.81270   2
   3  -1   7 17.8380 14.3719   2
   3  -1   7 10.7514 9.05048   3
  -3   1  -7 20.3315 8.06383   3
  -3   1  -7 26.6315 5.29629   2
   3   1   7 34.2210 8.11136   2
   3   1   7 17.4627 7.09634   1
   3   1   7 22.6770 10.6352   3
   4  -1   7 18.4592 6.95929   1
   4  -1   7 4.69113 6.96533   1
  -4  -1  -7 -1.1793 7.08906   3
  -4  -1  -7 -0.0296 5.58660   2
   4  -1   7 23.2477 10.0961   3
   4   1   7 -10.022 10.2356   3
   4   1   7 -0.4440 6.79932   1
   4   1   7 -3.7410 9.49189   2
  -4   1  -7 4.62532 7.83747   3
   4   1   7 -1.4126 5.98530   1
  -5  -1  -7 276.913 20.5111   3
   5  -1   7 273.405 22.5311   1
   5  -1   7 265.259 21.6137   1
   5  -1   7 242.443 23.3885   2
   5  -1   7 261.671 24.1330   3
  -5  -1  -7 289.613 19.4891   2
  -5   1  -7 287.796 20.9400   3
   5   1   7 253.728 21.5803   1
   5   1   7 277.862 25.1798   3
   5   1   7 271.535 20.8203   1
  -5   1  -7 277.763 19.7369   2
   6  -1   7 56.6856 12.7809   3
  -6  -1  -7 35.6812 8.56690   3
   6  -1   7 78.5832 14.0524   2
   6  -1   7 34.9698 9.60974   1
   6  -1   7 12.5350 10.6419   1
  -6  -1  -7 51.2925 8.69902   2
   6   1   7 37.3701 13.1926   3
  -6   1  -7 41.1012 8.88685   3
   6   1   7 32.7720 9.08518   1
  -6   1  -7 45.9890 8.99876   2
  -7  -1  -7 16.7073 9.71920   2
  -7  -1  -7 16.7557 8.39736   3
   7   1   7 12.3228 12.7266   3
  -7   1  -7 54.8135 10.8065   2
  -7   1  -7 23.9534 8.64359   3
   8  -1   7 63.0577 14.0325   3
  -8  -1  -7 20.2312 8.13171   3
   8   1   7 28.2675 12.3367   3
  -8   1  -7 16.3052 8.35559   3
  -8   1  -7 33.5009 13.3301   2
   9  -1   7 37.7530 12.4575   3
  -9  -1  -7 26.2705 12.4534   2
   9   1   7 3.09945 10.8702   3
  -9   1  -7 34.4431 13.2234   2
 -10  -1  -7 12.9433 13.0115   2
 -10   1  -7 -10.099 13.3216   2
 -11  -1  -7 -5.7566 14.6863   2
 -11   1  -7 13.7243 15.7433   2
 -11  -2   7 11.1366 18.7363   2
 -11   2   7 23.4765 18.5798   2
 -10  -2   7 16.3661 15.6591   2
 -10   2   7 49.8112 18.0715   2
  -9   2   7 214.600 21.8609   2
  -8  -2   7 125.397 15.4398   2
   8  -2  -7 144.905 12.2431   3
  -8   2   7 112.332 11.8204   2
  -8   2   7 110.724 15.8966   2
   8   2  -7 114.495 9.60604   3
  -7  -2   7 281.844 21.5880   2
  -7  -2   7 274.642 30.0531   1
  -7  -2   7 310.850 20.4226   3
  -7  -2   7 280.729 24.5398   2
   7  -2  -7 281.080 29.7218   1
  -7   2   7 308.533 20.8673   2
  -7   2   7 407.882 25.9962   2
  -7   2   7 287.340 30.1844   1
   7   2  -7 308.778 19.7702   3
  -6  -2   7 235.738 17.2730   2
  -6  -2   7 236.302 17.7266   3
  -6  -2   7 243.765 24.8449   1
   6  -2  -7 248.045 18.2458   3
  -6  -2   7 221.015 20.1084   2
   6  -2  -7 224.872 24.9029   1
   6   2  -7 228.239 24.1166   1
  -6   2   7 216.406 16.2635   2
  -6   2   7 235.655 26.1091   1
  -6   2   7 226.536 20.0971   2
   5  -2  -7 1.11560 6.77395   3
  -5  -2   7 0.66329 9.78979   1
  -5  -2   7 9.91842 5.23610   2
   5  -2  -7 0.61254 9.47172   1
   5  -2  -7 8.16212 8.40696   4
   5   2  -7 14.1778 9.37119   4
   5   2  -7 18.0092 7.07429   3
  -5   2   7 5.67208 7.45656   2
  -5   2   7 7.71298 4.36108   2
  -5   2   7 20.8876 12.4980   1
  -5   2   7 7.08303 7.47714   3
   5   2  -7 -14.484 9.34535   1
   4  -2  -7 -2.4151 7.62020   1
  -4  -2   7 8.44627 9.19783   1
   4  -2  -7 3.50139 6.38719   3
  -4  -2   7 7.27620 7.19143   3
   4   2  -7 6.15687 8.37644   1
   4   2  -7 7.87110 6.95896   3
  -4   2   7 9.48741 7.88127   3
  -4   2   7 0.97379 3.20393   2
   4   2  -7 19.4150 7.94613   4
  -4   2   7 -0.9861 5.68954   2
  -3  -2   7 466.892 31.3852   1
  -3  -2   7 444.977 25.3667   2
   3  -2  -7 431.414 29.8799   1
  -3  -2   7 424.486 27.9586   3
   3  -2  -7 400.766 27.3292   3
  -3   2   7 402.797 24.5157   2
   3   2  -7 450.679 30.7565   1
   3   2  -7 448.803 27.9775   4
   3   2  -7 484.544 28.2106   3
  -3   2   7 376.167 25.3765   2
  -3   2   7 433.429 28.4278   3
  -3   2   7 443.864 34.5569   1
  -2  -2   7 930.123 61.7661   3
  -2  -2   7 1138.91 60.1953   2
   2  -2  -7 1017.77 63.5181   1
   2  -2  -7 968.786 61.6645   3
  -2  -2   7 1118.78 64.8011   1
  -2   2   7 1126.78 59.6186   2
   2   2  -7 1065.57 64.1073   1
  -2   2   7 1091.76 65.2991   1
   2   2  -7 1121.63 61.5124   4
  -2   2   7 1089.98 62.6800   3
   2   2  -7 1086.02 60.2131   2
   2   2  -7 1144.85 62.4633   3
  -2   2   7 943.348 59.6603   2
  -1  -2   7 207.922 17.4696   3
  -1  -2   7 216.982 19.8750   1
  -1  -2   7 238.257 13.7824   2
   1  -2  -7 185.200 16.3316   3
   1  -2  -7 207.511 17.6447   1
  -1   2   7 225.746 18.4772   3
  -1   2   7 216.516 20.3119   1
   1   2  -7 218.889 18.4042   1
   1   2  -7 210.679 13.4259   2
   1   2  -7 208.799 17.0044   3
   1   2  -7 225.584 15.4048   4
   0  -2  -7 292.414 23.3748   3
   0  -2   7 336.846 24.4042   3
   0  -2   7 418.791 26.6383   1
   0  -2   7 398.860 21.9653   2
   0  -2  -7 351.290 27.6313   1
   0   2  -7 388.400 25.6365   1
   0   2  -7 382.711 22.3339   4
   0   2  -7 380.509 21.5502   2
   0   2  -7 356.634 24.4430   3
   0   2   7 368.281 27.0051   1
   0   2   7 339.190 25.6455   3
   1  -2   7 123.818 13.2510   3
   1  -2   7 133.069 10.2936   2
  -1  -2  -7 112.488 12.1145   1
  -1  -2  -7 113.267 7.53750   2
  -1  -2  -7 125.056 12.3078   3
   1  -2   7 95.4492 12.5688   1
  -1   2  -7 119.936 8.70073   4
  -1   2  -7 114.513 13.4643   1
   1   2   7 112.196 14.7913   1
   1   2   7 102.231 12.9303   3
  -1   2  -7 119.647 13.8263   3
  -1   2  -7 120.843 9.03259   2
   2  -2   7 95.0956 11.7173   1
  -2  -2  -7 130.885 11.8528   1
  -2  -2  -7 121.241 8.60217   2
   2  -2   7 114.839 13.7468   3
   2  -2   7 121.618 12.2106   2
  -2  -2  -7 103.115 12.0500   3
   2   2   7 105.363 13.5070   3
  -2   2  -7 118.436 9.54303   2
   2   2   7 100.597 14.1584   1
  -2   2  -7 150.544 14.4627   3
  -3  -2  -7 9.24369 4.38871   2
  -3  -2  -7 6.50145 6.51468   3
   3  -2   7 7.35248 7.58035   2
   3  -2   7 4.67538 8.26225   3
   3  -2   7 -5.1729 6.75969   1
   3  -2   7 -2.6065 5.27569   1
   3   2   7 -0.9521 6.47214   1
  -3   2  -7 8.89926 4.95986   2
   3   2   7 6.17478 10.6696   3
  -3   2  -7 2.23158 7.30046   3
   4  -2   7 1.69469 7.24819   1
   4  -2   7 0.69629 8.84478   3
  -4  -2  -7 7.65033 5.69873   2
  -4  -2  -7 -0.5106 6.92947   3
   4  -2   7 6.33480 8.58692   2
  -4   2  -7 3.79816 7.65399   3
   4   2   7 11.9113 11.6107   3
  -4   2  -7 2.88698 5.99554   2
   4   2   7 8.17244 6.95606   1
   4   2   7 9.47717 6.04390   1
   5  -2   7 246.535 23.0051   1
   5  -2   7 254.103 22.9727   3
   5  -2   7 333.163 24.0323   2
  -5  -2  -7 277.476 19.2313   2
  -5  -2  -7 289.649 20.5819   3
  -5   2  -7 280.032 19.8984   2
   5   2   7 241.924 25.3234   3
  -5   2  -7 286.504 20.8849   3
   5   2   7 256.295 21.5053   1
   5   2   7 269.268 20.3058   1
   6  -2   7 7.47861 10.0243   1
   6  -2   7 13.3055 11.0054   3
   6  -2   7 16.0972 13.3044   2
  -6  -2  -7 -1.9701 7.62827   3
  -6  -2  -7 1.26936 7.55278   2
   6  -2   7 40.3292 16.6346   1
  -6   2  -7 -5.3029 7.77773   3
   6   2   7 -5.5698 11.8226   3
   6   2   7 6.49937 7.96052   1
  -6   2  -7 0.64404 8.33650   2
   7  -2   7 -0.1402 11.6479   3
  -7  -2  -7 20.7299 8.24669   3
  -7  -2  -7 16.8237 9.32429   2
  -7   2  -7 -0.2709 10.3819   2
  -7   2  -7 7.00890 8.14694   3
   7   2   7 25.0177 12.4483   3
  -8  -2  -7 102.540 12.0021   3
   8  -2   7 152.173 16.7771   3
  -8  -2  -7 86.6480 20.7052   2
   8   2   7 198.993 20.4712   3
  -8   2  -7 121.447 14.4477   2
  -8   2  -7 134.601 15.3949   3
   9  -2   7 -10.081 12.6174   3
  -9  -2  -7 -1.2304 11.4775   2
  -9   2  -7 -5.0633 12.0322   2
 -10  -2  -7 20.5135 13.9239   2
 -10   2  -7 19.2098 14.8862   2
 -11  -3   7 -7.4317 16.8926   2
 -11   3   7 58.3984 19.7006   2
 -10  -3   7 50.5730 16.4379   2
 -10   3   7 32.6694 17.1113   2
  -9  -3   7 9.91463 14.2625   2
  -9   3   7 12.6064 15.4622   2
  -8  -3   7 25.7809 12.9044   2
   8  -3  -7 -0.8025 7.59500   3
   8   3  -7 10.8366 4.13244   3
  -8   3   7 23.0832 13.4622   2
  -7  -3   7 128.529 12.2764   2
   7  -3  -7 144.010 14.6483   3
  -7  -3   7 144.868 15.0762   2
   7  -3  -7 125.056 19.3544   1
  -7  -3   7 148.857 13.0571   3
  -7   3   7 146.786 14.8946   2
   7   3  -7 138.933 12.0846   3
  -7   3   7 126.058 19.0387   1
  -6  -3   7 4.60592 6.67219   3
  -6  -3   7 -0.8443 6.46078   2
   6  -3  -7 -14.472 10.6451   1
  -6  -3   7 13.8437 15.5493   1
   6  -3  -7 9.16185 7.21766   3
  -6   3   7 0.93375 11.9183   1
   6   3  -7 7.94032 10.6509   1
   6   3  -7 0.87882 6.17878   3
  -6   3   7 17.8263 9.09288   2
  -5  -3   7 254.918 19.1701   3
   5  -3  -7 205.401 18.6872   3
  -5  -3   7 257.684 17.4776   2
  -5  -3   7 251.254 24.3304   1
   5  -3  -7 273.933 35.0040   1
  -5   3   7 259.068 16.1791   2
  -5   3   7 246.322 18.9205   2
   5   3  -7 272.175 18.9999   3
  -5   3   7 221.943 24.5619   1
   5   3  -7 257.788 25.2441   1
   5   3  -7 289.504 21.7176   4
  -4  -3   7 42.4244 9.99288   1
   4  -3  -7 39.8089 7.38670   3
  -4  -3   7 36.9813 8.18135   3
   4  -3  -7 33.8803 9.23638   1
  -4  -3   7 39.4438 5.90453   2
   4   3  -7 36.1120 10.5367   1
  -4   3   7 36.9667 10.0092   1
   4   3  -7 41.9023 8.01305   3
  -4   3   7 55.7654 9.48238   3
   4   3  -7 34.0402 8.67652   4
  -4   3   7 37.3347 6.17578   2
  -4   3   7 33.6935 4.04339   2
  -3  -3   7 45.5556 9.67062   1
   3  -3  -7 65.5008 10.6886   1
  -3  -3   7 55.3234 5.65805   2
  -3  -3   7 37.3333 7.99142   3
   3  -3  -7 35.2544 7.06435   3
  -3   3   7 51.2131 11.4668   1
  -3   3   7 43.2333 4.19712   2
   3   3  -7 42.9568 8.43107   3
   3   3  -7 73.2559 11.2555   1
  -3   3   7 42.7637 4.40295   2
  -3   3   7 76.1476 10.2262   3
   3   3  -7 45.3242 8.25651   4
   2  -3  -7 -0.4615 7.26182   1
  -2  -3   7 0.93528 7.48391   1
  -2  -3   7 -2.6158 3.93043   2
  -2  -3   7 2.89357 6.82654   3
   2  -3  -7 0.13599 5.98329   3
   2   3  -7 -7.6988 5.67524   4
  -2   3   7 6.47789 8.92019   3
   2   3  -7 12.6240 7.54381   3
   2   3  -7 10.3572 6.73769   1
   2   3  -7 2.51434 3.67123   2
  -2   3   7 7.37722 7.59352   1
   1  -3  -7 256.271 27.4210   1
   1  -3  -7 275.731 21.4032   3
  -1  -3   7 316.957 22.8641   3
  -1  -3   7 366.238 20.1931   2
  -1  -3   7 351.314 25.2351   1
  -1   3   7 327.371 24.3014   3
   1   3  -7 350.788 24.6267   1
   1   3  -7 346.146 23.2686   3
   1   3  -7 352.939 21.0895   4
  -1   3   7 310.061 25.7862   1
   1   3  -7 345.634 19.7941   2
   0  -3   7 112.585 14.2637   1
   0  -3   7 76.7521 9.95829   3
   0  -3   7 112.733 9.06440   2
   0  -3  -7 99.2151 11.5454   1
   0  -3  -7 82.7049 9.23893   3
   0   3   7 94.9169 11.6637   1
   0   3  -7 99.4833 9.00639   4
   0   3  -7 102.787 13.2028   1
   0   3   7 76.3682 11.8395   3
   0   3  -7 91.7563 8.01723   2
   0   3  -7 93.1133 10.5405   3
  -1  -3  -7 309.086 21.5873   1
  -1  -3  -7 318.589 18.2694   2
   1  -3   7 352.953 20.3438   2
   1  -3   7 305.058 28.1575   1
  -1  -3  -7 261.439 21.3725   3
   1  -3   7 310.825 22.2482   3
   1   3   7 296.079 23.7864   3
  -1   3  -7 335.905 22.4898   3
  -1   3  -7 321.285 23.2965   1
   1   3   7 322.779 24.2334   1
  -1   3  -7 360.865 19.6222   2
  -2  -3  -7 9.71650 6.24194   3
   2  -3   7 3.73166 7.54603   2
   2  -3   7 10.1503 6.80455   1
  -2  -3  -7 13.3418 3.30446   2
  -2  -3  -7 15.3165 5.05124   1
   2  -3   7 9.47746 7.72701   3
  -2   3  -7 4.44653 4.57839   2
   2   3   7 8.34956 7.15058   1
  -2   3  -7 13.2322 7.53492   3
   2   3   7 6.10575 9.94021   3
  -3  -3  -7 170.604 15.5035   3
   3  -3   7 178.733 17.4147   1
   3  -3   7 167.283 18.2808   1
   3  -3   7 167.611 17.1429   3
   3  -3   7 240.339 16.7439   2
  -3  -3  -7 194.144 13.4001   2
   3   3   7 186.350 20.9230   3
  -3   3  -7 201.597 14.2785   2
  -3   3  -7 233.366 17.1085   3
   3   3   7 220.348 17.7906   1
   4  -3   7 1286.55 78.2901   1
  -4  -3  -7 1252.63 76.3597   3
   4  -3   7 1298.74 76.6981   2
   4  -3   7 1123.97 77.0081   3
   4  -3   7 1337.87 78.6429   1
  -4  -3  -7 1363.02 75.3293   2
   4   3   7 1412.24 78.5082   3
   4   3   7 1289.03 77.3947   1
   4   3   7 1359.20 76.4855   1
  -4   3  -7 1346.04 75.6962   2
  -4   3  -7 1488.08 76.8796   3
   5  -3   7 30.0647 10.4742   2
  -5  -3  -7 20.2897 7.60698   3
   5  -3   7 29.2592 10.0926   1
  -5  -3  -7 18.6983 6.62416   2
   5  -3   7 17.7427 9.39155   3
   5  -3   7 22.2420 11.1571   1
   5   3   7 17.9218 6.99334   1
  -5   3  -7 23.2788 7.62070   2
   5   3   7 15.5832 7.94080   1
   5   3   7 6.15575 12.1705   3
  -5   3  -7 17.2621 8.23637   3
  -6  -3  -7 33.1048 8.35489   2
   6  -3   7 6.16107 10.8890   1
  -6  -3  -7 20.7441 8.34858   3
   6  -3   7 21.5985 10.8047   3
   6  -3   7 28.2281 12.5048   2
  -6   3  -7 35.9410 9.39421   2
  -6   3  -7 20.2618 8.67236   3
   6   3   7 20.8560 9.11222   1
  -7  -3  -7 278.056 21.4495   3
  -7  -3  -7 290.757 21.8844   2
   7  -3   7 214.815 25.1278   3
   7   3   7 272.550 25.4342   3
  -7   3  -7 276.488 21.5377   3
  -7   3  -7 292.661 23.4300   2
  -8  -3  -7 283.813 21.5288   3
   8  -3   7 260.537 26.5385   3
  -8   3  -7 277.424 21.7923   3
  -8   3  -7 297.900 24.1408   2
  -9  -3  -7 66.6959 12.9123   2
   9  -3   7 88.2366 15.2246   3
  -9   3  -7 64.1910 14.0072   2
 -10  -3  -7 -4.3962 12.7744   2
 -10   3  -7 -12.812 13.8550   2
 -11  -4   7 9.28252 17.1243   2
 -11   4   7 30.8324 18.8538   2
 -10  -4   7 66.1320 17.1016   2
 -10   4   7 56.0144 18.1540   2
  -9  -4   7 111.996 17.1511   2
  -9   4   7 97.3261 17.1710   2
   8  -4  -7 12.4088 7.77127   3
  -8  -4   7 5.76246 12.7164   2
  -8  -4   7 4.86504 5.01073   3
  -8   4   7 13.8319 12.5475   2
   8   4  -7 8.18385 4.22098   3
   7  -4  -7 54.0926 16.5472   1
   7  -4  -7 50.5237 8.78901   3
  -7  -4   7 31.2200 9.22975   2
  -7  -4   7 53.1336 7.61904   3
  -7   4   7 69.2011 24.4092   1
  -7   4   7 36.7051 11.4436   2
   7   4  -7 68.2045 9.35389   3
  -6  -4   7 173.078 15.7827   2
   6  -4  -7 168.695 15.7252   3
  -6  -4   7 188.134 23.1603   1
  -6  -4   7 177.165 15.6185   3
   6  -4  -7 191.701 25.0615   1
  -6   4   7 160.247 17.7881   2
  -6   4   7 183.322 24.5316   1
   6   4  -7 197.153 15.0207   3
   6   4  -7 195.080 24.3190   1
  -5  -4   7 90.5417 8.64017   2
   5  -4  -7 58.8980 8.70158   3
   5  -4  -7 122.465 20.2871   1
  -5  -4   7 71.0033 13.4626   1
  -5  -4   7 68.1021 9.26803   3
   5   4  -7 96.5352 9.30469   3
  -5   4   7 60.0006 8.67834   2
   5   4  -7 79.0275 11.4154   4
   5   4  -7 75.4516 13.7249   1
  -5   4   7 81.0844 14.4627   1
  -4  -4   7 393.357 23.2127   2
   4  -4  -7 365.048 28.2097   1
  -4  -4   7 323.961 24.5222   3
   4  -4  -7 350.395 24.3212   3
  -4  -4   7 371.572 28.9247   1
  -4   4   7 353.878 29.8321   1
   4   4  -7 434.187 25.2790   3
  -4   4   7 350.175 22.5947   2
   4   4  -7 406.527 25.5840   4
  -4   4   7 369.368 21.6961   2
   4   4  -7 383.069 29.7114   1
  -3  -4   7 322.688 25.4593   1
   3  -4  -7 341.166 24.8002   1
  -3  -4   7 353.364 20.0385   2
   3  -4  -7 307.500 21.2666   3
  -3  -4   7 285.089 22.0956   3
   3   4  -7 366.075 22.7694   4
   3   4  -7 324.002 25.5402   1
  -3   4   7 320.566 26.3659   1
  -3   4   7 281.580 18.2198   2
  -3   4   7 301.239 18.1716   2
  -3   4   7 354.125 22.9901   3
   3   4  -7 370.351 23.1402   3
   2  -4  -7 12.3737 6.59283   3
  -2  -4   7 12.2555 7.00632   3
   2  -4  -7 13.7502 7.20212   1
  -2  -4   7 22.9297 8.88610   1
   2   4  -7 18.2810 4.35281   2
   2   4  -7 16.5354 7.64420   1
  -2   4   7 6.90775 8.92161   1
   2   4  -7 10.3249 7.34985   3
  -2   4   7 16.9365 9.05355   3
   2   4  -7 10.3456 6.33100   4
   1  -4  -7 655.446 44.4319   3
   1  -4  -7 732.280 45.8211   1
  -1  -4   7 806.672 43.3841   2
  -1  -4   7 782.292 47.3006   1
  -1  -4   7 719.276 45.1078   3
   1   4  -7 779.112 43.1428   2
   1   4  -7 808.133 45.6658   3
  -1   4   7 724.063 47.5267   1
   1   4  -7 774.217 46.7541   4
  -1   4   7 743.475 45.8075   3
   0  -4   7 3.57216 7.07530   3
   0  -4   7 4.33789 6.80999   1
   0  -4   7 10.9908 4.78700   2
   0  -4  -7 4.58959 5.87042   3
   0  -4  -7 -0.5031 5.13465   1
   0   4  -7 6.43820 7.40363   3
   0   4  -7 7.16971 6.91245   1
   0   4   7 1.49760 7.75124   1
   0   4   7 -1.4336 9.16326   3
   0   4  -7 -0.0359 4.12833   2
   1  -4   7 1336.78 82.4299   3
  -1  -4  -7 1459.67 80.1145   2
   1  -4   7 1577.02 84.5879   1
  -1  -4  -7 1444.68 82.5902   1
  -1  -4  -7 1433.13 80.1197   2
   1  -4   7 1286.72 82.8248   2
  -1  -4  -7 1237.72 81.8672   3
   1   4   7 1415.66 83.6292   3
  -1   4  -7 1558.99 82.9992   3
   1   4   7 1407.67 84.1352   1
  -1   4  -7 1589.55 81.0363   2
  -2  -4  -7 385.365 27.7956   3
   2  -4   7 443.595 27.6631   2
  -2  -4  -7 463.296 25.9083   2
   2  -4   7 418.378 29.3458   3
  -2  -4  -7 448.061 27.8521   1
   2  -4   7 427.876 30.7354   1
  -2   4  -7 487.893 26.9086   2
   2   4   7 435.618 30.1661   1
  -2   4  -7 492.857 29.2694   3
   2   4   7 456.904 31.6581   3
   3  -4   7 261.737 21.8902   1
   3  -4   7 255.177 22.0617   1
   3  -4   7 240.434 21.0761   3
  -3  -4  -7 223.724 18.9542   3
  -3  -4  -7 278.052 17.2850   2
   3  -4   7 307.801 20.3159   2
   3   4   7 322.717 23.1516   3
  -3   4  -7 307.214 21.2826   3
   3   4   7 262.324 21.2063   1
  -3   4  -7 289.293 18.5035   2
  -4  -4  -7 109.939 11.4537   3
   4  -4   7 123.099 13.8457   1
   4  -4   7 148.996 16.0568   2
   4  -4   7 156.417 16.3747   3
   4  -4   7 110.340 13.3208   1
  -4  -4  -7 126.126 11.3450   2
  -4   4  -7 130.563 13.1621   2
  -4   4  -7 128.888 14.2953   3
   4   4   7 86.1517 14.1009   3
   4   4   7 120.851 11.9724   1
   4   4   7 112.687 14.9237   1
   5  -4   7 26.7891 11.1813   2
  -5  -4  -7 16.1750 6.85044   2
  -5  -4  -7 25.1528 4.35363   4
   5  -4   7 23.6584 9.95312   3
   5  -4   7 19.2633 9.81618   1
  -5  -4  -7 27.8575 7.87575   3
   5  -4   7 9.07310 9.03445   1
  -5   4  -7 21.7002 7.91406   2
   5   4   7 25.8876 12.9611   3
   5   4   7 18.8714 7.91734   1
  -5   4  -7 22.1051 8.33526   3
  -6  -4  -7 1018.12 57.1176   2
  -6  -4  -7 950.574 57.4399   3
   6  -4   7 871.305 61.1279   1
   6   4   7 1002.46 59.5588   3
  -6   4  -7 1029.33 57.7431   3
  -6   4  -7 991.597 57.7833   2
   6   4   7 938.047 57.4505   1
  -7  -4  -7 191.728 17.7402   2
   7  -4   7 207.898 21.8460   3
  -7  -4  -7 172.240 17.6824   3
  -7   4  -7 184.000 20.3499   2
  -7   4  -7 189.642 17.7333   3
   7   4   7 149.350 20.1392   1
   8  -4   7 29.0600 12.2263   3
  -8  -4  -7 -4.0002 8.42038   3
  -8   4  -7 13.8143 11.9821   2
  -8   4  -7 8.56590 8.79046   3
  -9  -4  -7 99.0334 14.2724   2
   9  -4   7 123.309 16.0776   3
  -9   4  -7 94.3948 16.1521   2
 -10  -4  -7 -21.169 12.0527   2
 -10   4  -7 21.0141 14.9003   2
 -11  -5   7 -1.3620 17.4469   2
 -11   5   7 15.9100 18.6890   2
 -10  -5   7 91.4525 16.9928   2
 -10   5   7 37.5268 17.6727   2
  -9  -5   7 113.599 15.9396   2
  -9   5   7 82.8490 16.8267   2
  -8  -5   7 48.6387 15.3094   2
  -8  -5   7 49.7718 6.33420   3
   8  -5  -7 38.4299 6.90093   3
  -8   5   7 14.9957 12.9826   2
   7  -5  -7 -3.2399 7.59091   3
   7  -5  -7 -14.741 14.3305   1
  -7  -5   7 1.10647 6.28875   3
  -7   5   7 -3.5553 10.4685   2
   7   5  -7 -3.5220 8.21537   3
  -7   5   7 18.6497 12.5467   1
  -6  -5   7 88.9237 10.0553   2
  -6  -5   7 85.3692 9.49242   3
  -6  -5   7 97.4846 15.3249   1
   6  -5  -7 94.9108 15.0393   1
   6  -5  -7 71.7288 9.81981   3
  -6   5   7 76.8615 14.4301   1
   6   5  -7 91.3110 8.92832   3
  -6   5   7 72.3270 10.6405   2
  -5  -5   7 806.821 44.6466   2
  -5  -5   7 644.962 45.1095   3
  -5  -5   7 783.759 50.0351   1
   5  -5  -7 670.133 45.2889   3
   5  -5  -7 800.774 50.6214   1
   5   5  -7 764.770 46.9593   4
  -5   5   7 772.983 51.2088   1
   5   5  -7 813.873 45.2817   3
  -5   5   7 736.371 44.5013   2
   5   5  -7 854.547 51.4537   1
  -4  -5   7 540.110 36.2910   1
  -4  -5   7 522.974 30.8788   2
   4  -5  -7 511.321 36.0024   1
  -4  -5   7 446.721 31.8116   3
   4  -5  -7 480.679 31.8404   3
  -4   5   7 462.140 29.8838   2
  -4   5   7 543.541 37.4687   1
   4   5  -7 587.645 32.2657   3
   4   5  -7 549.687 37.0819   1
   4   5  -7 493.493 32.6505   4
  -3  -5   7 20.6671 8.38758   1
   3  -5  -7 26.0057 7.09752   3
   3  -5  -7 7.31516 7.03830   1
  -3  -5   7 12.3309 7.34357   3
  -3  -5   7 13.6375 5.40765   2
   3   5  -7 22.3572 5.43085   2
   3   5  -7 25.1236 7.61494   3
   3   5  -7 27.6568 10.0875   1
   3   5  -7 29.0041 7.66709   4
  -3   5   7 16.3548 8.54988   1
  -2  -5   7 23.8268 8.30270   1
   2  -5  -7 40.8423 8.37441   1
   2  -5  -7 22.4585 6.86182   3
  -2  -5   7 22.9257 6.67472   4
  -2  -5   7 39.8300 5.82532   2
  -2  -5   7 18.2401 7.42582   3
  -2   5   7 38.2667 9.69700   3
   2   5  -7 50.1456 7.72629   4
   2   5  -7 35.8072 5.46356   2
   2   5  -7 50.2842 8.88416   3
   2   5  -7 42.8846 9.78226   1
  -2   5   7 32.7500 9.77082   1
   1  -5  -7 2.62446 5.76192   1
  -1  -5   7 8.42290 5.28461   2
  -1  -5   7 15.5579 12.1959   1
  -1  -5   7 3.23720 5.54014   4
  -1  -5   7 10.4033 7.12559   3
   1  -5  -7 2.32870 6.01032   3
   1   5  -7 9.19648 7.04240   1
   1   5  -7 6.36663 7.63247   3
   1   5  -7 9.50290 4.54769   2
  -1   5   7 12.8327 9.87436   3
  -1   5   7 14.2164 8.29112   1
   0  -5   7 241.920 15.5421   2
   0  -5  -7 186.357 16.8909   3
   0  -5   7 215.688 15.5060   4
   0  -5   7 240.995 20.2585   1
   0  -5   7 204.748 18.2413   3
   0  -5  -7 226.505 17.3145   1
   0   5   7 230.470 19.9733   1
   0   5  -7 222.100 19.7869   1
   0   5   7 228.984 20.8937   3
   0   5  -7 241.517 15.1501   2
   0   5  -7 247.926 19.0264   3
   1  -5   7 36.3723 8.67015   3
  -1  -5  -7 40.2720 6.39044   1
  -1  -5  -7 38.8503 3.37858   2
   1  -5   7 47.9648 6.84807   2
  -1  -5  -7 39.1145 3.17245   2
  -1  -5  -7 33.7207 7.31063   3
   1  -5   7 44.9151 9.89514   1
   1  -5   7 34.1129 5.13883   4
   1   5   7 30.6577 10.5954   3
  -1   5  -7 23.4921 7.60025   1
  -1   5  -7 39.3318 5.90893   2
   1   5   7 43.1619 8.97815   1
  -1   5  -7 42.5265 8.95733   3
  -2  -5  -7 58.0977 6.86191   1
   2  -5   7 41.2665 9.05480   3
   2  -5   7 42.4295 8.86695   1
  -2  -5  -7 58.1621 6.22617   2
  -2  -5  -7 57.4645 5.97044   2
  -2  -5  -7 46.3461 7.99064   3
   2  -5   7 64.1174 10.9409   1
   2  -5   7 50.9139 7.86874   2
  -2   5  -7 70.4270 7.07416   2
   2   5   7 62.5454 9.68242   1
  -2   5  -7 64.2095 9.48919   3
   2   5   7 48.3192 11.5760   3
  -3  -5  -7 107.984 9.59282   2
   3  -5   7 129.431 16.3978   1
   3  -5   7 97.7083 11.8273   3
   3  -5   7 81.8274 11.4701   1
  -3  -5  -7 118.486 13.0907   3
   3  -5   7 110.723 11.2407   2
   3   5   7 143.542 14.9788   3
  -3   5  -7 117.576 12.0775   3
  -3   5  -7 117.788 11.9156   2
   3   5   7 124.221 14.2946   1
  -4  -5  -7 256.511 17.2556   2
   4  -5   7 237.748 20.9456   2
   4  -5   7 211.151 20.7303   3
   4  -5   7 263.081 22.8728   1
   4  -5   7 257.839 23.4266   1
  -4  -5  -7 208.385 18.6252   3
  -4   5  -7 296.928 20.6104   3
   4   5   7 278.782 24.1454   3
   4   5   7 261.943 20.2870   1
  -4   5  -7 264.681 18.8499   2
   5  -5   7 120.236 14.9513   2
   5  -5   7 138.603 16.1977   1
  -5  -5  -7 142.193 13.6517   2
   5  -5   7 107.999 15.4203   1
  -5  -5  -7 155.609 10.4840   4
   5  -5   7 143.641 17.0186   3
  -5  -5  -7 135.240 12.9876   3
  -5   5  -7 155.097 14.8391   2
   5   5   7 148.346 12.7582   1
  -5   5  -7 180.833 16.9003   3
   5   5   7 144.625 15.7600   1
   5   5   7 172.145 16.9293   3
  -6  -5  -7 99.4503 10.7723   2
  -6  -5  -7 93.0513 10.9308   3
  -6  -5  -7 96.8339 8.62820   4
   6  -5   7 49.3425 14.1861   1
  -6   5  -7 167.988 16.9480   2
   6   5   7 121.505 12.6492   1
  -6   5  -7 100.701 11.5928   3
  -7  -5  -7 171.453 17.1774   3
  -7  -5  -7 180.897 17.8588   2
   7  -5   7 126.362 15.7296   3
  -7   5  -7 173.177 24.0919   2
   7   5   7 169.685 16.8729   1
  -7   5  -7 194.251 18.2739   3
  -8  -5  -7 37.9102 18.6210   2
   8  -5   7 41.3098 12.3856   3
  -8   5  -7 45.9406 13.4966   2
  -8   5  -7 40.4773 11.3058   3
  -9  -5  -7 13.1189 11.9019   2
   9  -5   7 14.4669 12.6310   3
  -9   5  -7 23.5568 13.8565   2
 -10  -5  -7 44.7214 13.8465   2
 -10   5  -7 31.8819 15.4622   2
 -10  -6   7 -27.880 15.8377   2
 -10   6   7 -9.4709 15.9831   2
  -9  -6   7 202.523 20.3164   2
  -9   6   7 174.926 19.6832   2
   8  -6  -7 0.44090 6.52265   3
  -8  -6   7 -1.7272 5.57366   3
  -8   6   7 0.21546 12.1984   2
   7  -6  -7 155.173 21.8671   1
   7  -6  -7 199.784 18.2036   3
  -7  -6   7 196.547 16.6624   3
  -7   6   7 213.176 20.9319   2
   7   6  -7 231.745 15.7963   3
  -7   6   7 286.190 30.9799   1
  -6  -6   7 298.537 23.2480   3
   6  -6  -7 465.027 40.9813   1
   6  -6  -7 295.111 23.9293   3
  -6  -6   7 347.926 23.6857   2
  -6   6   7 346.607 24.1525   2
   6   6  -7 385.785 23.0657   3
  -6   6   7 366.054 33.0875   1
   5  -6  -7 175.445 23.4256   1
   5  -6  -7 154.117 16.3957   3
  -5  -6   7 188.976 16.1871   2
  -5  -6   7 172.791 16.0888   3
  -5  -6   7 183.367 21.5219   1
   5   6  -7 206.412 23.2371   1
  -5   6   7 206.420 24.7466   1
   5   6  -7 233.545 24.0109   4
  -5   6   7 186.787 14.5968   2
   5   6  -7 208.194 16.0196   3
  -4  -6   7 -4.0713 9.09825   1
  -4  -6   7 -7.7973 6.91271   3
  -4  -6   7 -4.4086 6.15017   2
   4  -6  -7 -8.2223 8.88390   1
   4  -6  -7 -1.1027 6.59705   3
  -4  -6   7 -7.2295 7.78807   4
   4   6  -7 -5.8987 8.31735   1
  -4   6   7 3.16453 10.2070   1
   4   6  -7 9.83885 8.36592   4
  -4   6   7 2.61465 4.47113   2
   4   6  -7 -1.7539 7.21137   3
   3  -6  -7 -0.0444 6.53436   3
  -3  -6   7 1.08098 5.46322   2
  -3  -6   7 -1.4894 7.01467   3
  -3  -6   7 0.57672 8.41335   1
   3  -6  -7 26.4233 9.06236   1
  -3  -6   7 0.61063 6.91127   4
   3   6  -7 -1.0669 8.17509   1
  -3   6   7 5.70907 9.23728   1
   3   6  -7 1.06242 7.58614   3
   3   6  -7 0.24327 5.19610   2
  -2  -6   7 1167.65 70.3467   1
  -2  -6   7 1102.64 66.8670   4
  -2  -6   7 1198.85 66.2337   2
  -2  -6   7 1123.21 67.5505   3
   2  -6  -7 1109.13 68.9423   1
   2  -6  -7 1086.46 67.2292   3
   2   6  -7 1242.77 67.8743   3
   2   6  -7 1200.60 66.1404   2
   2   6  -7 1184.60 70.6016   1
  -2   6   7 1193.73 70.7045   1
  -1  -6   7 15.0781 13.4547   1
  -1  -6   7 15.8330 6.06209   2
   1  -6  -7 27.0520 7.17771   3
  -1  -6   7 16.0916 7.91999   3
  -1  -6   7 13.3652 6.27542   4
   1  -6  -7 20.4720 6.67109   1
   1   6  -7 13.5815 7.86478   3
   1   6  -7 25.4437 5.53147   2
  -1   6   7 19.3406 8.26939   1
   1   6  -7 24.7478 9.02469   1
   0  -6   7 16.8212 5.63813   4
   0  -6   7 10.7144 7.42606   1
   0  -6   7 8.07452 6.04985   2
   0  -6  -7 17.2923 6.07224   1
   0  -6  -7 19.2309 6.76165   3
   0  -6   7 12.4242 7.56347   3
   0   6  -7 21.5502 8.91805   1
   0   6  -7 22.8031 5.50957   2
   0   6  -7 19.8356 8.12755   3
   0   6   7 7.37940 10.3282   3
   0   6   7 27.8737 8.37556   1
  -1  -6  -7 182.212 14.2200   1
   1  -6   7 260.551 25.8350   1
  -1  -6  -7 170.218 10.3442   2
   1  -6   7 159.258 16.3906   3
  -1  -6  -7 173.648 10.2011   2
  -1  -6  -7 168.802 14.4699   3
   1  -6   7 162.687 12.7021   4
   1  -6   7 176.488 14.0867   2
  -1   6  -7 175.330 16.8053   3
   1   6   7 178.062 18.5715   3
   1   6   7 158.419 16.6735   1
  -1   6  -7 183.816 13.7072   2
  -2  -6  -7 89.3416 9.32560   1
   2  -6   7 58.0008 9.88609   1
  -2  -6  -7 86.4131 7.26602   2
   2  -6   7 81.0349 9.20607   2
   2  -6   7 69.7098 10.7000   1
  -2  -6  -7 91.5661 6.79057   2
  -2  -6  -7 70.8222 9.42737   3
   2  -6   7 76.0895 8.08964   4
   2  -6   7 61.9977 10.1160   3
  -2   6  -7 77.7619 10.3561   3
   2   6   7 75.8379 12.6025   3
  -2   6  -7 85.0144 8.42121   2
   2   6   7 73.7501 10.1978   1
  -3  -6  -7 55.0890 8.66804   3
   3  -6   7 66.4355 9.65049   2
   3  -6   7 63.6830 11.6231   1
   3  -6   7 44.7036 10.0512   1
   3  -6   7 56.6013 10.1121   3
  -3  -6  -7 58.0784 5.96259   2
  -3  -6  -7 55.7567 5.73719   2
   3   6   7 48.7444 8.60030   1
  -3   6  -7 53.8331 9.54786   3
   3   6   7 52.5646 12.9580   3
  -3   6  -7 47.1188 7.87068   2
  -4  -6  -7 57.2648 6.75915   2
  -4  -6  -7 50.7168 6.41502   2
   4  -6   7 30.6448 9.74765   3
   4  -6   7 30.6390 9.96565   2
   4  -6   7 23.9807 10.5021   1
  -4  -6  -7 43.2562 8.54959   3
   4  -6   7 48.1878 11.3673   1
  -4   6  -7 48.5352 10.1184   3
   4   6   7 52.8486 5.80992   1
   4   6   7 32.6253 7.52262   1
  -4   6  -7 49.4048 8.77445   2
  -5  -6  -7 15.8856 6.65212   2
  -5  -6  -7 9.16798 7.96120   3
   5  -6   7 9.40146 11.0175   1
   5  -6   7 16.1961 9.14871   1
   5  -6   7 27.9474 10.1798   3
   5  -6   7 -0.3734 10.8599   2
  -5  -6  -7 32.4709 4.82460   4
  -5   6  -7 8.33474 8.65134   2
  -5   6  -7 26.7928 9.69301   3
   6  -6   7 -13.584 9.40517   3
   6  -6   7 -4.7506 12.8165   1
  -6  -6  -7 8.00047 8.42002   3
  -6  -6  -7 0.44964 4.47766   4
  -6  -6  -7 1.47027 7.59552   2
  -6   6  -7 11.9922 9.82396   3
  -6   6  -7 -1.0636 9.80913   2
   7  -6   7 23.6448 11.3358   3
  -7  -6  -7 12.5874 9.46346   2
  -7  -6  -7 9.47452 4.84383   4
  -7  -6  -7 12.9659 9.00716   3
  -7   6  -7 5.95299 11.0883   2
  -8  -6  -7 95.5946 12.7573   2
   8  -6   7 80.2982 13.8468   3
  -8   6  -7 72.5281 14.2813   2
   9  -6   7 56.8669 13.9078   3
  -9  -6  -7 18.8366 11.7840   2
  -9   6  -7 27.1616 14.3357   2
 -10  -6  -7 1.33940 12.9908   2
 -10   6  -7 -32.816 14.5923   2
 -10  -7   7 141.666 18.6595   2
 -10   7   7 91.0659 18.2177   2
  -9  -7   7 57.5617 15.1376   2
  -9   7   7 51.4544 15.1878   2
  -8  -7   7 181.706 14.7484   3
   8  -7  -7 189.591 15.8854   3
  -8   7   7 155.914 17.2051   2
   7  -7  -7 237.406 20.0139   3
  -7  -7   7 227.738 18.0359   3
   7  -7  -7 231.921 26.0055   1
   7   7  -7 284.194 17.3506   3
  -7   7   7 162.698 23.0323   1
  -7   7   7 258.090 21.3612   2
  -6  -7   7 156.717 15.4352   3
   6  -7  -7 175.393 16.9155   3
   6  -7  -7 179.572 25.4788   1
  -6   7   7 157.530 15.8028   2
  -6   7   7 160.822 21.0665   1
   6   7  -7 191.781 15.3075   3
  -5  -7   7 190.474 19.5289   4
  -5  -7   7 205.616 16.7951   2
  -5  -7   7 178.047 17.3607   3
   5  -7  -7 239.063 24.9236   1
   5  -7  -7 197.393 17.7920   3
  -5  -7   7 232.651 23.0156   1
  -5   7   7 203.362 15.0736   2
   5   7  -7 235.876 17.5694   3
   5   7  -7 207.727 26.1121   1
  -5   7   7 223.356 25.8818   1
   4  -7  -7 101.621 11.0128   3
   4  -7  -7 93.6878 13.8882   1
  -4  -7   7 112.750 14.8879   1
  -4  -7   7 120.668 12.0682   2
  -4  -7   7 110.131 11.8191   4
  -4  -7   7 95.7813 10.9508   3
   4   7  -7 135.366 14.3024   3
   4   7  -7 140.378 19.0175   1
  -4   7   7 116.914 8.70911   2
  -4   7   7 124.121 16.2824   1
  -3  -7   7 554.085 32.1657   2
  -3  -7   7 539.914 37.3135   1
   3  -7  -7 529.935 33.1604   3
  -3  -7   7 483.917 33.3982   3
   3  -7  -7 527.315 36.1469   1
  -3  -7   7 511.128 32.9738   4
  -3   7   7 582.256 38.2157   1
  -3   7   7 502.400 29.9960   2
   3   7  -7 566.863 37.9421   1
   3   7  -7 560.524 34.0705   3
   3   7  -7 549.166 32.1368   2
  -2  -7   7 317.862 20.7294   2
   2  -7  -7 291.438 22.0021   3
   2  -7  -7 317.367 23.5818   1
  -2  -7   7 294.606 21.5105   4
  -2  -7   7 321.986 22.6951   3
   2   7  -7 338.451 20.6862   2
  -2   7   7 292.425 25.2214   1
   2   7  -7 298.805 26.0211   1
   2   7  -7 318.261 22.3877   3
  -1  -7   7 166.597 18.4270   1
   1  -7  -7 156.258 15.3087   1
  -1  -7   7 158.702 13.7041   2
  -1  -7   7 146.869 16.0553   3
  -1  -7   7 151.540 13.8426   4
   1  -7  -7 154.990 14.9257   3
   1   7  -7 167.131 13.2806   2
   1   7  -7 178.740 15.8201   3
  -1   7   7 147.004 17.6357   1
   1   7  -7 173.411 18.8863   1
   0  -7  -7 366.430 24.1078   1
   0  -7   7 357.519 22.5799   4
   0  -7  -7 329.068 23.5506   3
   0  -7   7 344.159 24.9348   3
   0  -7   7 352.395 22.6399   2
   0  -7   7 366.914 27.3602   1
   0   7  -7 370.604 22.3957   2
   0   7  -7 344.605 25.4677   3
   0   7   7 353.498 25.8958   1
   0   7  -7 377.341 27.2883   1
   1  -7   7 33.8525 7.54630   2
  -1  -7  -7 29.3257 7.61185   3
  -1  -7  -7 34.7057 3.29202   2
  -1  -7  -7 39.5676 6.48643   1
   1  -7   7 43.5757 9.29877   3
   1  -7   7 23.0364 8.56666   1
  -1  -7  -7 38.8574 3.84836   2
   1  -7   7 36.0741 5.99672   4
  -1   7  -7 43.0507 6.96178   2
  -1   7  -7 54.0071 9.59397   3
   1   7   7 21.0656 7.86470   1
  -2  -7  -7 940.275 59.6190   3
  -2  -7  -7 1021.14 57.6930   2
   2  -7   7 912.679 59.9858   3
  -2  -7  -7 1051.61 58.8732   1
   2  -7   7 1105.26 59.4608   2
   2  -7   7 974.664 62.4974   1
   2  -7   7 986.066 58.0534   4
   2  -7   7 1036.73 62.8193   1
  -2  -7  -7 1062.90 57.5141   2
   2   7   7 1010.28 60.0235   1
  -2   7  -7 1062.97 58.7732   2
  -2   7  -7 1051.58 60.2636   3
  -3  -7  -7 73.1589 8.49071   2
   3  -7   7 59.6097 10.7816   3
  -3  -7  -7 92.1944 10.1750   3
   3  -7   7 76.2866 8.01897   4
   3  -7   7 99.2339 13.5603   1
   3  -7   7 85.7333 13.6194   1
   3  -7   7 72.1707 10.3679   2
  -3  -7  -7 83.4925 8.79259   2
  -3   7  -7 82.3553 9.35623   2
  -3   7  -7 66.2653 10.6693   3
   3   7   7 85.1418 10.6225   1
  -4  -7  -7 172.273 17.3815   3
  -4  -7  -7 213.135 15.1498   2
   4  -7   7 190.587 19.7777   2
  -4  -7  -7 220.388 15.0091   2
   4  -7   7 189.959 19.3506   3
   4  -7   7 191.158 14.7529   4
   4  -7   7 210.028 22.8556   1
   4  -7   7 207.984 22.9822   1
  -4   7  -7 196.723 18.3702   3
  -4   7  -7 234.021 18.4023   2
   5  -7   7 783.131 50.0174   3
   5  -7   7 684.164 55.8926   1
  -5  -7  -7 749.146 48.8570   3
   5  -7   7 790.744 53.5876   1
  -5  -7  -7 891.917 48.0811   2
  -5  -7  -7 827.212 47.8492   2
  -5   7  -7 894.440 49.2698   2
  -5   7  -7 874.840 50.0673   3
  -6  -7  -7 10.0619 7.66114   2
   6  -7   7 0.71909 10.1270   3
  -6  -7  -7 -2.7776 8.56421   3
  -6  -7  -7 -0.4890 7.28102   2
   6  -7   7 0.82823 13.3130   1
  -6  -7  -7 7.77830 5.11674   4
  -6   7  -7 1.55538 10.0236   2
  -7  -7  -7 38.5132 6.10199   4
  -7  -7  -7 25.3281 9.46039   3
   7  -7   7 31.2807 12.0322   3
  -7  -7  -7 24.4913 9.22771   2
  -7   7  -7 32.0606 12.0306   2
  -8  -7  -7 11.1094 10.7825   2
   8  -7   7 4.59216 11.8907   3
  -8   7  -7 -9.1375 12.6677   2
  -9  -7  -7 147.393 15.8117   2
   9  -7   7 126.991 16.6110   3
  -9   7  -7 170.571 18.7933   2
 -10  -7  -7 29.8421 13.9776   2
 -10   7  -7 29.5809 17.0714   2
 -10  -8   7 -14.070 15.3323   2
 -10   8   7 0.55046 15.6572   2
  -9  -8   7 52.4970 15.4786   2
  -9   8   7 24.3442 14.3256   2
  -8  -8   7 60.6021 8.02606   3
   8  -8  -7 63.9132 9.25920   3
  -8   8   7 29.0594 12.7337   2
   7  -8  -7 -3.3678 8.49217   3
   7  -8  -7 -0.0116 8.02899   3
   7  -8  -7 -9.3802 17.3560   1
  -7  -8   7 -1.7556 6.72460   3
  -7   8   7 17.5671 18.2251   1
   7   8  -7 -9.4660 7.73826   3
  -7   8   7 -5.5152 9.68402   2
   6  -8  -7 131.876 12.8593   3
  -6  -8   7 119.441 14.2603   3
   6  -8  -7 159.179 20.5424   1
   6   8  -7 157.733 14.4137   3
  -6   8   7 133.521 14.3084   2
  -6   8   7 85.1783 16.8369   1
  -5  -8   7 34.1430 10.4560   4
   5  -8  -7 84.4951 10.6217   3
  -5  -8   7 75.1803 14.6869   2
   5  -8  -7 78.4850 14.2223   1
  -5  -8   7 74.6765 9.76628   3
  -5   8   7 57.1428 7.26072   2
   5   8  -7 77.7260 9.31847   3
  -5   8   7 73.1899 16.5049   1
   4  -8  -7 193.128 22.1285   1
  -4  -8   7 198.639 21.5099   1
  -4  -8   7 181.727 17.5422   4
  -4  -8   7 179.391 17.0328   3
  -4  -8   7 194.009 16.5392   2
   4  -8  -7 181.645 17.0720   3
  -4   8   7 207.991 23.9779   1
  -4   8   7 187.541 12.2633   2
   4   8  -7 189.044 17.3724   3
   4   8  -7 157.681 22.0757   1
  -3  -8   7 31.6323 8.57436   4
   3  -8  -7 38.8583 8.44874   3
  -3  -8   7 19.8614 9.53267   1
   3  -8  -7 11.0422 8.73470   1
  -3  -8   7 23.3462 8.10762   3
  -3  -8   7 25.2602 7.15619   2
   3   8  -7 31.1577 7.21943   2
  -3   8   7 14.3788 10.6215   1
   3   8  -7 25.5297 8.72762   3
  -3   8   7 23.7908 2.67374   2
   3   8  -7 16.5621 9.03463   1
  -2  -8   7 266.534 20.0637   3
  -2  -8   7 241.742 17.5463   2
  -2  -8   7 244.559 22.4051   1
  -2  -8   7 243.183 18.9076   4
   2  -8  -7 235.380 18.8335   3
   2  -8  -7 227.808 20.7940   1
   2   8  -7 255.434 23.9552   1
   2   8  -7 240.973 20.4451   3
  -2   8   7 276.798 23.4909   1
   2   8  -7 266.176 17.5489   2
   1  -8  -7 31.5796 7.43281   1
  -1  -8   7 18.5659 6.78442   2
  -1  -8   7 23.8409 9.41828   1
   1  -8  -7 28.8472 7.71342   3
  -1  -8   7 13.3860 8.46586   3
  -1  -8   7 18.7535 6.88194   4
   1   8  -7 19.6389 8.67796   3
   1   8  -7 31.0961 6.51690   2
  -1   8   7 22.9782 8.96920   1
   1   8  -7 26.5707 8.95498   1
   0  -8   7 336.446 22.7844   4
   0  -8   7 345.639 27.4994   1
   0  -8   7 364.003 23.0220   2
   0  -8  -7 353.631 24.0623   1
   0  -8  -7 353.029 24.3557   3
   0  -8   7 337.286 25.3491   3
   0   8  -7 378.764 28.0853   1
   0   8   7 345.136 25.8312   1
   0   8  -7 380.432 23.3200   2
   0   8  -7 371.241 25.6954   3
  -1  -8  -7 160.551 9.54398   2
  -1  -8  -7 144.339 13.0513   1
   1  -8   7 171.995 19.2403   1
   1  -8   7 157.476 12.7104   4
   1  -8   7 142.258 13.6445   2
   1  -8   7 139.131 19.1013   1
  -1  -8  -7 146.467 15.1706   3
   1  -8   7 139.635 15.7796   3
  -1   8  -7 165.219 14.0472   2
  -1   8  -7 139.978 16.8561   3
   1   8   7 145.600 15.1320   1
  -2  -8  -7 585.160 38.8336   3
   2  -8   7 602.561 40.2160   3
  -2  -8  -7 613.980 36.7669   2
   2  -8   7 639.397 37.3862   4
   2  -8   7 635.326 43.5209   1
  -2  -8  -7 668.696 36.5534   2
   2  -8   7 680.628 39.1937   2
  -2  -8  -7 630.993 37.7022   1
   2  -8   7 639.907 43.0085   1
   2   8   7 612.316 38.6473   1
  -2   8  -7 662.904 40.4034   3
  -2   8  -7 708.146 38.6074   2
   3  -8   7 191.382 17.2985   2
   3  -8   7 198.198 19.2243   3
  -3  -8  -7 183.829 17.3192   3
  -3  -8  -7 210.437 13.4817   2
   3  -8   7 167.425 22.8489   1
  -3  -8  -7 195.710 13.8152   2
   3  -8   7 182.048 21.7475   1
   3  -8   7 187.249 13.5182   4
  -3   8  -7 184.381 19.4589   3
  -3   8  -7 208.499 17.5127   2
   4  -8   7 308.593 28.4328   1
  -4  -8  -7 277.106 22.9986   3
  -4  -8  -7 322.962 21.0405   2
   4  -8   7 308.826 25.3502   3
   4  -8   7 322.569 28.5898   1
   4  -8   7 330.510 19.6279   4
  -4  -8  -7 325.566 21.0858   2
  -4   8  -7 382.781 24.1982   2
  -4   8  -7 337.956 26.9165   3
  -5  -8  -7 0.56748 6.51195   2
   5  -8   7 -0.6471 15.2741   1
   5  -8   7 0.09144 3.45382   4
   5  -8   7 -0.0343 10.1840   3
  -5  -8  -7 -1.0714 6.48876   2
  -5  -8  -7 -2.0707 8.35739   3
  -5   8  -7 -1.2588 9.62379   2
  -6  -8  -7 22.1544 11.2750   3
  -6  -8  -7 17.6147 8.23306   2
   6  -8   7 35.5093 18.3196   1
  -6  -8  -7 36.4362 6.50627   4
   6  -8   7 47.4057 11.9115   3
  -6  -8  -7 45.2502 8.63270   2
  -6   8  -7 26.9343 13.2998   2
  -7  -8  -7 86.0668 11.6700   2
   7  -8   7 58.9947 13.4014   3
  -7  -8  -7 90.8119 8.53572   4
  -7   8  -7 89.0302 14.3875   2
  -8  -8  -7 -2.2078 10.1123   2
   8  -8   7 19.6349 14.0439   3
  -8  -8  -7 2.46903 6.09872   4
  -8   8  -7 -1.7704 13.1751   2
  -9  -8  -7 14.7243 12.0101   2
   9  -8   7 12.5522 12.6293   3
  -9   8  -7 37.8602 15.6241   2
 -10  -9   7 6.00259 16.4165   2
  -9   9   7 99.9051 16.4378   2
  -8  -9   7 23.3842 7.36393   3
   8  -9  -7 28.2160 9.08196   3
  -8   9   7 17.3242 12.4281   2
  -7  -9   7 147.500 15.4077   3
   7  -9  -7 190.906 17.3384   3
  -7   9   7 161.365 17.9846   2
  -6  -9   7 106.808 13.3382   4
   6  -9  -7 72.1918 17.1652   1
  -6  -9   7 101.725 10.9256   3
   6  -9  -7 95.1980 12.4997   3
   6   9  -7 130.674 14.1732   3
  -6   9   7 95.7703 10.1384   2
   5  -9  -7 176.763 24.9465   1
  -5  -9   7 204.246 19.4930   4
  -5  -9   7 214.750 17.6927   3
   5  -9  -7 165.089 18.7703   3
   5   9  -7 197.233 17.5530   3
  -5   9   7 197.897 14.3586   2
  -5   9   7 182.376 22.5007   1
   4  -9  -7 334.380 23.9363   3
  -4  -9   7 277.919 27.7343   1
   4  -9  -7 362.471 28.8335   1
  -4  -9   7 337.264 24.5032   2
  -4  -9   7 293.566 23.9503   4
  -4  -9   7 298.999 23.2553   3
   4   9  -7 351.151 23.5321   3
  -4   9   7 334.597 30.3974   1
  -4   9   7 315.209 19.3725   2
  -3  -9   7 6.88911 8.56522   3
  -3  -9   7 2.83238 7.30765   2
   3  -9  -7 5.73576 9.60452   1
  -3  -9   7 18.0955 8.34998   4
  -3  -9   7 -8.4106 8.92880   1
   3  -9  -7 4.18631 7.77224   3
   3   9  -7 7.05718 7.07545   2
   3   9  -7 18.3384 8.62728   3
   3   9  -7 12.2967 10.0787   1
  -3   9   7 21.0572 11.7240   1
   2  -9  -7 199.762 18.8022   1
  -2  -9   7 161.933 15.5522   4
   2  -9  -7 193.688 17.4367   3
  -2  -9   7 169.785 20.1428   1
  -2  -9   7 186.829 17.8851   3
  -2  -9   7 168.804 15.2043   2
  -2   9   7 209.482 21.4265   1
   2   9  -7 190.408 22.0437   1
   2   9  -7 212.414 15.3853   2
   2   9  -7 190.497 18.7958   3
  -1  -9   7 135.462 14.2797   2
   1  -9  -7 138.548 15.1361   1
  -1  -9   7 128.873 13.7133   3
  -1  -9   7 131.312 15.7856   1
   1  -9  -7 143.525 14.5044   3
  -1  -9   7 126.475 13.8750   4
  -1   9   7 158.649 17.4312   1
   1   9  -7 147.169 19.1053   1
   1   9  -7 164.361 14.5285   3
   1   9  -7 157.666 13.3867   2
   0  -9  -7 394.483 23.2858   2
   0  -9   7 407.385 25.8861   4
   0  -9   7 420.757 26.2317   2
   0  -9   7 386.625 28.3302   3
   0  -9   7 423.704 30.7004   1
   0  -9  -7 405.395 26.9278   1
   0  -9  -7 428.120 27.3634   3
   0   9  -7 459.606 26.4297   2
   0   9   7 379.755 28.4894   1
   0   9  -7 396.746 28.0630   3
  -1  -9  -7 3.93839 2.76842   2
   1  -9   7 13.4457 8.19932   2
   1  -9   7 20.5448 10.7123   1
   1  -9   7 6.30606 16.5367   1
  -1  -9  -7 8.62605 3.27570   2
  -1  -9  -7 12.7514 7.64731   3
   1  -9   7 5.97325 9.44237   3
   1  -9   7 6.38618 5.92033   4
  -1  -9  -7 1.06563 5.29602   1
   1   9   7 6.55819 6.60258   1
  -1   9  -7 -2.8242 7.02288   2
  -1   9  -7 -1.6101 8.79917   3
   2  -9   7 216.613 24.2258   1
  -2  -9  -7 190.568 17.5147   3
   2  -9   7 174.784 14.0959   4
   2  -9   7 177.122 16.6240   2
  -2  -9  -7 195.266 12.3026   2
  -2  -9  -7 175.139 12.6576   2
  -2  -9  -7 202.870 13.2850   1
   2  -9   7 176.588 18.0980   3
   2  -9   7 143.654 19.7903   1
   2   9   7 165.919 14.2552   1
  -2   9  -7 204.727 16.8815   2
  -2   9  -7 218.604 18.2176   3
  -3  -9  -7 225.203 19.8803   3
   3  -9   7 252.813 16.5238   4
   3  -9   7 230.204 26.8713   1
   3  -9   7 263.255 25.4437   1
   3  -9   7 234.266 20.9758   3
   3  -9   7 240.962 23.0187   2
  -3  -9  -7 243.739 16.4425   2
  -3   9  -7 265.530 19.3748   2
  -4  -9  -7 5.93952 5.85877   2
   4  -9   7 -2.6790 4.71191   4
   4  -9   7 -5.1068 11.2898   1
   4  -9   7 0.81832 10.0861   3
  -4  -9  -7 8.21616 5.77998   2
   4  -9   7 24.0511 12.5549   1
  -4   9  -7 0.91686 9.28248   2
  -5  -9  -7 1.80346 7.09414   2
   5  -9   7 -21.056 13.7615   1
  -5  -9  -7 -0.4580 6.74737   2
   5  -9   7 3.06861 4.13154   4
   5  -9   7 -5.9577 10.1108   3
  -5   9  -7 -0.8798 10.6725   2
  -6  -9  -7 9.10562 8.11541   2
  -6  -9  -7 -6.0175 8.50822   2
   6  -9   7 -9.3308 10.6996   3
  -6  -9  -7 -0.3181 6.19953   4
  -6   9  -7 -14.460 11.0948   2
  -7  -9  -7 15.4835 9.90452   2
  -7  -9  -7 9.30818 6.80966   4
  -7   9  -7 -1.3503 13.3482   2
  -8  -9  -7 -1.8506 10.1286   2
   8  -9   7 6.50923 12.1458   3
  -8  -9  -7 0.46171 6.76481   4
  -8   9  -7 11.0951 15.0252   2
  -9  -9  -7 10.1339 11.9158   2
   9  -9   7 6.13878 12.7509   3
  -9   9  -7 -16.512 15.3695   2
  -8 -10   7 9.10412 7.16466   3
   8 -10  -7 4.77550 9.21544   3
  -8  10   7 15.3133 12.0354   2
  -7 -10   7 0.70512 11.3868   4
  -7 -10   7 31.8316 8.15029   3
   7 -10  -7 21.2210 9.84286   3
  -7  10   7 24.3203 9.88633   2
  -6 -10   7 2.81059 10.8505   4
  -6 -10   7 3.84760 8.10051   3
   6 -10  -7 4.66762 9.57668   3
  -6  10   7 7.06995 7.56696   2
   6  10  -7 1.57743 7.89595   3
  -5 -10   7 29.7254 8.89018   3
   5  10  -7 32.5536 9.05546   3
  -5  10   7 18.8392 6.03687   2
   4 -10  -7 10.9470 11.4268   1
  -4 -10   7 5.04338 9.71991   4
  -4 -10   7 15.9961 8.94142   3
  -4  10   7 13.1997 4.49635   2
   4  10  -7 35.3680 9.54370   3
   4  10  -7 15.6065 8.23279   2
   3 -10  -7 168.662 11.1376   2
  -3 -10   7 165.776 17.4231   4
  -3 -10   7 189.738 22.0754   1
   3 -10  -7 139.951 20.3200   1
  -3 -10   7 166.210 17.4924   3
   3  10  -7 173.125 18.3316   3
  -3  10   7 166.425 11.3286   2
  -3  10   7 205.054 26.5558   1
   3  10  -7 187.066 16.5409   2
   2 -10  -7 0.10605 2.64546   2
   2 -10  -7 -8.0902 8.04230   1
  -2 -10   7 5.96610 8.71566   3
  -2 -10   7 2.98228 10.1459   1
  -2 -10   7 4.07326 7.93127   4
  -2 -10   7 -5.1925 7.81470   2
   2  10  -7 -0.2657 8.89697   3
   2  10  -7 3.85451 7.38530   2
  -2  10   7 -1.7015 9.34513   1
   2  10  -7 -16.598 8.70951   1
   1 -10  -7 45.2856 14.5924   3
  -1 -10   7 41.7917 10.2506   3
  -1 -10   7 29.1312 10.3158   1
   1 -10  -7 41.6719 3.57367   2
   1 -10  -7 35.7985 8.65506   1
  -1 -10   7 28.4289 7.77673   4
  -1 -10   7 52.6326 8.99933   2
   1  10  -7 37.9933 8.43725   2
   1  10  -7 21.2909 9.70023   3
  -1  10   7 31.0426 10.1739   1
   0 -10   7 49.8280 8.06140   4
   0 -10  -7 49.1045 5.22913   2
   0 -10   7 56.8168 10.5445   3
   0 -10   7 50.8598 12.4718   1
   0 -10  -7 55.3112 8.22044   1
   0 -10   7 30.1935 11.6676   1
   0 -10   7 40.7129 8.98095   2
   0  10   7 29.1193 9.40498   1
   0  10  -7 62.4526 14.7522   3
   0  10  -7 48.1527 8.47718   2
   1 -10   7 15.8009 6.77394   4
   1 -10   7 24.3302 8.97150   2
   1 -10   7 10.9402 10.0385   3
  -1 -10  -7 15.0275 3.38945   2
   1 -10   7 22.6451 11.3344   1
   1 -10   7 -3.8818 10.7242   1
  -1 -10  -7 16.2592 5.96985   1
   1  10   7 13.3294 7.32387   1
  -1  10  -7 9.79486 7.72122   2
   2 -10   7 296.027 43.4352   1
  -2 -10  -7 392.150 23.2316   2
  -2 -10  -7 413.809 22.9700   2
   2 -10   7 349.593 27.4169   3
   2 -10   7 381.973 31.9077   1
   2 -10   7 389.320 24.4194   4
  -2  10  -7 434.267 25.9928   2
   2  10   7 354.047 23.5425   1
   3 -10   7 66.6740 7.65336   4
   3 -10   7 64.2296 14.4096   1
  -3 -10  -7 72.1041 6.84130   2
   3 -10   7 53.7359 13.9845   1
  -3 -10  -7 63.3954 7.20825   2
   3 -10   7 75.4532 12.1197   3
  -3  10  -7 69.8759 10.9277   2
  -4 -10  -7 -7.1730 6.05069   2
   4 -10   7 2.24254 5.43548   4
   4 -10   7 24.7262 12.4128   1
   4 -10   7 45.6125 15.3650   1
  -4 -10  -7 12.5538 6.19739   2
   4 -10   7 5.52108 10.5002   3
  -4  10  -7 9.77822 9.84508   2
   5 -10   7 11.9280 5.05516   4
  -5 -10  -7 6.13458 7.26730   2
   5 -10   7 9.31355 11.5195   3
   5 -10   7 -6.4934 13.7393   1
  -5 -10  -7 11.5796 7.33431   2
  -5  10  -7 2.40714 11.5468   2
   6 -10   7 250.082 17.5411   4
  -6 -10  -7 257.603 20.1927   2
  -6 -10  -7 243.137 18.6427   4
   6 -10   7 217.539 27.5430   3
  -6  10  -7 250.599 25.0137   2
   7 -10   7 3.57401 11.6969   3
  -7 -10  -7 -3.2834 7.19317   4
  -7  10  -7 -5.9427 13.3201   2
  -8 -10  -7 13.6798 7.83309   4
   8 -10   7 6.06763 13.0806   3
  -8 -10  -7 -12.891 10.3208   2
  -8  10  -7 -3.4986 14.6148   2
   9 -10   7 21.7602 13.3105   3
  -9 -10  -7 32.0046 12.5427   2
  -9  10  -7 56.9531 17.5338   2
  -8 -11   7 16.2957 10.2384   3
  -8  11   7 31.6255 12.2484   2
  -7 -11   7 53.3297 13.0389   4
  -7 -11   7 62.1893 9.83141   3
   7 -11  -7 68.3674 13.0557   3
  -7  11   7 54.9122 10.7385   2
  -6 -11   7 37.0325 11.7817   4
   6 -11  -7 22.5203 10.5316   3
  -6 -11   7 35.6461 9.76886   3
  -6  11   7 24.3794 7.99779   2
  -5 -11   7 6.96713 9.19610   3
  -5 -11   7 19.4914 10.8831   4
  -5  11   7 7.06405 6.12204   2
   4 -11  -7 188.444 13.6110   2
  -4 -11   7 223.962 19.3514   3
  -4 -11   7 198.831 20.0673   4
  -4  11   7 186.324 13.5898   2
   4  11  -7 209.241 17.8155   2
  -3 -11   7 140.445 16.9362   3
  -3 -11   7 147.615 14.0068   4
   3 -11  -7 133.505 10.1052   2
  -3  11   7 135.274 10.1860   2
   3  11  -7 155.475 16.4529   2
  -2 -11   7 28.1829 9.93683   3
  -2 -11   7 13.3318 17.3003   1
  -2 -11   7 27.8439 9.07966   4
   2 -11  -7 34.7350 4.08339   2
   2  11  -7 44.0021 9.06815   2
   1 -11  -7 154.918 10.6424   2
  -1 -11   7 188.048 22.1412   1
   1 -11  -7 151.790 18.6516   1
  -1 -11   7 170.679 19.0957   3
  -1 -11   7 151.657 15.5588   4
   1  11  -7 172.402 15.6709   2
   0 -11   7 92.9766 12.3129   3
   0 -11  -7 78.1729 7.00799   2
   0 -11   7 47.8716 12.2429   1
   0 -11  -7 72.8492 9.84095   1
   0 -11   7 89.7282 15.6228   1
   0 -11   7 70.3800 9.35855   4
   0  11  -7 84.7777 10.1922   2
   1 -11   7 309.580 22.5783   4
  -1 -11  -7 341.853 20.0140   2
   1 -11   7 321.497 26.5084   3
   1 -11   7 347.638 30.2341   1
   1 -11   7 335.673 29.6979   1
  -1 -11  -7 338.912 22.5258   1
  -1  11  -7 337.645 23.4765   2
   2 -11   7 9.00162 10.5690   3
   2 -11   7 18.8193 7.03919   4
   2 -11   7 9.67467 13.8933   1
  -2  11  -7 22.8927 9.36677   2
  -3 -11  -7 162.113 14.2735   2
   3 -11   7 180.948 15.0813   4
   3 -11   7 203.629 25.2260   1
   3 -11   7 205.544 26.4548   1
   3 -11   7 173.890 19.9402   3
  -3 -11  -7 200.670 13.9685   2
  -3  11  -7 190.720 18.4104   2
   4 -11   7 803.610 57.1870   1
  -4 -11  -7 888.461 49.0329   2
   4 -11   7 856.992 48.6516   4
  -4 -11  -7 819.733 49.0490   2
  -4  11  -7 797.130 52.7404   2
   5 -11   7 5.17022 12.2362   3
  -5 -11  -7 13.7898 7.81492   2
   5 -11   7 -6.1098 5.69366   4
  -5 -11  -7 5.58298 7.64790   2
  -5  11  -7 4.18780 11.7350   2
   6 -11   7 -1.2300 5.17533   4
   6 -11   7 -0.2984 12.6749   3
  -6 -11  -7 -7.9479 7.88537   4
  -6 -11  -7 -3.1168 8.77903   2
  -6  11  -7 -16.538 12.9140   2
  -7 -11  -7 79.3611 9.98735   4
  -7 -11  -7 74.5142 11.6346   2
   7 -11   7 59.4225 14.1152   3
  -7  11  -7 56.1290 15.6530   2
  -8 -11  -7 99.8297 10.8253   4
   8 -11   7 111.448 16.5035   3
  -8 -11  -7 63.6131 12.7388   2
  -8  11  -7 66.7602 17.3251   2
   8 -12  -7 0.48274 10.9955   3
  -7 -12   7 86.4709 14.9635   4
  -7 -12   7 138.501 13.1156   3
   7 -12  -7 132.451 14.7575   3
  -7  12   7 102.384 12.4134   2
  -6 -12   7 -5.5331 9.33926   3
   6 -12  -7 6.35967 11.5095   3
  -6 -12   7 -7.3004 10.9335   4
  -6  12   7 0.85824 7.81560   2
  -5 -12   7 39.1036 11.5852   4
  -5 -12   7 57.4794 11.0765   3
  -5  12   7 46.2452 7.23523   2
  -4 -12   7 44.0755 10.7814   3
   4 -12  -7 44.3487 6.70301   2
  -4 -12   7 36.7091 10.9680   4
   4  12  -7 55.9444 10.5899   2
  -4  12   7 37.4849 6.03819   2
  -3 -12   7 103.930 12.8244   4
   3 -12  -7 122.733 10.0144   2
  -3 -12   7 109.746 13.4196   3
  -3  12   7 114.815 9.90038   2
   3  12  -7 142.757 18.0761   2
  -2 -12   7 250.924 22.6558   3
  -2 -12   7 285.235 20.8324   4
   2 -12  -7 237.993 16.0291   2
   2  12  -7 271.054 21.3151   2
   1 -12  -7 5.69599 3.83758   2
  -1 -12   7 21.9814 13.2597   1
  -1 -12   7 4.04012 10.2297   3
  -1 -12   7 -3.8215 8.07769   4
   1  12  -7 1.19956 8.87554   2
   0 -12  -7 67.9300 7.67447   2
   0 -12   7 87.2970 13.0032   3
   0 -12   7 83.5600 10.2781   4
   0 -12   7 55.6176 15.5367   1
   0  12  -7 81.6111 11.0434   2
  -1 -12  -7 22.8119 4.53806   2
   1 -12   7 16.9683 7.79051   4
   1 -12   7 14.9315 11.1342   3
   1 -12   7 13.3149 11.9294   1
  -1  12  -7 12.9610 9.27530   2
  -2 -12  -7 42.7600 5.86582   2
   2 -12   7 53.3329 8.55683   4
   2 -12   7 58.4086 15.8538   1
  -2  12  -7 45.7067 12.0305   2
  -3 -12  -7 25.7284 6.19144   2
   3 -12   7 39.6691 7.73122   4
   3 -12   7 36.5130 12.2392   3
   3 -12   7 5.41864 13.6778   1
  -3 -12  -7 23.2753 6.53303   2
  -3  12  -7 23.8373 11.5111   2
  -4 -12  -7 51.0986 8.13819   2
   4 -12   7 52.2658 7.96952   4
   4 -12   7 71.5907 13.8511   3
  -4 -12  -7 57.1736 7.97650   2
  -4  12  -7 29.0787 12.2399   2
  -5 -12  -7 9.08020 8.16537   2
   5 -12   7 21.8228 12.6743   3
  -5 -12  -7 9.42623 11.7990   2
   5 -12   7 16.3637 6.75524   4
  -5  12  -7 25.5355 12.8977   2
  -6 -12  -7 36.9696 9.21239   4
  -6 -12  -7 34.8358 10.1275   2
   6 -12   7 53.2829 13.9601   3
  -6  12  -7 32.9157 14.3945   2
  -7 -12  -7 4.11500 10.4388   4
  -7 -12  -7 1.66256 10.4610   2
   7 -12   7 7.30021 12.8388   3
  -7  12  -7 23.8283 15.7317   2
  -8 -12  -7 35.1669 11.4629   4
   8 -12   7 52.2535 15.3938   3
  -8 -12  -7 43.9009 12.6151   2
  -8 -12  -7 32.8136 10.7115   3
  -8  12  -7 17.7088 17.2803   2
   8 -13  -7 3.60923 11.5821   3
  -8 -13   7 23.0819 14.0705   4
  -7 -13   7 22.8979 13.2436   4
   7 -13  -7 16.1483 11.7320   3
  -7 -13   7 21.4014 10.4575   3
  -6 -13   7 9.64784 18.2308   3
   6 -13  -7 6.93848 11.7762   3
  -6 -13   7 14.5260 11.9340   4
  -6  13   7 15.1423 8.16535   2
  -5 -13   7 194.318 22.7537   3
  -5 -13   7 181.004 17.7779   4
   5 -13  -7 218.785 22.5716   3
  -5  13   7 184.854 15.6036   2
   4 -13  -7 583.017 38.9376   3
  -4 -13   7 544.722 37.4320   4
   4  13  -7 622.743 37.4996   2
  -4  13   7 541.938 33.6447   2
   3 -13  -7 0.43620 4.84585   2
  -3 -13   7 8.93642 10.0858   4
  -3  13   7 -2.5276 4.92750   2
   3  13  -7 10.2173 9.73356   2
  -2 -13   7 -0.3765 9.56935   4
   2 -13  -7 5.93067 4.67633   2
   2  13  -7 4.53308 9.49015   2
  -1 -13   7 56.2982 19.2500   3
   1 -13  -7 85.3541 9.09061   2
  -1 -13   7 120.237 12.4297   4
   1  13  -7 118.030 16.5106   2
   0 -13   7 113.195 14.9525   3
   0 -13  -7 131.887 10.4774   2
   0 -13   7 139.121 20.7962   1
   0 -13   7 112.737 12.2848   4
   0  13  -7 127.917 19.9343   2
  -1 -13  -7 56.4318 7.08060   2
   1 -13   7 71.9201 10.0872   4
   1 -13   7 52.0131 12.7790   3
   1 -13   7 94.3891 18.1861   1
  -1  13  -7 65.7553 11.5664   2
   2 -13   7 11.8272 8.06789   4
   2 -13   7 13.3786 11.9339   3
  -2 -13  -7 12.5965 5.60238   2
   2 -13   7 -0.4811 15.7420   1
  -2  13  -7 2.95632 10.1979   2
   3 -13   7 73.0655 10.1558   4
  -3 -13  -7 114.990 12.0130   2
   3 -13   7 110.100 19.3148   1
   3 -13   7 111.371 15.7087   3
  -3  13  -7 89.6998 13.5696   2
   4 -13   7 17.5387 7.72054   4
  -4 -13  -7 10.2686 7.51464   2
   4 -13   7 22.0843 13.1363   3
  -4  13  -7 7.78318 12.5207   2
  -5 -13  -7 55.8281 9.68345   2
   5 -13   7 45.3685 8.27901   4
   5 -13   7 69.2781 14.3224   3
  -5  13  -7 54.4912 14.6546   2
  -6 -13  -7 71.4432 11.0698   4
   6 -13   7 48.5854 14.2427   3
  -6  13  -7 72.9633 16.4088   2
  -7 -13  -7 27.9683 9.91964   4
  -7 -13  -7 9.74262 11.0415   3
   7 -13   7 34.3151 13.9326   3
  -7 -13  -7 33.0577 11.3529   2
  -7  13  -7 29.9784 16.4987   2
  -7 -14   7 -10.021 12.8452   4
  -7 -14   7 0.96521 10.3453   3
   7 -14  -7 -5.3841 12.6629   3
  -6 -14   7 25.8288 11.3268   3
   6 -14  -7 39.8397 13.7731   3
  -6 -14   7 28.9848 13.1542   4
   5 -14  -7 150.059 16.6404   3
  -5 -14   7 160.907 16.4861   4
  -5 -14   7 108.169 14.3098   3
  -5  14   7 133.120 13.5954   2
  -4 -14   7 37.4548 12.3453   4
  -4 -14   7 24.9097 11.8754   3
   4 -14  -7 34.1884 13.1430   3
   4  14  -7 46.9880 11.4473   2
  -4  14   7 32.6241 6.85787   2
  -3 -14   7 116.609 14.4106   4
  -3 -14   7 117.414 14.5944   3
   3 -14  -7 144.871 16.7622   3
  -3  14   7 115.493 11.7840   2
   3  14  -7 166.227 17.8108   2
  -2 -14   7 108.711 14.4725   3
  -2 -14   7 102.277 13.0944   4
   2  14  -7 129.259 14.0020   2
  -1 -14   7 68.5709 14.2863   4
  -1 -14   7 77.0996 13.5318   3
   1  14  -7 74.3458 11.9450   2
   0 -14   7 308.511 26.3296   3
   0 -14   7 273.018 22.6997   4
   0 -14  -7 272.954 18.8755   2
   0  14  -7 307.832 24.3828   2
   1 -14   7 -17.625 11.3079   3
   1 -14   7 1.34098 8.95475   4
  -1 -14  -7 -5.1925 5.37428   2
  -1  14  -7 -2.0307 10.6132   2
   2 -14   7 44.0511 9.68159   4
   2 -14   7 40.9590 13.5415   3
  -2  14  -7 35.5288 11.9157   2
   3 -14   7 25.7741 13.2391   3
   3 -14   7 21.1768 8.82796   4
  -3  14  -7 29.5436 12.6581   2
   4 -14   7 34.0949 9.08960   4
  -4 -14  -7 49.3988 8.90170   2
   4 -14   7 44.2588 14.4105   3
  -4  14  -7 57.0683 13.8266   2
  -5 -14  -7 -3.0289 8.91174   2
   5 -14   7 13.5007 8.14973   4
   5 -14   7 24.1885 14.4048   3
  -5  14  -7 24.1609 14.2254   2
  -6 -14  -7 16.6823 11.4864   3
  -6 -14  -7 22.4912 10.3027   2
  -6 -14  -7 18.5499 10.4166   4
   6 -14   7 -1.7850 14.4610   3
  -6  14  -7 9.67980 15.2142   2
   7 -14   7 176.429 19.4301   3
  -7 -14  -7 109.849 15.2758   3
  -7 -14  -7 167.684 15.0321   4
  -7 -14  -7 120.530 14.7565   2
  -7  14  -7 108.919 20.0395   2
   7 -15  -7 43.4211 14.5294   3
  -7 -15   7 26.1790 11.2571   3
  -7 -15   7 21.0354 14.9356   4
   6 -15  -7 30.1562 13.7724   3
  -6 -15   7 29.9677 14.0058   4
  -6 -15   7 21.6385 11.3563   3
   5 -15  -7 3.39108 13.9287   3
  -5 -15   7 13.2220 11.2947   3
  -5 -15   7 -2.2805 12.5819   4
   4 -15  -7 52.6911 14.6313   3
  -4 -15   7 71.1139 13.6069   4
  -4 -15   7 55.6395 12.5359   3
  -4  15   7 42.4944 11.7329   2
   4  15  -7 79.3822 12.9789   2
  -3 -15   7 73.4377 13.1677   3
  -3 -15   7 63.0527 13.1033   4
   3 -15  -7 49.8347 14.5942   3
   3  15  -7 74.3749 13.2342   2
  -3  15   7 64.6479 7.73962   2
  -2 -15   7 109.817 13.8417   4
   2 -15  -7 90.9221 15.3812   3
  -2 -15   7 83.4320 13.9163   3
   2  15  -7 90.5612 13.3388   2
  -1 -15   7 20.6313 13.0617   3
   1 -15  -7 8.82075 12.6962   3
  -1 -15   7 16.4967 10.4009   4
   1  15  -7 14.3392 11.3446   2
   0 -15   7 95.6623 15.4511   3
   0 -15   7 86.9673 14.1672   4
   0  15  -7 90.2544 13.4136   2
   1 -15   7 17.2748 13.5882   3
   1 -15   7 3.53327 9.96393   4
  -1  15  -7 -1.5750 11.3758   2
   2 -15   7 310.032 27.7026   3
   2 -15   7 325.488 24.4708   4
  -2  15  -7 304.676 27.0778   2
   3 -15   7 29.5710 9.77664   4
   3 -15   7 27.0555 13.9023   3
  -3  15  -7 45.0284 13.6747   2
  -4 -15  -7 29.2590 13.5004   3
   4 -15   7 27.4689 9.93414   4
   4 -15   7 44.2025 14.9391   3
  -4 -15  -7 59.3150 9.70624   2
  -4  15  -7 45.1890 15.2136   2
   5 -15   7 115.710 17.8882   3
  -5 -15  -7 124.919 16.1824   3
  -5  15  -7 104.720 18.0179   2
  -6 -15  -7 5.33025 11.9165   3
  -6 -15  -7 15.8004 10.7994   2
  -6 -15  -7 0.55739 10.9842   4
   6 -15   7 10.8734 14.5786   3
  -6  15  -7 27.0144 16.5557   2
  -6 -16   7 65.8848 13.6200   3
   6 -16  -7 44.8769 15.8674   3
  -6 -16   7 37.1008 14.4708   4
   5 -16  -7 -16.374 14.1145   3
  -5 -16   7 13.7972 12.3745   3
  -5 -16   7 8.43951 12.7501   4
  -4 -16   7 16.7695 12.2082   4
  -4 -16   7 27.1054 12.4873   3
   4 -16  -7 4.60794 15.0368   3
   3 -16  -7 20.3919 14.2432   3
  -3 -16   7 21.6124 13.1526   3
  -3 -16   7 34.5752 12.2912   4
   3  16  -7 6.56180 12.0025   2
  -2 -16   7 122.472 16.9324   3
   2 -16  -7 141.813 18.5451   3
  -2 -16   7 152.410 16.4744   4
   2  16  -7 185.830 16.9523   2
   1 -16  -7 49.1600 14.5458   3
  -1 -16   7 38.9844 14.4596   3
  -1 -16   7 52.6986 12.0188   4
   1  16  -7 52.7817 13.0028   2
   0 -16   7 22.6114 13.8246   3
   0 -16  -7 34.1260 14.5554   3
   0 -16   7 22.8967 11.4405   4
   0  16  -7 37.1310 12.3440   2
   1 -16   7 115.534 17.1564   3
  -1 -16  -7 91.5122 15.6963   3
   1 -16   7 93.9788 12.9875   4
  -1  16  -7 109.895 15.1169   2
   2 -16   7 57.7424 14.8972   3
   2 -16   7 34.5115 11.0805   4
  -2 -16  -7 34.5727 14.1401   3
  -2  16  -7 57.2750 14.6173   2
   3 -16   7 11.4497 14.6181   3
   3 -16   7 23.5406 12.2744   4
  -3 -16  -7 19.2656 13.9351   3
  -3  16  -7 13.2441 13.7082   2
  -4 -16  -7 19.5858 9.48967   2
   4 -16   7 17.7057 15.5251   3
  -4 -16  -7 8.21845 13.5436   3
   4 -16   7 11.4659 18.0351   4
  -4  16  -7 16.2292 14.7883   2
  -5 -16  -7 68.3052 15.1077   3
   5 -16   7 91.7591 17.1558   3
  -5 -16  -7 72.9816 11.8241   2
  -5  16  -7 86.3590 17.8947   2
   5 -17  -7 20.5073 16.1614   3
  -5 -17   7 12.3863 13.7572   4
  -5 -17   7 47.2090 13.6468   3
  -4 -17   7 -10.413 12.8112   3
   4 -17  -7 -4.6093 14.5949   3
  -4 -17   7 6.12326 12.7570   4
   3 -17  -7 2.07968 15.3058   3
  -3 -17   7 9.77128 12.6385   4
  -3 -17   7 -6.8770 13.2556   3
   3  17  -7 -4.2453 13.0381   2
  -2 -17   7 97.1007 14.9451   4
  -2 -17   7 84.2047 15.7785   3
   2 -17  -7 65.5269 17.1944   3
   2  17  -7 84.6261 14.7626   2
  -1 -17   7 147.033 18.5205   3
  -1 -17   7 114.778 15.2600   4
   1 -17  -7 152.601 19.0104   3
   1  17  -7 120.541 15.9436   2
   0 -17   7 14.8835 14.3795   3
   0 -17  -7 13.7030 14.2939   3
   0 -17   7 13.1162 12.4586   4
   0  17  -7 22.8922 13.1741   2
   1 -17   7 55.1727 12.4517   4
  -1 -17  -7 53.3205 15.3185   3
   1 -17   7 57.3679 16.5085   3
  -1  17  -7 48.9350 14.5799   2
   2 -17   7 17.3917 11.3031   4
  -2 -17  -7 13.4608 14.2872   3
   2 -17   7 21.6015 14.7171   3
  -2  17  -7 -16.793 13.6299   2
   3 -17   7 5.22727 15.5020   3
  -3 -17  -7 14.4759 14.7392   3
   3 -17   7 12.0729 11.4386   4
  -3  17  -7 23.8102 15.4649   2
  -4 -17  -7 -12.026 13.2191   3
   4 -17   7 -4.3611 16.4007   3
   4 -17   7 7.65654 12.0159   4
  -4  17  -7 -15.065 15.4292   2
  -3 -18   7 -4.7399 14.1557   3
   3 -18  -7 17.6317 16.1271   3
  -3 -18   7 1.83914 13.1830   4
   3  18  -7 12.2171 13.3829   2
  -2 -18   7 50.3560 14.8240   4
  -2 -18   7 41.4143 15.2503   3
   2 -18  -7 47.0941 16.6471   3
   2  18  -7 59.0598 14.6865   2
  -1 -18   7 139.733 18.9305   3
   1 -18  -7 95.5766 18.3475   3
  -1 -18   7 94.9250 15.0388   4
   1  18  -7 96.6891 16.0173   2
   0 -18   7 1.11018 15.7323   3
   0 -18   7 5.62999 13.1986   4
   0 -18  -7 -0.7032 14.8848   3
   0  18  -7 -19.205 13.2654   2
   1 -18   7 61.5313 17.5668   3
  -1 -18  -7 49.8358 16.7597   3
   1 -18   7 80.4040 14.2774   4
  -1  18  -7 35.2822 15.8920   2
  -2 -18  -7 137.415 18.8063   3
   2 -18   7 118.391 18.9785   3
   2 -18   7 133.111 15.9597   4
  -2  18  -7 109.831 18.1504   2
   3 -18   7 13.4080 12.3603   4
   3 -18   7 -0.7235 16.4497   3
  -3 -18  -7 18.8349 15.0421   3
  -3  18  -7 23.6412 16.6536   2
   0 -19   7 60.9362 18.4506   3
   0 -19  -7 24.2474 17.7954   3
 -11   0   8 1.02149 18.9080   2
 -10   0   8 39.6238 17.6398   2
  -9   0   8 -10.290 14.6516   2
  -8   0   8 79.1740 14.1930   2
  -8   0   8 43.4734 9.80367   2
   7   0  -8 35.6811 8.13594   3
  -7   0   8 32.3910 7.88366   2
  -7   0   8 44.1776 11.8139   2
  -6   0   8 144.549 13.7935   2
   6   0  -8 131.660 18.5225   1
   6   0  -8 154.614 16.0160   3
  -6   0   8 165.768 16.0930   3
  -6   0   8 128.281 21.2383   1
  -6   0   8 146.954 13.1104   2
   5   0  -8 37.6357 11.4319   1
  -5   0   8 47.9671 21.0528   1
  -5   0   8 32.2825 9.60874   3
   5   0  -8 65.1992 11.0385   4
  -5   0   8 28.4238 8.26561   2
   5   0  -8 34.5817 8.67110   3
   4   0  -8 708.157 40.1158   3
  -4   0   8 648.811 38.3128   2
   4   0  -8 611.499 43.1318   1
  -4   0   8 618.873 37.0097   2
   4   0  -8 692.778 40.2243   4
  -4   0   8 543.041 45.9158   1
  -4   0   8 673.737 40.5773   3
  -3   0   8 1219.30 74.5581   2
  -3   0   8 1384.10 77.5833   3
   3   0  -8 1364.66 76.8772   3
   3   0  -8 1267.01 79.5595   1
  -3   0   8 1303.80 80.7695   1
   3   0  -8 1433.37 76.8049   4
   2   0  -8 377.949 28.1677   1
   2   0  -8 384.476 25.5755   3
  -2   0   8 410.877 27.6441   3
  -2   0   8 369.688 22.1647   2
  -2   0   8 364.833 30.0678   1
   2   0  -8 388.709 24.7042   4
   1   0  -8 8.34377 5.50081   4
  -1   0   8 -9.9852 7.74819   1
   1   0  -8 0.34000 7.03216   3
  -1   0   8 6.92898 3.42906   2
  -1   0   8 -1.1960 9.08474   3
   0   0   8 63.9066 5.86329   2
   0   0   8 62.5342 10.7567   1
   0   0  -8 46.8301 8.77765   3
   0   0  -8 63.1922 6.40481   4
   0   0  -8 34.9772 7.84826   1
   0   0  -8 55.4306 5.54140   2
   0   0   8 44.7728 10.7883   3
  -1   0  -8 1029.39 60.8502   3
  -1   0  -8 993.073 61.4196   1
   1   0   8 1078.87 59.1452   2
  -1   0  -8 1022.32 58.6600   4
  -1   0  -8 1006.51 58.1563   2
   1   0   8 1041.48 61.7739   3
   1   0   8 1052.05 62.9805   1
  -2   0  -8 994.647 54.1039   4
   2   0   8 969.948 58.0344   3
   2   0   8 985.311 55.6747   2
  -2   0  -8 952.829 54.3430   2
   2   0   8 921.935 58.4564   1
  -2   0  -8 919.680 57.2204   1
  -2   0  -8 952.370 56.9697   3
   3   0   8 153.834 18.1459   1
   3   0   8 162.461 17.4715   3
   3   0   8 165.506 19.5055   2
  -3   0  -8 163.667 12.4655   2
  -3   0  -8 185.305 16.3485   3
  -4   0  -8 15.6257 5.88509   2
  -4   0  -8 0.76168 8.16257   3
   4   0   8 -5.5852 7.02392   1
   4   0   8 21.3139 12.9844   3
   4   0   8 2.77122 8.15516   1
   4   0   8 8.19943 10.5004   2
  -5   0  -8 143.047 13.9151   2
   5   0   8 148.906 16.7915   1
   5   0   8 135.970 15.8233   2
   5   0   8 96.5297 16.5173   3
  -5   0  -8 158.721 16.8249   3
  -6   0  -8 33.2864 8.50014   2
   6   0   8 18.4147 14.3289   3
  -6   0  -8 24.1058 9.36362   3
   7   0   8 174.358 19.5092   3
  -7   0  -8 120.542 13.7616   3
  -7   0  -8 169.565 17.8310   2
   8   0   8 20.3228 14.7306   3
  -8   0  -8 -17.566 10.2511   2
  -9   0  -8 67.6866 14.0097   2
   9   0   8 126.135 16.5909   3
 -10   0  -8 7.97522 13.6876   2
 -11  -1   8 59.8419 19.7211   2
 -11   1   8 6.08325 19.7498   2
 -10  -1   8 98.6112 18.4791   2
 -10   1   8 57.1227 19.3083   2
  -9   1   8 8.42578 15.3813   2
  -8  -1   8 39.4564 13.2139   2
  -8   1   8 23.1662 8.59880   2
  -8   1   8 46.1229 13.4947   2
   7  -1  -8 17.5167 8.05396   3
  -7  -1   8 35.6053 8.03215   3
  -7  -1   8 36.9708 11.0941   2
  -7  -1   8 35.4884 8.08240   2
  -7   1   8 4.46851 15.0822   1
  -7   1   8 7.41047 10.9159   2
  -7   1   8 6.89232 6.96580   2
   7   1  -8 22.0407 7.51905   3
  -6  -1   8 129.598 11.8977   2
  -6  -1   8 131.092 18.6577   1
   6  -1  -8 130.151 14.9061   3
  -6   1   8 88.8876 9.04973   2
  -6   1   8 70.2372 14.7310   1
   6   1  -8 113.085 17.2497   1
  -6   1   8 128.866 15.1616   3
   6   1  -8 148.459 14.7007   3
  -6   1   8 96.1354 11.8654   2
  -5  -1   8 2.04128 11.8455   1
   5  -1  -8 20.5553 8.14439   3
   5  -1  -8 1.90559 10.0209   1
   5  -1  -8 -2.4200 8.81701   4
  -5  -1   8 10.4817 8.08208   2
  -5  -1   8 7.72993 8.48698   3
  -5  -1   8 9.21886 5.30836   2
   5   1  -8 7.93800 9.61892   4
  -5   1   8 11.4977 7.59037   2
  -5   1   8 13.3084 12.2140   1
  -5   1   8 12.0704 4.63530   2
  -5   1   8 4.89943 9.27870   3
   5   1  -8 15.9604 9.71557   1
   5   1  -8 16.8838 8.50749   3
  -4  -1   8 41.5959 5.40652   2
  -4  -1   8 26.0121 11.5265   1
   4  -1  -8 41.1116 8.39169   3
   4  -1  -8 42.3387 9.29358   4
  -4  -1   8 40.0674 9.93316   3
   4  -1  -8 33.9974 12.1814   1
   4   1  -8 30.9816 8.89693   3
  -4   1   8 37.1818 4.49499   2
  -4   1   8 39.4479 6.88447   2
   4   1  -8 33.7415 10.1517   1
  -4   1   8 55.3559 18.7098   1
   4   1  -8 50.6685 9.81010   4
  -4   1   8 39.2192 9.95547   3
   3  -1  -8 21.4238 7.71601   4
   3  -1  -8 17.5237 7.85747   3
   3  -1  -8 40.1420 13.9775   1
  -3  -1   8 17.9370 4.13858   2
  -3  -1   8 7.18133 8.70247   3
  -3  -1   8 33.9388 11.4503   1
   3   1  -8 28.9422 8.89870   3
  -3   1   8 20.9731 10.7976   1
   3   1  -8 13.1283 7.53798   4
  -3   1   8 19.9016 8.10301   2
   3   1  -8 19.3424 8.64578   1
  -3   1   8 33.9050 10.4432   3
  -3   1   8 17.4059 3.20982   2
  -2  -1   8 10.1854 12.0794   1
   2  -1  -8 3.41646 7.07922   3
   2  -1  -8 5.23551 12.3468   1
  -2  -1   8 -6.1523 8.44269   3
  -2  -1   8 -2.1927 3.52136   2
   2  -1  -8 4.83744 6.39859   4
   2   1  -8 2.65580 6.44204   4
   2   1  -8 -14.523 7.66753   3
  -2   1   8 2.24817 10.0679   3
  -2   1   8 1.74175 2.53517   2
   2   1  -8 -0.6971 7.57791   1
  -2   1   8 -4.3545 9.00280   1
  -1  -1   8 114.217 8.66801   2
   1  -1  -8 120.312 14.3733   1
  -1  -1   8 93.4749 12.1474   3
  -1  -1   8 127.706 17.7929   1
   1  -1  -8 110.629 11.1850   3
   1  -1  -8 106.135 11.1015   4
  -1   1   8 111.148 13.8318   1
  -1   1   8 104.586 7.75062   2
   1   1  -8 103.808 11.2054   4
   1   1  -8 107.853 7.96844   2
  -1   1   8 86.6295 12.8573   3
   1   1  -8 103.805 14.9680   1
   1   1  -8 118.308 13.4996   3
   0  -1  -8 32.7590 3.71547   2
   0  -1   8 35.1031 10.1340   1
   0  -1  -8 41.0268 5.61891   4
   0  -1   8 33.5557 5.17170   2
   0  -1   8 24.4568 9.43426   3
   0  -1  -8 25.5648 6.93568   1
   0  -1  -8 37.2694 7.86364   3
   0   1  -8 34.3115 8.56248   3
   0   1   8 38.2948 4.61957   2
   0   1   8 23.1502 10.5402   3
   0   1  -8 37.4076 3.85015   2
   0   1  -8 39.0340 5.68406   4
   0   1   8 35.4443 9.93440   1
   0   1  -8 23.6555 8.70691   1
  -1  -1  -8 113.820 11.6030   3
  -1  -1  -8 112.943 9.64272   4
  -1  -1  -8 113.470 13.8269   1
   1  -1   8 118.057 13.3324   3
   1  -1   8 116.377 11.3743   2
  -1  -1  -8 107.207 7.84677   2
   1  -1   8 128.215 15.9975   1
   1   1   8 101.674 12.9904   1
   1   1   8 94.4731 13.6754   3
  -1   1  -8 126.265 12.2687   3
   1   1   8 125.032 10.5752   2
  -1   1  -8 114.228 8.72034   2
  -1   1  -8 130.874 14.5155   1
  -1   1  -8 113.655 9.32162   4
  -2  -1  -8 8.64406 3.52763   4
   2  -1   8 16.2841 7.49234   2
  -2  -1  -8 8.22692 3.56413   2
  -2  -1  -8 3.49666 7.53246   3
  -2  -1  -8 10.7518 6.43397   1
   2  -1   8 16.4395 10.0321   3
   2  -1   8 17.0396 8.01958   1
  -2   1  -8 8.87090 8.44213   3
   2   1   8 7.46392 8.20086   1
   2   1   8 5.68174 6.64665   2
   2   1   8 14.8461 11.2057   3
  -2   1  -8 14.1308 7.24659   1
  -2   1  -8 14.6003 4.30749   2
   3  -1   8 3.32205 8.58593   2
  -3  -1  -8 16.6223 4.81026   2
  -3  -1  -8 9.83352 7.86412   3
   3  -1   8 23.3087 11.4055   3
  -3  -1  -8 17.8925 2.07781   4
   3  -1   8 -3.5306 8.39483   1
  -3   1  -8 14.8971 8.61676   3
   3   1   8 18.9401 12.7763   3
   3   1   8 28.4798 8.72649   2
  -3   1  -8 19.2972 5.04347   2
   3   1   8 19.7233 8.41722   1
   4  -1   8 211.078 21.5805   1
  -4  -1  -8 235.153 16.0250   2
   4  -1   8 273.045 23.6762   3
   4  -1   8 238.302 21.0732   2
   4  -1   8 235.660 19.7052   1
  -4  -1  -8 221.972 18.5638   3
   4   1   8 181.891 20.4932   1
  -4   1  -8 242.900 19.7146   3
  -4   1  -8 222.220 16.3874   2
   4   1   8 194.569 19.0003   1
   4   1   8 254.164 25.2336   3
   5  -1   8 2.30904 9.79624   1
   5  -1   8 7.96697 12.1176   3
  -5  -1  -8 6.31987 6.60150   2
   5  -1   8 2.59814 11.7726   2
   5  -1   8 6.02292 8.46882   1
  -5  -1  -8 -2.4275 9.14767   3
  -5   1  -8 9.08024 8.71009   3
   5   1   8 1.58176 13.2529   3
   5   1   8 3.89223 7.49251   1
  -5   1  -8 21.9404 7.53782   2
   5   1   8 3.32630 9.30977   1
   6  -1   8 43.4342 14.3289   3
  -6  -1  -8 26.9209 8.37825   2
   6  -1   8 34.2079 15.2646   2
  -6  -1  -8 30.7256 9.94594   3
  -6   1  -8 40.8542 10.3997   3
  -6   1  -8 47.6297 8.95875   2
   6   1   8 35.4305 14.9994   3
  -7  -1  -8 67.6633 11.7944   3
   7  -1   8 97.6746 16.9662   3
  -7  -1  -8 82.0359 11.8035   2
  -7   1  -8 109.241 12.3207   3
  -7   1  -8 88.3418 11.6869   2
   7   1   8 85.7216 17.0473   3
   8  -1   8 109.750 17.8073   3
  -8  -1  -8 107.459 13.7198   2
   8   1   8 100.912 17.1408   3
  -8   1  -8 102.403 13.8987   2
   9  -1   8 61.1178 15.4698   3
  -9  -1  -8 32.7350 13.1358   2
   9   1   8 43.3237 14.5837   3
  -9   1  -8 36.0444 13.2001   2
 -10  -1  -8 -8.8208 12.9580   2
 -10   1  -8 13.7134 13.5745   2
 -10  -2   8 72.1297 18.0777   2
 -10   2   8 62.7719 17.9130   2
  -9  -2   8 150.587 19.2625   2
  -9   2   8 153.996 19.2511   2
  -8  -2   8 53.7351 13.3026   2
  -8   2   8 20.3563 8.50590   2
  -8   2   8 23.3181 13.2678   2
  -7  -2   8 332.044 20.8276   3
   7  -2  -8 269.903 21.1748   3
  -7  -2   8 235.211 20.6934   2
  -7  -2   8 342.248 24.5570   2
  -7   2   8 302.049 37.0429   1
   7   2  -8 278.276 19.9446   3
  -7   2   8 253.476 24.3151   2
  -7   2   8 230.459 19.5856   2
  -6  -2   8 627.227 48.1552   1
  -6  -2   8 682.763 41.4470   3
   6  -2  -8 742.570 41.7717   3
  -6  -2   8 667.985 42.1652   2
  -6  -2   8 651.655 40.2013   2
   6  -2  -8 671.807 47.9039   1
  -6   2   8 700.877 41.9175   2
  -6   2   8 587.943 47.8371   1
   6   2  -8 687.898 47.6594   1
   6   2  -8 737.673 41.4386   3
  -6   2   8 655.755 39.5392   2
  -5  -2   8 0.17126 8.44310   3
   5  -2  -8 0.93864 7.77893   3
  -5  -2   8 17.5635 5.77330   2
  -5  -2   8 8.15588 11.3647   1
   5  -2  -8 26.1870 19.5336   1
   5  -2  -8 13.2162 9.35189   4
  -5   2   8 8.56734 7.56429   2
  -5   2   8 14.4659 4.49290   2
   5   2  -8 16.3469 8.22629   3
  -5   2   8 3.05462 11.8426   1
  -5   2   8 14.6479 9.13562   3
   5   2  -8 -3.3875 10.9732   1
   5   2  -8 3.17697 9.53636   4
  -4  -2   8 2.48260 8.72569   3
   4  -2  -8 2.35210 7.41960   4
  -4  -2   8 5.02963 5.66181   2
   4  -2  -8 0.77837 7.42322   3
   4  -2  -8 -3.2944 8.43430   1
  -4  -2   8 6.85750 10.3415   1
   4   2  -8 8.38277 8.83352   4
   4   2  -8 4.53677 8.16217   3
   4   2  -8 5.76195 9.74129   1
  -4   2   8 7.06701 9.97024   3
  -4   2   8 1.10130 3.23820   2
  -4   2   8 -3.1146 5.70790   2
  -4   2   8 -5.5782 11.0827   1
  -3  -2   8 209.022 13.8459   2
  -3  -2   8 212.714 18.6101   3
  -3  -2   8 239.787 23.4075   1
   3  -2  -8 198.069 20.0002   1
   3  -2  -8 184.380 17.4221   3
   3   2  -8 244.799 17.9134   4
  -3   2   8 196.859 12.2322   2
  -3   2   8 202.555 13.2720   2
   3   2  -8 188.001 21.3401   1
  -3   2   8 218.368 19.9505   3
   3   2  -8 238.865 17.8967   3
  -3   2   8 174.627 23.0768   1
   2  -2  -8 80.2180 11.4858   1
   2  -2  -8 87.5785 10.2416   3
  -2  -2   8 98.3841 8.58842   2
  -2  -2   8 91.0718 11.2046   3
  -2  -2   8 101.294 13.4798   1
  -2   2   8 85.1777 13.7808   1
  -2   2   8 87.1667 12.5981   3
   2   2  -8 92.0656 11.0464   3
   2   2  -8 100.548 16.2897   1
   2   2  -8 118.304 12.4347   4
   1  -2  -8 -0.8535 6.88895   3
  -1  -2   8 6.91500 8.35319   3
  -1  -2   8 7.63450 4.18593   2
  -1  -2   8 0.08457 9.51610   1
   1  -2  -8 2.24729 6.69518   1
  -1   2   8 4.48759 8.95825   1
   1   2  -8 3.50253 5.51861   4
   1   2  -8 9.12082 8.13735   3
   1   2  -8 0.85945 3.37027   2
   1   2  -8 1.93111 7.82647   1
  -1   2   8 12.9170 10.7452   3
   0  -2   8 136.136 17.9019   1
   0  -2   8 146.088 10.8854   2
   0  -2  -8 144.560 14.7736   1
   0  -2   8 127.969 15.0539   3
   0  -2  -8 103.488 13.1577   3
   0   2  -8 126.918 15.4630   3
   0   2  -8 128.700 9.62813   2
   0   2   8 145.554 18.3724   1
   0   2  -8 142.882 11.2775   4
   0   2   8 114.886 14.8447   3
   0   2  -8 151.581 16.4292   1
  -1  -2  -8 287.278 22.1805   1
   1  -2   8 275.245 22.7071   3
  -1  -2  -8 292.632 21.9467   3
   1  -2   8 338.345 20.1788   2
   1  -2   8 351.115 25.0217   1
  -1  -2  -8 294.172 17.6544   2
  -1   2  -8 298.906 23.1558   1
   1   2   8 299.403 24.9609   1
  -1   2  -8 334.053 18.7868   4
  -1   2  -8 300.494 18.7029   2
   1   2   8 308.155 24.9770   3
  -1   2  -8 294.582 22.3337   3
   2  -2   8 36.2762 10.0714   1
  -2  -2  -8 67.7533 6.54808   2
  -2  -2  -8 67.4623 8.51429   1
   2  -2   8 55.4905 10.8451   3
  -2  -2  -8 67.0060 9.31289   3
  -2   2  -8 73.9294 10.4537   1
   2   2   8 83.9644 12.1377   1
  -2   2  -8 85.7190 10.7514   3
   2   2   8 52.7174 13.0733   3
  -2   2  -8 76.3601 8.17872   2
   3  -2   8 0.41892 9.45236   3
   3  -2   8 8.66232 7.98798   1
   3  -2   8 1.28429 8.05835   1
   3  -2   8 -1.2987 8.39828   2
  -3  -2  -8 2.40674 4.28634   2
  -3  -2  -8 -9.8657 7.45014   3
   3   2   8 1.21593 7.63796   1
  -3   2  -8 -3.6071 4.97995   2
  -3   2  -8 -1.2380 8.09795   3
   3   2   8 3.80796 12.5849   3
  -4  -2  -8 826.121 48.1726   3
  -4  -2  -8 793.028 46.0702   2
   4  -2   8 669.368 48.9476   3
   4  -2   8 708.568 50.0863   1
   4  -2   8 869.513 48.5564   2
   4   2   8 805.922 48.3663   1
   4   2   8 764.629 49.6593   1
  -4   2  -8 828.096 46.4020   2
   4   2   8 782.531 51.5680   3
  -4   2  -8 883.013 48.7765   3
   5  -2   8 25.7082 12.5656   3
  -5  -2  -8 31.3256 7.16022   2
   5  -2   8 -1.2704 11.6449   2
  -5  -2  -8 22.5109 9.15466   3
   5  -2   8 22.7351 10.7163   1
   5   2   8 20.6711 12.6952   1
   5   2   8 18.2439 8.10954   1
  -5   2  -8 25.4178 8.06749   2
  -5   2  -8 33.4100 9.89895   3
   5   2   8 20.9802 13.6149   3
   6  -2   8 20.7031 13.3688   3
   6  -2   8 9.52275 14.1414   2
  -6  -2  -8 18.7471 7.91964   2
  -6  -2  -8 12.4360 9.44085   3
  -6   2  -8 9.99833 9.57422   3
  -6   2  -8 5.84538 8.61796   2
   6   2   8 3.13049 13.9163   3
  -7  -2  -8 81.1587 11.5454   2
  -7  -2  -8 75.9538 11.2802   3
   7  -2   8 53.5331 15.5575   3
  -7   2  -8 85.3995 11.9596   3
  -7   2  -8 84.7984 11.9058   2
   7   2   8 108.386 17.0812   3
   8  -2   8 84.5280 16.5741   3
  -8  -2  -8 88.6743 12.7758   2
  -8   2  -8 81.0293 13.4510   2
   8   2   8 90.0612 16.3750   3
  -9  -2  -8 112.311 15.1444   2
   9  -2   8 165.609 19.0529   3
  -9   2  -8 111.118 15.7959   2
 -10  -2  -8 20.4512 13.4393   2
 -10   2  -8 8.03378 14.5551   2
 -10  -3   8 103.870 18.5995   2
 -10   3   8 86.8141 18.4228   2
  -9  -3   8 17.3213 14.3808   2
  -9   3   8 -5.8598 14.5437   2
  -8  -3   8 41.2374 13.2878   2
  -8   3   8 54.3371 13.7193   2
  -7  -3   8 490.751 29.9697   3
   7  -3  -8 492.133 30.7573   3
  -7  -3   8 407.396 30.1833   2
  -7  -3   8 469.729 32.8474   2
   7   3  -8 485.521 29.3024   3
  -7   3   8 440.391 29.0045   2
  -7   3   8 431.670 39.9008   1
  -7   3   8 500.761 32.5586   2
   6  -3  -8 -0.3768 10.9678   1
  -6  -3   8 -4.0272 12.7144   1
  -6  -3   8 -3.5665 8.16971   3
  -6  -3   8 1.81450 7.12428   2
   6  -3  -8 8.04609 7.95605   3
  -6   3   8 4.60414 5.39937   2
  -6   3   8 12.8104 13.8498   1
   6   3  -8 4.34907 7.55159   3
   5  -3  -8 -14.563 10.4511   1
  -5  -3   8 -7.8019 11.1214   1
  -5  -3   8 16.7439 8.58309   3
   5  -3  -8 -0.1294 10.9583   4
  -5  -3   8 6.84503 6.20743   2
   5  -3  -8 23.1560 8.21837   3
  -5   3   8 -6.7570 9.82814   1
  -5   3   8 10.0635 6.98460   2
   5   3  -8 10.2626 11.6126   1
   5   3  -8 14.9996 8.23124   3
  -5   3   8 2.50506 4.04596   2
   5   3  -8 14.4500 10.7613   4
  -4  -3   8 382.803 23.1859   2
   4  -3  -8 371.477 29.3811   1
  -4  -3   8 355.250 25.9206   3
  -4  -3   8 353.601 30.7268   1
   4  -3  -8 335.403 25.2364   3
   4   3  -8 396.619 26.2994   3
  -4   3   8 347.062 21.5930   2
   4   3  -8 429.608 26.9968   4
  -4   3   8 388.320 31.5770   1
  -4   3   8 413.146 27.3475   3
   4   3  -8 369.309 30.7198   1
   3  -3  -8 233.477 20.1158   3
  -3  -3   8 285.952 25.7614   1
   3  -3  -8 236.969 22.7658   1
  -3  -3   8 224.975 20.8181   3
   3   3  -8 324.754 22.0546   3
  -3   3   8 291.943 26.7038   1
   3   3  -8 288.598 24.5118   1
  -3   3   8 281.699 21.9484   3
   3   3  -8 309.964 20.9887   4
   2  -3  -8 882.562 58.9126   3
  -2  -3   8 1066.93 57.6100   2
  -2  -3   8 887.460 59.3916   3
  -2  -3   8 1069.33 63.2367   1
   2  -3  -8 977.045 61.3254   1
   2   3  -8 1066.05 62.3729   1
   2   3  -8 1018.02 57.5278   2
   2   3  -8 1133.94 59.0770   4
  -2   3   8 932.496 63.3549   1
  -2   3   8 1002.48 60.4260   3
   2   3  -8 1092.51 60.2561   3
  -1  -3   8 170.731 20.6505   1
  -1  -3   8 123.211 14.8243   3
   1  -3  -8 147.075 15.5956   1
  -1  -3   8 144.190 10.9113   2
   1  -3  -8 110.077 13.8116   3
  -1   3   8 126.198 15.2240   3
   1   3  -8 140.180 10.4728   2
   1   3  -8 162.437 12.9228   4
  -1   3   8 134.484 15.8327   1
   1   3  -8 153.851 16.3576   3
   1   3  -8 157.456 17.6529   1
   0  -3   8 631.405 37.7567   1
   0  -3   8 598.585 32.3893   2
   0  -3   8 502.566 34.5727   3
   0  -3  -8 527.348 34.9891   1
   0  -3  -8 455.186 33.5492   3
   0   3   8 519.810 37.1069   3
   0   3  -8 562.972 31.7832   2
   0   3  -8 549.125 36.4340   1
   0   3  -8 605.924 32.5230   4
   0   3   8 477.602 37.2648   1
   0   3  -8 578.034 35.4765   3
   1  -3   8 933.093 54.9158   2
  -1  -3  -8 911.225 52.5204   2
  -1  -3  -8 965.485 56.0397   1
   1  -3   8 891.638 55.8436   3
  -1  -3  -8 818.332 54.9287   3
   1  -3   8 1017.41 58.2426   1
  -1   3  -8 927.521 55.9048   3
  -1   3  -8 1021.88 53.4958   2
   1   3   8 903.152 57.0557   3
  -1   3  -8 960.797 57.3356   1
   1   3   8 962.747 58.1396   1
   2  -3   8 961.076 53.6885   2
  -2  -3  -8 954.634 52.0637   2
  -2  -3  -8 824.724 54.1847   3
   2  -3   8 858.876 55.4130   3
   2  -3   8 959.368 57.1518   1
  -2  -3  -8 896.982 54.6849   1
   2   3   8 872.594 56.5464   1
  -2   3  -8 992.349 55.4836   3
   2   3   8 886.189 56.6194   3
  -2   3  -8 987.864 52.8572   2
   3  -3   8 6.19176 9.05439   3
  -3  -3  -8 4.67232 7.65519   3
  -3  -3  -8 0.10100 4.17731   2
   3  -3   8 -8.2771 8.23996   1
   3  -3   8 3.53140 8.44749   2
   3  -3   8 1.61977 6.59278   1
   3   3   8 14.5815 13.0892   3
  -3   3  -8 3.75127 8.59776   3
  -3   3  -8 -1.4911 5.45105   2
   3   3   8 7.52941 8.59518   1
  -4  -3  -8 -7.2869 7.90562   3
   4  -3   8 -8.9843 9.06304   1
   4  -3   8 -2.9378 8.57872   1
   4  -3   8 19.9965 10.1047   2
  -4  -3  -8 -0.2758 5.48658   2
   4  -3   8 3.14157 9.83124   3
  -4   3  -8 14.9236 9.71645   3
   4   3   8 1.55498 8.74898   1
   4   3   8 9.90883 6.82341   1
   4   3   8 1.55784 13.8064   3
  -4   3  -8 7.08572 6.45193   2
   5  -3   8 817.157 48.8292   2
   5  -3   8 679.836 48.4307   3
  -5  -3  -8 768.320 47.2652   3
   5  -3   8 731.802 50.5323   1
  -5  -3  -8 806.351 45.7472   2
   5   3   8 758.998 51.0041   3
  -5   3  -8 804.360 46.3801   2
   5   3   8 786.203 47.3093   1
  -5   3  -8 816.879 48.0266   3
   6  -3   8 32.0822 12.5487   3
  -6  -3  -8 36.2262 9.83730   3
  -6  -3  -8 44.3273 8.43663   2
  -6   3  -8 24.0174 9.46781   2
   6   3   8 20.7088 14.9012   3
  -6   3  -8 47.3718 10.2410   3
  -7  -3  -8 -7.5903 8.64419   2
  -7  -3  -8 -3.0430 9.85902   3
   7  -3   8 16.7440 13.5554   3
  -7   3  -8 2.87110 10.5063   2
  -7   3  -8 6.71977 16.1796   3
   7   3   8 11.1079 14.5580   3
  -8  -3  -8 32.8540 11.0621   2
   8  -3   8 33.0376 15.4873   3
   8   3   8 45.1510 14.7505   3
  -8   3  -8 41.4599 12.0224   2
  -9  -3  -8 129.796 15.6934   2
   9  -3   8 141.772 18.9302   3
  -9   3  -8 143.321 16.6005   2
 -10  -3  -8 3.14792 13.5170   2
 -10   3  -8 -19.918 13.7770   2
 -10  -4   8 26.0801 16.2449   2
 -10   4   8 14.2323 16.5048   2
  -9  -4   8 250.067 22.6510   2
  -9   4   8 259.809 27.7923   2
  -8  -4   8 9.34143 12.6845   2
  -8  -4   8 8.38156 6.50184   3
  -8   4   8 12.9111 12.2060   2
   7  -4  -8 102.858 11.4109   3
  -7  -4   8 101.234 10.5323   3
   7  -4  -8 78.6860 25.2769   1
   7   4  -8 112.863 12.4920   3
  -7   4   8 93.2566 9.39344   2
  -7   4   8 73.9210 27.5152   1
  -7   4   8 76.3801 12.3570   2
  -6  -4   8 123.631 14.7125   3
   6  -4  -8 104.789 11.6965   3
   6  -4  -8 109.856 15.9303   1
  -6  -4   8 123.320 11.0331   2
  -6  -4   8 136.162 21.3934   1
  -6   4   8 109.910 11.5163   2
  -6   4   8 107.790 18.7740   1
   6   4  -8 121.160 14.0961   3
   5  -4  -8 1068.69 67.4375   1
  -5  -4   8 1077.01 67.9741   1
  -5  -4   8 1093.95 61.5453   2
   5  -4  -8 963.399 62.4495   3
  -5  -4   8 1025.10 62.6605   3
   5   4  -8 1096.38 68.3431   1
  -5   4   8 1057.21 60.3879   2
   5   4  -8 1213.61 62.9813   3
  -5   4   8 1028.41 61.1550   2
  -5   4   8 1064.38 68.6529   1
   4  -4  -8 379.974 30.0103   1
  -4  -4   8 397.546 23.9151   2
   4  -4  -8 354.950 25.6075   3
  -4  -4   8 348.267 26.1802   3
  -4  -4   8 411.635 31.5566   1
   4   4  -8 405.466 31.1251   1
  -4   4   8 423.680 28.0176   3
  -4   4   8 370.679 21.9213   2
   4   4  -8 449.711 27.2602   3
  -4   4   8 390.743 32.3009   1
   4   4  -8 431.600 27.4153   4
  -4   4   8 314.612 22.5672   2
  -3  -4   8 25.6960 8.17299   3
   3  -4  -8 34.3864 9.30352   1
  -3  -4   8 46.6747 10.8223   1
  -3  -4   8 41.6589 6.13278   2
   3  -4  -8 30.1565 7.78371   3
  -3   4   8 30.6761 11.6272   1
   3   4  -8 37.1410 10.1850   1
   3   4  -8 30.7768 9.44252   3
   3   4  -8 49.7537 8.87700   4
  -3   4   8 37.7850 10.6697   3
   2  -4  -8 1329.58 89.6628   3
  -2  -4   8 1746.08 93.9702   1
  -2  -4   8 1420.38 90.3012   3
   2  -4  -8 1508.44 91.9621   1
  -2  -4   8 1643.09 88.6768   2
   2   4  -8 1672.92 91.0864   3
   2   4  -8 1599.95 93.1099   1
   2   4  -8 1659.92 89.7949   4
  -2   4   8 1500.53 93.9138   1
   2   4  -8 1592.18 88.6206   2
  -2   4   8 1594.75 91.0819   3
  -1  -4   8 4.07208 8.04149   3
   1  -4  -8 2.42109 6.60375   3
  -1  -4   8 8.37069 6.15077   2
  -1  -4   8 2.04915 8.03100   1
   1  -4  -8 4.20882 7.04610   1
   1   4  -8 -0.3288 5.69657   4
   1   4  -8 0.64415 8.20737   3
  -1   4   8 -4.4799 9.67492   1
  -1   4   8 -6.5138 10.9337   3
   1   4  -8 9.69709 8.24658   1
   1   4  -8 1.79375 4.31658   2
   0  -4   8 1567.88 94.4834   1
   0  -4   8 1482.13 91.7158   3
   0  -4   8 1730.93 90.2894   2
   0  -4  -8 1518.53 92.0678   1
   0   4  -8 1679.26 93.8398   1
   0   4  -8 1695.58 89.7768   2
   0   4   8 1513.35 92.7665   3
   0   4  -8 1610.09 92.1387   3
   0   4   8 1492.72 94.1463   1
   1  -4   8 47.2356 6.87813   2
   1  -4   8 28.2301 8.98786   1
  -1  -4  -8 33.0269 7.16724   1
   1  -4   8 31.5397 9.53904   3
  -1  -4  -8 22.9868 7.64898   3
   1   4   8 23.1837 9.87059   1
  -1   4  -8 35.8061 9.44941   3
   1   4   8 44.6847 12.2697   3
  -1   4  -8 19.9058 11.6808   1
  -1   4  -8 41.2277 5.73900   2
   2  -4   8 322.244 20.0532   2
  -2  -4  -8 301.531 19.8973   1
   2  -4   8 214.190 21.1674   3
  -2  -4  -8 253.958 20.3649   3
   2  -4   8 267.112 23.5600   1
  -2  -4  -8 279.481 16.4486   2
   2   4   8 258.735 23.3538   1
   2   4   8 257.914 25.7778   3
  -2   4  -8 289.439 22.4857   3
  -2   4  -8 280.381 18.3405   2
  -3  -4  -8 795.148 51.4547   3
   3  -4   8 806.294 53.7015   1
   3  -4   8 729.840 52.3899   3
   3  -4   8 984.855 51.6239   2
  -3  -4  -8 885.205 49.3657   2
   3  -4   8 843.301 54.4059   1
   3   4   8 859.266 54.8265   3
  -3   4  -8 948.163 52.7518   3
  -3   4  -8 941.221 50.2962   2
   3   4   8 838.122 53.5085   1
   4  -4   8 -8.4352 9.97021   2
   4  -4   8 10.0061 9.60049   1
  -4  -4  -8 5.73994 5.29816   2
  -4  -4  -8 15.0177 8.33427   3
   4  -4   8 13.7721 9.33214   1
   4  -4   8 4.76904 9.49481   3
  -4   4  -8 -10.215 8.89797   3
  -4   4  -8 8.59260 6.81381   2
   4   4   8 8.86474 9.48786   1
   4   4   8 12.7029 6.86710   1
   4   4   8 1.13138 14.1923   3
  -5  -4  -8 10.4208 4.16707   4
   5  -4   8 17.6407 11.0317   3
   5  -4   8 7.83254 12.1387   2
  -5  -4  -8 13.3640 8.63317   3
   5  -4   8 -3.7982 10.8724   1
  -5  -4  -8 10.5087 6.52619   2
  -5   4  -8 3.84349 9.32242   3
   5   4   8 7.04645 7.23263   1
  -5   4  -8 25.2918 8.57979   2
   5   4   8 -11.372 13.6700   3
  -6  -4  -8 -0.3370 7.47952   2
  -6  -4  -8 -10.881 9.04927   3
   6  -4   8 7.43041 11.7937   3
  -6   4  -8 22.9962 9.63269   2
   6   4   8 11.7241 14.6663   3
  -6   4  -8 0.30361 11.3140   3
   6   4   8 20.8991 8.33125   1
   7  -4   8 130.652 16.5737   3
  -7  -4  -8 133.062 13.7513   3
   7   4   8 124.796 17.5728   3
  -7   4  -8 130.594 21.8438   2
   8  -4   8 18.1516 13.6922   3
  -8  -4  -8 6.90344 10.7116   2
  -8   4  -8 29.2918 12.3427   2
   9  -4   8 3.32443 15.1361   3
  -9  -4  -8 -4.7265 11.7998   2
  -9   4  -8 7.20591 14.0170   2
 -10  -4  -8 131.598 16.7036   2
 -10   4  -8 133.679 18.8599   2
 -10  -5   8 -2.8699 15.8421   2
 -10   5   8 13.3352 16.0296   2
  -9  -5   8 78.9455 15.7213   2
  -9   5   8 57.2071 15.3385   2
  -8  -5   8 150.845 14.1054   3
  -8  -5   8 152.428 19.0892   2
  -8   5   8 117.592 15.4244   2
   7  -5  -8 -7.0662 16.5015   1
   7  -5  -8 0.73328 8.65569   3
  -7  -5   8 -3.7358 7.48831   3
  -7   5   8 3.20812 14.3566   1
   7   5  -8 1.34003 6.68921   3
  -7   5   8 -1.5311 6.43445   2
  -7   5   8 -1.7283 9.81030   2
   6  -5  -8 11.6685 10.9841   1
  -6  -5   8 4.19889 8.24961   2
  -6  -5   8 3.92287 7.93787   3
   6  -5  -8 2.84435 8.02171   3
   6   5  -8 3.27707 7.29531   3
  -6   5   8 7.95308 7.69051   2
  -6   5   8 2.53211 22.5115   1
  -6   5   8 10.4073 8.24840   2
  -5  -5   8 25.9205 10.9164   1
  -5  -5   8 27.1140 7.47805   2
   5  -5  -8 32.0822 11.7890   1
  -5  -5   8 30.2136 8.77186   3
   5  -5  -8 26.8420 8.20558   3
  -5   5   8 27.4759 5.75896   2
  -5   5   8 25.4277 4.32462   2
   5   5  -8 17.7172 12.0138   1
  -5   5   8 48.9382 13.5547   1
   5   5  -8 34.3825 8.88972   3
   4  -5  -8 216.736 18.7398   3
   4  -5  -8 241.964 23.4378   1
  -4  -5   8 260.749 16.7745   2
  -4  -5   8 252.676 25.1452   1
  -4  -5   8 204.213 18.9107   3
  -4   5   8 200.592 13.4705   2
  -4   5   8 241.655 26.4039   1
   4   5  -8 264.163 20.5306   4
   4   5  -8 254.567 19.7340   3
  -4   5   8 224.880 13.3361   2
   4   5  -8 245.934 24.6346   1
  -3  -5   8 21.6519 6.03291   2
  -3  -5   8 13.6975 8.29513   3
   3  -5  -8 22.3960 8.73529   1
   3  -5  -8 6.63648 7.42852   3
  -3  -5   8 16.0563 9.61513   1
   3   5  -8 13.9165 10.9439   1
  -3   5   8 7.57866 10.3170   3
   3   5  -8 3.05542 8.34288   3
  -3   5   8 4.46824 9.49977   1
   3   5  -8 10.3155 8.06607   4
  -2  -5   8 19.3451 10.2827   1
   2  -5  -8 22.0822 7.94976   1
  -2  -5   8 21.2149 8.28790   3
   2  -5  -8 26.5755 7.58259   3
  -2  -5   8 30.3321 6.29792   2
   2   5  -8 33.3405 10.5768   1
   2   5  -8 35.1026 7.99643   4
   2   5  -8 28.7448 5.60386   2
  -2   5   8 27.5895 11.1397   3
   2   5  -8 32.4812 9.68892   3
  -2   5   8 31.1569 10.4780   1
  -1  -5   8 335.792 23.7795   3
  -1  -5   8 373.262 21.5855   2
   1  -5  -8 300.646 22.7158   3
  -1  -5   8 377.215 27.9392   1
   1  -5  -8 322.825 24.5282   1
  -1   5   8 317.335 27.7378   1
   1   5  -8 333.449 26.8538   1
   1   5  -8 332.696 20.9331   2
   1   5  -8 346.999 24.6314   3
  -1   5   8 336.180 27.2395   3
   0  -5  -8 -6.0949 6.39017   3
   0  -5   8 5.61491 6.13445   2
   0  -5  -8 -10.218 5.74226   1
   0  -5   8 7.58368 8.59137   3
   0   5   8 8.04649 11.1086   3
   0   5  -8 -5.0591 7.95455   1
   0   5   8 -13.910 8.50219   1
   0   5  -8 -2.7225 8.83731   3
   0   5  -8 -2.5387 4.98295   2
   1  -5   8 257.594 16.5431   2
   1  -5   8 185.760 19.0908   3
  -1  -5  -8 188.208 16.8161   3
  -1  -5  -8 210.303 17.2308   1
   1  -5   8 212.525 21.4858   1
  -1   5  -8 231.621 22.9736   1
  -1   5  -8 235.439 15.3579   2
   1   5   8 195.648 21.0960   1
   1   5   8 216.415 21.7152   3
  -1   5  -8 222.575 19.1277   3
  -2  -5  -8 591.338 35.6102   1
   2  -5   8 529.098 38.8205   1
  -2  -5  -8 519.467 35.8417   3
   2  -5   8 650.301 35.5353   2
   2  -5   8 482.820 36.9514   3
  -2  -5  -8 602.360 33.0075   2
  -2   5  -8 598.560 34.4557   2
  -2   5  -8 634.631 37.7807   3
   2   5   8 566.234 38.6007   1
   2   5   8 595.304 39.0353   3
   3  -5   8 9.77899 9.88818   3
   3  -5   8 7.52321 9.53932   1
  -3  -5  -8 4.66847 4.25818   2
   3  -5   8 11.0436 9.20217   2
  -3  -5  -8 13.0934 7.56215   3
   3  -5   8 24.4831 10.5673   1
   3   5   8 6.30944 13.4921   3
  -3   5  -8 2.03065 9.76224   3
   3   5   8 9.90545 9.42287   1
  -3   5  -8 13.0442 6.93291   2
  -4  -5  -8 40.6967 8.85569   3
   4  -5   8 43.8130 11.5205   1
   4  -5   8 34.3094 10.9483   2
   4  -5   8 26.8765 10.8411   3
   4  -5   8 40.9143 11.7110   1
  -4  -5  -8 41.0659 6.33049   2
  -4   5  -8 40.6486 10.2726   3
  -4   5  -8 49.2972 8.12951   2
   4   5   8 42.0347 10.7249   1
   4   5   8 25.1378 15.2449   3
   4   5   8 42.3908 7.67405   1
   5  -5   8 19.8317 10.8981   3
   5  -5   8 16.6431 14.5818   2
  -5  -5  -8 37.5153 4.41483   4
  -5  -5  -8 33.1440 7.18748   2
  -5  -5  -8 27.2486 9.52320   3
   5  -5   8 31.4685 12.9665   1
  -5   5  -8 32.8056 10.9027   3
   5   5   8 41.5251 7.57332   1
  -5   5  -8 23.7343 9.06239   2
   5   5   8 16.0507 14.8428   3
  -6  -5  -8 266.683 20.7758   2
  -6  -5  -8 311.729 23.2564   3
   6  -5   8 278.074 25.1116   3
   6   5   8 255.293 21.1962   1
   6   5   8 355.602 29.0888   3
  -6   5  -8 308.112 23.4473   2
  -7  -5  -8 51.5521 10.1061   2
   7  -5   8 27.0410 12.7565   3
  -7   5  -8 29.4420 11.3712   2
   8  -5   8 23.6155 13.8505   3
  -8  -5  -8 19.3395 10.4257   2
  -8   5  -8 23.5874 12.9189   2
   9  -5   8 138.982 18.8654   3
  -9  -5  -8 140.289 15.2033   2
  -9   5  -8 130.583 16.8763   2
 -10  -5  -8 24.3898 13.0108   2
 -10   5  -8 36.1963 15.3604   2
 -10  -6   8 40.6917 16.9812   2
 -10   6   8 13.4323 16.4316   2
  -9  -6   8 36.8890 15.4518   2
  -9   6   8 35.7915 14.4809   2
  -8  -6   8 140.565 13.9732   3
  -8   6   8 104.696 14.4689   2
  -7  -6   8 8.96077 7.77494   3
   7  -6  -8 10.7428 8.86857   3
   7  -6  -8 19.1113 19.5190   1
  -7   6   8 6.71577 9.47536   2
  -7   6   8 13.5268 15.7613   1
   7   6  -8 19.8643 7.53529   3
   6  -6  -8 38.9933 14.6217   1
  -6  -6   8 41.6682 9.01465   3
   6  -6  -8 45.1052 9.51495   3
  -6   6   8 33.0851 7.62233   2
  -6   6   8 16.6029 15.8047   1
   6   6  -8 39.4545 8.46842   3
   5  -6  -8 27.0952 9.12323   3
  -5  -6   8 16.5435 10.4606   1
   5  -6  -8 47.0008 13.6792   1
  -5  -6   8 35.8604 8.45666   2
  -5  -6   8 22.8217 8.25365   3
  -5   6   8 27.3283 5.15150   2
  -5   6   8 29.3434 4.35271   2
  -5   6   8 22.7709 14.2432   1
   5   6  -8 54.3928 9.30889   3
   4  -6  -8 15.3905 10.6756   1
  -4  -6   8 0.39382 7.61132   3
  -4  -6   8 5.07657 9.65912   1
  -4  -6   8 -0.2774 6.53569   2
   4  -6  -8 5.49972 7.51110   3
  -4   6   8 3.38031 2.22060   2
   4   6  -8 -2.6619 8.06671   3
   4   6  -8 -4.8912 9.00609   4
  -4   6   8 -1.1906 11.5980   1
   4   6  -8 28.7393 20.9383   1
  -3  -6   8 -4.3350 9.01388   1
  -3  -6   8 3.41641 5.93085   2
   3  -6  -8 0.11629 7.17425   3
  -3  -6   8 7.53868 7.84102   3
   3  -6  -8 9.86174 8.31434   1
   3   6  -8 11.4620 8.53294   3
   3   6  -8 6.05746 10.0726   1
  -3   6   8 9.88361 11.3801   1
   3   6  -8 3.26700 5.96053   2
   2  -6  -8 31.2440 9.37051   1
  -2  -6   8 31.2982 9.24375   3
   2  -6  -8 33.9807 8.58020   3
  -2  -6   8 49.0178 7.06192   2
  -2  -6   8 36.3087 11.2019   1
   2   6  -8 52.4419 6.61201   2
   2   6  -8 50.3810 10.3682   3
  -2   6   8 40.0311 11.1494   1
   2   6  -8 47.6235 11.6054   1
  -1  -6   8 8.43116 6.18131   2
  -1  -6   8 9.65793 8.71863   3
   1  -6  -8 9.31072 6.98372   1
  -1  -6   8 9.00684 6.51742   4
   1  -6  -8 10.8716 7.47833   3
  -1  -6   8 5.33915 8.84546   1
   1   6  -8 4.08027 5.33811   2
   1   6  -8 20.1042 9.24366   3
  -1   6   8 5.41591 11.9128   3
  -1   6   8 -0.5508 9.79995   1
   1   6  -8 -6.7153 14.1163   1
   0  -6   8 3.96625 8.45104   3
   0  -6   8 8.30524 6.49682   2
   0  -6  -8 8.02255 6.60222   1
   0  -6   8 1.45893 9.33041   1
   0  -6  -8 0.42439 6.93745   3
   0  -6   8 2.50415 5.59350   4
   0   6  -8 15.7479 9.50931   1
   0   6   8 -5.3561 11.9254   3
   0   6  -8 -9.4089 8.75524   3
   0   6  -8 1.76141 5.35489   2
   0   6   8 8.03628 9.11121   1
   1  -6   8 -3.0352 8.42058   3
   1  -6   8 7.02534 9.27796   1
  -1  -6  -8 0.83242 5.86739   1
  -1  -6  -8 14.4952 7.29666   3
   1  -6   8 -1.1305 6.69126   2
   1   6   8 9.37852 12.0083   3
  -1   6  -8 8.46745 5.73309   2
  -1   6  -8 -0.6344 14.3523   1
  -1   6  -8 -3.7767 8.43528   3
   1   6   8 -0.0767 9.01216   1
  -2  -6  -8 1.91938 5.27477   1
   2  -6   8 2.62198 7.74713   2
  -2  -6  -8 1.17207 2.72661   2
   2  -6   8 0.97615 7.71380   1
  -2  -6  -8 2.50280 7.46386   3
   2  -6   8 -3.1587 8.09350   1
   2  -6   8 2.47678 9.32844   3
  -2   6  -8 -4.0820 6.07890   2
  -2   6  -8 9.30729 9.39453   3
   2   6   8 -5.3927 12.4180   3
   2   6   8 4.95133 8.78883   1
  -3  -6  -8 20.1392 8.01282   3
   3  -6   8 28.3643 11.1327   1
   3  -6   8 28.2448 10.7251   3
   3  -6   8 23.2411 9.48151   1
  -3  -6  -8 26.7712 4.61878   2
   3  -6   8 16.6808 9.32514   2
  -3  -6  -8 30.0883 4.76839   2
   3   6   8 18.6405 9.86340   1
  -3   6  -8 38.5971 10.3127   3
  -3   6  -8 18.9035 7.13937   2
   3   6   8 26.7595 14.4890   3
   4  -6   8 70.2945 13.6286   1
  -4  -6  -8 59.2797 9.65930   3
   4  -6   8 68.7690 12.2710   3
  -4  -6  -8 66.1545 7.23784   2
  -4  -6  -8 71.8825 7.38995   2
   4  -6   8 49.9847 12.1503   1
   4  -6   8 45.1132 11.5182   2
   4   6   8 80.3354 16.1273   3
   4   6   8 76.2432 9.99813   1
  -4   6  -8 79.3340 9.79917   2
   4   6   8 67.3931 11.1332   1
  -4   6  -8 76.1621 12.5707   3
  -5  -6  -8 -13.450 8.86329   3
  -5  -6  -8 14.7654 6.78081   2
   5  -6   8 9.85242 10.8519   3
   5  -6   8 21.5315 13.0608   1
  -5   6  -8 22.6988 8.97625   2
   5   6   8 10.8870 5.82033   1
  -6  -6  -8 106.563 9.27590   4
   6  -6   8 105.187 14.1889   3
  -6  -6  -8 103.810 10.8229   2
  -6   6  -8 91.4836 12.7526   2
   7  -6   8 12.1372 12.3851   3
  -7  -6  -8 9.69458 9.00091   2
  -7   6  -8 21.6726 11.3912   2
  -8  -6  -8 29.3456 10.9041   2
   8  -6   8 55.6665 16.0807   3
  -8   6  -8 36.9551 12.9330   2
  -9  -6  -8 10.5171 11.2991   2
   9  -6   8 17.0588 14.4797   3
  -9   6  -8 33.7546 14.3397   2
 -10  -7   8 11.0741 17.0063   2
  -9  -7   8 46.7410 16.1662   2
  -9   7   8 33.9065 13.9608   2
  -8  -7   8 23.4441 7.63305   3
   8  -7  -8 25.3130 8.52475   3
  -8   7   8 32.1660 11.5289   2
   7  -7  -8 4.23768 9.67492   3
  -7  -7   8 22.4689 8.21784   3
   7  -7  -8 41.8618 21.9909   1
  -7   7   8 14.6103 29.1333   1
  -7   7   8 26.5063 9.05702   2
   6  -7  -8 172.553 18.8017   3
  -6  -7   8 192.860 18.0075   3
   6  -7  -8 246.824 29.6306   1
   6   7  -8 221.583 18.3485   3
  -6   7   8 240.524 31.4131   1
  -6   7   8 188.820 15.6221   2
  -5  -7   8 23.0454 8.54654   2
   5  -7  -8 -12.892 8.74848   3
  -5  -7   8 21.7736 8.56481   3
   5  -7  -8 41.7435 13.3650   1
  -5   7   8 8.42814 4.46268   2
  -5   7   8 17.5748 16.0499   1
   5   7  -8 27.1932 9.24589   3
  -4  -7   8 11.6928 9.68430   1
  -4  -7   8 12.9672 8.30121   3
   4  -7  -8 6.20899 8.06157   3
  -4  -7   8 28.4678 7.35891   2
   4  -7  -8 18.7787 10.5547   1
   4   7  -8 -1.4631 10.0208   1
   4   7  -8 27.0183 9.16804   3
  -4   7   8 17.4064 14.0483   1
  -3  -7   8 48.3827 9.42135   3
   3  -7  -8 58.8908 9.40919   3
   3  -7  -8 47.1236 10.4573   1
  -3  -7   8 36.9990 11.3959   1
  -3  -7   8 28.8328 8.83792   4
  -3  -7   8 54.5896 8.05613   2
   3   7  -8 60.8736 10.2673   3
   3   7  -8 108.915 21.3556   1
  -3   7   8 37.1468 13.0007   1
   3   7  -8 61.1327 7.81175   2
  -2  -7   8 166.636 15.9294   4
  -2  -7   8 213.550 22.2858   1
  -2  -7   8 197.692 14.9836   2
   2  -7  -8 145.020 15.9269   3
  -2  -7   8 175.892 18.0586   3
   2  -7  -8 161.111 18.3832   1
   2   7  -8 171.329 21.9655   1
  -2   7   8 183.119 21.9684   1
   2   7  -8 188.591 14.5817   2
   2   7  -8 219.588 19.2491   3
  -1  -7   8 866.517 55.4771   1
  -1  -7   8 780.132 52.0755   3
  -1  -7   8 829.293 51.0321   4
  -1  -7   8 871.426 50.5578   2
   1  -7  -8 875.474 53.1306   1
   1  -7  -8 800.321 51.6330   3
   1   7  -8 940.326 50.6219   2
   1   7  -8 925.228 55.9592   1
  -1   7   8 881.110 55.4999   1
   1   7  -8 946.914 52.9748   3
   0  -7   8 503.310 30.3687   4
   0  -7  -8 500.796 32.2113   1
   0  -7   8 464.812 32.9332   3
   0  -7   8 490.147 30.5041   2
   0  -7  -8 417.291 31.6963   3
   0   7   8 493.459 34.7631   1
   0   7  -8 553.222 30.2719   2
   0   7  -8 517.090 36.0111   1
   0   7  -8 513.874 33.6839   3
  -1  -7  -8 4.40800 5.98298   1
   1  -7   8 2.21516 10.0551   1
   1  -7   8 7.81775 9.60260   3
   1  -7   8 7.60797 7.30325   2
   1  -7   8 8.53678 5.50314   4
  -1  -7  -8 -6.6544 7.11894   3
   1   7   8 11.3030 8.96023   1
  -1   7  -8 7.78933 9.78702   3
  -1   7  -8 9.62812 6.08155   2
   2  -7   8 35.9578 9.85431   1
   2  -7   8 38.0267 10.2970   3
   2  -7   8 35.3097 8.63206   2
   2  -7   8 29.6951 10.2994   1
  -2  -7  -8 43.2880 6.79970   1
  -2  -7  -8 25.3120 8.84174   3
  -2  -7  -8 43.6313 3.76088   2
  -2  -7  -8 36.3020 4.45215   2
   2  -7   8 26.2306 5.50720   4
   2   7   8 27.1101 9.21152   1
  -2   7  -8 48.3475 7.94038   2
  -2   7  -8 37.8140 10.5537   3
  -3  -7  -8 14.9973 8.59374   3
   3  -7   8 23.9906 10.5262   2
  -3  -7  -8 56.0709 5.37697   2
   3  -7   8 36.9174 12.2422   1
   3  -7   8 38.4337 11.3155   1
  -3  -7  -8 47.2242 5.50982   2
   3  -7   8 49.0472 11.1849   3
  -3   7  -8 52.2747 8.78923   2
  -3   7  -8 48.1022 17.5016   3
   3   7   8 47.2966 9.20005   1
   4  -7   8 418.218 38.3926   2
  -4  -7  -8 444.261 26.4102   2
   4  -7   8 415.200 34.6533   1
  -4  -7  -8 367.410 29.7842   3
   4  -7   8 416.599 34.0136   1
  -4  -7  -8 447.044 26.2884   2
   4  -7   8 403.072 30.1098   3
  -4   7  -8 487.361 28.9321   2
  -5  -7  -8 61.3831 7.93468   2
  -5  -7  -8 48.1694 7.70594   2
   5  -7   8 60.3022 12.8818   3
   5  -7   8 33.8408 13.4325   1
  -5   7  -8 49.9993 10.4176   2
  -6  -7  -8 38.5920 8.58204   2
  -6  -7  -8 32.6662 5.57385   4
  -6  -7  -8 14.5395 8.21317   2
   6  -7   8 25.9382 12.3304   3
  -6   7  -8 31.2670 12.6416   2
  -7  -7  -8 34.2472 5.58989   4
  -7  -7  -8 37.8245 10.0268   2
   7  -7   8 31.7103 14.6849   3
  -7   7  -8 32.5188 12.5180   2
   8  -7   8 -2.8200 13.0800   3
  -8  -7  -8 10.8507 10.6107   2
  -8   7  -8 -9.3935 12.8973   2
   9  -7   8 -3.5806 13.7962   3
  -9  -7  -8 -10.752 11.6141   2
  -9   7  -8 -7.3331 14.2775   2
  -9  -8   8 -3.7588 15.1875   2
  -9   8   8 -2.5447 21.2365   2
  -8  -8   8 23.0905 7.93307   3
   8  -8  -8 29.5000 9.08926   3
  -8   8   8 27.7662 11.0803   2
  -7  -8   8 28.6132 8.37062   3
  -7   8   8 4.98196 8.57235   2
   6  -8  -8 8.12316 16.1559   3
  -6  -8   8 -1.9769 8.02896   3
   6  -8  -8 12.6141 17.3814   1
  -6   8   8 4.25015 6.20013   2
   6   8  -8 2.95254 8.38680   3
   5  -8  -8 -3.5079 10.2722   3
   5  -8  -8 13.9732 13.5755   1
  -5  -8   8 4.23919 8.64767   3
  -5   8   8 -0.5256 3.95064   2
  -5   8   8 -6.9329 15.6765   1
   5   8  -8 -8.0410 8.55246   3
  -4  -8   8 37.2981 13.0306   1
  -4  -8   8 73.2085 9.62210   2
  -4  -8   8 61.2464 10.2328   3
   4  -8  -8 80.3422 14.4742   1
   4  -8  -8 80.5456 11.2302   3
  -4  -8   8 85.8359 11.4252   4
  -4   8   8 62.9478 16.4962   1
   4   8  -8 85.7843 11.9509   3
  -3  -8   8 118.763 16.1281   1
  -3  -8   8 127.786 12.5912   4
   3  -8  -8 131.380 18.2942   1
  -3  -8   8 100.235 12.5948   3
   3  -8  -8 119.874 12.9022   3
  -3  -8   8 132.800 14.3994   2
   3   8  -8 142.307 12.7169   2
   3   8  -8 138.223 13.9727   3
   3   8  -8 133.469 16.8013   1
  -3   8   8 91.3125 16.0267   1
  -2  -8   8 36.7828 8.43040   4
   2  -8  -8 28.0354 9.28201   1
  -2  -8   8 52.2416 12.2756   1
  -2  -8   8 50.1184 8.49353   2
   2  -8  -8 32.8168 9.26809   3
  -2  -8   8 34.0200 9.59477   3
   2   8  -8 45.5299 7.38445   2
  -2   8   8 40.0397 11.7133   1
   2   8  -8 75.4516 14.4142   1
   2   8  -8 50.9771 11.1575   3
  -1  -8   8 9.21546 9.11025   3
  -1  -8   8 6.90821 7.22948   4
  -1  -8   8 19.9907 9.93311   1
  -1  -8   8 0.71737 7.10708   2
   1  -8  -8 6.13239 7.08488   1
   1  -8  -8 13.5045 8.51203   3
  -1   8   8 17.3482 10.1811   1
   1   8  -8 17.9301 10.4065   3
   1   8  -8 6.32968 6.63300   2
   1   8  -8 7.07986 10.2977   1
   0  -8   8 1.36804 7.50329   2
   0  -8  -8 9.91763 6.91868   1
   0  -8   8 -10.299 9.47570   1
   0  -8   8 5.25137 9.34619   3
   0  -8   8 3.34807 6.43975   4
   0  -8  -8 6.95599 8.01397   3
   0   8  -8 2.06469 10.4924   1
   0   8   8 7.81622 9.52136   1
   0   8  -8 -6.7201 9.61195   3
   0   8  -8 3.03874 6.61794   2
   1  -8   8 122.772 12.0018   4
  -1  -8  -8 87.8459 12.0280   3
  -1  -8  -8 124.141 13.0140   1
   1  -8   8 82.8428 12.8936   3
   1  -8   8 150.664 17.2363   1
   1  -8   8 145.607 14.8430   2
  -1   8  -8 115.193 13.6770   3
  -1   8  -8 118.345 12.2495   2
   1   8   8 116.391 16.6238   1
  -2  -8  -8 239.314 13.6858   2
  -2  -8  -8 226.396 16.4293   1
   2  -8   8 223.149 18.3522   2
   2  -8   8 213.652 21.3520   3
   2  -8   8 259.671 29.1597   1
  -2  -8  -8 226.758 14.0914   2
   2  -8   8 203.076 23.8972   1
   2  -8   8 219.177 15.8157   4
  -2  -8  -8 223.498 25.1424   3
  -2   8  -8 228.102 17.9749   2
   2   8   8 197.739 19.2964   1
   3  -8   8 19.0186 12.4919   1
   3  -8   8 19.6678 18.2545   1
   3  -8   8 6.39743 10.5529   2
  -3  -8  -8 18.0274 4.80497   2
   3  -8   8 19.0437 4.90460   4
   3  -8   8 6.97539 10.2624   3
  -3  -8  -8 21.5845 4.54908   2
  -3   8  -8 22.0745 8.30814   2
   3   8   8 12.3509 6.96898   1
   4  -8   8 19.7976 11.4900   3
  -4  -8  -8 28.9930 6.09851   2
  -4  -8  -8 24.9189 6.01190   2
   4  -8   8 31.8508 13.3202   1
  -4   8  -8 19.0715 9.35667   2
   5  -8   8 22.5800 14.3069   1
   5  -8   8 19.2726 11.4523   3
  -5  -8  -8 18.9178 7.05858   2
  -5  -8  -8 5.34964 6.86296   2
  -5   8  -8 22.4077 10.6730   2
  -6  -8  -8 -3.9504 7.93595   2
  -6  -8  -8 -2.0757 5.52432   4
  -6  -8  -8 0.36436 7.84871   2
   6  -8   8 1.27161 13.4771   3
  -6   8  -8 0.40599 11.2687   2
   7  -8   8 68.9243 14.1574   3
  -7  -8  -8 62.1852 10.9500   2
  -7  -8  -8 95.3931 8.23015   4
  -7   8  -8 72.6077 14.3553   2
  -8  -8  -8 13.5818 10.8293   2
   8  -8   8 14.5834 12.8610   3
  -8   8  -8 14.8521 14.1219   2
   9  -8   8 -0.9308 13.5220   3
  -9  -8  -8 33.4241 12.5364   2
  -9   8  -8 19.3233 15.2322   2
   8  -9  -8 157.701 17.3694   3
  -8  -9   8 149.687 15.4875   3
  -8   9   8 98.2572 13.6133   2
  -7  -9   8 12.1489 8.38765   3
  -7   9   8 11.6110 8.26532   2
  -6  -9   8 13.5421 8.69698   3
   6   9  -8 6.65681 8.82576   3
  -6   9   8 1.45430 5.99119   2
  -5  -9   8 27.8036 9.69310   3
  -5  -9   8 -3.2274 17.8017   4
  -5   9   8 21.2425 4.54420   2
   5   9  -8 55.4977 10.5134   3
   4  -9  -8 408.992 35.0584   1
  -4  -9   8 412.675 29.1224   4
  -4  -9   8 409.280 28.8644   3
   4   9  -8 413.089 29.1856   3
  -3  -9   8 50.7650 10.6712   3
   3  -9  -8 44.9086 11.5133   1
  -3  -9   8 56.2018 10.1097   4
  -3  -9   8 33.5415 13.3106   1
  -3  -9   8 51.9774 9.68884   2
   3   9  -8 61.8766 9.01345   2
   3   9  -8 29.5814 11.3038   3
  -2  -9   8 30.5256 9.02440   4
  -2  -9   8 34.3046 10.6355   3
  -2  -9   8 31.3858 8.58749   2
   2  -9  -8 20.1482 9.36708   1
  -2  -9   8 24.1729 11.8600   1
   2   9  -8 45.9474 12.9822   3
   2   9  -8 35.1707 7.83681   2
  -2   9   8 17.3969 19.8588   1
   2   9  -8 24.5888 10.1032   1
  -1  -9   8 137.199 12.6507   2
  -1  -9   8 124.076 14.0880   3
  -1  -9   8 143.462 14.9290   4
  -1  -9   8 149.049 17.6227   1
   1  -9  -8 137.284 16.0612   1
   1   9  -8 168.724 21.7715   1
  -1   9   8 117.853 17.5301   1
   1   9  -8 171.839 13.8019   2
   0  -9  -8 3.07514 6.83091   1
   0  -9   8 1.72766 10.0572   3
   0  -9   8 -13.738 8.00503   2
   0  -9   8 6.77156 6.91213   4
   0  -9   8 -2.4359 11.8663   1
   0   9   8 -7.5571 10.6904   1
   0   9  -8 -3.3475 7.29291   2
   1  -9   8 224.281 24.5873   1
  -1  -9  -8 199.826 11.9101   2
   1  -9   8 215.767 24.6940   1
  -1  -9  -8 205.701 16.8156   1
   1  -9   8 194.384 20.8004   3
   1  -9   8 195.094 17.4205   2
   1  -9   8 211.590 16.0361   4
  -1  -9  -8 199.125 11.7874   2
  -1   9  -8 219.452 16.5392   2
   1   9   8 190.915 22.4359   1
   2  -9   8 38.0553 12.7926   2
   2  -9   8 35.7335 14.1934   1
  -2  -9  -8 66.8260 6.18668   2
  -2  -9  -8 70.8956 9.44030   1
   2  -9   8 50.9190 7.34425   4
   2  -9   8 52.5817 11.9039   1
  -2  -9  -8 60.8525 5.36516   2
   2  -9   8 47.1106 11.6593   3
   2   9   8 36.9015 10.3836   1
  -2   9  -8 53.8932 9.20988   2
   3  -9   8 20.5367 11.0500   1
   3  -9   8 12.6793 22.5535   1
   3  -9   8 5.97332 10.7757   3
   3  -9   8 10.4889 5.61278   4
  -3  -9  -8 16.1221 4.56232   2
  -3  -9  -8 19.5181 5.04656   2
  -3   9  -8 19.3626 9.33989   2
   4  -9   8 7.08301 10.8732   3
   4  -9   8 19.9010 14.1594   1
  -4  -9  -8 1.82853 5.56670   2
  -4  -9  -8 -3.2891 5.65373   2
   4  -9   8 -6.1764 4.32106   4
  -4   9  -8 -4.5602 9.69928   2
  -5  -9  -8 16.0861 7.16348   2
  -5  -9  -8 7.30883 6.89517   2
   5  -9   8 7.85021 15.3625   1
  -5   9  -8 4.54342 10.9791   2
   6  -9   8 225.417 25.7081   3
  -6  -9  -8 264.530 18.1756   4
  -6  -9  -8 228.585 22.3335   2
  -6  -9  -8 276.217 20.2392   2
  -6   9  -8 228.311 24.5052   2
  -7  -9  -8 397.074 24.5060   4
   7  -9   8 342.431 30.8777   3
  -7  -9  -8 391.723 28.0523   2
  -7   9  -8 362.001 29.9451   2
  -8  -9  -8 13.8079 10.7083   2
   8  -9   8 21.8321 13.4675   3
  -8   9  -8 30.9945 14.6258   2
   9  -9   8 36.8678 14.5879   3
  -9  -9  -8 26.9723 13.0175   2
  -9   9  -8 34.7072 16.8357   2
   7 -10  -8 1.45986 11.8713   3
  -7 -10   8 8.41879 8.88291   3
  -7  10   8 9.27802 8.23609   2
  -6 -10   8 185.236 17.9310   4
  -6 -10   8 179.833 18.9673   3
  -6  10   8 195.865 14.5413   2
  -5 -10   8 103.896 13.1531   4
  -5 -10   8 84.1838 11.6158   3
  -5  10   8 86.7418 8.57160   2
  -4 -10   8 37.2356 10.3136   3
  -4 -10   8 39.7420 11.0971   4
  -3 -10   8 220.449 20.6303   3
  -3 -10   8 184.326 19.5900   4
   3  10  -8 205.716 18.0010   2
  -2 -10   8 130.057 14.0449   3
  -2 -10   8 111.470 12.2449   4
   2  10  -8 135.814 14.8558   2
  -1 -10   8 7.22464 10.3043   3
  -1 -10   8 7.38493 11.7209   1
  -1 -10   8 7.77379 8.27811   4
   1  10  -8 17.1461 17.9244   1
   1  10  -8 13.8946 7.99683   2
   0 -10   8 369.765 23.8723   4
   0 -10   8 355.093 27.2592   3
   0 -10   8 294.729 30.4336   1
   0  10  -8 370.325 23.9102   2
  -1 -10  -8 25.3683 5.04010   2
   1 -10   8 3.57609 13.8397   1
   1 -10   8 21.5416 11.4729   3
   1 -10   8 35.8565 14.7960   1
  -1 -10  -8 19.0958 12.4378   1
  -1 -10  -8 30.8762 3.11166   2
   1 -10   8 24.1400 7.55273   4
  -1  10  -8 23.2306 8.47744   2
   2 -10   8 36.5146 7.18837   4
  -2 -10  -8 40.2711 4.91499   2
   2 -10   8 44.6927 13.8684   1
  -2 -10  -8 61.3821 6.38079   2
   2 -10   8 21.2091 12.4523   1
  -2 -10  -8 33.0711 6.06229   1
   2 -10   8 36.9211 11.7156   3
  -2  10  -8 42.8921 9.44593   2
   3 -10   8 199.488 23.4156   3
   3 -10   8 230.010 29.0192   1
  -3 -10  -8 242.692 16.2468   2
   3 -10   8 239.219 28.3720   1
   3 -10   8 253.510 17.1995   4
  -3  10  -8 253.587 20.0827   2
  -4 -10  -8 274.447 18.0814   2
   4 -10   8 287.006 30.3794   1
  -4 -10  -8 250.524 18.1036   2
   4 -10   8 217.775 29.1833   3
   4 -10   8 253.677 17.3005   4
   5 -10   8 -8.4114 12.1191   3
  -5 -10  -8 6.93364 7.14771   2
  -5 -10  -8 3.19267 6.97118   2
   5 -10   8 23.9910 16.6059   1
  -5  10  -8 1.02802 11.0809   2
   6 -10   8 30.4013 13.3466   3
  -6 -10  -8 36.4381 9.16812   2
  -6 -10  -8 33.1594 7.72435   4
  -6  10  -8 18.1680 12.7773   2
   7 -10   8 215.114 25.1497   3
  -7 -10  -8 206.542 17.1864   4
  -7  10  -8 211.144 20.5682   2
  -8 -10  -8 -5.4781 10.6641   2
   8 -10   8 -4.5404 13.1513   3
  -8  10  -8 -18.904 14.8647   2
   8 -11  -8 9.35890 10.8940   3
   7 -11  -8 378.376 26.1006   3
  -7 -11   8 254.316 23.8676   3
  -6 -11   8 13.3802 12.0625   4
  -6 -11   8 11.9580 9.96876   3
  -6  11   8 16.9411 6.36301   2
  -5 -11   8 11.6825 10.1961   3
  -5 -11   8 12.2507 10.8788   4
  -5  11   8 22.8063 4.64531   2
  -4 -11   8 217.110 21.0188   3
  -4 -11   8 208.662 20.6507   4
  -3 -11   8 173.652 20.1592   3
  -3 -11   8 174.157 19.6067   4
   3  11  -8 204.173 17.5468   2
  -2 -11   8 642.979 43.6988   3
  -2 -11   8 650.920 42.3354   4
   2  11  -8 760.360 41.9470   2
  -1 -11   8 13.9022 9.06326   4
  -1 -11   8 4.19650 10.9891   3
   1  11  -8 16.2967 8.71380   2
   0 -11   8 481.002 32.3073   4
   0 -11   8 509.074 40.2633   1
   0 -11   8 515.543 35.4603   3
   0  11  -8 531.314 32.9662   2
   1 -11   8 376.147 25.1325   4
   1 -11   8 358.362 31.3436   3
  -1 -11  -8 369.262 21.7547   2
   1 -11   8 374.017 34.3675   1
  -1  11  -8 395.759 25.9268   2
   2 -11   8 225.926 32.2322   1
   2 -11   8 214.589 29.2062   3
   2 -11   8 249.411 18.7687   4
   2 -11   8 211.000 29.5250   1
  -2 -11  -8 248.727 16.2401   2
  -2 -11  -8 273.030 15.9074   2
  -2  11  -8 263.118 21.3985   2
   3 -11   8 9.04819 11.9408   3
   3 -11   8 6.73824 6.58802   4
  -3 -11  -8 2.28639 5.23398   2
  -3 -11  -8 10.7304 5.08087   2
  -3  11  -8 -2.4307 15.1074   2
  -4 -11  -8 9.57456 6.39763   2
   4 -11   8 2.60825 6.03639   4
   4 -11   8 -0.8128 11.9369   3
  -4 -11  -8 14.1193 6.25659   2
  -4  11  -8 4.41502 11.2743   2
   5 -11   8 432.656 27.3006   4
  -5 -11  -8 446.106 29.3210   2
   5 -11   8 481.670 34.6161   3
  -5  11  -8 502.158 33.8709   2
  -6 -11  -8 9.81313 8.12496   4
   6 -11   8 12.8613 12.7580   3
  -6 -11  -8 2.59716 8.72520   2
  -6  11  -8 2.41944 13.4324   2
  -7 -11  -8 13.3372 8.14341   4
   7 -11   8 -7.9683 13.3575   3
  -7 -11  -8 5.22218 10.0708   2
  -7  11  -8 4.35303 14.6351   2
  -8 -11  -8 71.4092 12.6790   2
   8 -11   8 47.2633 15.5528   3
  -8  11  -8 47.2676 16.9076   2
   8 -12  -8 60.7767 13.0292   3
  -7 -12   8 7.03916 12.5448   4
   7 -12  -8 -3.4385 11.7422   3
  -7 -12   8 11.7963 10.0382   3
  -6 -12   8 157.692 23.9468   3
  -6 -12   8 154.428 17.2055   4
   6 -12  -8 201.091 21.6498   3
  -5 -12   8 8.78136 11.1744   4
  -5  12   8 2.31546 6.88568   2
  -4 -12   8 -9.2858 10.7897   4
   4  12  -8 6.12580 9.45772   2
  -3 -12   8 87.1121 18.7178   4
   3  12  -8 93.6300 11.7692   2
  -2 -12   8 254.991 21.8494   4
  -1 -12   8 -23.931 15.3199   1
  -1 -12   8 9.94967 9.49774   4
  -1 -12   8 -5.0254 12.5160   3
   0 -12   8 121.162 15.4142   3
   0 -12  -8 116.543 7.62563   2
   0 -12   8 105.910 11.6988   4
   0 -12   8 72.3944 16.4019   1
   1 -12   8 105.838 14.9116   3
  -1 -12  -8 98.1724 7.91148   2
   1 -12   8 82.7604 10.4481   4
  -1 -12  -8 83.0646 8.23390   2
   1 -12   8 112.298 19.0220   1
   2 -12   8 7.53034 15.8687   1
  -2 -12  -8 1.28807 4.43288   2
  -2 -12  -8 -3.1184 4.62301   2
   2 -12   8 11.8710 12.1565   3
   2 -12   8 -3.8234 7.62429   4
  -2  12  -8 5.66744 10.3280   2
  -3 -12  -8 6.75605 5.55806   2
   3 -12   8 -2.2098 12.0310   3
  -3 -12  -8 9.89481 5.85109   2
   3 -12   8 7.70354 7.21875   4
  -3  12  -8 6.63228 10.8871   2
   4 -12   8 15.9001 7.17566   4
   4 -12   8 14.9022 12.7234   3
  -4 -12  -8 16.6396 6.95520   2
  -4  12  -8 30.1176 11.9471   2
  -5 -12  -8 24.6104 8.48288   2
   5 -12   8 18.3579 10.4792   4
   5 -12   8 8.18409 13.8666   3
  -5  12  -8 24.9919 12.8873   2
  -6 -12  -8 8.46627 8.97870   4
  -6 -12  -8 -7.9507 8.86388   2
   6 -12   8 -7.3392 13.1769   3
  -6  12  -8 22.0933 14.1365   2
  -7 -12  -8 12.4724 10.3346   4
  -7 -12  -8 1.35090 10.1566   2
   7 -12   8 2.70244 14.3173   3
  -7  12  -8 29.3811 15.1452   2
  -7 -13   8 39.8718 11.5093   3
  -7 -13   8 49.6931 14.3834   4
   7 -13  -8 66.8806 13.9717   3
  -6 -13   8 2.73941 12.5763   4
  -6 -13   8 3.88373 10.8143   3
   6 -13  -8 14.0237 13.2380   3
   5 -13  -8 36.7683 13.1071   3
  -5 -13   8 30.7823 12.8720   4
  -5 -13   8 9.32007 11.0157   3
  -4 -13   8 7.37591 10.8552   3
  -4 -13   8 1.57692 11.4829   4
   4  13  -8 14.7537 10.2338   2
  -3 -13   8 32.8068 12.2413   3
  -3 -13   8 32.5172 11.0555   4
   3  13  -8 30.7904 10.7004   2
  -2 -13   8 4.45066 14.8523   4
  -2 -13   8 10.2385 11.7706   3
   2  13  -8 26.9944 10.6883   2
  -1 -13   8 38.4559 10.3852   4
   1 -13  -8 48.0248 5.23972   2
  -1 -13   8 52.9113 12.9113   3
   1  13  -8 69.3808 10.8881   2
   0 -13   8 42.0885 10.1919   4
   0 -13  -8 38.8388 4.46947   2
   0 -13   8 26.9869 12.5334   3
   0  13  -8 55.6678 11.0254   2
   1 -13   8 12.8641 12.3555   3
   1 -13   8 -8.8139 20.6679   1
  -1 -13  -8 15.2569 4.55515   2
   1 -13   8 12.9790 9.08591   4
  -1 -13  -8 11.2411 4.36115   2
  -1  13  -8 15.5319 10.3336   2
  -2 -13  -8 34.2170 5.98866   2
   2 -13   8 32.5986 25.3666   1
   2 -13   8 41.4749 9.30024   4
   2 -13   8 60.9952 14.3973   3
  -2  13  -8 47.5689 11.7458   2
   3 -13   8 16.5715 13.7707   3
  -3 -13  -8 14.8380 6.24264   2
   3 -13   8 14.0278 8.00478   4
  -3  13  -8 5.08362 11.4524   2
  -4 -13  -8 -6.4444 6.96115   2
   4 -13   8 -1.0100 7.34733   4
   4 -13   8 16.1668 13.9977   3
  -4  13  -8 -4.7504 12.7713   2
  -5 -13  -8 -3.4122 8.17441   2
   5 -13   8 0.17992 13.5418   3
  -5  13  -8 19.8591 14.2370   2
  -6 -13  -8 67.8322 11.2022   4
   6 -13   8 95.5059 16.9956   3
  -6 -13  -8 53.7210 20.4427   2
  -6  13  -8 58.0822 16.1674   2
  -7 -13  -8 18.9529 11.1634   4
  -7 -13  -8 -25.971 10.1052   2
   7 -13   8 17.4047 15.6972   3
  -7  13  -8 -1.8422 16.4532   2
  -7 -14   8 11.3159 14.4764   4
   7 -14  -8 -3.9954 13.8648   3
  -7 -14   8 -0.3795 10.5729   3
  -6 -14   8 38.3675 14.0384   4
  -6 -14   8 31.7831 12.4111   3
   6 -14  -8 37.4406 13.9955   3
   5 -14  -8 28.6626 14.3178   3
  -5 -14   8 34.2930 12.9627   4
  -5 -14   8 24.8288 11.9206   3
   4 -14  -8 98.9761 16.1137   3
  -4 -14   8 71.7783 13.4872   4
  -4 -14   8 108.982 14.5782   3
   4  14  -8 87.7394 13.1822   2
  -3 -14   8 135.981 15.3497   4
  -3 -14   8 97.2076 15.1787   3
   3  14  -8 157.287 15.2069   2
  -2 -14   8 20.9697 10.9722   4
  -2 -14   8 6.69460 12.2918   3
   2  14  -8 16.2589 10.7881   2
  -1 -14   8 47.7231 13.4264   3
  -1 -14   8 29.6210 11.1040   4
   1  14  -8 30.3277 11.5842   2
   0 -14   8 13.1204 9.80679   4
   0 -14   8 29.5767 13.5029   3
   0  14  -8 24.3983 10.9337   2
   1 -14   8 58.5585 10.6961   4
   1 -14   8 71.5246 14.9731   3
  -1  14  -8 73.4616 12.6140   2
   2 -14   8 83.4967 10.9738   4
   2 -14   8 89.3188 15.4929   3
  -2 -14  -8 73.0450 7.91318   2
  -2  14  -8 89.2505 13.4502   2
  -3 -14  -8 0.58284 6.51370   2
   3 -14   8 -4.1029 13.4507   3
   3 -14   8 -3.2205 8.68417   4
  -3  14  -8 6.65436 12.4189   2
   4 -14   8 53.8168 15.2171   3
   4 -14   8 56.4956 9.42925   4
  -4 -14  -8 43.4466 8.55523   2
  -4  14  -8 59.8770 14.5205   2
   5 -14   8 4.86062 14.5254   3
  -5 -14  -8 1.99247 8.68352   2
  -5  14  -8 0.63555 14.0388   2
  -6 -14  -8 54.8611 10.8164   2
  -6 -14  -8 40.5477 11.1263   4
   6 -14   8 23.5116 15.0070   3
  -6  14  -8 8.81012 15.9694   2
  -6 -15   8 9.01656 14.0332   4
  -6 -15   8 27.7410 12.2936   3
   6 -15  -8 38.1229 15.6157   3
   5 -15  -8 18.1208 14.6846   3
  -5 -15   8 27.9536 12.9138   3
  -5 -15   8 37.1347 14.1240   4
  -4 -15   8 15.4756 11.8905   3
  -4 -15   8 -3.8564 12.5561   4
   4 -15  -8 -1.2202 14.6249   3
  -3 -15   8 29.1351 11.9593   4
   3 -15  -8 28.2254 14.2442   3
  -3 -15   8 22.3474 12.9210   3
   3  15  -8 2.87546 11.3591   2
  -2 -15   8 16.3859 11.9005   4
  -2 -15   8 14.5274 12.7105   3
   2  15  -8 21.0249 12.2706   2
  -1 -15   8 73.2570 12.3979   4
  -1 -15   8 83.4968 15.4107   3
   1  15  -8 76.4312 13.1739   2
   0 -15   8 99.7117 13.3429   4
   0 -15   8 89.2730 15.7717   3
   0  15  -8 102.408 13.8906   2
   1 -15   8 -0.8657 13.9167   3
  -1  15  -8 1.04732 11.8971   2
   2 -15   8 19.9054 14.1980   3
  -2 -15  -8 4.97969 6.18824   2
   2 -15   8 4.22074 9.83692   4
  -2  15  -8 23.6527 12.6560   2
   3 -15   8 -3.5628 9.50344   4
  -3 -15  -8 -13.593 6.67600   2
   3 -15   8 -16.143 14.9806   3
  -3  15  -8 -19.109 13.2197   2
   4 -15   8 63.3797 13.6170   4
  -4 -15  -8 54.1484 10.1693   2
   4 -15   8 47.1840 16.8971   3
  -4  15  -8 21.4957 14.8847   2
  -5 -15  -8 23.6873 13.0640   3
   5 -15   8 24.5618 15.3872   3
  -5  15  -8 51.7918 16.4309   2
   5 -16  -8 12.5955 15.6820   3
  -5 -16   8 15.6145 13.2284   3
  -5 -16   8 -6.0302 13.1754   4
  -4 -16   8 -9.7600 13.0225   4
   4 -16  -8 -4.8168 14.4513   3
  -4 -16   8 -15.361 12.6372   3
   3 -16  -8 2.31918 15.4856   3
  -3 -16   8 5.52409 13.8369   3
  -3 -16   8 -12.589 12.4617   4
   3  16  -8 7.89775 12.4108   2
  -2 -16   8 -7.9568 11.5227   4
  -2 -16   8 11.4786 13.9595   3
   2 -16  -8 19.9298 15.6148   3
   2  16  -8 0.59346 11.9901   2
   1 -16  -8 -2.1728 14.5013   3
  -1 -16   8 1.77418 11.5411   4
  -1 -16   8 -12.426 13.3363   3
   1  16  -8 8.40767 11.9449   2
   0 -16  -8 4.17824 13.9102   3
   0 -16   8 -17.871 11.2212   4
   0 -16   8 -5.1002 13.6103   3
   0  16  -8 -11.008 11.7688   2
   1 -16   8 55.9524 15.5819   3
   1 -16   8 49.2392 12.2708   4
  -1  16  -8 57.7877 13.9700   2
   2 -16   8 13.7892 10.8733   4
   2 -16   8 -10.099 15.0204   3
  -2 -16  -8 8.40701 13.7689   3
  -2  16  -8 -0.7927 13.1717   2
  -3 -16  -8 -19.890 13.6308   3
   3 -16   8 -9.5204 15.3290   3
   3 -16   8 -8.2666 10.4754   4
  -3  16  -8 -21.764 13.3392   2
   4 -16   8 165.174 20.6048   3
  -4 -16  -8 111.607 17.4226   3
  -4  16  -8 161.818 19.0307   2
  -5 -16  -8 16.1249 13.7036   3
   5 -16   8 11.4028 17.0357   3
   4 -17  -8 97.4555 19.4330   3
  -4 -17   8 115.520 17.1428   3
  -4 -17   8 87.8536 16.0451   4
  -3 -17   8 3.34711 13.7330   4
   3 -17  -8 13.6938 15.8478   3
  -3 -17   8 -18.485 13.8651   3
   3  17  -8 10.4960 13.0845   2
  -2 -17   8 19.4099 14.9997   3
  -2 -17   8 23.8102 12.6366   4
   2 -17  -8 1.03898 15.4017   3
   2  17  -8 9.09177 13.4801   2
  -1 -17   8 48.7703 15.4491   3
   1 -17  -8 29.6055 16.4485   3
  -1 -17   8 55.2413 13.7366   4
   1  17  -8 55.9926 14.3802   2
   0 -17   8 9.73752 12.7082   4
   0 -17  -8 9.88375 14.7021   3
   0 -17   8 -12.226 14.2748   3
   0  17  -8 13.1876 13.4188   2
   1 -17   8 13.1272 15.0623   3
  -1 -17  -8 18.9966 15.4837   3
   1 -17   8 -9.0516 11.7002   4
  -1  17  -8 5.55097 13.5723   2
   2 -17   8 52.6484 17.7169   3
  -2 -17  -8 30.4437 15.9045   3
   2 -17   8 53.2831 12.4962   4
  -2  17  -8 54.0280 15.8464   2
   3 -17   8 14.8811 12.5650   4
   3 -17   8 7.43263 16.6010   3
  -3 -17  -8 29.1532 15.5139   3
  -3  17  -8 23.7345 15.5022   2
  -2 -18   8 9.77640 13.1962   4
  -2 -18   8 24.9002 16.2896   3
   2 -18  -8 15.0508 16.9740   3
  -1 -18   8 6.01424 13.4347   4
  -1 -18   8 -2.6918 15.5028   3
   1 -18  -8 -4.2919 15.9507   3
   1  18  -8 8.55796 14.5982   2
   0 -18   8 172.300 18.4674   4
   0 -18  -8 165.156 21.6444   3
   0 -18   8 162.190 20.8450   3
   0  18  -8 149.920 19.0389   2
  -1 -18  -8 -8.2428 16.5586   3
   1 -18   8 -2.2339 15.8687   3
   1 -18   8 -11.226 12.6762   4
  -1  18  -8 -1.5630 14.3641   2
 -10   0   9 4.69447 17.0729   2
  -9   0   9 534.467 42.1165   2
  -8   0   9 8.25286 13.0950   2
  -7   0   9 22.8783 7.90515   2
  -7   0   9 30.1608 9.42094   3
  -7   0   9 51.8359 11.8920   2
   7   0  -9 30.4548 8.96547   3
  -6   0   9 330.965 24.7063   2
   6   0  -9 316.655 31.8330   1
  -6   0   9 315.491 21.3508   2
   6   0  -9 325.131 24.9112   3
  -6   0   9 317.715 33.9456   1
  -6   0   9 361.006 25.5188   3
  -5   0   9 656.251 38.1571   2
   5   0  -9 576.338 44.9343   1
  -5   0   9 535.835 45.9190   1
  -5   0   9 639.805 40.0318   3
   5   0  -9 668.919 39.6483   3
  -4   0   9 702.029 52.7645   1
   4   0  -9 830.147 47.8877   4
   4   0  -9 818.225 47.9991   3
  -4   0   9 807.664 45.6612   2
   4   0  -9 759.621 51.9579   1
  -4   0   9 832.300 48.8585   3
  -4   0   9 712.901 44.4451   2
   3   0  -9 11.7936 10.6501   1
  -3   0   9 9.95370 3.75241   2
   3   0  -9 4.32233 7.42134   4
   3   0  -9 14.4514 8.96540   3
  -3   0   9 13.8704 11.5237   1
  -3   0   9 9.21743 10.5527   3
  -2   0   9 803.179 48.5261   3
   2   0  -9 809.876 47.1450   3
  -2   0   9 735.519 43.4425   2
  -2   0   9 754.545 50.9998   1
   2   0  -9 700.419 48.9558   1
   2   0  -9 802.634 45.7850   4
   1   0  -9 1353.89 85.4628   1
   1   0  -9 1425.72 83.7494   3
   1   0  -9 1456.00 82.5262   4
  -1   0   9 1445.01 87.4315   1
  -1   0   9 1451.55 81.2915   2
  -1   0   9 1533.82 84.8448   3
   0   0   9 209.734 21.7153   3
   0   0   9 205.079 13.7811   2
   0   0  -9 142.579 16.5420   4
   0   0  -9 197.459 19.2222   1
   0   0   9 183.421 22.3365   1
   0   0  -9 199.408 17.4935   3
   0   0  -9 178.324 11.5365   2
  -1   0  -9 -1.1028 3.06298   2
  -1   0  -9 -1.5460 6.92024   1
   1   0   9 1.49180 6.22297   2
   1   0   9 14.0476 11.4947   3
  -1   0  -9 0.45923 8.50066   3
   1   0   9 -1.0773 9.99986   1
  -1   0  -9 -5.2896 4.44780   4
   2   0   9 -10.765 8.58649   1
  -2   0  -9 -1.0304 9.06359   3
   2   0   9 16.0053 7.85654   2
  -2   0  -9 3.64910 6.58937   1
  -2   0  -9 5.74711 3.48210   4
  -2   0  -9 6.17717 4.00009   2
   2   0   9 5.80137 12.2784   3
  -3   0  -9 752.879 45.9646   2
  -3   0  -9 813.518 48.9188   3
   3   0   9 842.695 52.0782   3
   3   0   9 900.073 48.5186   2
   3   0   9 708.779 51.1619   1
   4   0   9 39.3329 10.2638   1
  -4   0  -9 49.2473 6.99201   2
  -4   0  -9 66.3069 11.3814   3
   4   0   9 46.0206 12.0216   2
   4   0   9 31.3172 11.8214   1
   4   0   9 33.5496 15.3272   3
  -5   0  -9 1.92323 6.83686   2
  -5   0  -9 -3.9709 11.4036   3
   5   0   9 15.1007 13.5796   2
   5   0   9 -0.7700 14.7395   3
  -6   0  -9 800.448 47.8020   2
   6   0   9 790.856 53.7080   3
  -7   0  -9 61.8968 11.2118   2
   7   0   9 110.896 18.9325   3
  -8   0  -9 23.5000 11.6698   2
   8   0   9 25.6250 17.3599   3
   9   0   9 371.024 33.6636   3
  -9   0  -9 358.019 29.9491   2
 -10   0  -9 48.6185 14.3022   2
 -10  -1   9 21.7874 17.0442   2
 -10   1   9 15.2260 17.2999   2
  -9   1   9 55.7203 16.4717   2
  -8  -1   9 21.7606 13.3687   2
  -8   1   9 9.85676 13.0673   2
   7  -1  -9 168.750 17.2301   3
  -7  -1   9 131.512 14.5473   2
  -7  -1   9 136.440 14.9304   2
  -7  -1   9 141.741 16.8434   3
   7   1  -9 152.334 16.4856   3
  -7   1   9 128.472 13.9405   2
  -7   1   9 126.206 14.7048   2
  -6  -1   9 134.546 13.2477   3
  -6  -1   9 110.778 19.6419   1
   6  -1  -9 64.1148 14.5115   1
  -6  -1   9 106.114 9.93948   2
  -6  -1   9 114.198 12.6596   2
   6  -1  -9 119.510 12.4594   3
  -6   1   9 117.177 11.6810   2
  -6   1   9 126.553 12.5246   2
  -6   1   9 181.546 17.9925   3
  -6   1   9 81.5596 18.4690   1
   6   1  -9 120.454 12.7504   3
  -5  -1   9 107.825 10.7753   2
  -5  -1   9 102.246 13.4700   3
  -5  -1   9 54.7977 15.7545   1
   5  -1  -9 109.630 12.4680   3
  -5  -1   9 121.457 11.5039   2
   5  -1  -9 74.1466 14.3696   1
  -5   1   9 114.034 9.82518   2
  -5   1   9 139.176 19.5969   1
   5   1  -9 117.240 12.3694   3
   4  -1  -9 179.700 23.6584   1
  -4  -1   9 221.063 21.2565   3
   4  -1  -9 222.144 18.5511   4
  -4  -1   9 192.808 14.2673   2
   4  -1  -9 219.464 19.4120   3
  -4  -1   9 183.814 25.9747   1
  -4   1   9 190.161 26.6349   1
   4   1  -9 166.379 23.7277   1
   4   1  -9 249.373 20.0952   4
  -4   1   9 268.069 22.1374   3
   4   1  -9 240.868 20.1819   3
  -4   1   9 240.646 15.8162   2
  -4   1   9 188.824 13.3401   2
   3  -1  -9 25.6219 10.7012   1
  -3  -1   9 9.97122 11.2524   1
   3  -1  -9 14.4434 8.77414   3
  -3  -1   9 18.9250 4.47067   2
   3  -1  -9 13.1462 7.73851   4
  -3  -1   9 25.6562 10.6191   3
   3   1  -9 21.0838 8.03991   4
   3   1  -9 31.3153 9.62627   3
   3   1  -9 21.8160 11.0770   1
  -3   1   9 40.9224 12.9077   1
  -3   1   9 14.2603 3.36264   2
  -3   1   9 18.9895 11.0373   3
   2  -1  -9 1081.94 68.1534   1
   2  -1  -9 1113.27 65.9584   3
  -2  -1   9 1109.79 63.2271   2
   2  -1  -9 1135.55 64.9029   4
  -2  -1   9 1275.47 67.3163   3
  -2  -1   9 1112.46 69.7036   1
   2   1  -9 1197.05 64.9826   4
  -2   1   9 1064.35 62.7198   2
   2   1  -9 1195.08 66.4105   3
  -2   1   9 1069.09 62.7660   2
   2   1  -9 1074.85 68.4154   1
  -2   1   9 1011.94 69.7875   1
  -2   1   9 1120.11 66.8782   3
   1  -1  -9 119.787 16.3135   1
  -1  -1   9 122.287 9.48717   2
  -1  -1   9 88.2925 13.2863   1
   1  -1  -9 110.596 11.8514   4
   1  -1  -9 100.572 11.5009   3
  -1  -1   9 101.008 13.7239   3
  -1   1   9 96.5931 14.4437   3
   1   1  -9 111.341 8.16081   2
   1   1  -9 102.811 12.0772   3
   1   1  -9 118.296 12.2285   4
  -1   1   9 95.3792 14.7283   1
  -1   1   9 95.9122 7.25234   2
   1   1  -9 88.9130 12.1908   1
   0  -1  -9 5.28145 2.03558   2
   0  -1  -9 9.06267 6.11681   4
   0  -1   9 1.91762 5.34612   2
   0  -1   9 6.07086 10.0763   1
   0  -1   9 11.6691 11.0697   3
   0  -1  -9 3.45865 7.44551   1
   0  -1  -9 -6.6956 8.05116   3
   0   1   9 6.84990 10.0575   1
   0   1  -9 5.59710 3.22141   2
   0   1   9 1.98201 4.02714   2
   0   1  -9 2.14742 7.25355   1
   0   1  -9 7.96621 8.63640   3
   0   1  -9 15.8068 6.35246   4
   0   1   9 2.54524 11.7887   3
  -1  -1  -9 147.643 15.1663   3
   1  -1   9 145.364 13.3478   2
  -1  -1  -9 125.407 11.0279   4
   1  -1   9 137.544 15.4438   3
  -1  -1  -9 129.201 15.6533   1
   1  -1   9 157.687 20.2879   1
  -1  -1  -9 122.294 8.81905   2
   1   1   9 132.299 15.8311   1
  -1   1  -9 136.653 16.8630   1
  -1   1  -9 129.585 10.6394   4
   1   1   9 142.829 11.8107   2
  -1   1  -9 131.077 9.82344   2
   1   1   9 122.115 15.9556   3
  -1   1  -9 139.003 13.9965   3
   2  -1   9 639.292 40.2063   3
  -2  -1  -9 570.041 37.1396   3
   2  -1   9 551.899 39.6687   1
  -2  -1  -9 589.585 33.9679   4
   2  -1   9 564.149 36.5205   2
  -2  -1  -9 569.304 33.7923   2
  -2  -1  -9 592.192 37.9653   1
   2   1   9 657.193 41.4320   1
  -2   1  -9 606.481 38.0980   3
  -2   1  -9 579.884 34.1893   2
   2   1   9 633.799 35.8571   2
  -2   1  -9 543.764 38.3074   1
   2   1   9 568.652 40.1215   3
   3  -1   9 1.85317 10.0259   1
   3  -1   9 15.5801 12.4629   3
  -3  -1  -9 12.8445 4.71402   2
  -3  -1  -9 8.25247 9.47326   3
   3  -1   9 26.8605 9.54173   2
   3   1   9 11.8639 9.92508   1
   3   1   9 27.7736 14.9726   3
  -3   1  -9 19.0825 10.1418   3
  -3   1  -9 19.2869 5.51407   2
   4  -1   9 4.41244 10.8239   2
   4  -1   9 2.10244 11.0550   1
   4  -1   9 27.8990 8.65334   1
   4  -1   9 18.6119 13.2738   3
  -4  -1  -9 21.9444 9.56471   3
  -4  -1  -9 15.9621 5.92127   2
  -4   1  -9 16.9265 6.43657   2
   4   1   9 33.9708 15.7153   3
  -4   1  -9 5.85526 9.72280   3
   4   1   9 9.13845 8.34445   1
   4   1   9 14.6151 12.4673   1
  -5  -1  -9 151.216 18.9766   3
   5  -1   9 159.312 17.9757   2
  -5  -1  -9 187.217 15.3061   2
   5  -1   9 194.237 20.8245   3
  -5   1  -9 148.898 15.4388   2
   5   1   9 182.278 21.4176   3
  -6  -1  -9 46.5213 9.16293   2
   6   1   9 54.9241 18.2928   3
  -7  -1  -9 117.421 13.5527   2
   7  -1   9 158.295 21.0393   3
   7   1   9 131.491 20.7764   3
  -7   1  -9 139.996 14.0776   2
  -8  -1  -9 27.3727 11.1580   2
   8  -1   9 29.4901 17.9619   3
  -8   1  -9 43.8532 11.8465   2
   8   1   9 77.4392 18.4200   3
  -9  -1  -9 6.40515 12.1721   2
  -9   1  -9 23.5659 12.4855   2
   9   1   9 6.69227 16.0684   3
 -10  -1  -9 57.3502 15.0236   2
 -10   1  -9 16.0790 14.3493   2
 -10  -2   9 69.1680 18.3950   2
 -10   2   9 37.6482 17.3483   2
  -9  -2   9 17.9110 15.1174   2
  -9   2   9 30.4183 15.3239   2
  -8  -2   9 -16.388 12.4902   2
  -8   2   9 -4.7746 12.4312   2
  -7  -2   9 11.8737 9.13825   3
  -7  -2   9 29.0506 8.52887   2
   7  -2  -9 30.7339 9.24908   3
  -7  -2   9 24.5631 11.5666   2
  -7   2   9 35.0059 11.3030   2
  -7   2   9 17.1838 6.91204   2
   7   2  -9 12.0257 8.27526   3
   6  -2  -9 -2.9404 8.75129   3
   6  -2  -9 3.16873 13.2940   1
  -6  -2   9 40.8789 10.5025   2
  -6  -2   9 13.3483 7.08314   2
  -6  -2   9 23.2748 17.2084   1
  -6   2   9 17.3450 9.09021   2
  -6   2   9 -5.6471 5.68805   2
  -6   2   9 33.7109 16.8094   1
   6   2  -9 42.0670 9.39245   3
  -5  -2   9 26.6634 10.6297   3
   5  -2  -9 5.81279 12.5028   1
   5  -2  -9 6.80228 9.12844   3
  -5  -2   9 37.0960 15.2179   1
  -5  -2   9 19.5267 6.30299   2
  -5   2   9 9.43899 13.6084   1
  -5   2   9 16.6903 7.28965   2
   5   2  -9 5.12696 13.1821   1
   5   2  -9 16.6824 9.27809   3
  -5   2   9 22.2835 11.0507   3
  -5   2   9 10.3750 4.41598   2
  -4  -2   9 63.1692 11.6494   3
   4  -2  -9 72.6840 13.8879   1
  -4  -2   9 70.7739 6.97428   2
   4  -2  -9 52.3972 10.4209   3
   4  -2  -9 78.4256 10.9294   4
  -4  -2   9 59.7627 14.7932   1
  -4   2   9 56.6840 6.24199   2
  -4   2   9 80.2473 16.4777   1
   4   2  -9 64.2857 10.8753   4
  -4   2   9 71.6303 12.9134   3
   4   2  -9 73.1901 10.8759   3
   4   2  -9 50.7360 13.6258   1
  -3  -2   9 55.6928 11.3761   3
  -3  -2   9 30.9418 12.0782   1
  -3  -2   9 36.6485 5.48326   2
   3  -2  -9 47.9605 9.59571   3
   3  -2  -9 25.8304 10.2774   1
   3  -2  -9 38.4621 8.57865   4
   3   2  -9 57.6880 10.7026   3
  -3   2   9 17.0230 12.7854   1
  -3   2   9 46.3454 12.1739   3
   3   2  -9 29.1711 8.66470   4
   3   2  -9 56.0536 13.2068   1
  -2  -2   9 130.623 14.2255   3
   2  -2  -9 138.785 18.0355   1
   2  -2  -9 122.946 12.7445   3
   2  -2  -9 117.663 11.2578   4
  -2  -2   9 99.2008 14.9110   1
  -2  -2   9 136.727 10.6255   2
   2   2  -9 147.197 14.0079   3
   2   2  -9 172.185 14.3711   4
  -2   2   9 124.929 17.3975   1
  -2   2   9 118.711 15.2927   3
   2   2  -9 103.591 16.0762   1
  -1  -2   9 15.7689 10.6516   3
   1  -2  -9 28.3049 9.11541   1
  -1  -2   9 24.2843 11.3019   1
   1  -2  -9 28.5100 8.89801   3
  -1  -2   9 29.0171 5.35969   2
   1   2  -9 27.6787 4.27973   2
   1   2  -9 15.3350 9.16822   3
  -1   2   9 26.8934 12.1612   3
   1   2  -9 27.5113 10.1341   1
   1   2  -9 18.8511 6.59682   4
  -1   2   9 27.1238 12.1897   1
   0  -2   9 451.412 26.1286   2
   0  -2   9 477.325 33.6453   1
   0  -2  -9 388.536 28.6629   3
   0  -2  -9 413.380 29.7283   1
   0  -2   9 423.757 30.0128   3
   0   2  -9 465.809 29.5497   3
   0   2  -9 411.667 28.0117   4
   0   2  -9 412.724 30.8803   1
   0   2   9 391.405 33.1792   1
   0   2   9 422.778 31.7341   3
   0   2  -9 443.756 25.1980   2
   1  -2   9 298.434 25.0612   1
   1  -2   9 267.308 23.5347   3
  -1  -2  -9 235.920 20.8906   3
  -1  -2  -9 244.902 15.4246   2
  -1  -2  -9 277.886 21.8398   1
   1  -2   9 274.496 19.0045   2
   1   2   9 264.479 26.6502   3
  -1   2  -9 268.818 16.8409   2
   1   2   9 279.287 25.3705   1
  -1   2  -9 256.980 22.7568   1
  -1   2  -9 276.527 21.6175   3
  -1   2  -9 282.276 17.0402   4
   2  -2   9 3.46720 10.5127   3
  -2  -2  -9 1.45877 3.23534   2
  -2  -2  -9 1.55174 6.61459   1
   2  -2   9 6.60623 9.58677   1
  -2  -2  -9 1.05606 8.47743   3
   2  -2   9 2.66904 8.14801   2
  -2   2  -9 7.09155 4.77520   2
   2   2   9 5.06728 13.8110   3
   2   2   9 12.8089 10.2084   1
  -2   2  -9 -3.4822 9.19949   3
  -2   2  -9 -6.0077 7.98364   1
  -3  -2  -9 -0.6581 3.03805   4
   3  -2   9 4.61296 9.55645   2
  -3  -2  -9 2.25371 4.24564   2
   3  -2   9 -1.4523 7.66972   1
   3  -2   9 4.86322 11.8966   3
  -3  -2  -9 -17.181 7.93479   3
   3  -2   9 0.90014 9.83431   1
   3   2   9 4.17951 10.3608   1
  -3   2  -9 21.8007 9.86639   3
  -3   2  -9 -2.0529 5.42365   2
   3   2   9 1.16561 14.2551   3
  -4  -2  -9 209.272 20.6561   3
  -4  -2  -9 242.911 16.0176   2
   4  -2   9 290.604 25.4058   3
   4  -2   9 252.398 22.1384   2
   4  -2   9 196.474 24.1564   1
  -4   2  -9 220.738 21.3309   3
   4   2   9 182.890 21.8916   3
   4   2   9 195.097 19.9096   1
  -4   2  -9 233.041 16.7558   2
   5  -2   9 436.045 32.4812   2
  -5  -2  -9 430.796 26.8120   2
   5  -2   9 383.420 32.1294   3
  -5  -2  -9 463.821 38.1375   3
  -5   2  -9 412.078 27.4484   2
   5   2   9 404.481 36.4293   3
   6  -2   9 102.024 17.4371   3
  -6  -2  -9 108.316 11.3089   2
  -6   2  -9 112.661 12.0244   2
   6   2   9 98.1666 19.0855   3
  -7  -2  -9 83.9186 11.6211   2
   7  -2   9 105.585 18.3169   3
   7   2   9 86.0142 19.3492   3
   8  -2   9 36.7488 17.6570   3
  -8  -2  -9 21.1742 11.1247   2
  -8   2  -9 14.8017 11.4387   2
   8   2   9 4.78876 16.6315   3
  -9  -2  -9 39.2070 12.7732   2
  -9   2  -9 43.7382 13.9058   2
 -10  -3   9 136.789 19.2084   2
 -10   3   9 82.3955 21.8742   2
  -9  -3   9 48.4127 15.7395   2
  -9   3   9 16.6520 14.5087   2
  -8   3   9 17.4155 12.2746   2
  -7  -3   9 1.96721 11.6542   2
  -7  -3   9 4.86657 8.73738   3
   7  -3  -9 2.98348 8.91352   3
  -7  -3   9 11.5420 8.82343   2
  -7   3   9 0.20571 10.0867   2
   7   3  -9 5.70369 8.07377   3
  -7   3   9 13.3600 9.56939   2
  -6  -3   9 501.151 32.1777   3
   6  -3  -9 479.156 39.2656   1
  -6  -3   9 457.119 29.9342   2
   6  -3  -9 480.132 32.1047   3
  -6   3   9 437.876 31.7028   2
  -6   3   9 446.273 30.6733   2
  -6   3   9 634.305 51.6192   1
   6   3  -9 487.079 32.1013   3
   5  -3  -9 265.669 27.7822   1
   5  -3  -9 281.915 21.8875   3
  -5  -3   9 272.932 18.8746   2
  -5  -3   9 289.467 22.6882   3
  -5  -3   9 246.259 30.3000   1
  -5   3   9 237.512 16.4015   2
  -5   3   9 315.256 24.2882   3
   5   3  -9 296.066 22.8325   3
  -5   3   9 248.653 18.3267   2
   5   3  -9 261.310 29.6208   1
  -5   3   9 268.236 30.6122   1
  -4  -3   9 68.0270 7.46255   2
   4  -3  -9 76.7747 10.5299   3
   4  -3  -9 61.6329 10.1813   4
   4  -3  -9 48.5011 11.2701   1
  -4  -3   9 72.8757 11.3379   3
   4   3  -9 79.0387 11.3557   4
  -4   3   9 69.0000 5.45130   2
  -4   3   9 83.3762 16.3716   1
   4   3  -9 69.8578 13.6935   1
  -4   3   9 96.9123 13.2685   3
   4   3  -9 78.6528 11.5139   3
  -4   3   9 67.4409 5.87289   2
  -3  -3   9 52.5055 14.6084   1
   3  -3  -9 71.8616 10.1168   3
  -3  -3   9 51.5679 11.1585   3
   3  -3  -9 56.6895 11.6458   1
  -3  -3   9 71.5062 6.95648   2
   3   3  -9 59.0820 9.72227   4
  -3   3   9 84.2195 15.9548   1
  -3   3   9 59.8844 13.3958   3
   3   3  -9 68.3264 11.6617   3
   3   3  -9 40.7539 11.7182   1
  -2  -3   9 4.07274 6.24069   2
  -2  -3   9 0.53829 9.12195   3
  -2  -3   9 6.60082 10.6741   1
   2  -3  -9 6.42190 7.64583   3
   2  -3  -9 2.61109 8.18560   1
  -2   3   9 -9.6580 10.5849   1
   2   3  -9 -1.1433 6.94038   4
   2   3  -9 13.5071 9.67514   3
   2   3  -9 1.60163 8.52936   1
  -2   3   9 -5.5456 11.5558   3
   2   3  -9 1.91182 4.39862   2
  -1  -3   9 661.274 36.1329   2
   1  -3  -9 510.493 37.8399   3
  -1  -3   9 678.748 43.1875   1
  -1  -3   9 592.242 39.1190   3
   1  -3  -9 598.557 39.9476   1
   1   3  -9 644.466 39.4044   3
   1   3  -9 623.961 41.6107   1
   1   3  -9 627.325 35.6571   2
  -1   3   9 581.681 41.6307   3
  -1   3   9 517.577 42.8253   1
   1   3  -9 713.445 37.2754   4
   0  -3   9 5.93564 9.70442   3
   0  -3   9 2.06361 6.94685   2
   0  -3  -9 -2.3146 6.99266   1
   0  -3  -9 14.7066 7.78372   3
   0  -3   9 14.9609 9.81849   1
   0   3  -9 -3.7420 8.99305   1
   0   3   9 4.43238 12.3607   3
   0   3   9 11.6085 10.7433   1
   0   3  -9 11.8219 9.43071   3
   0   3  -9 -0.1189 4.18068   2
   1  -3   9 86.2431 9.11656   2
  -1  -3  -9 73.0988 10.4565   3
  -1  -3  -9 97.3851 11.3070   1
   1  -3   9 67.5245 11.6621   1
   1  -3   9 70.8847 11.9593   3
  -1   3  -9 100.370 9.18511   2
   1   3   9 61.9545 15.6113   3
  -1   3  -9 106.167 12.9338   1
   1   3   9 81.3176 14.0613   1
  -1   3  -9 89.7500 11.8635   3
  -2  -3  -9 17.8767 8.66541   3
  -2  -3  -9 42.5822 4.00941   2
   2  -3   9 34.4362 11.4012   3
  -2  -3  -9 38.2955 8.49000   1
   2  -3   9 25.1083 10.3636   1
   2  -3   9 47.5366 8.84456   2
  -2   3  -9 43.4260 6.00166   2
  -2   3  -9 44.3737 10.6026   3
   2   3   9 16.7602 14.9524   3
   2   3   9 42.5321 11.9386   1
  -2   3  -9 45.5420 10.9553   1
   3  -3   9 140.866 13.1543   2
   3  -3   9 76.0248 13.1115   1
   3  -3   9 107.861 14.8208   1
  -3  -3  -9 120.092 12.7677   3
  -3  -3  -9 118.718 9.54324   2
   3  -3   9 103.391 13.9863   3
   3   3   9 106.399 14.7717   1
  -3   3  -9 115.864 13.5435   3
   3   3   9 85.1237 17.0304   3
  -3   3  -9 131.513 11.7563   2
   4  -3   9 9.27131 11.8340   3
   4  -3   9 10.3331 11.1019   1
  -4  -3  -9 13.7649 5.59282   2
  -4  -3  -9 0.50357 9.39637   3
   4  -3   9 13.7775 11.0470   2
   4   3   9 1.32164 7.99232   1
  -4   3  -9 13.6297 6.79993   2
   4   3   9 -6.1183 15.5557   3
  -4   3  -9 8.29693 13.5877   3
  -5  -3  -9 8.42589 6.55653   2
  -5   3  -9 21.0372 8.08954   2
   5   3   9 4.97828 16.0263   3
  -6  -3  -9 1.18442 8.00220   2
   6  -3   9 31.2017 14.7931   3
  -6   3  -9 18.3365 9.44090   2
   6   3   9 36.0450 17.6397   3
   7  -3   9 15.6030 15.4030   3
  -7  -3  -9 23.8267 9.51087   2
  -7   3  -9 14.5046 10.1504   2
   7   3   9 19.1275 17.0011   3
   8  -3   9 16.5117 20.1965   3
  -8  -3  -9 -2.0193 10.1754   2
  -8   3  -9 6.43448 11.8093   2
   8   3   9 3.34359 16.5409   3
  -9  -3  -9 -8.2440 12.1001   2
   9  -3   9 -22.788 17.1288   3
  -9   3  -9 18.9729 12.8691   2
 -10  -4   9 5.72991 16.8275   2
  -9  -4   9 21.4121 15.4051   2
  -9   4   9 28.8002 14.0180   2
  -8  -4   9 866.925 49.1743   3
  -8   4   9 775.530 50.9226   2
  -7  -4   9 -4.4094 8.85844   3
   7  -4  -9 2.41025 10.4005   3
  -7   4   9 -0.4322 9.26754   2
  -6  -4   9 85.2622 9.64376   2
   6  -4  -9 51.2475 10.5022   3
   6  -4  -9 23.9377 16.0984   1
  -6  -4   9 48.5206 10.5060   3
  -6   4   9 42.1194 16.5987   1
   6   4  -9 59.4177 10.5149   3
  -6   4   9 50.3975 6.07159   2
  -6   4   9 47.0958 8.34108   2
  -5  -4   9 204.882 17.2128   2
  -5  -4   9 228.283 28.9314   1
   5  -4  -9 227.645 26.3788   1
   5  -4  -9 191.822 19.7270   3
  -5  -4   9 219.119 20.4669   3
  -5   4   9 209.304 16.3322   2
  -5   4   9 217.723 29.5363   1
   5   4  -9 233.344 20.7634   3
  -5   4   9 227.452 13.6037   2
  -4  -4   9 399.398 29.6545   3
  -4  -4   9 437.714 26.6725   2
   4  -4  -9 405.394 33.1913   1
   4  -4  -9 400.384 28.9884   3
  -4  -4   9 386.018 35.3664   1
   4   4  -9 461.139 30.6257   3
  -4   4   9 463.218 31.6511   3
  -4   4   9 433.794 36.4000   1
   4   4  -9 485.644 30.6952   4
   4   4  -9 416.770 35.1109   1
   3  -4  -9 644.687 44.3785   3
  -3  -4   9 757.126 42.5629   2
  -3  -4   9 628.149 57.7437   1
  -3  -4   9 693.942 45.0802   3
   3  -4  -9 671.817 47.4109   1
   3   4  -9 842.101 49.8183   1
   3   4  -9 807.091 44.7719   4
  -3   4   9 668.500 50.2190   1
  -3   4   9 745.353 47.3036   3
   3   4  -9 806.937 46.2895   3
  -2  -4   9 46.4526 6.69317   2
   2  -4  -9 33.9392 10.1627   1
   2  -4  -9 31.4290 8.89461   3
  -2  -4   9 43.0902 12.6698   1
  -2  -4   9 39.2447 10.2310   3
  -2   4   9 18.4060 11.8740   1
   2   4  -9 34.2013 10.3146   1
   2   4  -9 76.1153 11.6011   3
   2   4  -9 43.8321 5.89549   2
  -2   4   9 50.0889 13.6044   3
   2   4  -9 32.4800 8.54601   4
  -1  -4   9 182.067 19.3147   3
   1  -4  -9 173.718 17.5254   3
  -1  -4   9 232.786 24.1263   1
  -1  -4   9 212.034 14.6398   2
   1  -4  -9 168.145 18.8430   1
   1   4  -9 199.231 13.6058   2
   1   4  -9 214.168 20.1603   3
  -1   4   9 153.741 19.4930   1
  -1   4   9 185.626 19.7544   3
   1   4  -9 227.112 15.8648   4
   0  -4  -9 11.0565 7.78946   3
   0  -4   9 2.33742 6.23788   2
   0  -4  -9 -9.4174 6.93251   1
   0  -4   9 2.23483 10.1918   1
   0  -4   9 7.21776 9.21126   3
   0   4  -9 -2.1344 9.61029   3
   0   4   9 -7.4018 13.0010   3
   0   4   9 5.21891 10.8900   1
   0   4  -9 0.67711 4.66963   2
   0   4  -9 5.22532 8.09589   1
   1  -4   9 0.02542 9.79831   1
   1  -4   9 10.9374 7.28697   2
   1  -4   9 2.03916 9.39926   3
  -1  -4  -9 10.0355 8.02714   3
  -1  -4  -9 16.8731 7.83799   1
  -1   4  -9 22.7457 15.5108   1
  -1   4  -9 14.7280 5.19387   2
   1   4   9 15.0797 11.3059   1
  -1   4  -9 14.0829 9.63306   3
   1   4   9 22.9313 13.6051   3
   2  -4   9 -1.8398 8.39655   2
   2  -4   9 3.75534 9.47548   1
  -2  -4  -9 7.62503 8.22456   3
  -2  -4  -9 -4.1389 6.28556   1
   2  -4   9 1.08346 9.75819   3
  -2   4  -9 8.95313 10.3579   3
   2   4   9 15.6636 10.7786   1
   2   4   9 3.76520 14.2226   3
  -2   4  -9 -3.0959 5.38796   2
  -3  -4  -9 2.63691 4.02260   2
  -3  -4  -9 -5.0566 8.53326   3
   3  -4   9 8.29597 9.50232   2
   3  -4   9 3.52033 9.07739   1
   3  -4   9 2.69285 10.4501   3
   3  -4   9 -11.529 9.00705   1
   3   4   9 1.08731 11.0217   1
  -3   4  -9 -15.097 10.8680   3
   3   4   9 6.35597 15.5842   3
  -3   4  -9 -2.1322 6.50586   2
   4  -4   9 38.3917 12.1755   1
   4  -4   9 36.7700 12.0023   3
   4  -4   9 78.3008 12.3970   2
  -4  -4  -9 61.3108 6.73639   2
   4   4   9 45.4378 9.50900   1
   4   4   9 85.0091 18.5500   3
  -4   4  -9 61.3275 8.61719   2
  -5  -4  -9 11.9771 6.53169   2
   5  -4   9 28.7762 12.8148   3
   5  -4   9 22.0872 21.8724   2
   5   4   9 -2.8489 16.9044   3
  -5   4  -9 11.8474 8.03706   2
  -6  -4  -9 3.30039 7.73585   2
   6  -4   9 16.7807 13.4862   3
  -6   4  -9 17.3656 9.18795   2
   6   4   9 -7.7282 17.5784   3
  -7  -4  -9 184.765 19.0913   2
   7  -4   9 183.901 21.0938   3
   7   4   9 199.732 22.9828   3
  -7   4  -9 212.238 20.8668   2
   8  -4   9 15.1142 20.6051   3
  -8  -4  -9 5.76065 10.8949   2
  -8   4  -9 -8.7171 11.4920   2
  -9  -4  -9 10.7866 11.8295   2
   9  -4   9 2.73849 17.1864   3
  -9   4  -9 -2.2061 13.5041   2
 -10  -5   9 -2.6114 16.2760   2
  -9  -5   9 -8.6774 14.4581   2
  -9   5   9 11.3070 14.1562   2
  -8  -5   9 47.5671 8.97799   3
  -8  -5   9 54.0809 15.0725   2
  -8   5   9 32.8742 11.4318   2
  -7  -5   9 42.3862 9.86783   3
  -7   5   9 31.3214 9.36412   2
   6  -5  -9 0.10392 9.70250   3
   6  -5  -9 -0.5396 13.7063   1
  -6  -5   9 4.64774 8.90908   3
  -6  -5   9 -8.0902 8.49830   2
   6   5  -9 27.0911 9.40156   3
  -6   5   9 -2.7639 6.02843   2
  -6   5   9 14.6557 17.3875   1
  -6   5   9 -5.4647 4.50042   2
   5  -5  -9 -10.559 12.0937   1
  -5  -5   9 0.06712 7.47575   2
   5  -5  -9 6.09413 8.92361   3
  -5  -5   9 3.96662 9.35319   3
  -5   5   9 5.12595 14.6717   1
  -5   5   9 3.76487 2.88241   2
   5   5  -9 -0.2246 9.56869   3
  -4  -5   9 145.279 14.2766   2
  -4  -5   9 140.212 17.5387   3
  -4  -5   9 194.697 25.9432   1
   4  -5  -9 188.176 22.5789   1
   4  -5  -9 146.849 16.8225   3
   4   5  -9 178.944 23.9787   1
  -4   5   9 172.704 21.3005   1
   4   5  -9 178.981 19.3557   3
   3  -5  -9 22.6397 8.38835   3
  -3  -5   9 7.71526 9.05475   3
   3  -5  -9 5.65148 9.48512   1
  -3  -5   9 4.99818 6.29202   2
  -3  -5   9 17.0989 10.6164   1
   3   5  -9 19.1001 12.3533   1
   3   5  -9 32.6851 11.1263   3
   3   5  -9 15.4897 9.00964   4
  -3   5   9 19.3581 12.6972   3
  -3   5   9 12.0225 12.8089   1
  -2  -5   9 31.7399 18.8716   1
  -2  -5   9 6.09830 6.27296   2
   2  -5  -9 27.4250 8.85793   3
   2  -5  -9 18.5162 9.02291   1
  -2  -5   9 18.9651 9.77930   3
  -2   5   9 20.4630 13.7702   3
   2   5  -9 10.2414 5.37930   2
   2   5  -9 8.41519 10.3402   3
   2   5  -9 14.2664 10.5751   1
   2   5  -9 20.2537 8.12428   4
  -2   5   9 -1.3549 11.5167   1
  -1  -5   9 41.0425 10.7058   3
   1  -5  -9 37.3094 9.46375   1
  -1  -5   9 41.7883 7.36549   2
   1  -5  -9 38.3402 9.25755   3
  -1  -5   9 45.8718 12.9015   1
  -1   5   9 40.5333 13.3858   1
   1   5  -9 59.9185 12.3668   1
   1   5  -9 48.8325 6.34657   2
   1   5  -9 38.1846 11.3143   3
  -1   5   9 37.8344 13.8904   3
   0  -5  -9 29.8916 8.87528   3
   0  -5  -9 62.4967 9.59933   1
   0  -5   9 33.1240 10.3571   3
   0  -5   9 50.3315 7.73100   2
   0  -5   9 67.2393 13.2484   1
   0   5  -9 52.4212 6.53565   2
   0   5  -9 49.9039 10.1816   1
   0   5   9 51.4878 14.9924   3
   0   5   9 44.8525 12.7216   1
   0   5  -9 55.7571 11.5459   3
   1  -5   9 -4.7863 9.38174   1
  -1  -5  -9 0.31059 7.87803   3
   1  -5   9 -2.8728 9.33491   3
   1  -5   9 6.58529 7.46456   2
  -1  -5  -9 11.5156 6.86339   1
  -1   5  -9 3.11954 5.62816   2
  -1   5  -9 -14.690 9.73140   3
  -1   5  -9 -1.0930 10.1637   1
   1   5   9 6.49332 11.0681   1
   1   5   9 13.2461 13.8573   3
  -2  -5  -9 276.782 14.8683   2
  -2  -5  -9 245.424 14.9433   2
  -2  -5  -9 178.919 20.1988   3
  -2  -5  -9 260.767 19.6367   1
   2  -5   9 202.195 21.6385   3
   2  -5   9 293.239 20.2814   2
   2  -5   9 250.965 25.1790   1
  -2   5  -9 275.060 17.7330   2
  -2   5  -9 235.490 22.3734   3
   2   5   9 253.549 25.3065   1
   2   5   9 255.596 26.4099   3
   3  -5   9 525.560 39.4960   1
   3  -5   9 545.789 36.0274   2
   3  -5   9 497.123 37.0840   3
  -3  -5  -9 586.458 32.6601   2
  -3  -5  -9 566.150 32.7287   2
   3  -5   9 552.699 40.0899   1
  -3   5  -9 614.802 34.3633   2
   3   5   9 604.322 42.4404   3
   4  -5   9 7.70588 11.0066   3
   4  -5   9 68.0116 12.1121   2
   4  -5   9 28.3427 13.2913   1
  -4  -5  -9 18.9388 5.60509   2
   4   5   9 14.4892 16.6025   3
   4   5   9 16.1800 7.63975   1
  -4   5  -9 30.5761 8.32580   2
   5  -5   9 26.3306 12.8397   3
  -5  -5  -9 41.8517 7.17230   2
  -5   5  -9 42.3196 9.60681   2
   5   5   9 29.5306 9.05341   1
   5   5   9 30.7249 18.4466   3
  -6  -5  -9 -6.8650 7.58103   2
   6  -5   9 -5.1204 11.9351   3
  -6   5  -9 -2.3298 10.8257   2
   6   5   9 0.75484 16.6228   3
  -7  -5  -9 166.951 17.5512   2
  -7   5  -9 136.473 15.2609   2
  -8  -5  -9 31.1730 11.3479   2
   8  -5   9 19.5253 15.1149   3
  -8   5  -9 48.9812 13.5591   2
  -9  -5  -9 100.771 14.1661   2
   9  -5   9 113.707 19.3236   3
  -9   5  -9 100.279 15.6391   2
  -9  -6   9 16.7564 14.8383   2
  -8  -6   9 5.24630 8.05637   3
  -8   6   9 -2.4365 9.88480   2
  -7  -6   9 11.9060 9.19068   3
  -7   6   9 2.91694 8.05609   2
   6  -6  -9 52.2185 16.7994   1
  -6  -6   9 76.2083 11.2534   3
  -6   6   9 60.6664 6.07046   2
  -6   6   9 59.7514 6.96834   2
   6   6  -9 87.9615 11.0830   3
  -6   6   9 68.1320 21.0355   1
  -5  -6   9 11.0089 8.23579   2
   5  -6  -9 1.36572 9.18330   3
  -5  -6   9 12.9839 9.19228   3
   5  -6  -9 -1.3677 12.8771   1
   5   6  -9 14.5587 9.90337   3
  -5   6   9 -6.3132 14.1780   1
  -4  -6   9 110.745 17.9201   1
  -4  -6   9 104.301 10.1048   2
   4  -6  -9 94.4145 14.9182   1
   4  -6  -9 102.407 12.0631   3
  -4  -6   9 115.510 12.8615   3
   4   6  -9 124.844 13.3194   3
   4   6  -9 58.7017 16.0046   1
  -4   6   9 109.426 19.1080   1
  -3  -6   9 93.3950 15.3041   1
  -3  -6   9 62.7131 8.42031   2
  -3  -6   9 52.1048 11.0770   3
   3  -6  -9 83.5774 13.4376   1
   3  -6  -9 63.1818 10.4519   3
  -3   6   9 57.9172 15.3464   1
   3   6  -9 75.0571 12.4658   3
   3   6  -9 92.5395 8.43370   2
   3   6  -9 56.3300 12.6318   1
  -2  -6   9 14.9420 9.92476   3
   2  -6  -9 24.7432 9.22211   3
  -2  -6   9 20.6462 12.5399   1
  -2  -6   9 18.4155 7.10428   2
   2  -6  -9 34.7660 9.56689   1
   2   6  -9 28.9073 6.21174   2
   2   6  -9 15.9774 10.6245   3
   2   6  -9 32.8303 13.3376   1
  -2   6   9 21.7895 13.1919   3
  -2   6   9 33.1586 13.8526   1
  -1  -6   9 26.2500 7.21562   2
  -1  -6   9 25.3564 10.4037   3
   1  -6  -9 28.3481 9.05211   1
   1  -6  -9 26.5937 9.11103   3
  -1  -6   9 56.1008 13.5042   1
   1   6  -9 10.9302 10.8618   1
  -1   6   9 25.5124 13.8482   3
   1   6  -9 40.9911 11.5780   3
   1   6  -9 32.9406 6.18439   2
  -1   6   9 39.5336 12.9673   1
   0  -6  -9 764.675 48.6458   1
   0  -6   9 679.893 48.4385   3
   0  -6   9 855.260 52.7359   1
   0  -6   9 829.999 46.5658   2
   0   6  -9 845.854 52.5422   1
   0   6   9 777.940 52.1056   1
   0   6  -9 837.073 46.1284   2
   0   6   9 781.202 50.9235   3
   0   6  -9 745.536 49.2037   3
   1  -6   9 -0.8725 10.7755   1
   1  -6   9 3.37725 9.84663   3
  -1  -6  -9 4.45884 9.13720   3
   1  -6   9 0.59470 7.54536   2
  -1  -6  -9 -0.8813 6.77783   1
  -1   6  -9 -4.0151 9.38550   1
  -1   6  -9 2.05504 11.5455   3
   1   6   9 -9.8243 11.2705   1
   1   6   9 -9.2248 14.3015   3
  -1   6  -9 3.60217 5.80550   2
   2  -6   9 0.89832 10.3763   3
   2  -6   9 33.9143 12.3026   1
   2  -6   9 -0.1128 8.52289   2
  -2  -6  -9 1.06114 6.39964   1
   2  -6   9 18.6648 11.2510   1
  -2  -6  -9 8.70010 2.14395   2
  -2  -6  -9 5.13277 2.15162   2
  -2   6  -9 5.74994 6.60147   2
   2   6   9 9.95954 11.2702   1
   2   6   9 1.27326 15.6043   3
   3  -6   9 33.5355 11.0182   1
   3  -6   9 55.6504 12.8852   1
   3  -6   9 52.6668 11.3868   2
   3  -6   9 52.7658 12.1646   3
  -3  -6  -9 66.2189 5.80695   2
  -3  -6  -9 77.2338 7.45769   2
   3   6   9 59.4555 17.0452   3
  -3   6  -9 66.0336 8.85398   2
  -4  -6  -9 341.725 20.3681   2
  -4  -6  -9 328.431 20.3582   2
   4  -6   9 250.522 30.4980   1
   4  -6   9 275.045 25.6190   3
   4   6   9 319.645 21.8943   1
  -4   6  -9 319.402 22.7447   2
   4   6   9 325.316 32.5954   3
   5  -6   9 192.993 20.3971   3
  -5  -6  -9 230.219 17.3410   2
  -5  -6  -9 254.535 14.9534   4
  -5  -6  -9 219.494 17.1612   2
   5   6   9 208.173 17.9206   1
   5   6   9 263.642 29.2523   3
  -5   6  -9 233.879 20.1805   2
  -6  -6  -9 -3.6241 7.62122   2
  -6  -6  -9 1.14331 6.48463   4
  -6   6  -9 3.27590 10.4937   2
  -7  -6  -9 93.8955 11.8013   2
   7  -6   9 102.621 16.2198   3
  -7   6  -9 86.1995 13.3626   2
  -8  -6  -9 16.9293 10.4944   2
   8  -6   9 26.6703 14.7290   3
  -8   6  -9 26.2215 12.8662   2
   9  -6   9 4.60999 15.9275   3
  -9  -6  -9 24.2539 11.9424   2
  -9   6  -9 4.81776 14.7654   2
  -9  -7   9 2.00090 15.3123   2
  -8  -7   9 11.5617 8.38220   3
  -7  -7   9 328.474 24.6486   3
  -7   7   9 321.602 21.9898   2
  -6  -7   9 169.787 18.9485   3
   6   7  -9 193.568 19.4449   3
  -6   7   9 180.906 12.8556   2
   5  -7  -9 -24.105 23.6829   1
  -5  -7   9 -3.8047 8.75033   3
   5   7  -9 23.2230 10.1536   3
  -4  -7   9 661.276 44.4430   3
   4  -7  -9 686.593 48.7380   1
  -4  -7   9 731.643 42.9141   2
   4   7  -9 847.509 46.0256   3
  -4   7   9 605.662 56.1690   1
  -3  -7   9 7.15947 9.34612   3
  -3  -7   9 2.56395 12.5177   1
   3  -7  -9 9.05207 10.2646   1
  -3  -7   9 19.2369 7.80813   2
  -3   7   9 5.21164 14.2025   1
   3   7  -9 2.13021 12.0463   1
   3   7  -9 10.6690 6.86954   2
   3   7  -9 3.54230 10.4867   3
  -2  -7   9 478.488 30.1146   2
   2  -7  -9 470.832 34.2197   1
  -2  -7   9 458.778 37.8220   1
  -2  -7   9 436.161 32.9257   3
   2   7  -9 541.252 38.2745   1
   2   7  -9 479.254 34.4691   3
  -2   7   9 465.713 38.6258   1
   2   7  -9 524.144 29.8500   2
  -1  -7   9 17.3250 12.7433   1
  -1  -7   9 14.8639 7.90342   2
  -1  -7   9 23.9592 10.4813   3
   1  -7  -9 19.4519 8.69326   1
  -1   7   9 20.2818 12.4728   1
   1   7  -9 15.9216 6.35354   2
   1   7  -9 18.4504 10.4809   1
   0  -7   9 203.929 16.7992   2
   0  -7   9 193.522 24.3321   1
   0  -7   9 160.135 20.0575   3
   0  -7  -9 198.779 17.9607   1
   0   7  -9 227.568 15.6526   2
   0   7   9 144.597 19.3790   1
  -1  -7  -9 657.608 38.9769   1
   1  -7   9 580.870 37.7119   2
   1  -7   9 630.292 43.8570   1
   1  -7   9 572.606 40.1743   3
   1   7   9 496.404 50.6216   1
  -1   7  -9 695.884 37.1649   2
  -2  -7  -9 39.6188 8.38560   1
   2  -7   9 51.7617 12.3732   3
   2  -7   9 54.1437 14.5482   1
  -2  -7  -9 63.4295 4.46804   2
  -2  -7  -9 60.0101 4.50065   2
   2  -7   9 57.0210 10.7558   2
   2  -7   9 43.5147 14.7226   1
  -2   7  -9 70.7806 8.78612   2
  -3  -7  -9 108.621 9.14470   2
   3  -7   9 84.9827 13.2202   2
  -3  -7  -9 115.405 8.89300   2
   3  -7   9 90.3395 15.7559   1
   3  -7   9 82.9485 14.3965   3
  -3   7  -9 127.815 11.5232   2
  -4  -7  -9 101.312 10.7710   2
  -4  -7  -9 108.850 10.5945   2
   4  -7   9 88.3552 17.2155   1
   4  -7   9 80.5353 14.6035   3
   4   7   9 97.6099 11.6296   1
  -4   7  -9 124.495 12.2198   2
   5  -7   9 91.1190 23.3777   3
  -5  -7  -9 182.454 14.5437   2
  -5  -7  -9 159.133 14.1249   2
  -5   7  -9 142.888 14.6026   2
  -6  -7  -9 9.69959 4.75517   4
  -6  -7  -9 -5.3533 7.57892   2
   6  -7   9 15.5184 12.9381   3
  -6   7  -9 8.29826 10.6518   2
   7  -7   9 19.0829 13.6721   3
  -7  -7  -9 29.1313 9.53101   2
  -7   7  -9 19.6747 12.8445   2
  -8  -7  -9 104.193 13.5428   2
   8  -7   9 127.488 18.2080   3
  -8   7  -9 139.461 17.0007   2
  -9  -7  -9 -2.6312 12.0417   2
   9  -7   9 -15.046 15.3356   3
  -9   7  -9 -7.1110 14.4378   2
  -9  -8   9 96.9414 18.7696   2
   8  -8  -9 -9.3545 9.47933   3
  -8  -8   9 6.58007 9.73350   3
  -7  -8   9 2.41310 9.15658   3
  -6  -8   9 211.875 20.0039   3
  -6   8   9 195.007 14.1948   2
  -5  -8   9 112.800 12.8533   3
  -4  -8   9 268.623 22.7037   3
   3  -8  -9 -36.879 18.4738   1
  -3  -8   9 8.67720 14.7592   1
  -3  -8   9 -14.980 9.22524   3
  -3  -8   9 7.49784 8.31798   2
   3   8  -9 4.04825 7.14817   2
  -2  -8   9 104.363 15.7499   1
   2  -8  -9 78.0987 12.8638   1
  -2  -8   9 66.8773 12.1847   3
  -2  -8   9 89.2095 10.9619   4
  -2  -8   9 65.3728 10.2487   2
   2   8  -9 101.819 9.63235   2
   2   8  -9 142.949 25.5951   1
  -1  -8   9 129.286 15.2835   3
  -1  -8   9 166.793 15.7786   4
   1  -8  -9 165.910 18.7126   1
  -1  -8   9 167.665 16.3548   2
   1   8  -9 185.002 14.6751   2
   1   8  -9 169.493 23.7410   1
   0  -8  -9 161.287 17.9737   1
   0  -8   9 148.523 16.4443   3
   0  -8   9 218.628 21.9098   1
   0  -8   9 184.618 15.4373   4
   0  -8   9 160.852 16.5306   2
   0   8  -9 193.939 15.2968   2
   0   8  -9 134.289 25.0068   1
  -1  -8  -9 35.0005 11.2816   1
   1  -8   9 42.7290 11.4837   3
   1  -8   9 32.9647 7.20228   4
   1  -8   9 46.4762 10.0269   2
   1  -8   9 47.0171 14.9134   1
  -1   8  -9 43.7637 8.47978   2
   2  -8   9 65.0497 16.1227   1
  -2  -8  -9 65.7401 4.88923   2
   2  -8   9 64.3720 11.5217   2
   2  -8   9 51.1747 12.5879   3
   2  -8   9 42.2243 15.6324   1
  -2  -8  -9 65.9099 4.74891   2
  -2   8  -9 69.3245 9.61562   2
   3  -8   9 91.1272 14.4953   3
   3  -8   9 109.365 18.6425   1
  -3  -8  -9 112.373 9.10570   2
  -3  -8  -9 115.792 9.24433   2
  -3   8  -9 121.072 11.7903   2
   4  -8   9 86.5203 18.6118   1
  -4  -8  -9 102.224 10.7720   2
  -4  -8  -9 119.142 10.9317   2
  -4   8  -9 106.244 12.1263   2
  -5  -8  -9 30.9218 7.13409   2
  -5  -8  -9 31.1414 7.34688   2
   5  -8   9 16.5881 13.0563   3
  -5   8  -9 20.5907 11.1967   2
  -6  -8  -9 294.271 19.0716   4
   6  -8   9 251.132 26.8396   3
  -6  -8  -9 292.048 21.5100   2
  -6   8  -9 312.593 25.7789   2
   7  -8   9 65.2389 15.1351   3
  -7  -8  -9 103.819 11.6446   2
  -7   8  -9 86.3187 14.4068   2
   8  -8   9 -37.933 13.0328   3
  -8  -8  -9 10.1823 10.7971   2
  -8   8  -9 23.4000 13.9082   2
   8  -9  -9 16.1132 16.2219   3
  -7  -9   9 19.8159 9.75048   3
  -6  -9   9 8.62367 9.68727   3
  -5  -9   9 194.482 20.1578   3
  -4  -9   9 6.03877 11.2171   4
  -4  -9   9 -0.8134 9.79821   3
  -3  -9   9 18.6073 10.9607   3
  -3  -9   9 23.4531 10.3161   4
   3   9  -9 14.8926 8.03371   2
  -2  -9   9 377.529 27.1212   4
  -2  -9   9 348.192 29.1470   3
   2   9  -9 429.671 26.1933   2
  -1  -9   9 2.94155 10.6425   3
  -1  -9   9 15.1715 12.5616   1
  -1  -9   9 -7.3027 9.37905   2
  -1  -9   9 1.86365 8.00769   4
   1   9  -9 1.63705 7.24291   2
   1   9  -9 4.68046 14.5991   1
   0  -9   9 114.347 15.1769   3
   0  -9   9 117.529 11.5409   4
   0  -9   9 118.231 14.3534   2
   0  -9   9 160.482 19.3557   1
   0   9  -9 134.132 14.9221   2
   1  -9   9 26.3230 12.3295   3
   1  -9   9 39.9115 7.58624   4
   1  -9   9 30.7103 13.7046   1
   1  -9   9 28.6926 13.2608   1
  -1   9  -9 41.8895 8.67173   2
   2  -9   9 212.267 27.3550   1
  -2  -9  -9 229.857 13.2549   2
   2  -9   9 194.373 16.1348   4
   2  -9   9 158.861 20.7337   3
  -2  -9  -9 214.318 12.6948   2
   2  -9   9 319.405 40.0478   1
  -2   9  -9 236.274 19.1533   2
   3  -9   9 161.025 21.0687   1
  -3  -9  -9 219.401 13.5774   2
   3  -9   9 191.933 23.9327   3
  -3  -9  -9 217.647 13.9067   2
  -3   9  -9 215.754 18.3471   2
  -4  -9  -9 103.668 10.5895   2
   4  -9   9 96.5188 27.4290   1
  -4  -9  -9 94.9658 10.6206   2
   4  -9   9 96.2946 15.4384   3
  -4   9  -9 58.0208 18.5705   2
  -5  -9  -9 109.859 10.0387   2
   5  -9   9 81.5376 15.0655   3
  -5   9  -9 101.890 13.3857   2
   6  -9   9 15.7924 13.4044   3
  -6  -9  -9 15.4169 6.40893   4
  -6  -9  -9 9.96709 8.15023   2
  -6   9  -9 8.34545 11.8924   2
   7  -9   9 30.5076 14.3485   3
  -7   9  -9 62.9268 14.5796   2
  -8  -9  -9 -3.8550 10.7153   2
   8  -9   9 25.0573 14.7446   3
  -8   9  -9 1.44086 14.4859   2
   8 -10  -9 54.4451 12.0421   3
  -7 -10   9 4.03945 9.96770   3
  -6 -10   9 -4.9417 9.95518   3
  -5 -10   9 -5.7037 9.70511   3
  -4 -10   9 169.802 16.4695   4
  -4 -10   9 163.174 19.6309   3
  -3 -10   9 198.292 21.5977   3
  -3 -10   9 189.618 20.0716   4
   3  10  -9 204.437 17.4794   2
  -2 -10   9 6.83622 11.0448   3
  -2 -10   9 -2.0517 9.10658   4
   2  10  -9 0.19419 8.39562   2
  -1 -10   9 29.3319 12.3836   3
  -1 -10   9 26.4867 9.14321   4
   1  10  -9 25.6467 8.76203   2
   0 -10   9 -12.096 7.89725   4
   0  10  -9 3.16884 8.12599   2
   1 -10   9 322.521 33.6666   1
   1 -10   9 341.857 23.2659   4
   1 -10   9 279.587 32.0943   3
   1 -10   9 336.430 32.9402   1
  -1  10  -9 376.840 24.3753   2
  -2 -10  -9 2.76887 2.53612   2
   2 -10   9 1.28681 6.79547   4
   2 -10   9 0.47049 14.1922   1
   2 -10   9 6.14423 11.8458   3
  -2  10  -9 4.88504 9.31255   2
   3 -10   9 3.66695 12.7761   3
   3 -10   9 0.72429 5.90218   4
  -3 -10  -9 -2.8649 4.43764   2
  -3 -10  -9 -1.2783 4.01251   2
   3 -10   9 -3.8133 26.3834   1
   4 -10   9 23.9939 13.4253   3
  -4 -10  -9 6.68471 5.79359   2
  -4  10  -9 -6.9180 10.3929   2
   5 -10   9 17.8350 13.1918   3
  -5 -10  -9 15.6061 7.15156   2
  -5  10  -9 3.86675 12.0614   2
   6 -10   9 10.0450 14.3791   3
  -6 -10  -9 0.73137 8.29429   2
  -6 -10  -9 -1.0177 6.99136   4
  -6  10  -9 11.3699 12.9917   2
   7 -10   9 7.17964 14.7687   3
  -7 -10  -9 25.9124 10.2550   2
  -7  10  -9 2.59435 13.7379   2
   8 -10   9 -27.535 13.6443   3
  -8 -10  -9 -6.9300 10.8498   2
  -8  10  -9 18.3166 15.4519   2
   8 -11  -9 29.5284 12.2653   3
   7 -11  -9 2.09975 12.0814   3
  -6 -11   9 259.078 27.2719   3
  -5 -11   9 139.216 22.3926   3
  -5 -11   9 175.959 16.9413   4
  -4 -11   9 7.97958 11.0647   4
  -4 -11   9 11.7498 14.2853   3
  -3 -11   9 37.6990 17.7330   4
  -3 -11   9 41.7366 13.8482   3
   3  11  -9 54.1085 10.7636   2
  -2 -11   9 8.60922 9.48936   4
  -2 -11   9 3.36272 11.5775   3
   2  11  -9 -9.0777 12.9323   2
  -1 -11   9 258.405 25.9790   3
  -1 -11   9 255.134 22.5469   4
   1  11  -9 332.947 22.6786   2
   0 -11   9 22.1326 16.7792   1
   0 -11   9 15.0160 12.3358   3
   0 -11   9 5.05087 8.64515   4
   0  11  -9 6.62350 9.15634   2
   1 -11   9 92.4602 14.9157   3
   1 -11   9 71.5369 17.4883   1
   1 -11   9 86.9538 10.4716   4
  -1  11  -9 75.7445 18.1206   2
   2 -11   9 129.365 16.4257   3
  -2 -11  -9 136.868 9.08972   2
   2 -11   9 123.757 11.9297   4
  -2  11  -9 164.638 14.3837   2
  -3 -11  -9 1.02433 4.65754   2
   3 -11   9 13.1049 13.2796   3
   3 -11   9 -2.3111 6.68512   4
  -3  11  -9 -8.2811 10.2558   2
   4 -11   9 20.8373 5.81707   4
  -4 -11  -9 17.3073 6.21390   2
   4 -11   9 0.77502 13.5862   3
  -4  11  -9 -2.2412 10.8596   2
  -5 -11  -9 7.80557 7.08755   2
   5 -11   9 5.08627 13.4751   3
  -5  11  -9 -8.6089 11.7248   2
   6 -11   9 -4.6807 14.9814   3
  -6 -11  -9 3.64874 7.97278   4
  -6 -11  -9 13.1647 8.86677   2
  -6  11  -9 7.41181 13.3783   2
   7 -11   9 -9.9151 15.0124   3
  -7 -11  -9 13.4499 9.95334   2
  -7  11  -9 -6.9979 14.3318   2
   7 -12  -9 6.91330 12.7599   3
  -7 -12   9 23.4509 10.9843   3
   6 -12  -9 20.1409 13.3468   3
  -6 -12   9 2.57141 10.4635   3
  -6 -12   9 -15.142 11.8293   4
  -5 -12   9 40.3924 13.4265   4
  -5 -12   9 40.1552 12.5047   3
  -4 -12   9 7.15494 11.2533   4
  -4 -12   9 10.5638 11.7133   3
  -3 -12   9 -11.319 10.8190   4
  -3 -12   9 17.2801 12.1539   3
   3  12  -9 11.7469 9.70293   2
  -2 -12   9 -11.680 11.8504   3
   2  12  -9 -3.9637 9.09243   2
  -1 -12   9 1.71398 12.1296   3
  -1 -12   9 -4.4542 9.38786   4
   1  12  -9 15.5273 9.40324   2
   0 -12   9 51.1274 20.8212   1
   0 -12   9 94.6394 14.9463   3
   0 -12   9 59.7083 10.6841   4
   0  12  -9 71.9809 11.6380   2
   1 -12   9 7.85629 8.78216   4
   1 -12   9 -18.823 24.7547   1
   1 -12   9 8.22255 13.1083   3
  -1  12  -9 -3.4660 9.64792   2
   2 -12   9 1.48715 8.03706   4
   2 -12   9 -0.2626 12.7428   3
  -2  12  -9 -13.382 9.99628   2
   3 -12   9 -2.7143 7.36539   4
  -3 -12  -9 -4.2456 4.88136   2
   3 -12   9 1.42506 13.4590   3
  -3  12  -9 0.65576 10.7954   2
  -4 -12  -9 14.6534 6.54895   2
   4 -12   9 43.6754 14.7325   3
   4 -12   9 15.8561 7.72460   4
  -4  12  -9 7.14145 12.5153   2
   5 -12   9 95.2844 16.4704   3
  -5 -12  -9 100.850 10.4320   2
  -5  12  -9 102.520 15.2645   2
  -6 -12  -9 33.9984 9.51486   4
   6 -12   9 13.5812 15.5435   3
  -6 -12  -9 22.4203 9.33115   2
  -6  12  -9 20.5723 14.4342   2
   7 -12   9 -9.9745 15.6144   3
  -7  12  -9 -2.4823 15.5462   2
  -7 -13   9 18.1867 11.3828   3
   7 -13  -9 6.60373 13.7521   3
  -6 -13   9 20.3837 13.7433   4
   6 -13  -9 8.49886 13.2236   3
  -6 -13   9 13.4151 11.2020   3
  -5 -13   9 11.2325 11.7844   3
  -5 -13   9 1.44920 12.9062   4
  -4 -13   9 7.95541 11.5174   4
  -4 -13   9 17.9927 11.9116   3
  -3 -13   9 39.1194 12.8188   4
  -3 -13   9 61.1819 14.2183   3
   3  13  -9 68.9563 11.6224   2
  -2 -13   9 32.0766 13.3307   3
  -2 -13   9 29.0565 11.7201   4
   2  13  -9 33.7550 10.7336   2
  -1 -13   9 17.9062 12.6808   3
   1  13  -9 1.14505 10.3179   2
   0 -13   9 0.29164 12.5585   3
   0 -13   9 -5.2188 9.78198   4
   0  13  -9 3.61102 10.0053   2
   1 -13   9 5.92051 9.41830   4
   1 -13   9 4.30005 13.1116   3
  -1  13  -9 5.60561 10.4709   2
  -2 -13  -9 261.351 18.7615   2
   2 -13   9 263.644 21.4999   4
   2 -13   9 292.160 28.5504   3
  -2  13  -9 300.240 23.5394   2
  -3 -13  -9 228.547 16.4849   2
   3 -13   9 244.675 19.1335   4
   3 -13   9 211.329 25.6312   3
  -3  13  -9 234.058 22.3889   2
   4 -13   9 25.3482 14.7589   3
  -4 -13  -9 27.2241 8.11839   2
  -4  13  -9 66.7144 13.7226   2
   5 -13   9 61.6419 16.7474   3
  -5  13  -9 88.2736 15.6862   2
  -6 -13  -9 2.96917 9.73777   4
   6 -13   9 0.63845 14.6278   3
  -6  13  -9 5.58539 14.7260   2
  -6 -14   9 35.8586 13.1176   3
   6 -14  -9 49.6946 15.7851   3
  -6 -14   9 40.5449 14.7430   4
  -5 -14   9 9.76841 12.7557   4
  -5 -14   9 24.8127 12.4032   3
   5 -14  -9 10.4529 14.7874   3
  -4 -14   9 105.416 15.9331   3
  -4 -14   9 143.560 16.6434   4
  -3 -14   9 -16.908 11.7920   3
  -3 -14   9 4.37240 11.5701   4
   3  14  -9 -11.928 10.5765   2
  -2 -14   9 185.723 17.6493   4
  -2 -14   9 158.477 18.6425   3
   2  14  -9 216.816 21.3941   2
  -1 -14   9 81.4167 16.0022   3
  -1 -14   9 81.6894 13.3634   4
   1  14  -9 81.3769 12.9553   2
   0 -14   9 106.100 19.4597   4
   0 -14   9 114.044 17.1002   3
   0  14  -9 120.012 14.1997   2
   1 -14   9 34.5903 15.2978   3
   1 -14   9 40.8019 10.6872   4
  -1  14  -9 53.4023 12.2701   2
   2 -14   9 -5.2151 9.50167   4
   2 -14   9 14.8341 14.2513   3
  -2  14  -9 -2.0494 11.7159   2
   3 -14   9 211.240 19.7311   4
   3 -14   9 229.634 23.1056   3
  -3  14  -9 228.327 24.4464   2
   4 -14   9 31.7059 16.4681   3
  -4  14  -9 37.9275 13.8557   2
   5 -14   9 17.5380 15.6366   3
  -5  14  -9 -3.7298 14.3108   2
  -5 -15   9 -4.8555 13.2626   3
  -5 -15   9 -7.3368 13.8657   4
   5 -15  -9 11.9610 14.9964   3
  -4 -15   9 91.2367 15.8445   3
  -4 -15   9 106.091 15.4738   4
   4 -15  -9 126.367 18.2383   3
  -3 -15   9 2.85751 12.9018   4
  -3 -15   9 14.0435 13.8623   3
   3  15  -9 2.92542 12.3566   2
  -2 -15   9 67.9447 14.0551   4
  -2 -15   9 91.6622 16.2390   3
   2  15  -9 76.4644 13.3338   2
  -1 -15   9 10.0489 13.9301   3
  -1 -15   9 18.9262 11.4545   4
   1  15  -9 4.71750 11.5039   2
   0 -15   9 11.5624 14.5233   3
   0 -15   9 30.2226 11.4307   4
   0  15  -9 29.6676 12.4418   2
   1 -15   9 99.2196 17.5525   3
   1 -15   9 138.048 14.5358   4
  -1  15  -9 127.904 15.7519   2
   2 -15   9 10.8611 15.7246   3
   2 -15   9 11.3024 18.2295   4
  -2  15  -9 2.50539 12.5963   2
   3 -15   9 7.73807 15.6514   3
   3 -15   9 6.11729 13.3440   4
  -3  15  -9 8.68192 13.7668   2
   4 -15   9 67.9391 17.2824   3
  -4  15  -9 19.8641 14.9983   2
  -4 -16   9 17.0406 14.6439   3
   4 -16  -9 -0.3296 15.8494   3
  -4 -16   9 -3.0141 13.7967   4
   3 -16  -9 75.4218 18.1344   3
  -3 -16   9 35.9450 14.7723   3
  -3 -16   9 33.7513 14.1171   4
   3  16  -9 45.6054 13.3762   2
  -2 -16   9 35.2860 15.6404   3
  -2 -16   9 35.0382 13.0101   4
   2 -16  -9 27.5568 16.5850   3
   2  16  -9 61.5198 13.7882   2
  -1 -16   9 7.96969 14.3694   3
  -1 -16   9 7.66700 12.3011   4
   1  16  -9 -11.557 12.7013   2
   0 -16   9 50.6360 16.5293   3
   0 -16   9 29.1236 12.4097   4
   0  16  -9 63.5948 14.2031   2
   1 -16   9 40.0742 11.8873   4
   1 -16   9 20.4349 15.9743   3
  -1  16  -9 43.8356 13.8817   2
   2 -16   9 3.52160 10.8578   4
   2 -16   9 5.12251 15.6496   3
  -2  16  -9 -13.881 13.2756   2
   3 -16   9 0.48624 16.1402   3
  -3  16  -9 19.9138 14.5946   2
  -2 -17   9 73.3938 16.8987   3
  -2 -17   9 78.0383 14.9294   4
   2 -17  -9 46.3936 17.4982   3
   2  17  -9 72.9017 15.0768   2
  -1 -17   9 -1.2169 13.2584   4
   1 -17  -9 -2.1077 16.4877   3
  -1 -17   9 17.9526 16.1938   3
   1  17  -9 24.3739 13.8012   2
   0 -17  -9 19.2644 16.2873   3
   0 -17   9 11.4547 12.8123   4
   0 -17   9 7.78334 16.8089   3
   0  17  -9 7.68338 14.2664   2
   1 -17   9 -29.664 16.3609   3
  -1 -17  -9 4.20694 16.5249   3
   1 -17   9 13.2905 11.9459   4
  -1  17  -9 5.47441 14.0771   2
   2 -17   9 -0.2679 16.3776   3
  -2 -17  -9 -7.0605 16.2255   3
  -9   0  10 35.0134 19.4447   2
  -8   0  10 653.545 43.8327   2
  -7   0  10 87.5262 13.7482   2
  -7   0  10 167.556 19.0352   3
   6   0 -10 5.55829 10.1443   3
  -6   0  10 30.5378 9.88528   2
  -6   0  10 17.0747 6.49001   2
  -6   0  10 13.1059 11.8082   3
   5   0 -10 265.213 23.0786   3
  -5   0  10 259.613 19.8697   2
  -5   0  10 258.357 32.4049   1
   5   0 -10 267.508 30.0249   1
  -5   0  10 206.073 20.3712   2
  -5   0  10 275.485 24.5361   3
  -4   0  10 26.6557 7.04974   2
  -4   0  10 11.4918 4.67063   2
   4   0 -10 23.5558 10.6102   3
  -4   0  10 35.3479 12.6650   3
   4   0 -10 18.5362 13.3449   1
  -4   0  10 25.8305 14.8818   1
   3   0 -10 185.375 19.2613   3
   3   0 -10 178.412 18.9442   1
   3   0 -10 173.971 17.2165   4
  -3   0  10 146.845 24.9934   1
  -3   0  10 141.837 10.8978   2
  -3   0  10 121.748 16.5232   3
  -2   0  10 106.961 16.1168   3
   2   0 -10 91.3987 13.1220   1
  -2   0  10 97.1680 17.1005   1
  -2   0  10 93.3836 8.62520   2
   2   0 -10 104.574 13.1452   3
   2   0 -10 114.259 11.2058   4
   1   0 -10 27.7157 10.6498   3
   1   0 -10 61.1867 8.38737   4
  -1   0  10 52.9023 13.7393   3
  -1   0  10 50.9207 13.8749   1
  -1   0  10 52.2258 5.80597   2
   1   0 -10 36.3666 10.2491   1
   0   0  10 377.120 32.4652   3
   0   0  10 429.493 34.2439   1
   0   0 -10 363.244 30.0035   1
   0   0 -10 415.145 25.4628   4
   0   0  10 445.086 24.7158   2
   0   0 -10 362.555 28.9514   3
   0   0 -10 390.525 23.2184   2
   1   0  10 449.621 32.1848   3
   1   0  10 423.438 34.1641   1
  -1   0 -10 396.670 30.4573   1
  -1   0 -10 400.217 30.2701   3
   1   0  10 444.826 26.3033   2
  -1   0 -10 395.756 24.0844   2
  -1   0 -10 407.779 25.3005   4
  -2   0 -10 293.617 18.8182   2
  -2   0 -10 311.247 18.5417   4
   2   0  10 298.292 29.6913   1
   2   0  10 340.581 30.0496   3
   2   0  10 334.023 22.5195   2
  -2   0 -10 279.010 24.9419   1
   3   0  10 1066.42 59.5160   2
  -3   0 -10 946.723 57.1027   2
   4   0  10 79.7661 13.7959   2
   4   0  10 78.4125 18.4779   3
  -4   0 -10 90.4154 8.61220   2
   5   0  10 102.008 19.7962   3
  -5   0 -10 130.860 13.3971   2
   6   0  10 37.2949 19.5280   3
  -6   0 -10 41.2513 9.35045   2
   7   0  10 117.428 24.6906   3
   8   0  10 -6.0248 18.9981   3
  -8   0 -10 5.28408 11.2682   2
  -9   0 -10 119.059 15.2635   2
   9   0  10 137.273 21.6907   3
  -9  -1  10 -11.586 15.5812   2
  -9   1  10 -4.8159 14.6365   2
  -8  -1  10 136.236 16.7374   2
  -7  -1  10 103.603 13.2895   3
  -7  -1  10 121.540 14.4494   2
  -7   1  10 105.883 13.4393   2
  -6  -1  10 153.877 13.5606   2
   6  -1 -10 80.3298 13.1762   3
  -6  -1  10 151.935 15.0632   3
  -6  -1  10 136.063 12.8621   2
   6   1 -10 106.364 13.4253   3
  -6   1  10 108.220 11.4885   2
  -6   1  10 114.788 14.7711   3
  -6   1  10 70.7084 19.5809   1
  -6   1  10 125.287 12.4064   2
  -5  -1  10 43.8279 16.7650   1
   5  -1 -10 112.118 12.9789   3
  -5  -1  10 89.5523 10.5500   2
  -5  -1  10 91.1183 13.9592   3
  -5  -1  10 89.0498 8.25054   2
   5  -1 -10 75.2733 15.9041   1
  -5   1  10 45.2437 17.2521   1
  -5   1  10 109.685 15.3456   3
   5   1 -10 103.317 13.3696   3
  -5   1  10 71.4882 7.13618   2
  -5   1  10 129.402 13.3301   2
   5   1 -10 83.2714 15.1848   1
  -4  -1  10 280.554 19.4016   2
  -4  -1  10 407.915 27.8539   3
   4  -1 -10 310.639 24.4166   3
  -4  -1  10 262.700 32.3401   1
   4  -1 -10 382.366 38.7841   1
   4   1 -10 315.649 25.6806   3
  -4   1  10 288.665 18.4663   2
  -4   1  10 250.409 28.3500   1
   4   1 -10 304.477 30.9135   1
  -4   1  10 337.904 20.3194   2
  -4   1  10 324.949 27.7952   3
   3  -1 -10 38.8544 10.8389   3
  -3  -1  10 39.0079 20.1894   1
  -3  -1  10 52.3328 13.4967   3
   3  -1 -10 50.8824 9.96956   4
  -3  -1  10 51.4080 5.77947   2
   3  -1 -10 40.6992 12.2067   1
   3   1 -10 66.5660 19.2475   1
   3   1 -10 46.5286 11.3246   3
   3   1 -10 69.1922 10.2205   4
  -3   1  10 49.3307 5.26524   2
  -3   1  10 42.3314 4.15382   2
  -3   1  10 57.2544 14.6418   3
  -3   1  10 32.7098 14.7474   1
   2  -1 -10 201.815 19.5756   3
  -2  -1  10 197.884 25.7954   1
  -2  -1  10 206.122 14.3591   2
  -2  -1  10 219.019 23.3593   3
   2  -1 -10 188.936 22.3010   1
   2  -1 -10 212.249 17.7089   4
  -2   1  10 234.627 23.4626   3
   2   1 -10 242.855 18.2525   4
  -2   1  10 205.007 27.5159   1
   2   1 -10 225.981 24.0957   1
   2   1 -10 248.671 21.4290   3
   1  -1 -10 538.413 32.4395   4
  -1  -1  10 524.797 30.9141   2
  -1  -1  10 566.601 37.2632   3
   1  -1 -10 502.593 34.7025   3
   1  -1 -10 508.414 36.4969   1
  -1  -1  10 483.743 39.7099   1
   1   1 -10 539.444 34.8762   3
  -1   1  10 524.477 37.1033   3
   1   1 -10 529.277 32.4058   4
   1   1 -10 545.664 37.5991   1
  -1   1  10 485.715 40.0049   1
   0  -1 -10 108.766 14.0286   3
   0  -1 -10 156.670 13.2477   4
   0  -1  10 161.199 17.2962   3
   0  -1 -10 146.452 19.2747   1
   0  -1  10 168.101 18.8442   1
   0  -1  10 179.070 13.3068   2
   0   1  10 120.419 17.7322   3
   0   1 -10 150.018 17.5874   3
   0   1 -10 114.730 14.6427   1
   0   1 -10 184.210 13.3975   4
   0   1 -10 150.340 10.1783   2
   0   1  10 100.836 17.1656   1
   1  -1  10 0.09400 12.3655   3
  -1  -1 -10 -0.5030 3.19605   2
  -1  -1 -10 -14.243 7.62200   1
  -1  -1 -10 -2.7747 11.9090   3
   1  -1  10 3.45044 12.3947   1
  -1  -1 -10 -1.8204 5.12825   4
   1  -1  10 1.32325 7.45731   2
  -1   1 -10 -0.2332 3.71789   2
   1   1  10 15.5543 12.2728   1
  -1   1 -10 -2.3451 4.69640   4
  -1   1 -10 0.39023 9.07145   1
  -1   1 -10 -1.1140 13.0497   3
   1   1  10 13.0951 14.2141   3
  -2  -1 -10 26.1903 4.06075   2
   2  -1  10 31.6209 13.0042   1
   2  -1  10 18.8072 10.8635   2
  -2  -1 -10 18.2913 4.59262   4
   2  -1  10 24.3027 13.7825   3
  -2  -1 -10 2.14964 8.29107   1
  -2   1 -10 23.6556 4.92748   2
   2   1  10 20.2285 13.2394   1
   2   1  10 22.5775 15.2873   3
  -2   1 -10 16.2104 9.96051   1
  -3  -1 -10 310.007 21.6953   2
   3  -1  10 403.757 26.4632   2
   3  -1  10 458.287 33.0293   3
   3  -1  10 293.229 34.2122   1
  -3   1 -10 356.724 22.3044   2
   3   1  10 385.185 34.3281   3
   4  -1  10 77.8693 13.6756   2
  -4  -1 -10 64.7908 7.28674   2
   4  -1  10 77.1052 17.6672   3
  -4   1 -10 59.1551 7.71282   2
   4   1  10 45.9961 18.2877   3
   5  -1  10 38.3848 14.4000   2
   5  -1  10 50.9414 17.3775   3
  -5  -1 -10 20.5736 7.16090   2
  -5   1 -10 27.3661 7.60934   2
   5   1  10 14.7215 18.9695   3
  -6  -1 -10 7.35984 8.22140   2
   6  -1  10 37.1854 20.5574   3
   6   1  10 20.6467 20.0405   3
  -6   1 -10 9.67565 8.46885   2
   7  -1  10 23.1020 19.9878   3
  -7  -1 -10 4.00563 11.3116   2
  -7   1 -10 14.6776 10.5180   2
   7   1  10 -6.8215 21.2435   3
   8  -1  10 3.44794 18.6004   3
  -8  -1 -10 8.62233 10.7386   2
   8   1  10 32.7145 19.8444   3
  -8   1 -10 12.6157 11.3151   2
   9  -1  10 -3.1994 17.8973   3
  -9  -1 -10 -5.5873 11.9944   2
  -9   1 -10 -2.0820 12.8486   2
   9   1  10 -3.1433 18.1501   3
  -9  -2  10 -8.0287 14.7456   2
  -8  -2  10 13.4067 13.3842   2
  -8   2  10 17.3348 12.0480   2
  -7  -2  10 53.7228 11.6096   3
  -7  -2  10 29.1987 12.3722   2
  -7   2  10 25.1241 10.7248   2
  -6  -2  10 207.052 19.7630   2
  -6  -2  10 220.218 21.4138   3
   6  -2 -10 188.706 20.2192   3
  -6  -2  10 160.182 15.4582   2
  -6   2  10 225.150 22.0967   3
   6   2 -10 134.076 15.5052   3
  -6   2  10 177.538 16.8313   2
  -6   2  10 155.310 14.4713   2
  -6   2  10 154.201 23.9827   1
  -5  -2  10 90.7155 18.9315   1
   5  -2 -10 95.3474 12.6396   3
  -5  -2  10 115.386 14.7248   3
   5  -2 -10 79.7143 15.9958   1
  -5  -2  10 109.032 11.4507   2
  -5   2  10 96.4995 8.93350   2
   5   2 -10 74.7108 20.4017   1
  -5   2  10 95.6502 8.49742   2
   5   2 -10 82.2918 13.1507   3
  -5   2  10 132.540 15.2650   3
  -5   2  10 68.4150 17.3204   1
   4  -2 -10 293.177 24.3345   3
   4  -2 -10 253.000 29.2964   1
  -4  -2  10 282.615 19.5972   2
  -4  -2  10 302.112 25.4516   3
  -4  -2  10 367.082 41.0048   1
  -4   2  10 284.048 18.2970   2
  -4   2  10 349.832 28.3154   3
  -4   2  10 313.181 17.6862   2
   4   2 -10 352.397 25.6854   3
   4   2 -10 306.360 30.7179   1
  -4   2  10 229.068 32.8398   1
  -3  -2  10 80.0797 15.5373   1
  -3  -2  10 80.3582 7.59335   2
  -3  -2  10 76.0574 13.3142   3
   3  -2 -10 78.1895 13.8157   1
   3  -2 -10 87.4374 11.7366   3
   3  -2 -10 83.8900 10.5551   4
   3   2 -10 74.0920 14.9830   1
  -3   2  10 79.7645 15.1353   3
  -3   2  10 61.5643 16.7837   1
   3   2 -10 70.7625 12.5401   3
   3   2 -10 88.8168 11.0185   4
   2  -2 -10 25.1426 10.9679   1
  -2  -2  10 30.0308 12.5033   3
   2  -2 -10 30.4133 8.27512   4
  -2  -2  10 36.7938 14.3565   1
  -2  -2  10 39.3143 5.92029   2
   2  -2 -10 48.0723 10.4975   3
  -2   2  10 37.0606 14.9658   3
   2   2 -10 39.9466 12.8750   1
   2   2 -10 52.1040 11.3404   3
  -2   2  10 28.1058 13.6569   1
   2   2 -10 42.4203 8.85159   4
   1  -2 -10 46.8432 7.73987   4
   1  -2 -10 31.7969 10.1599   3
  -1  -2  10 59.5887 6.72330   2
   1  -2 -10 19.6441 9.95274   1
  -1  -2  10 106.431 21.6020   1
  -1  -2  10 47.4562 12.9860   3
  -1   2  10 63.9395 15.7354   3
   1   2 -10 50.2778 5.23744   2
   1   2 -10 42.5702 11.5763   3
   1   2 -10 72.0584 18.6399   1
  -1   2  10 39.9179 14.8650   1
   1   2 -10 48.5686 7.97131   4
   0  -2 -10 456.948 33.7298   1
   0  -2  10 510.298 38.0790   1
   0  -2  10 537.581 35.1905   3
   0  -2 -10 436.283 29.7140   4
   0  -2  10 548.011 29.8123   2
   0  -2 -10 419.520 32.5673   3
   0   2 -10 503.226 29.7256   4
   0   2 -10 503.013 34.0729   3
   0   2 -10 491.682 35.5243   1
   0   2 -10 473.703 28.3520   2
   0   2  10 441.137 37.9217   1
   0   2  10 513.052 37.5083   3
   1  -2  10 671.774 45.8349   1
   1  -2  10 721.266 43.8006   3
  -1  -2 -10 610.620 41.7891   1
  -1  -2 -10 618.666 36.3827   2
  -1   2 -10 682.017 43.6370   1
   1   2  10 679.990 45.7224   3
   1   2  10 619.133 45.9230   1
  -1   2 -10 630.533 37.3812   2
   2  -2  10 136.307 16.3529   3
   2  -2  10 115.933 12.0616   2
  -2  -2 -10 111.164 9.77270   4
  -2  -2 -10 116.406 16.1723   1
  -2  -2 -10 101.500 8.14599   2
   2  -2  10 118.604 16.3427   1
   2   2  10 67.4151 15.6433   1
   2   2  10 89.2046 18.7307   3
  -2   2 -10 100.808 13.7491   1
  -2   2 -10 109.522 10.3033   2
  -3  -2 -10 53.9197 4.59535   4
   3  -2  10 45.1231 13.9182   1
  -3  -2 -10 48.2660 5.56248   2
   3  -2  10 38.2782 11.2272   2
   3  -2  10 35.8208 14.1359   3
   3   2  10 41.1400 17.2745   3
  -3   2 -10 51.4275 6.97900   2
   4  -2  10 44.7229 14.8094   3
   4  -2  10 37.0381 12.6592   2
  -4  -2 -10 35.0817 6.17534   2
   4   2  10 32.3716 18.7574   3
  -4   2 -10 39.1935 7.56826   2
   5  -2  10 113.581 17.0297   2
   5  -2  10 141.931 19.8293   3
  -5  -2 -10 120.909 13.1416   2
   5   2  10 89.8860 20.8543   3
  -5   2 -10 142.433 14.6332   2
  -6  -2 -10 5.92904 7.99495   2
   6   2  10 2.89825 22.4462   3
  -6   2 -10 14.7686 9.34803   2
   7  -2  10 18.1054 18.2242   3
  -7  -2 -10 26.4935 9.64430   2
   7   2  10 49.1436 22.9254   3
  -7   2 -10 25.7267 10.2416   2
   8  -2  10 110.366 21.7071   3
  -8  -2 -10 108.733 13.4331   2
  -8   2 -10 79.5334 13.3508   2
   8   2  10 100.907 21.0783   3
  -9  -2 -10 16.4516 12.6952   2
   9  -2  10 22.3019 18.7625   3
  -9   2 -10 0.34074 12.2471   2
   9   2  10 -1.4287 19.8310   3
  -9  -3  10 21.5031 15.4182   2
  -8  -3  10 5.00517 9.29430   3
  -8  -3  10 18.5832 14.5448   2
  -8   3  10 20.3770 11.2310   2
  -7  -3  10 128.221 14.0406   3
  -7  -3  10 120.677 15.2481   2
  -7   3  10 107.023 11.9951   2
  -6  -3  10 116.143 14.4326   3
  -6  -3  10 127.816 11.2975   2
   6  -3 -10 69.8323 18.5189   1
   6  -3 -10 141.983 14.5540   3
  -6   3  10 145.392 24.2251   1
  -6   3  10 114.098 11.0556   2
   6   3 -10 92.8668 13.4639   3
  -6   3  10 105.579 10.1980   2
  -5  -3  10 10.1185 10.9662   3
   5  -3 -10 -1.1249 13.5070   1
  -5  -3  10 -8.9125 15.3437   1
  -5  -3  10 0.60771 6.81788   2
   5  -3 -10 -14.175 9.90182   3
  -5   3  10 -6.0315 13.6636   1
   5   3 -10 -8.0054 10.4633   3
  -5   3  10 -2.9119 13.1908   3
  -5   3  10 0.05089 3.16050   2
  -4  -3  10 120.228 11.9827   2
   4  -3 -10 101.847 16.9053   1
  -4  -3  10 142.958 15.4371   3
   4  -3 -10 106.119 13.4528   3
   4   3 -10 166.033 19.0029   3
   4   3 -10 102.086 17.5295   1
  -4   3  10 72.7522 18.6495   1
  -4   3  10 128.667 16.4067   3
   3  -3 -10 2.78313 8.50392   4
   3  -3 -10 9.79457 10.5289   1
  -3  -3  10 4.83645 5.93500   2
  -3  -3  10 2.54720 13.5357   1
   3  -3 -10 -1.4166 9.27177   3
  -3  -3  10 -6.2091 11.3111   3
  -3   3  10 16.9528 14.1076   3
   3   3 -10 11.2268 10.9717   3
  -3   3  10 -0.5474 13.7672   1
   3   3 -10 3.27145 8.65968   4
   3   3 -10 0.31945 12.0698   1
  -2  -3  10 50.7029 7.60184   2
   2  -3 -10 38.0621 10.4349   1
  -2  -3  10 36.1423 11.8352   3
   2  -3 -10 28.3897 9.81426   3
  -2  -3  10 56.0493 13.1270   1
   2   3 -10 53.1228 12.7118   1
   2   3 -10 48.4752 12.0968   3
  -2   3  10 35.7746 14.6651   3
   2   3 -10 34.9102 8.65580   4
  -2   3  10 42.2917 14.3461   1
  -1  -3  10 22.1840 10.0779   2
  -1  -3  10 42.1454 12.8231   1
   1  -3 -10 15.8050 8.81025   1
  -1  -3  10 9.31471 11.0753   3
   1  -3 -10 26.9410 10.4655   3
   1   3 -10 10.4711 7.13797   4
   1   3 -10 19.9368 4.72927   2
   1   3 -10 26.6893 10.7266   3
   1   3 -10 15.2669 11.7046   1
  -1   3  10 -10.117 14.0365   3
  -1   3  10 -0.5146 14.3083   1
   0  -3  10 3.53333 6.74034   2
   0  -3  10 5.36696 11.7018   3
   0  -3 -10 14.8729 8.61269   1
   0  -3  10 -7.7576 11.7888   1
   0   3 -10 12.1690 6.06777   4
   0   3 -10 5.11605 10.1898   1
   0   3 -10 12.0519 4.66069   2
   0   3  10 8.58811 12.4912   1
   0   3  10 4.89260 14.6016   3
   1  -3  10 11.0055 12.5196   1
   1  -3  10 17.7806 11.7762   3
   1  -3  10 10.1531 8.04394   2
  -1  -3 -10 5.70156 8.30142   1
   1   3  10 11.6289 13.0609   1
  -1   3 -10 28.1016 11.2635   1
   1   3  10 17.4552 15.5028   3
  -1   3 -10 16.5185 5.00013   2
  -2  -3 -10 102.619 12.4613   1
   2  -3  10 113.984 12.1431   2
   2  -3  10 118.224 15.9389   3
   2  -3  10 109.896 16.0977   1
   2   3  10 86.3251 18.4100   3
  -2   3 -10 120.429 11.1238   2
   3  -3  10 28.5290 10.9233   2
   3  -3  10 24.6283 12.8839   1
  -3  -3 -10 19.3090 4.40925   2
  -3  -3 -10 28.5316 4.44962   4
   3  -3  10 23.3896 13.1349   3
   3   3  10 31.2410 18.1773   3
  -3   3 -10 27.0337 6.51907   2
   4  -3  10 169.237 17.7232   2
   4  -3  10 148.956 18.9417   3
  -4  -3 -10 196.957 13.6958   2
  -4   3 -10 199.844 15.8416   2
   4   3  10 133.565 22.3794   3
   5  -3  10 10.8818 14.9440   3
  -5  -3 -10 4.85816 6.64194   2
   5   3  10 -7.3548 18.8999   3
  -5   3 -10 3.57071 7.92577   2
  -6  -3 -10 1.74622 7.88634   2
   6  -3  10 25.2466 19.7544   3
  -6   3 -10 5.95274 8.93112   2
   7  -3  10 282.691 32.3618   3
  -7  -3 -10 267.428 21.6408   2
   7   3  10 211.788 26.8828   3
  -7   3 -10 271.173 23.3016   2
   8  -3  10 18.1897 19.0057   3
  -8  -3 -10 -5.8762 10.2822   2
   8   3  10 -8.4490 19.0758   3
  -8   3 -10 0.53348 11.6305   2
   9  -3  10 -8.9239 18.4045   3
  -9  -3 -10 5.78821 12.2153   2
  -9   3 -10 -0.6336 12.5996   2
  -9  -4  10 119.599 17.9615   2
  -8  -4  10 46.3184 14.7980   2
  -8  -4  10 28.4865 10.0229   3
  -7  -4  10 28.1929 10.8778   3
  -7  -4  10 16.2550 12.6676   2
  -7   4  10 21.5521 8.27555   2
  -6  -4  10 67.7308 10.0732   2
  -6  -4  10 82.3020 12.2869   3
   6  -4 -10 22.4675 14.4870   1
  -6   4  10 72.2649 21.4949   1
  -6   4  10 64.9795 6.92236   2
   6   4 -10 78.6764 12.3177   3
  -5  -4  10 46.5241 8.17196   2
  -5  -4  10 28.0960 11.6248   3
   5  -4 -10 10.8241 13.7906   1
   5   4 -10 47.7115 11.9688   3
  -5   4  10 35.6643 17.4650   1
  -4  -4  10 88.7760 18.0051   1
  -4  -4  10 112.203 9.81758   2
   4  -4 -10 102.669 16.8110   1
  -4  -4  10 108.264 13.8894   3
   4   4 -10 88.0525 17.4308   1
  -4   4  10 89.1762 18.2626   1
  -4   4  10 127.458 17.3024   3
   4   4 -10 98.0795 14.1629   3
   3  -4 -10 8.31879 10.7580   1
  -3  -4  10 1.95256 10.9072   3
  -3  -4  10 17.1686 14.2150   1
  -3  -4  10 9.69487 6.48950   2
   3   4 -10 13.8254 13.7809   1
  -3   4  10 25.1446 14.3602   1
  -3   4  10 24.4063 14.8586   3
   3   4 -10 -0.0151 11.9529   3
   3   4 -10 6.38679 9.21079   4
  -2  -4  10 7.07613 10.6508   3
   2  -4 -10 6.10741 9.99821   1
  -2  -4  10 3.84058 6.38590   2
  -2  -4  10 5.74407 13.2591   1
  -2   4  10 1.96880 14.9188   1
   2   4 -10 6.63002 5.11697   2
   2   4 -10 4.29662 13.4581   3
   2   4 -10 -1.3455 10.1320   1
  -2   4  10 -2.7846 14.8326   3
   2   4 -10 14.4246 7.96147   4
   1  -4 -10 53.9275 10.9718   1
  -1  -4  10 67.5079 8.11097   2
  -1  -4  10 43.6831 14.7097   1
  -1  -4  10 53.0465 12.2665   3
  -1   4  10 48.8808 15.4716   1
   1   4 -10 91.6807 9.11446   4
   1   4 -10 83.3008 9.03656   2
   1   4 -10 67.5181 13.8872   1
  -1   4  10 72.7130 17.0555   3
   0  -4  10 205.507 25.6578   1
   0  -4  10 203.545 15.5643   2
   0  -4  10 180.080 21.0536   3
   0  -4 -10 155.091 18.8573   1
   0   4  10 177.473 20.6832   3
   0   4 -10 169.932 22.9371   1
   0   4  10 155.721 20.7020   1
   0   4 -10 203.244 13.5980   2
   1  -4  10 84.9782 14.2865   3
  -1  -4 -10 132.326 16.9064   1
   1  -4  10 104.245 17.0516   1
   1  -4  10 123.570 11.3857   2
  -1   4 -10 146.846 11.2587   2
   1   4  10 109.241 19.4916   3
   1   4  10 54.0780 19.5082   1
  -1   4 -10 130.298 16.2992   1
   2  -4  10 107.317 16.2025   1
  -2  -4 -10 110.654 6.99177   2
  -2  -4 -10 121.686 7.27345   2
   2  -4  10 99.7418 15.0159   3
   2  -4  10 102.045 12.4504   2
  -2  -4 -10 89.6896 12.5061   1
   2   4  10 111.182 20.1010   3
  -2   4 -10 114.873 11.7379   2
   3  -4  10 264.244 22.2270   2
   3  -4  10 202.676 28.5187   1
  -3  -4 -10 254.480 15.4080   2
   3  -4  10 218.285 23.5104   3
  -3   4 -10 249.147 18.1461   2
   3   4  10 243.653 29.2825   3
   4  -4  10 201.350 22.4580   3
  -4  -4 -10 182.694 13.6736   2
   4  -4  10 173.432 18.0107   2
   4   4  10 155.882 24.1864   3
  -4   4 -10 197.314 16.4884   2
  -5  -4 -10 111.993 10.0994   2
   5   4  10 101.469 21.9418   3
  -5   4 -10 120.603 12.1858   2
  -6  -4 -10 84.8054 9.84694   2
   6  -4  10 76.0042 16.8221   3
   6   4  10 104.132 33.1007   3
  -7  -4 -10 11.3036 9.38492   2
   7  -4  10 31.4584 16.4168   3
  -7   4 -10 20.2888 10.7661   2
   7   4  10 6.37802 19.6515   3
  -8  -4 -10 8.40696 10.4635   2
   8  -4  10 11.6537 18.1488   3
  -8   4 -10 12.3484 11.7171   2
  -9  -4 -10 79.7033 14.2754   2
   9  -4  10 121.428 21.5345   3
  -9   4 -10 108.877 15.9551   2
  -9  -5  10 95.6503 18.0278   2
  -8  -5  10 13.3406 14.4159   2
  -8  -5  10 2.04507 9.30319   3
  -7  -5  10 110.781 13.7606   3
   6  -5 -10 156.792 33.8779   1
  -6  -5  10 196.415 20.9398   3
   6   5 -10 212.033 20.9808   3
  -5  -5  10 14.3055 11.1468   3
   5  -5 -10 17.0574 25.4191   1
  -5  -5  10 27.0094 8.33999   2
   5   5 -10 3.53948 13.2387   3
  -4  -5  10 76.7926 17.8366   1
  -4  -5  10 54.2312 8.42264   2
  -4  -5  10 66.2378 11.9691   3
   4  -5 -10 41.9620 14.0088   1
  -4   5  10 61.4242 20.2304   1
  -3  -5  10 135.657 19.1545   1
  -3  -5  10 83.5365 13.2358   3
   3  -5 -10 96.5802 15.3889   1
  -3  -5  10 143.093 12.6214   2
   3   5 -10 104.906 21.5629   1
  -3   5  10 115.431 17.2819   3
   3   5 -10 127.008 13.4878   4
  -3   5  10 55.1843 16.2498   1
  -2  -5  10 313.318 31.2927   1
  -2  -5  10 281.639 24.9601   3
  -2  -5  10 291.298 20.2473   2
   2  -5 -10 274.815 26.1260   1
   2   5 -10 418.526 41.1685   1
   2   5 -10 303.151 19.5045   2
  -2   5  10 280.622 29.7240   3
  -2   5  10 250.224 32.5119   1
   1  -5 -10 178.976 20.4522   1
  -1  -5  10 186.657 20.0551   3
  -1  -5  10 219.247 16.2595   2
  -1  -5  10 257.036 28.1158   1
  -1   5  10 186.614 21.3726   3
   1   5 -10 179.795 25.3251   1
  -1   5  10 157.652 22.9890   1
   1   5 -10 217.059 14.6941   2
   0  -5  10 37.1929 11.8046   3
   0  -5 -10 23.8390 9.55276   1
   0  -5  10 51.1544 14.1893   1
   0  -5  10 28.2854 8.03818   2
   0   5  10 6.60982 16.3992   3
   0   5 -10 45.7320 12.4603   1
   0   5 -10 45.0838 6.46874   2
   1  -5  10 10.1144 12.5255   1
  -1  -5 -10 -4.7060 8.03071   1
   1  -5  10 -8.5119 8.04822   2
   1  -5  10 14.9349 11.0864   3
   1   5  10 -2.5991 15.8777   3
  -1   5 -10 -20.882 10.1626   1
  -1   5 -10 0.47382 5.86645   2
   2  -5  10 46.0726 14.5959   1
   2  -5  10 52.7890 13.3693   3
   2  -5  10 65.7356 11.1900   2
  -2   5 -10 76.6090 8.18790   2
   2   5  10 51.7612 18.1099   3
   3  -5  10 249.658 29.6775   1
  -3  -5 -10 272.397 16.6229   2
   3  -5  10 213.014 24.4118   3
  -3  -5 -10 284.568 16.9344   2
   3  -5  10 276.154 23.7558   2
   3   5  10 280.294 33.2602   3
  -3   5 -10 296.269 19.9415   2
   4  -5  10 -15.284 13.7973   3
  -4  -5 -10 0.23095 4.94118   2
  -4   5 -10 -4.3243 7.70461   2
   4   5  10 8.15878 18.4109   3
  -5  -5 -10 75.2344 8.30982   2
   5  -5  10 68.2505 16.9595   3
  -5   5 -10 80.4782 10.8798   2
  -6  -5 -10 198.714 15.9304   2
   6  -5  10 127.291 18.6138   3
  -6   5 -10 147.253 14.8598   2
   6   5  10 160.510 24.1482   3
  -7  -5 -10 73.1415 10.7103   2
   7  -5  10 42.9955 16.4037   3
  -7   5 -10 52.5002 12.6300   2
  -8  -5 -10 6.31239 10.6430   2
   8  -5  10 -26.029 16.4654   3
  -8   5 -10 6.58410 12.6599   2
  -9  -6  10 19.8739 15.6212   2
  -8  -6  10 84.6070 16.5687   2
  -8  -6  10 92.7141 13.3798   3
  -7  -6  10 25.5344 11.0169   3
  -6  -6  10 214.475 22.1509   3
  -5  -6  10 -5.4308 10.5351   3
  -5  -6  10 -14.761 8.89253   2
  -4  -6  10 123.342 14.9894   3
  -4  -6  10 192.230 15.8337   2
   3  -6 -10 223.247 26.2764   1
  -3  -6  10 243.972 22.7834   3
  -3  -6  10 264.463 19.1609   2
  -3  -6  10 276.802 30.6993   1
  -2  -6  10 241.770 18.4183   2
   2  -6 -10 209.023 24.0413   1
  -2  -6  10 198.789 22.1322   3
  -2  -6  10 257.281 29.5537   1
   2   6 -10 245.577 17.1024   2
  -2   6  10 261.094 28.0531   3
   2   6 -10 237.479 28.3774   1
  -1  -6  10 7.89948 7.43724   2
  -1  -6  10 11.6600 13.7775   1
   1  -6 -10 2.97896 9.33332   1
  -1  -6  10 -1.6926 10.5291   3
  -1   6  10 -0.4605 15.9638   3
   1   6 -10 4.62561 10.6140   1
   1   6 -10 -1.0067 5.91639   2
   0  -6 -10 27.9654 11.3060   1
   0  -6  10 -1.4034 12.1929   1
   0  -6  10 13.5879 8.32185   2
   0  -6  10 19.3211 11.7366   3
   0   6 -10 4.77011 11.7581   1
   0   6 -10 8.68749 6.25935   2
   0   6  10 10.1638 16.1981   3
   1  -6  10 475.869 39.1866   3
   1  -6  10 571.439 43.7566   1
   1  -6  10 621.832 36.3719   2
  -1   6 -10 615.789 35.1359   2
   1   6  10 572.061 44.3514   3
  -1   6 -10 611.522 43.3457   1
   2  -6  10 26.1080 12.4763   3
   2  -6  10 38.5467 10.6574   2
   2  -6  10 6.82406 11.7683   1
   2   6  10 27.7646 19.1009   3
  -2   6 -10 58.3898 8.07172   2
  -3  -6 -10 46.1017 4.48237   2
   3  -6  10 36.2580 14.2403   3
   3  -6  10 35.4516 13.9957   1
   3  -6  10 52.7301 12.3665   2
  -3  -6 -10 47.8392 4.70419   2
  -3   6 -10 39.7709 8.79418   2
   3   6  10 28.9897 19.0203   3
  -4  -6 -10 114.190 10.4754   2
   4  -6  10 85.7224 21.5669   3
  -4   6 -10 115.263 11.7476   2
  -5  -6 -10 60.4674 8.07477   2
   5  -6  10 68.2447 15.0777   3
  -5  -6 -10 78.1701 7.55763   4
  -5  -6 -10 66.6556 11.2477   2
  -5   6 -10 75.0690 17.0294   2
   5   6  10 87.6586 22.4404   3
   6  -6  10 11.2859 14.1875   3
  -6  -6 -10 23.6735 8.06452   2
  -6   6 -10 28.9781 11.4290   2
  -7  -6 -10 -3.7722 9.35198   2
   7  -6  10 0.47422 15.7235   3
  -7   6 -10 -0.1574 11.4960   2
  -8  -6 -10 18.2056 11.0439   2
   8  -6  10 -3.8680 16.3749   3
  -8   6 -10 26.8768 13.0534   2
  -9  -7  10 9.80436 16.6506   2
  -7  -7  10 74.8188 12.1561   3
  -6  -7  10 245.153 23.2991   3
  -5  -7  10 206.964 21.6584   3
  -4  -7  10 77.4185 12.3935   3
  -4  -7  10 74.2246 11.1656   2
  -3  -7  10 180.679 21.3042   3
  -3  -7  10 183.845 17.3581   2
   3   7 -10 205.811 16.3450   2
  -2  -7  10 34.8856 8.72520   2
  -2  -7  10 31.5672 11.2210   3
  -2  -7  10 27.5522 15.8074   1
   2   7 -10 38.9325 7.63002   2
  -1  -7  10 183.981 23.2231   3
  -1  -7  10 225.077 18.9712   2
  -1  -7  10 279.538 38.5232   1
   1   7 -10 311.549 35.9807   1
   1   7 -10 251.646 17.9160   2
   0  -7  10 386.014 36.3332   1
   0  -7  10 319.466 29.7640   3
   0  -7  10 431.862 27.5043   2
   0   7 -10 455.917 26.3809   2
   0   7 -10 434.545 35.4509   1
   1  -7  10 19.8055 13.4087   1
   1  -7  10 9.96897 11.4022   3
   1  -7  10 -0.0678 9.34541   2
  -1   7 -10 12.7401 7.44834   2
   1   7  10 10.7131 17.3126   3
   2  -7  10 125.697 18.8666   3
   2  -7  10 148.709 15.0099   2
   2  -7  10 166.809 19.5705   1
  -2   7 -10 170.065 15.2142   2
   2   7  10 94.7379 21.5873   3
  -3  -7 -10 43.4099 4.35219   2
   3  -7  10 35.3429 15.3691   1
   3  -7  10 26.6992 14.5763   3
  -3  -7 -10 45.2175 6.03152   2
  -3   7 -10 52.5562 9.39684   2
   4  -7  10 19.9427 13.1448   3
  -4  -7 -10 5.31384 5.07675   2
  -4   7 -10 13.0538 9.46223   2
  -5  -7 -10 281.984 19.8831   2
  -5   7 -10 293.635 22.6294   2
   6  -7  10 15.9873 14.0923   3
  -6  -7 -10 16.6922 8.02278   2
  -6   7 -10 10.7046 10.8531   2
  -7  -7 -10 13.7267 9.57047   2
   7  -7  10 27.7293 14.8747   3
  -7   7 -10 52.3398 13.4052   2
  -8  -7 -10 57.3892 11.8653   2
   8  -7  10 50.0285 16.8911   3
  -8   7 -10 58.7794 15.0787   2
  -7  -8  10 -0.0574 10.4783   3
  -6  -8  10 26.3209 11.5126   3
  -5  -8  10 4.44397 10.7769   3
  -4  -8  10 7.46801 11.0975   3
  -3  -8  10 43.1384 12.2707   3
   3   8 -10 64.1101 8.97888   2
  -2  -8  10 81.2142 11.2035   2
  -2  -8  10 80.9767 14.0696   3
   2   8 -10 105.333 9.94768   2
  -1  -8  10 0.02157 13.8375   1
  -1  -8  10 -4.8561 10.9036   3
  -1  -8  10 -8.4483 8.62769   2
   1   8 -10 8.13860 7.38689   2
   0  -8  10 55.3082 20.7804   3
   0  -8  10 72.8465 10.9750   2
   0  -8  10 66.6338 17.8645   1
   0   8 -10 89.4245 17.9994   1
   0   8 -10 89.3908 9.78552   2
   1  -8  10 356.447 35.9183   1
  -1   8 -10 416.006 26.2341   2
   2  -8  10 12.5807 13.1835   1
   2  -8  10 7.73294 12.4504   3
  -2   8 -10 36.0444 8.57903   2
   3  -8  10 99.8581 16.1224   3
  -3  -8 -10 112.473 7.95179   2
   3  -8  10 88.2797 17.8305   1
  -3   8 -10 123.349 12.0677   2
  -4  -8 -10 63.0204 6.53874   2
   4  -8  10 61.2689 14.9766   3
  -4   8 -10 47.2806 14.3649   2
   5  -8  10 73.6197 16.0809   3
  -5  -8 -10 111.137 12.1650   2
  -5   8 -10 96.0919 13.2711   2
   6  -8  10 37.6799 15.0404   3
  -6  -8 -10 68.8813 9.21681   2
  -6   8 -10 59.9149 13.4427   2
  -7  -8 -10 -2.8709 10.3319   2
   7  -8  10 2.08977 14.3433   3
  -7   8 -10 3.67760 12.3904   2
  -8  -8 -10 -2.6124 10.7084   2
   8  -8  10 -5.8565 16.2990   3
  -8   8 -10 1.88112 13.6308   2
   8  -9 -10 74.5092 13.2217   3
  -7  -9  10 -22.220 10.7721   3
  -6  -9  10 -0.8671 17.0377   3
   3   9 -10 96.1125 10.7930   2
   2   9 -10 633.499 38.8396   2
  -1  -9  10 162.708 20.8242   3
   1   9 -10 231.510 17.9969   2
   0  -9  10 25.1639 12.4297   3
   0   9 -10 36.8824 8.36694   2
   1  -9  10 15.1758 12.4677   3
   1  -9  10 23.1258 17.2777   1
  -1   9 -10 27.0808 8.58679   2
   2  -9  10 30.5745 13.6759   3
   2  -9  10 19.2390 22.3222   1
  -2   9 -10 33.3912 9.22086   2
  -3  -9 -10 229.111 13.7883   2
   3  -9  10 245.131 28.4878   1
   3  -9  10 201.768 24.0643   3
  -4  -9 -10 66.3438 6.66900   2
   4  -9  10 41.1925 14.3432   3
  -4   9 -10 68.3682 11.4961   2
   5  -9  10 90.0689 16.8550   3
  -5  -9 -10 112.750 12.1560   2
  -5   9 -10 99.6662 13.8706   2
   6  -9  10 -6.2931 13.4120   3
  -6  -9 -10 1.85640 7.77751   2
  -6   9 -10 0.73006 11.6875   2
   7  -9  10 10.0079 14.0292   3
  -7  -9 -10 5.75513 17.4753   2
  -7   9 -10 14.4583 14.0983   2
  -7 -10  10 -8.8176 10.9151   3
  -6 -10  10 -0.8002 10.6789   3
  -5 -10  10 66.8574 13.3031   3
  -4 -10  10 22.0152 12.1378   3
  -3 -10  10 -5.7842 11.1179   3
  -2 -10  10 7.21345 10.4313   4
  -2 -10  10 6.95713 11.7102   3
   2  10 -10 30.4444 9.10787   2
  -1 -10  10 4.71258 12.4202   3
  -1 -10  10 17.8350 9.29993   4
   1  10 -10 10.2309 8.98460   2
   0 -10  10 38.3376 13.1509   3
   0 -10  10 37.7772 9.56819   4
   0  10 -10 56.3826 10.0748   2
   1 -10  10 -4.7422 12.3207   3
   1 -10  10 10.7055 7.73699   4
  -1  10 -10 3.36122 10.0141   2
   2 -10  10 -6.4916 13.1391   3
  -2  10 -10 26.5562 11.2518   2
   3 -10  10 25.1699 13.9926   3
  -3  10 -10 19.1152 10.1322   2
  -4 -10 -10 0.28320 4.88301   2
   4 -10  10 -0.7101 13.5109   3
  -4  10 -10 10.6697 11.1014   2
   5 -10  10 70.3120 16.0032   3
  -5 -10 -10 53.9719 7.90343   2
  -5  10 -10 65.3467 13.0588   2
   6 -10  10 15.7604 14.4838   3
  -6 -10 -10 -0.8852 8.35131   2
  -6  10 -10 -12.796 12.8472   2
   7 -10  10 16.3664 15.4864   3
  -7  10 -10 11.3629 13.8055   2
   7 -11 -10 37.5927 13.8200   3
  -7 -11  10 17.2203 11.5245   3
  -6 -11  10 24.0905 11.6352   3
  -5 -11  10 -0.4468 11.6913   3
  -4 -11  10 98.3545 15.0063   3
  -3 -11  10 7.96120 11.5901   3
  -3 -11  10 7.45901 10.8424   4
   3  11 -10 3.74514 9.38210   2
  -2 -11  10 -9.3557 11.5910   3
   2  11 -10 -2.7535 9.03094   2
  -1 -11  10 52.6453 14.0431   3
  -1 -11  10 51.7531 11.2752   4
   1  11 -10 58.9455 10.4925   2
   0 -11  10 26.0816 9.69344   4
   0 -11  10 22.4655 13.1119   3
   0  11 -10 31.4946 9.54707   2
   1 -11  10 15.4900 13.2197   3
   1 -11  10 13.2943 8.62721   4
  -1  11 -10 29.6955 10.4228   2
   2 -11  10 37.0785 8.34377   4
   2 -11  10 43.6446 15.0204   3
  -2  11 -10 41.9112 10.6471   2
   3 -11  10 10.5071 14.0242   3
  -3  11 -10 -0.9944 10.5012   2
   4 -11  10 126.258 18.7181   3
  -4  11 -10 170.243 16.4057   2
   5 -11  10 -10.531 14.8548   3
  -5  11 -10 -9.6896 12.6698   2
   6 -11  10 12.9946 15.0842   3
  -6  11 -10 22.4209 13.9469   2
  -6 -12  10 -1.7570 11.3145   3
  -5 -12  10 2.41904 12.1464   3
  -4 -12  10 64.9988 14.1252   4
  -4 -12  10 82.1715 14.8183   3
  -3 -12  10 11.4995 11.5670   4
  -3 -12  10 20.0992 12.6137   3
   3  12 -10 18.7872 10.4411   2
  -2 -12  10 44.8558 11.8946   4
  -2 -12  10 18.1063 12.9700   3
   2  12 -10 48.6966 10.5142   2
  -1 -12  10 -3.3319 13.3183   3
  -1 -12  10 5.36428 11.7923   4
   1  12 -10 -8.0245 9.63670   2
   0 -12  10 115.806 13.6081   4
   0 -12  10 153.986 18.0830   3
   0  12 -10 158.142 14.6367   2
   1 -12  10 34.1523 14.7133   3
   1 -12  10 31.9844 9.58152   4
  -1  12 -10 40.4731 11.0588   2
   2 -12  10 12.5858 8.37668   4
   2 -12  10 -0.8286 14.3639   3
  -2  12 -10 12.4869 10.6049   2
   3 -12  10 122.526 18.3185   3
   3 -12  10 99.7576 14.5993   4
  -3  12 -10 122.604 14.5897   2
   4 -12  10 1.25359 15.1507   3
  -4  12 -10 6.65096 11.9884   2
   5 -12  10 35.7890 16.9806   3
  -5  12 -10 42.4077 13.9478   2
   6 -12  10 -2.4655 14.8693   3
  -6  12 -10 0.32155 13.8411   2
   6 -13 -10 75.8380 16.5743   3
  -6 -13  10 88.6975 14.5957   3
  -5 -13  10 4.17979 12.9480   3
  -4 -13  10 114.991 16.4276   4
  -4 -13  10 115.048 16.4428   3
  -3 -13  10 8.45081 12.4202   4
  -3 -13  10 6.35398 13.3953   3
   3  13 -10 -3.4227 10.6971   2
  -2 -13  10 39.5674 12.5626   4
  -2 -13  10 23.8340 14.5448   3
   2  13 -10 62.9435 11.5887   2
  -1 -13  10 235.306 23.1011   4
  -1 -13  10 219.287 26.8653   3
   1  13 -10 303.972 23.7153   2
   0 -13  10 20.3347 14.6317   3
   0 -13  10 0.51158 10.8924   4
   0  13 -10 3.81640 10.5878   2
   1 -13  10 -7.3219 9.63848   4
   1 -13  10 12.2129 14.6060   3
  -1  13 -10 11.2753 10.8700   2
   2 -13  10 -3.3313 8.96353   4
   2 -13  10 1.06901 14.1766   3
  -2  13 -10 15.2636 11.4473   2
   3 -13  10 126.338 19.7665   3
  -3  13 -10 141.557 16.3788   2
   4 -13  10 -5.2217 15.7394   3
  -4  13 -10 0.19779 12.7482   2
   5 -13  10 25.3771 16.6308   3
  -5  13 -10 -20.156 13.4110   2
  -5 -14  10 114.488 16.1002   3
  -5 -14  10 123.647 17.4581   4
   5 -14 -10 80.3109 18.0445   3
  -4 -14  10 17.3137 12.9577   4
  -4 -14  10 -4.8525 12.5807   3
  -3 -14  10 121.005 15.9848   4
  -3 -14  10 126.297 17.7712   3
   3  14 -10 136.332 15.0260   2
  -2 -14  10 46.9425 15.4434   3
  -2 -14  10 90.4666 14.3072   4
   2  14 -10 104.414 13.9725   2
  -1 -14  10 7.94254 11.4305   4
  -1 -14  10 12.3199 14.6234   3
   1  14 -10 19.3221 11.4126   2
   0 -14  10 20.1215 14.8523   3
   0 -14  10 36.6665 11.7631   4
   0  14 -10 35.5424 11.8869   2
   1 -14  10 22.2592 14.7887   3
  -1  14 -10 28.7508 11.9906   2
   2 -14  10 8.72463 9.92367   4
   2 -14  10 -4.7398 15.5259   3
  -2  14 -10 3.01761 12.1222   2
   3 -14  10 9.74494 15.4657   3
  -3  14 -10 -1.7606 13.1395   2
   4 -14  10 29.9256 16.4049   3
  -4  14 -10 3.86279 13.9863   2
   4 -15 -10 15.0066 16.7601   3
  -4 -15  10 4.25891 14.2295   3
  -4 -15  10 11.9056 14.7147   4
  -3 -15  10 34.3729 15.2413   3
  -3 -15  10 47.3642 14.0200   4
   3  15 -10 32.4916 12.6982   2
  -2 -15  10 19.8565 12.7808   4
  -2 -15  10 -16.340 14.6759   3
   2  15 -10 29.9646 12.2854   2
  -1 -15  10 61.8041 16.2300   3
  -1 -15  10 52.2335 13.6674   4
   1  15 -10 56.9675 13.3180   2
   0 -15  10 45.0075 12.6897   4
   0 -15  10 58.0841 17.4676   3
   0  15 -10 42.3778 13.2385   2
   1 -15  10 25.4012 11.6030   4
   1 -15  10 -5.7414 15.5435   3
  -1  15 -10 -4.6718 12.4114   2
   2 -15  10 -3.8339 15.6125   3
  -2  15 -10 4.56383 13.2273   2
   3 -15  10 2.58795 16.7714   3
  -3  15 -10 19.4975 14.1447   2
  -2 -16  10 16.6743 15.4736   3
  -2 -16  10 5.50282 13.3693   4
   2  16 -10 8.15172 13.5411   2
  -1 -16  10 14.9608 12.8133   4
  -1 -16  10 21.3364 16.9768   3
   1  16 -10 30.5457 13.5553   2
   0 -16  10 16.4538 13.0581   4
   0 -16  10 44.2572 17.5298   3
   0  16 -10 34.0176 14.4120   2
   1 -16  10 161.999 22.3172   3
   1 -16  10 128.913 16.2826   4
  -1  16 -10 203.117 18.6483   2
  -7   0  11 14.2445 12.6108   3
  -7   0  11 3.83695 10.9259   2
  -6   0  11 20.6814 14.0481   3
  -6   0  11 18.7474 9.74204   2
  -5   0  11 30.1094 19.9167   1
  -5   0  11 63.6047 15.5313   3
  -5   0  11 53.6682 8.63059   2
  -5   0  11 40.8959 7.39203   2
  -4   0  11 24.0800 6.37430   2
   4   0 -11 20.8750 14.5318   1
  -4   0  11 10.7283 14.1069   3
  -4   0  11 2.12274 16.7911   1
  -4   0  11 22.0841 4.92640   2
  -3   0  11 506.513 34.8041   3
  -3   0  11 381.076 41.2918   1
   3   0 -11 473.828 37.5465   1
  -3   0  11 452.717 26.6077   2
  -2   0  11 27.9918 16.1617   3
  -2   0  11 42.1252 16.5221   1
   2   0 -11 37.0639 12.7864   1
  -2   0  11 41.6297 4.77264   2
   2   0 -11 27.3028 8.90276   4
  -1   0  11 299.568 29.9785   3
  -1   0  11 272.539 31.9383   1
   1   0 -11 244.775 27.1033   1
  -1   0  11 286.992 17.2735   2
   1   0 -11 278.325 20.7211   4
   0   0  11 398.277 38.0429   1
   0   0  11 477.860 26.2547   2
   0   0 -11 414.737 27.3956   4
   0   0  11 460.308 34.5392   3
   0   0 -11 387.503 33.3783   1
   1   0  11 -3.8089 15.6461   3
   1   0  11 8.06896 7.15284   2
  -1   0 -11 1.51471 9.25065   1
  -1   0 -11 3.04753 3.40055   2
  -2   0 -11 13.7248 4.14285   4
   2   0  11 24.0439 9.26732   2
  -2   0 -11 17.4217 4.32018   2
   2   0  11 18.9137 16.7394   3
   3   0  11 76.2951 12.4674   2
   3   0  11 78.1031 19.3187   3
  -3   0 -11 73.2003 7.22215   2
   4   0  11 86.4890 22.5050   3
  -4   0 -11 82.1498 8.44353   2
   5   0  11 166.046 23.2115   3
  -5   0 -11 144.373 14.7149   2
   6   0  11 177.372 24.9832   3
  -6   0 -11 129.292 12.6185   2
  -7   0 -11 7.75139 9.69246   2
   7   0  11 26.0966 21.7570   3
   8   0  11 -10.303 19.9441   3
  -8   0 -11 -12.576 11.1076   2
  -8  -1  11 67.1158 14.6815   2
  -7  -1  11 73.3095 13.6895   3
  -7  -1  11 71.0552 12.7180   2
  -7   1  11 66.2088 11.5208   2
  -6  -1  11 30.4795 13.3574   3
  -6  -1  11 32.2933 10.2830   2
  -6   1  11 5.76372 13.3593   3
  -6   1  11 2.73114 8.15653   2
  -5  -1  11 62.9160 8.82691   2
  -5  -1  11 77.3114 14.8437   3
   5  -1 -11 36.4327 24.9807   1
  -5  -1  11 83.5601 10.1354   2
  -5   1  11 84.5424 16.1413   3
  -5   1  11 59.1947 7.70907   2
  -5   1  11 61.4815 6.66401   2
  -5   1  11 69.8105 20.2162   1
   4  -1 -11 17.7327 13.6537   1
  -4  -1  11 2.71413 5.47675   2
  -4  -1  11 8.53878 16.7245   1
  -4  -1  11 4.54441 7.23561   2
  -4  -1  11 15.3828 14.6674   3
   4   1 -11 -10.038 13.9857   1
  -4   1  11 4.17278 4.70915   2
  -4   1  11 15.0333 14.7533   3
  -4   1  11 56.5329 19.1922   1
  -3  -1  11 197.787 23.8847   1
  -3  -1  11 290.954 26.7712   3
  -3  -1  11 219.639 14.6529   2
   3  -1 -11 175.877 25.4890   1
  -3   1  11 183.082 24.6016   1
   3   1 -11 212.608 27.6462   1
   2  -1 -11 83.3320 14.6133   1
  -2  -1  11 83.7337 24.5649   1
  -2  -1  11 121.572 17.0401   3
   2  -1 -11 108.600 11.5310   4
  -2  -1  11 125.873 10.4662   2
   2   1 -11 127.691 17.2097   1
   2   1 -11 94.3944 11.4072   4
  -2   1  11 103.896 20.2262   1
  -2   1  11 113.272 18.2121   3
   1  -1 -11 46.3507 8.54313   4
  -1  -1  11 51.6804 14.7925   3
   1  -1 -11 45.6594 12.6662   1
  -1  -1  11 36.7846 6.60351   2
  -1  -1  11 55.0596 23.9002   1
   1   1 -11 46.8984 12.1212   1
  -1   1  11 15.5368 14.8800   1
   1   1 -11 40.0687 8.15215   4
  -1   1  11 25.9374 16.2707   3
   0  -1 -11 0.82073 9.65214   1
   0  -1 -11 18.6304 6.96806   4
   0  -1  11 0.54377 6.86315   2
   0  -1  11 -1.7789 13.8552   1
   0  -1  11 4.45740 14.5632   3
   0   1 -11 -4.3012 6.39686   4
   0   1 -11 -0.4688 3.61613   2
   0   1  11 20.1086 15.7415   3
   0   1  11 -25.028 14.5784   1
   0   1 -11 18.2642 10.0845   1
   1  -1  11 1.20794 14.9998   3
   1  -1  11 11.2214 14.8235   1
  -1  -1 -11 -1.2365 5.83549   4
  -1  -1 -11 1.26405 10.0073   1
   1  -1  11 13.7491 8.15478   2
   1   1  11 -2.8299 15.7118   3
  -1   1 -11 5.49387 3.98974   2
  -1   1 -11 8.71626 8.53091   4
  -1   1 -11 7.82164 10.3816   1
  -2  -1 -11 8.36407 4.47023   4
   2  -1  11 4.93809 16.0213   3
   2  -1  11 11.5637 9.78828   2
  -2  -1 -11 2.13444 3.53493   2
  -2   1 -11 3.99015 4.57474   2
   2   1  11 4.98083 16.6144   3
  -2   1 -11 2.26823 13.1857   1
  -3  -1 -11 95.1313 9.44538   2
   3  -1  11 64.7484 20.9776   3
   3  -1  11 79.1739 13.1249   2
   3   1  11 91.0708 23.8463   3
  -3   1 -11 94.4204 10.5286   2
   4  -1  11 5.33784 19.5602   3
   4  -1  11 10.2499 12.9697   2
  -4  -1 -11 7.39379 5.83580   2
   4   1  11 19.7099 20.7625   3
  -4   1 -11 4.28466 6.38268   2
   5  -1  11 -3.8335 21.7085   2
  -5  -1 -11 2.69461 6.75575   2
   5  -1  11 24.7404 18.0543   3
  -5   1 -11 5.19551 7.70576   2
   5   1  11 2.06408 19.9288   3
  -6  -1 -11 -1.9336 8.27798   2
   6  -1  11 32.4164 20.7202   3
   6   1  11 6.03070 20.6437   3
  -6   1 -11 15.2379 8.55695   2
  -7  -1 -11 13.0294 9.40067   2
   7  -1  11 -0.7450 20.9506   3
   7   1  11 11.9981 21.1255   3
  -7   1 -11 -1.8372 9.84041   2
   8  -1  11 7.06366 20.7745   3
  -8  -1 -11 -4.3863 10.4278   2
   8   1  11 -1.7864 20.7337   3
  -8   1 -11 0.82592 11.3924   2
  -8  -2  11 102.170 13.7455   3
  -8  -2  11 108.257 16.1754   2
  -7  -2  11 40.6684 12.3635   2
  -7  -2  11 16.0024 12.7320   3
  -6  -2  11 169.189 17.9751   3
  -6  -2  11 192.016 20.1411   2
  -6   2  11 142.698 14.3202   2
  -6   2  11 205.934 19.1106   3
   5  -2 -11 11.7735 16.1990   1
  -5  -2  11 62.8732 14.7776   3
  -5  -2  11 64.2218 10.1621   2
  -5   2  11 46.6356 19.2560   1
  -5   2  11 61.7423 15.5921   3
  -4  -2  11 140.979 12.8078   2
  -4  -2  11 154.265 17.8331   3
  -4  -2  11 86.8454 21.6560   1
   4  -2 -11 164.615 20.8002   1
   4   2 -11 107.220 17.7497   1
  -4   2  11 157.521 19.9717   3
  -4   2  11 159.900 24.4368   1
  -3  -2  11 617.767 38.1925   3
  -3  -2  11 517.373 31.1537   2
  -3  -2  11 459.806 42.4510   1
   3  -2 -11 411.434 38.9759   1
  -3   2  11 626.230 39.9380   3
   3   2 -11 519.346 40.8397   1
  -3   2  11 459.036 45.1254   1
  -2  -2  11 5.81510 5.84661   2
   2  -2 -11 7.43299 8.46723   4
   2  -2 -11 2.91514 10.5307   1
  -2  -2  11 17.2331 13.1933   3
  -2  -2  11 -2.1915 12.4744   1
   2   2 -11 14.1908 12.1038   1
   2   2 -11 1.87806 8.14614   4
  -2   2  11 7.37495 15.7332   3
  -2   2  11 16.8231 15.4451   1
   1  -2 -11 2.02866 10.6653   1
  -1  -2  11 -0.2493 6.30317   2
  -1  -2  11 2.85712 13.1498   3
   1  -2 -11 -2.4385 7.37750   4
  -1  -2  11 9.07436 13.6567   1
   1   2 -11 21.0529 7.96929   4
  -1   2  11 -5.5981 16.8053   1
   1   2 -11 -4.3819 4.13751   2
  -1   2  11 6.53278 15.6450   3
   1   2 -11 -6.4064 11.1077   1
   0  -2  11 27.2109 14.5120   3
   0  -2 -11 14.9124 11.1040   1
   0  -2  11 19.1227 13.9423   1
   0  -2  11 28.1962 8.06513   2
   0  -2 -11 25.9520 7.10966   4
   0   2 -11 24.2865 11.6156   1
   0   2 -11 17.3153 6.66349   4
   0   2 -11 22.5224 4.67493   2
   0   2  11 6.97888 17.2015   3
  -1  -2 -11 254.945 17.1568   4
   1  -2  11 268.884 20.4719   2
   1  -2  11 219.647 25.4142   1
   1  -2  11 270.161 25.9020   3
   1   2  11 192.022 23.9892   3
  -1   2 -11 231.045 24.5903   1
  -1   2 -11 228.479 15.7106   2
   2  -2  11 49.5436 11.0184   2
   2  -2  11 40.6039 16.0092   3
  -2  -2 -11 62.7868 6.39121   2
  -2  -2 -11 63.5965 6.61015   4
   2   2  11 22.7647 18.3428   3
  -2   2 -11 44.1600 13.6711   1
  -2   2 -11 64.6184 6.67046   2
   3  -2  11 0.16345 11.2972   2
  -3  -2 -11 6.78980 4.35999   2
  -3  -2 -11 12.4238 3.11904   4
  -3   2 -11 0.74377 5.97752   2
   3   2  11 12.4252 31.3118   3
   4  -2  11 230.948 24.2362   2
   4  -2  11 220.134 23.7729   3
  -4  -2 -11 214.046 15.2576   2
  -4   2 -11 197.952 16.8405   2
   4   2  11 212.712 28.6849   3
  -5  -2 -11 -3.0610 6.51344   2
   5  -2  11 2.52208 17.5445   3
  -5   2 -11 8.24052 7.98944   2
   5   2  11 4.49028 21.3906   3
   6  -2  11 14.5908 19.5787   3
  -6  -2 -11 -3.0068 7.73612   2
   6   2  11 -2.2870 20.4541   3
  -6   2 -11 12.7389 10.2348   2
  -7  -2 -11 45.8575 16.1917   2
   7  -2  11 73.7937 21.6959   3
  -7   2 -11 53.8090 10.9997   2
   7   2  11 14.3223 21.6252   3
  -8  -2 -11 -9.3080 10.3572   2
  -8   2 -11 21.0991 11.2987   2
   8   2  11 -33.746 21.1100   3
  -8  -3  11 13.0884 14.2168   3
  -7  -3  11 137.013 16.1032   2
  -7  -3  11 138.774 16.0970   3
  -6  -3  11 71.3646 14.6179   3
  -6  -3  11 65.0213 12.4860   2
   5  -3 -11 -4.6838 26.8533   1
  -5  -3  11 25.8200 14.0998   3
  -5   3  11 43.2838 16.1971   3
  -4  -3  11 365.415 24.2945   2
  -4  -3  11 414.109 31.2099   3
   4  -3 -11 355.622 35.9595   1
  -4  -3  11 331.974 37.6212   1
  -4   3  11 411.580 32.8263   3
  -3  -3  11 -14.725 6.32296   2
   3  -3 -11 7.58140 12.6661   1
  -3  -3  11 16.7572 13.2252   3
  -3  -3  11 -3.1068 14.4404   1
   3   3 -11 9.40898 13.8999   1
  -3   3  11 -1.5013 15.5517   3
  -2  -3  11 35.1259 7.17693   2
  -2  -3  11 33.2625 13.6574   3
   2  -3 -11 29.3701 11.6331   1
   2  -3 -11 33.3927 9.14541   4
  -2  -3  11 42.4029 16.0066   1
   2   3 -11 29.2572 14.0064   1
  -2   3  11 30.5961 17.6663   3
   2   3 -11 38.3745 9.18891   4
   1  -3 -11 356.683 25.2243   4
  -1  -3  11 373.306 24.3286   2
  -1  -3  11 436.038 30.3846   3
  -1  -3  11 356.275 36.5204   1
   1  -3 -11 335.452 30.5314   1
   1   3 -11 399.045 23.1079   2
  -1   3  11 385.488 35.7100   3
   1   3 -11 324.548 32.7751   1
   1   3 -11 406.263 25.5199   4
   0  -3  11 67.4634 17.4294   1
   0  -3 -11 74.3937 9.19340   4
   0  -3  11 98.2114 15.5505   3
   0  -3  11 77.7214 9.69739   2
   0  -3 -11 69.0319 18.1087   1
   0   3 -11 79.9941 15.1244   1
   0   3 -11 72.1476 6.98118   2
   0   3  11 63.0730 18.2134   3
  -1  -3 -11 600.528 38.1374   4
   1  -3  11 728.387 39.6718   2
   1  -3  11 689.576 43.6914   3
   1  -3  11 643.357 48.6306   1
  -1   3 -11 601.134 44.0020   1
  -1   3 -11 629.872 37.4353   2
   1   3  11 593.355 47.5832   3
   2  -3  11 24.2566 15.4856   3
  -2  -3 -11 19.4783 2.80988   2
  -2  -3 -11 22.7878 8.94868   4
   2  -3  11 11.6003 10.5292   2
  -2   3 -11 21.7901 6.01385   2
   2   3  11 10.6789 19.5369   3
  -3  -3 -11 201.566 14.5135   2
   3  -3  11 236.672 33.3356   3
   3  -3  11 245.266 23.0960   2
  -3  -3 -11 243.631 14.7674   4
  -3   3 -11 240.633 17.1394   2
  -4  -3 -11 123.134 10.9088   2
   4  -3  11 112.320 19.0552   3
   4  -3  11 124.586 16.3922   2
  -4   3 -11 112.642 10.8210   2
   4   3  11 84.0227 23.2973   3
   5  -3  11 178.232 22.1245   3
  -5  -3 -11 201.166 15.6737   2
   5   3  11 169.431 26.3739   3
  -5   3 -11 214.417 18.2274   2
   6  -3  11 -12.808 18.6742   3
  -6  -3 -11 9.02849 7.91481   2
  -6   3 -11 13.0219 9.96862   2
   6   3  11 19.8467 22.1558   3
   7  -3  11 -4.3090 19.9131   3
   7   3  11 38.9627 22.2629   3
  -7   3 -11 24.4383 11.0308   2
  -8  -3 -11 179.259 19.6095   2
   8  -3  11 146.229 24.4802   3
   8   3  11 162.737 25.7781   3
  -8   3 -11 151.178 16.2355   2
  -9  -4  11 59.0444 17.0201   2
  -8  -4  11 17.1169 14.9107   2
  -7  -4  11 17.7727 12.3471   3
  -7  -4  11 14.6714 13.0134   2
  -6  -4  11 192.113 19.0605   3
  -5  -4  11 106.672 15.5576   3
  -4  -4  11 3.46072 7.52768   2
  -4  -4  11 2.61338 12.2695   3
  -4   4  11 6.57217 16.5722   3
  -3  -4  11 256.147 19.0086   2
  -3  -4  11 250.018 25.5073   3
  -3   4  11 244.504 25.6445   3
   3   4 -11 344.301 42.5763   1
  -2  -4  11 747.038 56.1760   1
  -2  -4  11 826.039 50.9482   3
  -2  -4  11 746.175 46.1954   2
   2   4 -11 764.542 54.6725   1
  -2   4  11 777.385 52.6794   3
   2   4 -11 861.087 48.0368   4
  -1  -4  11 241.056 24.0089   3
  -1  -4  11 239.588 18.2563   2
  -1  -4  11 222.062 31.0758   1
   1   4 -11 202.821 27.9859   1
   1   4 -11 251.038 16.3101   2
  -1   4  11 202.596 24.0726   3
   0  -4  11 162.738 18.6044   3
   0  -4  11 126.052 20.9752   1
   0  -4  11 189.657 16.3462   2
   0   4 -11 186.283 13.5022   2
   0   4 -11 192.490 21.0716   1
   0   4  11 150.815 22.1906   3
   1  -4  11 471.840 29.0740   2
   1  -4  11 429.044 38.8430   1
   1  -4  11 440.131 33.3583   3
  -1   4 -11 437.128 26.6873   2
  -1   4 -11 431.693 35.0229   1
   1   4  11 352.922 36.4654   3
   2  -4  11 -5.4568 10.5446   2
  -2   4 -11 13.4046 6.32894   2
  -3  -4 -11 324.998 20.8008   4
   3  -4  11 376.226 27.3232   2
  -3  -4 -11 328.827 19.8637   2
   3  -4  11 342.442 29.7116   3
  -3  -4 -11 350.775 20.1632   2
   3   4  11 253.056 32.6492   3
  -3   4 -11 339.636 22.6941   2
   4  -4  11 32.8168 15.5550   3
  -4  -4 -11 29.9652 5.44791   2
   4   4  11 10.9497 20.4659   3
  -4   4 -11 45.8076 8.76775   2
   5  -4  11 170.437 21.7901   3
  -5  -4 -11 216.470 16.0517   2
  -5   4 -11 230.444 19.0832   2
   5   4  11 200.394 27.0676   3
  -6  -4 -11 130.941 14.2350   2
   6  -4  11 97.4322 20.4105   3
  -6   4 -11 100.924 12.5467   2
   6   4  11 94.0204 25.4428   3
  -7  -4 -11 11.5801 13.6612   2
   7  -4  11 19.9130 20.0893   3
   7   4  11 25.4924 22.2387   3
  -7   4 -11 10.2580 11.3080   2
   8  -4  11 52.1260 20.6263   3
  -8  -4 -11 7.79057 10.5545   2
  -8   4 -11 -5.9489 12.2136   2
  -8  -5  11 105.145 16.8982   2
  -7  -5  11 -7.2460 11.7048   3
  -6  -5  11 96.7903 14.6724   3
  -5  -5  11 29.9418 12.8825   3
  -4  -5  11 34.7761 8.65144   2
  -4  -5  11 46.1069 12.9078   3
  -3  -5  11 44.0833 15.7804   1
  -3  -5  11 9.52480 12.2389   3
  -3  -5  11 -12.192 7.68108   2
  -3   5  11 -13.387 16.7051   3
  -2  -5  11 -1.3024 11.7919   3
  -2  -5  11 14.5307 7.77034   2
  -2  -5  11 5.64207 15.6856   1
  -2   5  11 14.0717 17.9707   3
   2   5 -11 1.76831 5.93410   2
   2   5 -11 -23.807 12.6551   1
  -1  -5  11 479.716 40.5431   1
  -1  -5  11 371.802 32.6334   3
  -1  -5  11 471.355 28.7997   2
  -1   5  11 427.575 39.9667   3
   1   5 -11 435.025 37.6429   1
   1   5 -11 460.946 27.4169   2
   0  -5  11 94.7595 10.8283   2
   0  -5  11 68.2180 16.8900   3
   0  -5  11 85.7507 18.9470   1
   0   5  11 86.0642 32.1649   3
   0   5 -11 87.8235 14.1462   1
   0   5 -11 107.744 8.93912   2
   1  -5  11 65.0707 11.2231   2
   1  -5  11 57.0945 17.0486   1
  -1   5 -11 97.7020 17.3288   1
  -1   5 -11 73.8977 8.10730   2
   2  -5  11 22.1112 13.7076   3
   2  -5  11 12.1819 11.2162   2
   2   5  11 20.0699 21.7963   3
  -2   5 -11 19.3800 6.83317   2
  -3  -5 -11 16.1374 3.29517   2
   3  -5  11 13.7238 13.0169   2
   3  -5  11 5.84049 13.4244   3
  -3   5 -11 10.5645 7.51359   2
   3   5  11 25.9510 21.3467   3
  -4  -5 -11 85.2414 8.74666   2
   4  -5  11 45.9354 15.6881   3
   4   5  11 67.1754 23.2466   3
  -4   5 -11 90.7495 10.6673   2
   5  -5  11 23.7092 16.0601   3
  -5  -5 -11 29.0219 6.47848   2
   5   5  11 37.7475 23.4135   3
  -6  -5 -11 37.9360 8.19295   2
   6  -5  11 24.6740 16.6693   3
   6   5  11 39.0273 22.7376   3
  -6   5 -11 22.7311 11.0790   2
  -7  -5 -11 -7.8403 10.1565   2
   7  -5  11 -8.9780 17.1317   3
  -7   5 -11 -4.1267 10.8867   2
  -8  -5 -11 29.0212 10.7826   2
   8  -5  11 -12.958 19.0877   3
  -8   5 -11 12.2010 12.2423   2
  -8  -6  11 -12.159 14.8938   2
  -7  -6  11 30.2269 12.4755   3
  -6  -6  11 18.4308 12.2970   3
  -5  -6  11 149.943 17.2366   3
  -4  -6  11 27.1508 13.0078   3
  -4  -6  11 25.0980 9.31914   2
  -3  -6  11 101.912 17.3336   3
  -3  -6  11 122.898 11.7292   2
  -2  -6  11 35.1878 15.9575   1
  -2  -6  11 -2.4771 8.33376   2
  -2  -6  11 2.54705 16.0469   3
   2   6 -11 8.44918 6.34603   2
  -1  -6  11 4.49559 8.40792   2
  -1  -6  11 -0.4190 16.5725   1
   1   6 -11 -26.525 11.9794   1
   1   6 -11 -6.4408 6.32030   2
  -1   6  11 10.2180 28.9961   3
   0  -6  11 8.34178 9.30800   2
   0  -6  11 0.80866 13.7527   3
   0  -6  11 19.4588 15.1139   1
   0   6  11 21.5862 21.4847   3
   0   6 -11 7.92060 6.46902   2
   0   6 -11 -5.9918 11.8653   1
   1  -6  11 39.5155 10.4458   2
   1  -6  11 9.17544 12.3843   3
   1  -6  11 -19.640 16.7718   1
  -1   6 -11 16.7139 7.06310   2
   1   6  11 21.9848 20.2273   3
   2  -6  11 -0.3977 12.6117   3
   2  -6  11 -2.1344 11.5847   2
   2  -6  11 22.8146 29.0200   1
  -2   6 -11 -0.8712 7.05953   2
   2   6  11 7.40033 20.8214   3
   3  -6  11 -16.210 13.3534   3
   3   6  11 4.05987 20.5622   3
  -3   6 -11 -0.7104 7.79091   2
   4  -6  11 -18.664 13.8005   3
  -4  -6 -11 -2.8412 4.25597   2
   4   6  11 11.1517 22.2263   3
  -4   6 -11 -4.5975 9.07408   2
   5  -6  11 16.7041 14.7019   3
  -5  -6 -11 4.64136 5.88507   2
   5   6  11 2.22098 22.8189   3
  -5   6 -11 14.3221 9.67033   2
  -6  -6 -11 -10.005 7.30595   2
   6  -6  11 0.95946 16.0959   3
  -6   6 -11 6.49843 10.4362   2
   7  -6  11 20.2731 17.1811   3
  -7  -6 -11 25.2884 10.5578   2
  -7   6 -11 10.8468 12.4193   2
  -6  -7  11 125.798 24.2090   3
  -5  -7  11 -5.4412 18.7764   3
  -4  -7  11 18.0436 19.8554   3
  -3  -7  11 38.0370 16.1704   3
  -3  -7  11 27.8940 10.2189   2
  -2  -7  11 9.35590 13.9995   3
  -2  -7  11 12.6545 9.25991   2
   2   7 -11 -1.1970 6.74434   2
  -1  -7  11 13.3285 9.33846   2
  -1  -7  11 -10.923 17.0315   1
  -1  -7  11 20.5061 12.6125   3
   1   7 -11 25.2131 7.19776   2
   0  -7  11 46.4145 17.0565   1
   0  -7  11 23.3111 13.2178   3
   0  -7  11 14.9293 10.2903   2
   0   7  11 27.2462 19.0374   3
   0   7 -11 41.1978 16.4032   1
   0   7 -11 37.4153 7.70015   2
   1  -7  11 12.6231 13.3603   2
   1  -7  11 42.6569 19.1109   1
   1  -7  11 16.3343 13.3116   3
   1   7  11 8.51719 19.1802   3
  -1   7 -11 38.9901 8.11436   2
   2  -7  11 219.938 26.1369   3
  -2   7 -11 272.575 19.0819   2
   2   7  11 168.237 26.2489   3
   3  -7  11 107.184 17.3411   3
   3   7  11 139.123 24.0716   3
  -3   7 -11 182.688 16.2862   2
  -4  -7 -11 -2.5123 3.86945   2
   4  -7  11 -7.6168 13.3273   3
  -4   7 -11 4.31333 12.0875   2
  -5  -7 -11 -0.3099 5.63111   2
   5  -7  11 -9.4711 14.0358   3
  -5   7 -11 4.47819 10.3377   2
  -6  -7 -11 61.6953 8.66164   2
   6  -7  11 33.9803 16.2910   3
  -6   7 -11 62.2966 12.4776   2
   7  -7  11 55.8604 18.6385   3
  -7   7 -11 52.5065 13.4124   2
  -7  -8  11 3.01723 11.7211   3
  -6  -8  11 21.3797 12.7175   3
  -5  -8  11 56.0993 13.2058   3
  -4  -8  11 -10.988 11.3348   3
  -3  -8  11 31.1769 12.7877   3
  -2  -8  11 11.3922 12.2241   3
   2   8 -11 22.1947 8.25856   2
  -1  -8  11 1.73021 13.2250   3
   1   8 -11 38.4558 8.11658   2
   0  -8  11 122.734 17.5807   3
   0   8 -11 211.473 16.4656   2
   1  -8  11 6.61048 12.7670   3
   1  -8  11 22.1152 19.2836   1
  -1   8 -11 8.89462 8.08955   2
   2  -8  11 -18.682 12.7265   3
   2  -8  11 -4.4238 27.6561   1
  -2   8 -11 -0.9369 8.38709   2
   3  -8  11 32.1059 14.6992   3
   4  -8  11 13.8654 14.5874   3
  -4   8 -11 1.49678 9.65916   2
   5  -8  11 21.5267 14.6400   3
  -5   8 -11 24.4388 11.6368   2
   6  -8  11 28.9532 16.6080   3
  -6   8 -11 48.6983 13.1362   2
   7  -8  11 -2.2672 16.4494   3
  -7   8 -11 13.1620 12.6422   2
  -7  -9  11 8.58166 12.6147   3
  -6  -9  11 3.15582 11.8562   3
  -5  -9  11 124.187 16.1799   3
  -4  -9  11 9.81468 12.2985   3
  -3  -9  11 13.6819 12.3086   3
   3   9 -11 22.9137 10.3571   2
  -2  -9  11 20.8228 12.8920   3
   2   9 -11 29.0920 8.71579   2
  -1  -9  11 300.566 28.6571   3
   1   9 -11 371.753 24.3253   2
   0  -9  11 17.1063 13.4877   3
   0   9 -11 25.4112 8.96111   2
   1  -9  11 126.863 17.6577   3
  -1   9 -11 158.317 16.6864   2
   2  -9  11 39.1692 14.4663   3
  -2   9 -11 66.0535 11.6958   2
   3  -9  11 40.9633 15.9862   3
  -3   9 -11 55.5577 10.8370   2
   4  -9  11 11.5348 15.5475   3
  -4   9 -11 -4.1049 9.99433   2
   5  -9  11 21.5422 15.4130   3
  -5   9 -11 9.51763 11.6071   2
   6  -9  11 2.42676 15.0854   3
  -6   9 -11 23.1712 12.6691   2
  -7 -10  11 14.1647 12.6684   3
  -6 -10  11 118.127 15.9731   3
  -5 -10  11 4.34555 11.8784   3
  -4 -10  11 -9.1315 11.9232   3
  -3 -10  11 134.209 17.2568   3
   3  10 -11 149.577 16.6077   2
  -2 -10  11 85.7565 15.4683   3
   2  10 -11 78.4475 10.9109   2
  -1 -10  11 12.0307 13.0820   3
   1  10 -11 -4.6850 9.10076   2
   0 -10  11 5.61449 13.7127   3
   0  10 -11 24.1541 9.11615   2
   1 -10  11 129.035 18.2556   3
  -1  10 -11 137.542 13.4319   2
   2 -10  11 9.19804 13.9304   3
  -2  10 -11 17.0948 9.63760   2
   3 -10  11 170.319 20.5032   3
  -3  10 -11 153.923 15.1156   2
   4 -10  11 32.0667 16.2830   3
  -4  10 -11 26.6127 11.4386   2
   5 -10  11 3.11546 15.8408   3
  -5  10 -11 14.9064 11.7710   2
   6 -10  11 61.8786 17.0692   3
  -6  10 -11 68.3207 14.3890   2
  -6 -11  11 -10.083 12.6291   3
  -5 -11  11 12.6602 12.3118   3
  -4 -11  11 171.853 18.3680   3
  -3 -11  11 -4.4922 12.9754   3
   3  11 -11 -2.3765 9.44214   2
  -2 -11  11 47.8294 14.8372   3
   2  11 -11 63.9176 10.6447   2
  -1 -11  11 116.620 17.3826   3
   1  11 -11 145.616 13.5657   2
   0 -11  11 78.7623 16.7119   3
   0  11 -11 98.3632 12.3769   2
   1 -11  11 236.881 28.4813   3
  -1  11 -11 263.863 21.9614   2
   2 -11  11 2.87885 14.4751   3
  -2  11 -11 12.2663 10.6259   2
   3 -11  11 138.640 19.7919   3
  -3  11 -11 134.135 14.8627   2
   4 -11  11 60.1382 17.6682   3
  -4  11 -11 45.6800 13.0742   2
   5 -11  11 120.596 19.4785   3
  -5  11 -11 101.999 15.2008   2
  -5 -12  11 -4.0387 12.3565   3
  -4 -12  11 -3.6075 12.7066   3
  -3 -12  11 227.749 26.6047   3
   3  12 -11 259.392 22.7436   2
  -2 -12  11 44.8614 14.9986   3
   2  12 -11 80.0129 11.6336   2
  -1 -12  11 10.6372 13.9816   3
   1  12 -11 -4.1235 10.3202   2
   0 -12  11 19.4882 14.6861   3
   0  12 -11 35.2285 10.7969   2
   1 -12  11 77.2839 17.2266   3
  -1  12 -11 109.269 13.5303   2
   2 -12  11 7.51831 15.2993   3
  -2  12 -11 15.1274 11.7715   2
   3 -12  11 -6.5472 15.4479   3
  -3  12 -11 33.7068 11.7745   2
   4 -12  11 -4.3087 16.2087   3
  -4  12 -11 15.5797 13.0333   2
   5 -12  11 -12.675 15.9893   3
  -5  12 -11 16.4907 14.1235   2
  -5 -13  11 -3.9223 12.9652   3
  -4 -13  11 0.43105 13.7513   3
  -3 -13  11 1.18515 13.4094   3
   3  13 -11 3.11110 10.9705   2
  -2 -13  11 10.9805 12.6521   4
  -2 -13  11 7.40757 13.9644   3
   2  13 -11 23.4491 11.0964   2
  -1 -13  11 13.4400 11.6357   4
  -1 -13  11 46.5821 16.1795   3
   1  13 -11 68.1696 12.0175   2
   0 -13  11 63.3061 12.4319   4
   0 -13  11 75.1565 16.7216   3
   0  13 -11 72.4263 13.0824   2
   1 -13  11 2.50293 10.2326   4
   1 -13  11 3.99474 15.3395   3
  -1  13 -11 -3.5926 11.4302   2
   2 -13  11 -4.7002 16.2381   3
  -2  13 -11 -7.1310 12.0948   2
   3 -13  11 16.4190 16.5460   3
  -3  13 -11 18.6812 12.2769   2
   4 -13  11 27.4632 17.2102   3
  -4  13 -11 3.53264 13.3560   2
  -3 -14  11 14.7717 13.6595   4
  -3 -14  11 -14.730 14.6801   3
   3  14 -11 -20.751 10.9684   2
  -2 -14  11 0.54244 15.3503   3
  -2 -14  11 12.7398 12.9224   4
   2  14 -11 8.30888 12.0572   2
  -1 -14  11 15.7076 15.2256   3
  -1 -14  11 24.7928 12.6093   4
   1  14 -11 33.2412 12.0994   2
   0 -14  11 2.27231 11.3124   4
   0 -14  11 2.12771 15.8807   3
   0  14 -11 -14.549 11.3376   2
   1 -14  11 21.3959 17.5291   4
   1 -14  11 14.7337 16.6111   3
  -1  14 -11 -18.724 11.5174   2
   2 -14  11 -4.4194 16.3537   3
  -2  14 -11 18.0699 13.4496   2
   3 -14  11 16.0643 18.2496   3
  -3  14 -11 19.1700 13.2901   2
  -1 -15  11 18.9665 13.1746   4
  -1 -15  11 -0.3252 16.4707   3
   1  15 -11 0.05537 12.4161   2
   0 -15  11 23.0471 16.6790   3
   0 -15  11 24.8004 12.6651   4
   0  15 -11 21.4297 12.8784   2
   1 -15  11 26.8925 17.5469   3
   4   0 -12 -14.477 17.5433   1
   3   0 -12 44.7044 16.2662   1
  -2   0  12 234.108 32.3517   3
   2   0 -12 263.656 22.8723   4
   2   0 -12 221.111 29.5939   1
  -1   0  12 647.607 49.3088   3
   1   0 -12 620.431 39.0088   4
   0   0  12 38.2990 18.1241   3
   0   0 -12 82.0081 9.19719   4
  -1   0 -12 308.086 19.1034   2
  -1   0 -12 332.614 21.2041   4
   1   0  12 352.904 32.3693   3
   2   0  12 83.1121 19.9864   3
  -2   0 -12 68.8967 6.19632   2
  -3   0 -12 105.034 10.5371   2
   3   0  12 149.595 22.9378   3
  -4   0 -12 7.55097 6.15780   2
   4   0  12 8.74124 19.7161   3
  -5   0 -12 15.7282 7.56776   2
   5   0  12 27.0002 21.5532   3
  -6   0 -12 408.412 28.1478   2
   6   0  12 457.183 43.7107   3
   7   0  12 -9.1530 23.2475   3
  -7   0 -12 -2.8669 9.54641   2
  -5  -1  12 105.716 10.9081   2
  -5   1  12 97.0337 21.4808   3
  -4  -1  12 35.9965 7.50548   2
  -4  -1  12 39.6023 31.8884   1
  -4   1  12 46.3909 19.9600   3
  -3  -1  12 96.3125 9.94726   2
  -3  -1  12 104.924 22.6979   1
   3   1 -12 70.1894 18.5768   1
  -3   1  12 70.2974 29.2425   3
  -2  -1  12 159.736 12.5653   2
  -2  -1  12 140.805 30.7341   3
   2   1 -12 161.924 21.3734   1
  -2   1  12 165.791 27.2675   3
   2   1 -12 155.780 15.0938   4
   1  -1 -12 54.6938 9.93983   4
  -1  -1  12 67.1088 7.70340   2
  -1  -1  12 96.7354 20.3324   3
   1   1 -12 51.1218 16.8594   1
  -1   1  12 73.1500 20.0288   3
   1   1 -12 73.9611 9.82795   4
   0  -1  12 9.52641 15.9565   3
   0  -1 -12 -5.4510 7.13885   4
   0  -1  12 14.1174 7.17516   2
   0   1  12 3.64269 17.4312   3
   0   1 -12 -4.6384 3.55424   2
   0   1 -12 4.14144 6.97950   4
   1  -1  12 201.684 22.9284   3
   1  -1  12 234.008 18.0510   2
  -1  -1 -12 204.828 15.7222   4
  -1   1 -12 190.675 15.4380   4
   1   1  12 151.006 23.5639   3
  -1   1 -12 204.167 13.5468   2
   2  -1  12 23.6819 17.6007   3
  -2  -1 -12 33.5420 5.19030   4
   2  -1  12 20.6285 10.1060   2
  -2  -1 -12 25.0557 4.01193   2
  -2   1 -12 28.1430 5.23655   2
   2   1  12 49.1361 19.6849   3
  -3  -1 -12 121.002 10.2211   2
   3  -1  12 103.341 21.9271   3
  -3   1 -12 120.450 11.6851   2
   3   1  12 155.120 24.2816   3
   4  -1  12 64.8419 20.4970   3
  -4  -1 -12 57.7803 7.15213   2
   4   1  12 57.9744 21.6106   3
  -4   1 -12 60.4567 7.99899   2
  -5  -1 -12 89.4510 9.63319   2
   5  -1  12 124.801 23.4904   3
  -5   1 -12 101.486 10.5358   2
   5   1  12 106.308 24.2863   3
  -6  -1 -12 -1.4872 8.18331   2
   6   1  12 6.34377 23.5461   3
   7  -1  12 -0.0442 23.2169   3
  -7  -1 -12 -4.7360 9.10725   2
  -7   1 -12 -0.6634 9.57049   2
   7   1  12 32.0735 24.3571   3
  -6  -2  12 12.9382 10.5262   2
  -6  -2  12 7.12048 24.0779   3
  -6   2  12 7.24146 16.0844   3
  -5  -2  12 64.1259 10.4240   2
  -5  -2  12 39.6620 20.4502   3
  -5   2  12 89.2673 19.2225   3
  -4  -2  12 -6.6017 24.2368   3
  -4   2  12 4.07749 17.3758   3
  -3  -2  12 1.52605 19.3833   3
  -3  -2  12 6.21314 19.2305   1
   3   2 -12 6.85444 19.6660   1
  -3   2  12 51.1380 19.1845   3
  -2  -2  12 24.4490 18.0574   3
  -2  -2  12 22.6686 6.77692   2
  -2  -2  12 20.8970 17.7808   1
  -2   2  12 23.6768 18.1396   3
   2   2 -12 -13.858 13.6354   1
   2   2 -12 7.11259 10.1120   4
  -1  -2  12 36.7341 16.7373   3
  -1  -2  12 31.8856 7.75697   2
   1  -2 -12 19.4735 8.70697   4
   1   2 -12 37.0640 15.4807   1
  -1   2  12 17.1066 18.1323   3
   1   2 -12 33.0532 8.49721   4
   0  -2  12 45.1981 13.9446   2
   0  -2  12 17.7646 15.7305   3
   0  -2 -12 36.8777 8.15506   4
   0   2  12 35.6775 19.3925   3
   0   2 -12 22.4228 4.77069   2
   0   2 -12 27.6035 7.47423   4
   0   2 -12 2.18055 20.8814   1
   1  -2  12 47.6650 10.1676   2
  -1  -2 -12 24.6985 7.21436   4
   1  -2  12 62.1471 16.7721   3
  -1   2 -12 38.3472 5.49972   2
   1   2  12 40.9611 19.4317   3
   2  -2  12 -2.3602 16.1583   3
   2  -2  12 -4.7463 10.2104   2
  -2  -2 -12 3.72956 5.39629   4
   2   2  12 -5.0937 19.3462   3
  -2   2 -12 5.13023 5.21976   2
   3  -2  12 83.0370 20.5583   3
  -3  -2 -12 81.6628 7.75589   2
   3   2  12 67.6015 23.3556   3
  -3   2 -12 76.1061 8.19944   2
  -4  -2 -12 14.8279 5.53574   2
   4  -2  12 71.6442 19.8299   3
   4   2  12 40.4065 22.4493   3
  -4   2 -12 10.2006 7.14211   2
   5  -2  12 30.3084 20.5604   3
  -5  -2 -12 -6.8917 6.31495   2
   5   2  12 12.1308 22.8179   3
  -5   2 -12 -2.6445 8.15326   2
   6  -2  12 -9.9231 20.6525   3
  -6  -2 -12 -8.5890 7.68298   2
  -6   2 -12 0.86656 9.30448   2
   6   2  12 3.01518 23.7139   3
   7  -2  12 74.2508 24.3323   3
  -7  -2 -12 39.4987 9.95490   2
  -7   2 -12 39.1241 10.7485   2
   7   2  12 46.6807 25.7663   3
  -7  -3  12 138.247 20.7133   3
  -7  -3  12 207.971 24.5286   2
  -6  -3  12 30.6618 15.9426   3
  -6  -3  12 45.1834 11.7668   2
  -5  -3  12 45.3091 16.0187   3
  -5   3  12 36.8823 17.9402   3
  -4  -3  12 -3.2936 15.1113   3
  -4   3  12 11.0884 18.3249   3
  -3  -3  12 256.154 28.0787   3
  -3  -3  12 209.598 27.7361   1
  -3   3  12 249.958 26.3159   3
  -2  -3  12 82.0849 9.03888   2
  -2  -3  12 78.6478 17.3981   3
  -2  -3  12 54.1310 21.7295   1
  -2   3  12 61.6015 20.0029   3
   2   3 -12 55.2117 14.9939   1
   2   3 -12 104.112 17.3606   4
   1  -3 -12 4.47852 8.47084   4
  -1  -3  12 32.7150 15.8456   3
  -1  -3  12 14.1615 8.03513   2
  -1  -3  12 21.6236 18.2924   1
   1   3 -12 12.6237 8.29191   4
   1   3 -12 -8.0326 13.9250   1
   1   3 -12 18.9499 5.21017   2
  -1   3  12 4.41881 18.5899   3
   0  -3 -12 48.0359 8.58808   4
   0  -3  12 57.8785 16.1046   3
   0  -3  12 32.8506 9.34863   2
   0   3  12 49.4511 20.7948   3
   0   3 -12 19.8022 12.8390   1
   0   3 -12 39.4723 5.85501   2
   1  -3  12 70.1975 11.3150   2
  -1  -3 -12 66.0675 8.57104   4
   1  -3  12 84.2448 17.0419   3
   1   3  12 73.3996 21.4558   3
  -1   3 -12 70.2714 7.27940   2
  -2  -3 -12 185.711 18.5480   4
   2  -3  12 240.536 26.5880   3
   2  -3  12 208.194 21.1989   2
   2   3  12 190.316 26.1464   3
  -2   3 -12 193.484 15.1994   2
  -3  -3 -12 4.12342 3.65672   2
   3  -3  12 -19.865 16.8839   3
  -3   3 -12 4.02658 6.55845   2
   3   3  12 24.3577 21.9200   3
  -4  -3 -12 53.2387 6.31167   2
   4  -3  12 70.6815 19.3564   3
   4   3  12 64.7873 24.3811   3
  -4   3 -12 56.9175 8.89951   2
  -5  -3 -12 30.4566 6.65099   2
   5  -3  12 40.4532 20.6253   3
   5   3  12 30.9236 24.7629   3
  -5   3 -12 37.6935 9.29536   2
   6  -3  12 50.8663 20.6957   3
  -6  -3 -12 43.6052 8.29186   2
   6   3  12 59.3206 25.0615   3
  -6   3 -12 30.4907 10.0885   2
   7  -3  12 -5.3608 20.9998   3
  -7  -3 -12 5.93839 8.97353   2
  -7   3 -12 -2.5663 10.6579   2
   7   3  12 33.2483 25.3339   3
  -7  -4  12 6.15943 13.9232   3
  -7  -4  12 -10.413 12.9363   2
  -6  -4  12 36.8286 15.0338   3
  -5  -4  12 563.584 41.2016   3
  -4  -4  12 25.8432 14.7614   3
  -4   4  12 5.44666 18.5741   3
  -3  -4  12 25.8116 14.4316   3
  -3   4  12 41.5257 19.5608   3
  -2  -4  12 25.9242 19.5711   1
  -2  -4  12 13.2881 14.6112   3
  -2  -4  12 -2.2096 8.57550   2
   2   4 -12 -27.423 23.1946   1
  -2   4  12 24.7547 20.0030   3
  -1  -4  12 511.431 34.2647   3
  -1  -4  12 376.462 42.9026   1
   1  -4 -12 358.977 28.8199   4
  -1  -4  12 450.038 27.8909   2
   1   4 -12 383.646 38.3852   1
  -1   4  12 415.079 40.3577   3
   1   4 -12 448.395 26.2187   2
   0  -4 -12 105.585 11.0330   4
   0  -4  12 109.185 11.7103   2
   0  -4  12 100.986 17.4358   3
   0   4 -12 115.967 11.0494   2
   0   4 -12 72.9234 15.7946   1
   0   4  12 64.8679 22.1513   3
   1  -4  12 32.3263 10.6922   2
  -1  -4 -12 16.1401 7.38515   4
   1  -4  12 40.3088 15.2701   3
  -1   4 -12 23.1019 6.22657   2
   1   4  12 19.7760 21.6587   3
   2  -4  12 109.896 16.5201   2
   2  -4  12 119.292 18.9699   3
  -2  -4 -12 142.001 13.9820   4
  -2   4 -12 128.185 12.8824   2
   2   4  12 108.449 24.8464   3
   3  -4  12 0.80640 15.2837   3
  -3   4 -12 -0.4816 7.04563   2
   3   4  12 -14.104 21.6228   3
   4  -4  12 92.2587 20.0675   3
  -4  -4 -12 99.0425 9.33134   2
   4   4  12 146.175 26.8665   3
  -4   4 -12 104.926 11.0771   2
  -5  -4 -12 4.96009 5.80837   2
   5  -4  12 -10.675 17.4515   3
   5   4  12 -19.767 24.2527   3
  -5   4 -12 13.2578 15.4325   2
  -6  -4 -12 5.34635 7.32721   2
   6  -4  12 42.3605 20.7180   3
  -6   4 -12 1.36820 9.73846   2
   6   4  12 4.28880 23.9847   3
   7  -4  12 48.0326 21.4757   3
  -7   4 -12 72.6588 12.7597   2
   7   4  12 32.2010 25.3335   3
  -7  -5  12 85.4039 15.9188   3
  -7  -5  12 113.313 16.0731   2
  -6  -5  12 4.58100 14.2528   3
  -5  -5  12 20.4907 13.7064   3
  -4  -5  12 13.1788 14.0230   3
  -3  -5  12 9.59838 14.0774   3
  -3   5  12 9.38015 18.2594   3
  -2  -5  12 -8.7466 13.3344   3
  -2   5  12 18.5259 20.2406   3
  -1  -5  12 6.95340 8.86559   2
  -1  -5  12 14.8588 17.6052   1
  -1  -5  12 0.09926 13.8554   3
   1   5 -12 4.47272 6.09395   2
   1   5 -12 16.8773 16.4339   1
  -1   5  12 -16.140 20.1303   3
   0  -5  12 -19.605 9.10491   2
   0  -5  12 -10.336 14.0336   3
   0   5  12 -14.692 19.8807   3
   0   5 -12 19.4609 6.36423   2
   0   5 -12 12.8471 14.3858   1
   1  -5  12 12.1574 10.7137   2
   1  -5  12 37.7914 15.8229   3
   1   5  12 17.0572 21.9255   3
  -1   5 -12 19.6738 6.81327   2
   2  -5  12 -9.0075 14.5753   3
   2   5  12 27.1832 22.7151   3
  -2   5 -12 -7.1830 6.68652   2
   3  -5  12 115.972 19.1444   3
   3   5  12 121.888 25.5230   3
   4  -5  12 -4.9107 15.8031   3
   4   5  12 -12.889 23.8293   3
  -4   5 -12 6.53605 8.58403   2
   5  -5  12 39.2257 17.9067   3
  -5   5 -12 27.1799 10.1848   2
   5   5  12 6.11391 25.3255   3
   6  -5  12 44.9143 20.2155   3
  -6   5 -12 73.1896 11.9240   2
   6   5  12 77.9037 25.5004   3
   7  -5  12 -12.228 20.9444   3
  -7   5 -12 -10.261 11.6839   2
  -7  -6  12 39.0599 14.5791   3
  -6  -6  12 1.24588 13.2642   3
  -5  -6  12 -3.4205 13.2537   3
  -4  -6  12 -5.7872 13.3541   3
  -3  -6  12 80.9557 16.4027   3
  -2  -6  12 4.38425 13.9906   3
   2   6 -12 8.86937 6.71227   2
  -2   6  12 -1.0312 19.8408   3
  -1  -6  12 10.3565 14.4964   3
   1   6 -12 35.1861 7.24913   2
  -1   6  12 15.9106 20.4759   3
   0  -6  12 21.1892 12.1755   2
   0  -6  12 53.1722 14.9220   3
   0  -6  12 20.6656 26.5085   1
   0   6 -12 73.0236 8.34948   2
   0   6  12 71.1919 21.8311   3
   1  -6  12 7.19450 13.9564   3
   1  -6  12 -24.691 15.3800   2
  -1   6 -12 10.8310 7.24154   2
   1   6  12 2.15358 21.3417   3
   2  -6  12 2.75242 14.2313   3
  -2   6 -12 8.27980 7.67294   2
   2   6  12 -11.075 22.2455   3
   3  -6  12 170.063 20.4764   3
  -3   6 -12 171.537 16.7965   2
   3   6  12 139.095 26.6696   3
   4  -6  12 8.59981 16.7922   3
   4   6  12 32.9850 24.5171   3
  -4   6 -12 -7.4476 9.06442   2
   5  -6  12 23.3302 17.8823   3
   5   6  12 -17.965 24.6022   3
  -5   6 -12 -5.9198 10.1201   2
   6  -6  12 -7.3939 17.3472   3
  -6   6 -12 12.1848 11.5671   2
   7  -6  12 13.0403 18.6192   3
  -7  -7  12 14.0707 13.8122   3
  -6  -7  12 5.80365 13.4777   3
  -5  -7  12 13.0688 14.1034   3
  -4  -7  12 348.165 31.1786   3
  -3  -7  12 119.862 16.9007   3
  -2  -7  12 -7.5228 13.2043   3
   2   7 -12 9.55126 7.32792   2
  -1  -7  12 119.224 18.0992   3
   1   7 -12 185.158 15.5113   2
   0  -7  12 21.4789 14.5397   3
   0   7 -12 23.5866 7.93770   2
   1  -7  12 261.253 29.8327   3
   1   7  12 210.332 30.0053   3
  -1   7 -12 359.404 22.1413   2
   2  -7  12 16.1907 14.6932   3
  -2   7 -12 6.36429 8.06853   2
   2   7  12 -6.8242 22.4000   3
   3  -7  12 118.235 19.0098   3
   4  -7  12 107.260 18.9091   3
  -4   7 -12 138.497 13.2614   2
   5  -7  12 2.37448 16.5988   3
  -5   7 -12 36.4813 11.4488   2
   6  -7  12 -4.8539 17.9879   3
  -6   7 -12 25.5076 12.2262   2
  -7  -8  12 22.7751 14.0687   3
  -6  -8  12 158.579 18.6128   3
  -5  -8  12 -1.9478 12.9646   3
  -4  -8  12 -17.998 12.7923   3
  -3  -8  12 96.4990 16.8373   3
  -2  -8  12 9.60209 14.1622   3
   2   8 -12 21.9873 8.27662   2
  -1  -8  12 101.932 17.5738   3
   1   8 -12 155.271 15.5476   2
   0  -8  12 20.8387 14.6055   3
   0   8 -12 22.7564 8.64286   2
   1  -8  12 13.2790 14.8457   3
  -1   8 -12 21.2166 8.66613   2
   2  -8  12 30.8100 15.7823   3
  -2   8 -12 38.7623 15.5362   2
   3  -8  12 56.5986 16.6344   3
  -3   8 -12 70.6116 10.7815   2
   4  -8  12 -7.0880 15.2991   3
  -4   8 -12 -11.347 9.79889   2
   5  -8  12 15.9501 15.7952   3
  -5   8 -12 3.77095 10.8977   2
   6  -8  12 195.855 23.8827   3
  -6   8 -12 160.083 17.0670   2
  -6  -9  12 0.07151 13.4744   3
  -5  -9  12 149.761 18.3451   3
  -4  -9  12 16.3231 13.8587   3
  -3  -9  12 44.3085 14.5704   3
  -2  -9  12 72.8954 16.1354   3
   2   9 -12 113.237 13.0020   2
  -1  -9  12 4.00364 14.6710   3
   0  -9  12 -3.9796 13.9510   3
   0   9 -12 -3.6829 10.0165   2
   1  -9  12 29.9627 15.3377   3
  -1   9 -12 44.9873 10.2213   2
   2  -9  12 -11.926 15.1156   3
  -2   9 -12 -1.7189 9.16299   2
   3  -9  12 -34.508 14.5466   3
  -3   9 -12 6.14962 9.86670   2
   4  -9  12 13.2936 15.9515   3
  -4   9 -12 3.97776 10.4905   2
   5  -9  12 41.1446 17.4621   3
  -5   9 -12 105.692 13.5900   2
  -6 -10  12 3.40851 13.5598   3
  -5 -10  12 49.7364 15.3675   3
  -4 -10  12 11.5352 13.8017   3
  -3 -10  12 6.45070 13.5981   3
  -2 -10  12 14.8541 14.3031   3
   2  10 -12 5.28959 9.51553   2
  -1 -10  12 72.4067 17.4152   3
   1  10 -12 100.200 11.9666   2
   0 -10  12 115.888 17.8811   3
   0  10 -12 99.3137 12.2969   2
   1 -10  12 9.65638 15.1910   3
  -1  10 -12 25.4912 9.69051   2
   2 -10  12 6.42205 16.1947   3
  -2  10 -12 5.70152 10.1606   2
   3 -10  12 -8.9352 15.3262   3
  -3  10 -12 -1.2203 10.3711   2
   4 -10  12 39.4238 17.4118   3
  -4  10 -12 40.2524 12.0303   2
   5 -10  12 29.8051 16.8192   3
  -5  10 -12 -14.377 11.7513   2
  -5 -11  12 38.5837 15.0620   3
  -4 -11  12 29.6058 14.8716   3
  -3 -11  12 90.8172 16.5085   3
  -2 -11  12 47.0653 16.0260   3
   2  11 -12 102.658 12.2381   2
  -1 -11  12 23.0887 15.8097   3
   1  11 -12 21.7634 10.3905   2
   0 -11  12 12.7940 15.0772   3
   0  11 -12 8.99426 9.85978   2
   1 -11  12 46.2806 16.1561   3
  -1  11 -12 52.5644 11.6937   2
   2 -11  12 183.376 22.2107   3
  -2  11 -12 169.990 16.6654   2
   3 -11  12 -20.567 15.6791   3
  -3  11 -12 -5.3628 11.3455   2
   4 -11  12 47.6705 18.0676   3
  -4  11 -12 46.8211 12.7838   2
  -4 -12  12 27.9929 15.3030   3
  -3 -12  12 -8.9916 14.3075   3
  -2 -12  12 -4.3000 15.1712   3
   2  12 -12 12.4418 10.9968   2
  -1 -12  12 9.83851 15.5709   3
   1  12 -12 18.3871 10.5350   2
   0 -12  12 -4.3918 15.6531   3
   0  12 -12 -3.4679 10.8901   2
   1 -12  12 14.0857 16.3861   3
  -1  12 -12 21.9147 11.4447   2
   2 -12  12 6.90298 16.5463   3
  -2  12 -12 4.53330 11.5812   2
   3 -12  12 25.1231 17.3043   3
  -3  12 -12 12.4211 12.4983   2
  -3 -13  12 22.4817 16.2430   3
  -2 -13  12 11.7672 16.2395   3
   2  13 -12 24.4677 11.9648   2
  -1 -13  12 8.47056 15.6561   3
   1  13 -12 30.6292 11.2625   2
   0 -13  12 7.34885 16.4089   3
   0  13 -12 -3.8951 10.8494   2
   1 -13  12 -2.1487 16.4030   3
  -1  13 -12 10.0986 11.5730   2
   2 -13  12 -15.186 16.2590   3
  -2  13 -12 13.8741 12.1101   2
  -7   0  13 46.9554 16.3911   3
  -6   0  13 -20.474 16.2152   3
  -5   0  13 547.138 43.4478   3
  -4   0  13 6.83211 17.5583   3
  -3   0  13 39.1026 18.7124   3
  -2   0  13 320.512 34.6993   3
  -1   0  13 7.21721 18.3856   3
   1   0 -13 7.19081 9.32178   4
   0   0  13 383.128 39.0887   3
   1   0  13 35.1257 19.6547   3
   2   0  13 36.9011 21.3238   3
  -2   0 -13 33.8155 4.50301   2
  -3   0 -13 167.721 12.8721   2
   3   0  13 197.716 27.1882   3
   4   0  13 183.252 26.6497   3
  -4   0 -13 114.772 12.4035   2
  -5   0 -13 6.92725 7.30471   2
   5   0  13 -9.3885 23.1834   3
   6   0  13 30.2979 24.6460   3
  -7  -1  13 150.814 19.1559   3
  -6  -1  13 -11.209 16.7608   3
  -6   1  13 -7.4805 17.1032   3
  -5  -1  13 3.42754 16.6277   3
  -5   1  13 90.5821 19.0159   3
  -4  -1  13 48.5732 17.9754   3
  -4   1  13 33.7807 19.0163   3
  -3  -1  13 208.213 24.0269   3
  -3   1  13 209.103 24.5620   3
  -2  -1  13 14.7232 17.6123   3
  -2   1  13 20.5381 19.1834   3
  -1  -1  13 143.065 21.2852   3
   1  -1 -13 84.3202 11.9156   4
   1   1 -13 112.773 13.1655   4
  -1   1  13 133.620 21.9778   3
   0  -1  13 66.7065 21.0463   3
   0   1  13 108.123 22.3378   3
   1  -1  13 28.3456 19.4339   3
  -1   1 -13 27.3319 4.60400   2
   1   1  13 20.9700 20.2617   3
   2  -1  13 261.607 27.8681   3
   2   1  13 214.831 27.6866   3
  -2   1 -13 237.719 15.8769   2
   3  -1  13 55.3651 21.7036   3
  -3  -1 -13 39.5415 5.53051   2
  -3   1 -13 36.3220 6.36670   2
   3   1  13 16.6489 23.3916   3
   4  -1  13 35.5034 23.3824   3
  -4  -1 -13 13.8739 5.70815   2
   4   1  13 12.1991 22.9024   3
  -4   1 -13 8.47454 6.61778   2
   5  -1  13 13.0112 23.5819   3
  -5   1 -13 0.42140 7.69901   2
   5   1  13 6.50523 23.7938   3
   6  -1  13 29.4554 23.4433   3
   6   1  13 46.4766 26.3096   3
  -6   1 -13 29.2093 9.40505   2
  -7  -2  13 -21.618 14.9334   3
  -6  -2  13 27.3830 16.4990   3
  -6   2  13 15.1800 17.8351   3
  -5  -2  13 38.6055 16.7198   3
  -5   2  13 -2.7514 17.3808   3
  -4  -2  13 39.9742 17.1870   3
  -4   2  13 31.9210 19.3547   3
  -3  -2  13 23.0355 18.1721   3
  -3   2  13 45.1695 20.3669   3
  -2  -2  13 -10.145 16.9764   3
  -2   2  13 27.2964 19.6665   3
  -1  -2  13 57.1488 17.9015   3
   1   2 -13 21.1347 14.7026   4
  -1   2  13 43.5642 20.1894   3
   0  -2  13 22.9790 18.0859   3
   0   2  13 10.3667 20.8294   3
   1  -2  13 23.4173 18.9838   3
  -1   2 -13 15.6152 5.08694   2
   1   2  13 12.3469 20.7147   3
   2  -2  13 43.4172 19.7690   3
   2   2  13 4.57706 21.4701   3
  -2   2 -13 22.9673 5.81961   2
   3  -2  13 100.167 21.7578   3
   3   2  13 87.7771 25.9499   3
  -3   2 -13 110.800 11.8409   2
   4  -2  13 243.311 28.3575   3
   4   2  13 223.827 30.2641   3
  -4   2 -13 245.313 18.4616   2
   5  -2  13 23.0144 22.0687   3
   5   2  13 18.3511 24.9185   3
  -5   2 -13 19.6195 8.48561   2
   6  -2  13 29.2333 23.3128   3
   6   2  13 47.7982 26.7788   3
  -6   2 -13 14.6881 9.53669   2
  -7  -3  13 23.4731 15.9923   3
  -6  -3  13 31.9623 16.2846   3
  -5  -3  13 -18.998 15.6567   3
  -5   3  13 -12.841 17.5573   3
  -4  -3  13 92.1690 18.5148   3
  -4   3  13 62.7973 20.5646   3
  -3  -3  13 32.6744 17.6731   3
  -3   3  13 18.6438 20.1546   3
  -2  -3  13 21.1959 17.0667   3
  -2   3  13 -10.047 20.0085   3
  -1  -3  13 147.127 21.4027   3
  -1   3  13 128.320 23.6416   3
   0  -3  13 22.0280 16.8365   3
   0   3 -13 6.57845 5.29002   2
   0   3  13 -4.1501 21.1731   3
   1  -3  13 36.8256 17.9451   3
   1   3  13 14.2330 21.5894   3
  -1   3 -13 33.9371 6.10405   2
   2  -3  13 -14.634 16.9795   3
  -2   3 -13 -0.0722 6.01849   2
   2   3  13 -5.2237 21.8831   3
   3  -3  13 -2.5256 19.5762   3
   3   3  13 -12.742 24.3994   3
  -3   3 -13 -12.503 6.52181   2
   4  -3  13 52.4532 20.4970   3
   4   3  13 68.8886 25.8037   3
   5  -3  13 11.7274 20.8644   3
   5   3  13 44.1231 25.5672   3
  -5   3 -13 2.18525 10.2343   2
   6  -3  13 35.2080 23.7176   3
   6   3  13 74.2432 28.6292   3
  -6   3 -13 22.7100 10.1265   2
  -7  -4  13 20.6978 15.5610   3
  -6  -4  13 37.5753 16.5257   3
  -5  -4  13 59.9358 17.9309   3
  -4  -4  13 22.9514 17.0910   3
  -4   4  13 28.1037 19.8531   3
  -3  -4  13 15.7278 16.4204   3
  -3   4  13 32.6928 20.8129   3
  -2  -4  13 15.0215 16.8829   3
  -2   4  13 27.4247 20.7220   3
  -1  -4  13 54.0662 17.6891   3
  -1   4  13 33.8366 21.9410   3
   0  -4  13 -11.262 16.1444   3
   0   4  13 -5.9481 22.3856   3
   0   4 -13 -0.4220 5.71349   2
   1  -4  13 68.4408 18.8381   3
   1   4  13 63.9178 24.0472   3
  -1   4 -13 110.939 11.7503   2
   2  -4  13 149.271 21.8736   3
  -2   4 -13 160.914 14.5552   2
   2   4  13 140.335 26.8493   3
   3  -4  13 119.269 21.5080   3
  -3   4 -13 107.954 10.4507   2
   3   4  13 79.7980 27.5882   3
   4  -4  13 24.7524 20.2374   3
   4   4  13 23.7635 24.9185   3
  -4   4 -13 5.52841 8.30734   2
   5  -4  13 16.4348 22.0972   3
  -5   4 -13 21.6221 9.65601   2
   5   4  13 8.16152 25.1951   3
   6  -4  13 12.1796 21.3596   3
   6   4  13 -6.7652 27.6771   3
  -6   4 -13 16.5967 10.3521   2
  -6  -5  13 15.5477 16.1987   3
  -5  -5  13 -5.4621 15.6132   3
  -4  -5  13 3.71890 15.4282   3
  -3  -5  13 18.0363 15.5590   3
  -3   5  13 -10.839 21.1363   3
  -2  -5  13 13.5775 15.6133   3
  -2   5  13 4.91639 21.0605   3
  -1  -5  13 20.5723 16.1302   3
  -1   5  13 -7.8216 21.3803   3
   1   5 -13 10.1672 6.52922   2
   0  -5  13 57.6601 18.0120   3
   0   5  13 58.3905 24.5605   3
   0   5 -13 59.0198 7.92186   2
   1  -5  13 73.6311 19.3723   3
  -1   5 -13 106.881 9.89262   2
   1   5  13 109.840 25.5451   3
   2  -5  13 33.2800 17.9829   3
   2   5  13 42.0213 24.3524   3
  -2   5 -13 41.4850 8.12182   2
   3  -5  13 11.3104 17.5116   3
   3   5  13 30.2162 26.6318   3
  -3   5 -13 4.11892 7.95101   2
   4  -5  13 6.74147 17.7990   3
   4   5  13 -17.711 25.5210   3
  -4   5 -13 -14.364 8.87185   2
   5  -5  13 25.2642 19.1505   3
   5   5  13 15.2438 25.8951   3
  -5   5 -13 8.36921 9.83013   2
   6  -5  13 205.045 28.0980   3
   6   5  13 148.793 32.1765   3
  -6   5 -13 204.732 21.3226   2
  -6  -6  13 10.6320 16.3284   3
  -5  -6  13 71.0988 16.5495   3
  -4  -6  13 19.9127 15.4116   3
  -3  -6  13 181.401 21.9065   3
  -2  -6  13 3.64060 15.8528   3
  -2   6  13 9.76220 21.8595   3
  -1  -6  13 70.0453 18.4981   3
   1   6 -13 92.6178 9.54240   2
  -1   6  13 69.5618 23.7319   3
   0  -6  13 38.9019 16.9144   3
   0   6  13 30.1309 24.8504   3
   0   6 -13 48.4152 8.26378   2
   1  -6  13 38.1490 17.6295   3
   1   6  13 40.6867 24.3401   3
  -1   6 -13 73.4164 9.17628   2
   2  -6  13 9.98953 16.9847   3
  -2   6 -13 -2.7059 7.96190   2
   2   6  13 13.7934 25.0305   3
   3  -6  13 21.6210 18.1543   3
   3   6  13 -15.380 26.3992   3
   4  -6  13 142.965 23.2050   3
  -4   6 -13 167.749 17.9119   2
   4   6  13 86.9443 28.7549   3
   5  -6  13 -1.6099 20.0587   3
  -5   6 -13 -1.7506 10.1882   2
  -6  -7  13 23.8219 15.3769   3
  -5  -7  13 -2.9324 15.7163   3
  -4  -7  13 70.5224 17.3980   3
  -3  -7  13 248.074 28.9395   3
  -2  -7  13 107.614 18.4033   3
  -1  -7  13 63.1289 17.2382   3
   1   7 -13 55.0690 9.07222   2
   0  -7  13 249.489 30.1484   3
   0   7 -13 276.484 20.6947   2
   1  -7  13 0.76462 16.1074   3
  -1   7 -13 13.5435 8.32159   2
   2  -7  13 64.5514 17.6623   3
   3  -7  13 28.5199 18.2488   3
  -3   7 -13 13.5801 9.22021   2
   4  -7  13 9.07815 18.2554   3
  -4   7 -13 1.02428 9.96026   2
   5  -7  13 35.5036 19.6857   3
  -5   7 -13 36.5375 11.3305   2
  -5  -8  13 106.791 17.9614   3
  -4  -8  13 4.79205 15.2535   3
  -3  -8  13 12.9232 15.2627   3
  -2  -8  13 58.6923 16.9115   3
  -1  -8  13 18.9836 15.6260   3
   1   8 -13 17.5606 15.4871   2
   0  -8  13 61.9917 17.9437   3
   1  -8  13 100.056 19.5784   3
  -1   8 -13 104.985 11.8068   2
   2  -8  13 -5.0341 16.2619   3
  -2   8 -13 -6.9989 9.19554   2
   3  -8  13 5.54779 16.5430   3
  -3   8 -13 17.8770 10.0234   2
   4  -8  13 44.1949 18.8474   3
  -4   8 -13 62.8211 12.0452   2
  -5  -9  13 11.6511 14.9984   3
  -4  -9  13 13.9263 14.8838   3
  -3  -9  13 22.1695 16.4371   3
  -2  -9  13 -11.674 15.8182   3
   2   9 -13 7.43355 9.07323   2
  -1  -9  13 54.2558 17.3836   3
   1   9 -13 118.566 11.9309   2
   0  -9  13 9.33483 16.5607   3
   0   9 -13 -6.6451 8.89901   2
   1  -9  13 66.1222 18.5866   3
  -1   9 -13 87.6696 11.4228   2
   2  -9  13 76.3815 18.8619   3
  -2   9 -13 33.3614 10.5132   2
   3  -9  13 -1.4408 16.7097   3
  -3   9 -13 -3.9044 10.1094   2
   4  -9  13 -3.9150 17.1543   3
  -4   9 -13 -9.8184 11.3105   2
  -4 -10  13 -6.0912 14.7604   3
  -3 -10  13 -2.5783 15.6211   3
  -2 -10  13 16.5566 16.5712   3
   2  10 -13 0.88852 9.42744   2
  -1 -10  13 5.63116 15.9823   3
   1  10 -13 21.2219 10.0320   2
   0 -10  13 -26.959 16.0884   3
   0  10 -13 -11.245 9.59758   2
   1 -10  13 -12.404 16.8037   3
  -1  10 -13 6.29999 9.87715   2
   2 -10  13 -3.9559 16.9651   3
  -2  10 -13 7.78867 10.4360   2
   3 -10  13 2.74251 17.3790   3
  -3  10 -13 4.09850 10.9155   2
  -3 -11  13 5.62753 16.2043   3
  -2 -11  13 14.8213 16.8877   3
   2  11 -13 27.8444 10.4567   2
  -1 -11  13 34.2853 17.4567   3
   1  11 -13 91.2625 12.2261   2
   0 -11  13 45.3880 18.0457   3
   0  11 -13 30.9492 10.7674   2
   1 -11  13 -16.776 17.0921   3
  -1  11 -13 9.60259 11.0054   2
   2 -11  13 -2.8335 17.4990   3
  -2  11 -13 11.2019 11.4453   2
  -1 -12  13 12.7057 16.9211   3
   0 -12  13 0.30497 17.4157   3
  -6   0  14 26.4208 19.3527   3
  -5   0  14 -6.8036 19.1912   3
  -4   0  14 47.3579 19.8603   3
  -3   0  14 136.987 23.7916   3
  -2   0  14 94.4734 22.0586   3
  -1   0  14 35.0490 21.4556   3
   0   0  14 52.2345 22.6243   3
   1   0  14 3.19030 22.5847   3
   2   0  14 27.2034 23.7176   3
   3   0  14 8.31894 22.8033   3
   4   0  14 21.4044 25.3665   3
   5   0  14 -0.4198 25.9646   3
  -6  -1  14 60.8981 19.9034   3
  -6   1  14 60.1050 20.3046   3
  -5  -1  14 16.5780 18.9698   3
  -5   1  14 25.2264 19.7003   3
  -4  -1  14 59.8960 20.2551   3
  -4   1  14 99.5707 22.7402   3
  -3  -1  14 10.9513 20.6904   3
  -3   1  14 27.3750 20.7680   3
  -2  -1  14 58.2136 21.7438   3
  -2   1  14 29.8238 21.0844   3
  -1  -1  14 -19.922 20.6468   3
  -1   1  14 0.10732 20.9725   3
   0  -1  14 42.5505 20.9955   3
   0   1  14 35.5053 23.5120   3
   1  -1  14 21.4312 21.4011   3
   1   1  14 34.5430 23.0630   3
   2  -1  14 33.9109 22.2672   3
   2   1  14 48.8397 24.5571   3
   3  -1  14 32.2007 23.1400   3
   3   1  14 -0.7879 24.1362   3
   4  -1  14 -11.689 22.9570   3
   4   1  14 10.6397 25.3863   3
   5  -1  14 -0.2222 23.8149   3
   5   1  14 16.0384 26.9139   3
  -6  -2  14 -21.279 17.5525   3
  -5  -2  14 74.5971 20.5108   3
  -5   2  14 59.9590 21.4584   3
  -4  -2  14 13.8800 19.5345   3
  -4   2  14 11.6825 21.2779   3
  -3  -2  14 175.148 23.9896   3
  -3   2  14 128.827 24.9595   3
  -2  -2  14 94.0111 22.2787   3
  -2   2  14 75.8277 23.2585   3
  -1  -2  14 96.5549 22.6214   3
  -1   2  14 98.1946 24.0462   3
   0  -2  14 223.118 26.4121   3
   0   2  14 183.383 28.2826   3
   1  -2  14 11.5378 20.0777   3
   1   2  14 42.0855 23.3038   3
   2  -2  14 -8.1466 20.4157   3
   2   2  14 -27.790 23.1529   3
   3  -2  14 11.4621 22.9909   3
   3   2  14 -22.336 25.0529   3
   4  -2  14 117.034 25.7001   3
   4   2  14 80.6363 27.5081   3
   5  -2  14 -5.0242 23.8279   3
   5   2  14 0.61398 26.4747   3
  -5  -3  14 16.0752 19.2292   3
  -5   3  14 -5.8261 20.9268   3
  -4  -3  14 120.244 22.0982   3
  -4   3  14 101.748 24.5096   3
  -3  -3  14 49.6356 19.7924   3
  -3   3  14 50.5287 22.4401   3
  -2  -3  14 83.5521 20.3923   3
  -2   3  14 90.6102 24.8409   3
  -1  -3  14 115.941 21.5456   3
  -1   3  14 102.584 25.5473   3
   0  -3  14 15.2506 19.7781   3
   0   3  14 14.4564 23.9873   3
   1  -3  14 -3.0999 20.4784   3
   1   3  14 32.1704 24.1712   3
   2  -3  14 157.845 24.1173   3
   2   3  14 31.2890 25.5877   3
  -2   3 -14 95.7386 12.0968   2
   3  -3  14 27.0571 21.0626   3
   3   3  14 26.9124 27.2445   3
   4  -3  14 30.9174 23.2502   3
   4   3  14 2.41560 25.8277   3
   5  -3  14 21.2017 24.4463   3
   5   3  14 -3.1588 27.0116   3
  -5  -4  14 137.634 21.0425   3
  -4  -4  14 49.6162 19.2491   3
  -4   4  14 64.8863 23.8078   3
  -3  -4  14 90.8628 21.1058   3
  -3   4  14 58.1027 23.9415   3
  -2  -4  14 140.422 22.3524   3
  -2   4  14 119.066 26.8761   3
  -1  -4  14 34.1902 20.1811   3
  -1   4  14 60.1317 25.2349   3
   0  -4  14 107.828 21.8073   3
   0   4 -14 124.305 11.5342   2
   0   4  14 110.311 26.3908   3
   1  -4  14 160.284 23.6102   3
   1   4  14 129.649 28.3469   3
  -1   4 -14 192.800 15.7136   2
   2  -4  14 -0.0389 19.8918   3
  -2   4 -14 21.0960 7.14251   2
   2   4  14 -0.2119 24.8481   3
   3  -4  14 35.9547 22.3176   3
   3   4  14 -12.325 26.6531   3
  -3   4 -14 7.34648 7.80314   2
   4  -4  14 35.0114 22.1617   3
   4   4  14 24.6210 27.6028   3
  -5  -5  14 72.5871 20.1225   3
  -4  -5  14 -4.2172 18.1293   3
  -3  -5  14 41.7431 18.3174   3
  -3   5  14 87.3485 24.6937   3
  -2  -5  14 39.6008 18.5379   3
  -2   5  14 26.1647 25.0474   3
  -1  -5  14 19.4458 18.2606   3
  -1   5  14 73.6700 25.8366   3
   0  -5  14 32.9779 19.7849   3
   0   5  14 17.3289 24.7678   3
   0   5 -14 45.9417 7.52113   2
   1  -5  14 18.0986 19.7019   3
  -1   5 -14 15.0851 7.13371   2
   1   5  14 3.68920 24.9403   3
   2  -5  14 84.8338 22.2259   3
   2   5  14 105.500 28.5757   3
  -2   5 -14 92.0263 9.91415   2
   3  -5  14 17.1093 20.2762   3
   3   5  14 18.0512 27.5046   3
   4  -5  14 -22.660 20.7350   3
   4   5  14 2.08996 28.3911   3
  -4   5 -14 -10.950 9.00833   2
  -5  -6  14 25.3340 17.1203   3
  -4  -6  14 4.54502 16.3074   3
  -3  -6  14 12.7436 18.2999   3
  -2  -6  14 23.3020 18.7415   3
  -1  -6  14 -7.8531 18.1164   3
  -1   6  14 42.1421 25.9627   3
   0  -6  14 62.0973 19.5918   3
   0   6 -14 55.5599 8.64039   2
   0   6  14 32.6720 25.6004   3
   1  -6  14 17.2340 18.3730   3
   1   6  14 29.6959 26.4782   3
  -1   6 -14 3.77330 7.74639   2
   2  -6  14 -5.5950 18.8236   3
   2   6  14 25.5925 27.1357   3
   3  -6  14 6.16431 20.3718   3
  -3   6 -14 9.20226 8.94743   2
   3   6  14 -2.3296 26.9967   3
   4  -6  14 13.3641 21.4609   3
   4   6  14 -34.608 28.7124   3
  -4   6 -14 20.0120 9.44009   2
  -4  -7  14 7.66940 17.3819   3
  -3  -7  14 1.52997 17.0154   3
  -2  -7  14 -10.652 16.7331   3
  -1  -7  14 -7.1446 17.6992   3
   1   7 -14 -0.4564 7.85475   2
   0  -7  14 4.16714 17.3823   3
   0   7 -14 4.81167 8.20169   2
   1  -7  14 6.92454 18.1656   3
  -1   7 -14 4.25062 9.77885   2
   2  -7  14 14.8327 18.4391   3
  -2   7 -14 2.52546 8.73534   2
   3  -7  14 -22.243 20.0260   3
  -3   7 -14 19.1747 9.62591   2
  -3  -8  14 -16.187 16.3375   3
  -2  -8  14 -28.478 16.2530   3
  -1  -8  14 -14.121 17.3574   3
   1   8 -14 19.3740 8.89576   2
   0  -8  14 -6.6998 17.6155   3
   0   8 -14 -2.8737 8.52964   2
   1  -8  14 -1.4204 18.2200   3
  -1   8 -14 -6.2521 8.65691   2
   2  -8  14 3.48030 18.5293   3
  -2   8 -14 5.94462 9.36179   2
   3  -8  14 28.2408 20.9287   3
  -2  -9  14 10.1043 17.8412   3
  -1  -9  14 0.12549 17.6345   3
   1   9 -14 22.4470 9.58357   2
   0  -9  14 -13.865 17.5062   3
   0   9 -14 -0.3196 9.28931   2
   1  -9  14 27.3781 19.2870   3
  -1   9 -14 15.3316 9.76674   2
   2  -9  14 100.643 21.7314   3
  -4   0  15 -15.050 21.0706   3
  -3   0  15 148.660 26.7440   3
  -2   0  15 -10.344 22.9356   3
  -1   0  15 5.48560 23.7894   3
   0   0  15 -7.9433 22.4360   3
   1   0  15 67.8346 25.1132   3
   2   0  15 28.5900 24.5532   3
   3   0  15 19.2495 26.5187   3
  -4  -1  15 -1.2226 21.9855   3
  -4   1  15 -16.076 21.8900   3
  -3  -1  15 -24.479 20.8209   3
  -3   1  15 -26.748 22.9453   3
  -2  -1  15 58.5741 22.9989   3
  -2   1  15 -3.4104 22.8130   3
  -1  -1  15 9.78061 21.8794   3
  -1   1  15 6.28284 23.7303   3
   0  -1  15 -1.6277 23.3942   3
   0   1  15 13.5659 23.8697   3
   1  -1  15 19.2151 23.5262   3
   1   1  15 31.4664 25.4514   3
   2  -1  15 23.4092 24.5784   3
   2   1  15 47.9432 26.6738   3
   3  -1  15 54.6883 26.3513   3
   3   1  15 30.6190 25.8840   3
  -4  -2  15 101.945 22.7528   3
  -4   2  15 73.5567 24.7757   3
  -3  -2  15 20.4945 21.8759   3
  -3   2  15 -15.055 22.4618   3
  -2  -2  15 41.6409 22.1100   3
  -2   2  15 7.84854 24.1029   3
  -1  -2  15 -3.3714 22.3502   3
  -1   2  15 -15.546 23.8004   3
   0  -2  15 55.2611 23.0754   3
   0   2  15 33.0660 26.1842   3
   1  -2  15 37.1585 23.7221   3
   1   2  15 22.8588 25.5977   3
   2  -2  15 -13.255 22.7242   3
   2   2  15 26.0694 26.3684   3
   3  -2  15 45.3267 25.1003   3
   3   2  15 -5.1099 27.6146   3
  -4  -3  15 96.6255 22.5950   3
  -4   3  15 63.8678 25.1007   3
  -3  -3  15 19.0528 21.3405   3
  -3   3  15 22.2150 24.4752   3
  -2  -3  15 16.8291 22.3919   3
  -2   3  15 -6.0463 25.2914   3
  -1  -3  15 -6.3001 21.3686   3
  -1   3  15 -13.549 24.8930   3
   0  -3  15 98.7280 24.3655   3
   0   3  15 62.6878 27.0915   3
   1  -3  15 -38.677 21.0419   3
   1   3  15 22.2410 25.4866   3
   2  -3  15 -3.8891 22.9185   3
   2   3  15 -11.634 26.2033   3
   3  -3  15 -6.4703 24.7835   3
   3   3  15 -1.8007 29.4373   3
  -3  -4  15 28.2939 21.0847   3
  -3   4  15 -11.994 25.1893   3
  -2  -4  15 179.876 25.7110   3
  -2   4  15 153.104 30.1004   3
  -1  -4  15 14.1131 21.3963   3
  -1   4  15 -7.7764 26.8037   3
   0  -4  15 11.5102 20.4800   3
   0   4  15 -6.7688 25.5294   3
   1  -4  15 13.6196 21.9271   3
   1   4  15 14.6967 26.9443   3
   2  -4  15 197.336 27.2139   3
   2   4  15 115.104 30.7634   3
  -3  -5  15 41.8546 21.0646   3
  -2  -5  15 49.2906 21.9671   3
  -2   5  15 69.4456 26.9733   3
  -1  -5  15 42.0836 20.9467   3
  -1   5  15 34.3444 27.5565   3
   0  -5  15 -6.3165 21.7673   3
   0   5  15 45.2021 26.8278   3
   1  -5  15 29.8283 22.5355   3
   1   5  15 26.9283 28.6535   3
   2  -5  15 6.31294 23.2438   3
   2   5  15 3.97856 29.7466   3
  -2  -6  15 -27.318 20.6316   3
  -1  -6  15 -19.664 20.0869   3
   0  -6  15 65.5634 21.8796   3
   0   6  15 12.6391 28.7029   3
   1  -6  15 5.92050 20.5049   3
   1   6  15 3.09438 29.4227   3
   0   0   0    0.00    0.00   0

 _exptl_absorpt_process_details
)
 SADABS 2016/2: Krause, L., Herbst-Irmer, R., Sheldrick G.M. & Stalke D.,
 J. Appl. Cryst. 48 (2015) 3-10
)
 _exptl_absorpt_correction_type   multi-scan
 _exptl_absorpt_correction_T_max  0.7465
 _exptl_absorpt_correction_T_min  0.4190
 _exptl_special_details
)
 The following wavelength and cell were deduced by SADABS from the
 direction cosines etc. They are given here for emergency use only:
 CELL 0.71081    8.147   13.764   10.284   89.988   92.229   89.993
)

;
_shelx_hkl_checksum              27346
loop_
_space_group_symop_operation_xyz
'x, y, z'
'-x, y+1/2, -z'
'-x, -y, -z'
'x, -y-1/2, z'
loop_
_atom_site_label
_atom_site_type_symbol
_atom_site_fract_x
_atom_site_fract_y
_atom_site_fract_z
_atom_site_U_iso_or_equiv
_atom_site_adp_type
_atom_site_occupancy
_atom_site_site_symmetry_order
_atom_site_calc_flag
_atom_site_refinement_flags_posn
_atom_site_refinement_flags_adp
_atom_site_refinement_flags_occupancy
_atom_site_disorder_assembly
_atom_site_disorder_group
Br1 Br 0.34784(5) 0.250000 0.82342(4) 0.01618(9) Uani 1 2 d S T P . .
Br2 Br -0.10990(5) 0.250000 0.95552(4) 0.02160(10) Uani 1 2 d S T P . .
Br3 Br 0.06587(3) 0.47373(2) 0.79164(3) 0.01960(8) Uani 1 1 d . . . . .
Br4 Br 0.33314(4) 0.38976(2) 0.50687(3) 0.02287(8) Uani 1 1 d . . . . .
S1 S 0.60145(9) 0.36789(5) 0.20883(8) 0.02196(16) Uani 1 1 d . . . . .
S2 S 0.25521(9) 0.36720(5) 0.12982(7) 0.02080(15) Uani 1 1 d . . . . .
C1 C 0.4288(3) 0.3005(2) 0.1694(3) 0.0157(5) Uani 1 1 d . . . . .
C2 C 0.3489(4) 0.4787(2) 0.1471(3) 0.0220(6) Uani 1 1 d . . . . .
H2 H 0.290114 0.537307 0.130673 0.026 Uiso 1 1 calc R U . . .
C3 C 0.5083(4) 0.4793(2) 0.1847(3) 0.0232(6) Uani 1 1 d . . . . .
H3 H 0.567288 0.538251 0.197374 0.028 Uiso 1 1 calc R U . . .
C4 C -0.1727(5) 0.250000 0.5171(4) 0.0193(8) Uani 1 2 d S T P . .
H4 H -0.283884 0.250000 0.449409 0.023 Uiso 1 2 calc R U P . .
B1 B 0.1471(5) 0.250000 0.7119(4) 0.0131(8) Uani 1 2 d S T P . .
B2 B -0.0578(5) 0.250000 0.7718(4) 0.0148(8) Uani 1 2 d S T P . .
B3 B 0.0200(4) 0.3549(2) 0.6920(3) 0.0143(6) Uani 1 1 d . . . . .
B4 B 0.1432(4) 0.3153(2) 0.5614(3) 0.0163(6) Uani 1 1 d . . . . .
B5 B -0.1845(4) 0.3149(2) 0.6576(3) 0.0172(6) Uani 1 1 d . . . . .
H5 H -0.294100 0.357462 0.687240 0.021 Uiso 1 1 calc R U . . .
B6 B -0.0608(4) 0.3554(2) 0.5284(3) 0.0190(6) Uani 1 1 d . . . . .
H6 H -0.088910 0.424195 0.473950 0.023 Uiso 1 1 calc R U . . .
B7 B 0.0137(6) 0.250000 0.4485(5) 0.0200(9) Uani 1 2 d S T P . .
H7 H 0.033608 0.250000 0.341310 0.024 Uiso 1 2 calc R U P . .
loop_
_atom_site_aniso_label
_atom_site_aniso_U_11
_atom_site_aniso_U_22
_atom_site_aniso_U_33
_atom_site_aniso_U_23
_atom_site_aniso_U_13
_atom_site_aniso_U_12
Br1 0.01337(19) 0.01870(18) 0.01633(19) 0.000 -0.00128(14) 0.000
Br2 0.0184(2) 0.0311(2) 0.0156(2) 0.000 0.00516(15) 0.000
Br3 0.01655(15) 0.01519(13) 0.02710(16) -0.00473(11) 0.00111(11) -0.00030(9)
Br4 0.02364(17) 0.02488(15) 0.02051(16) 0.00430(11) 0.00633(11) -0.00489(11)
S1 0.0145(3) 0.0224(4) 0.0288(4) -0.0020(3) -0.0007(3) -0.0018(3)
S2 0.0159(3) 0.0190(3) 0.0272(4) -0.0032(3) -0.0029(3) 0.0013(3)
C1 0.0133(13) 0.0210(13) 0.0129(12) -0.0007(10) 0.0027(10) 0.0004(10)
C2 0.0247(16) 0.0150(13) 0.0265(16) -0.0045(11) 0.0029(12) 0.0001(11)
C3 0.0257(17) 0.0167(13) 0.0275(17) -0.0018(11) 0.0060(13) -0.0032(11)
C4 0.021(2) 0.0208(19) 0.0163(19) 0.000 -0.0042(15) 0.000
B1 0.011(2) 0.0151(19) 0.013(2) 0.000 -0.0012(15) 0.000
B2 0.013(2) 0.017(2) 0.015(2) 0.000 0.0003(16) 0.000
B3 0.0142(14) 0.0132(13) 0.0153(14) -0.0006(11) -0.0003(11) -0.0002(10)
B4 0.0170(15) 0.0167(14) 0.0153(15) 0.0015(11) 0.0012(12) -0.0018(11)
B5 0.0164(15) 0.0173(15) 0.0177(15) -0.0005(12) -0.0009(12) 0.0010(11)
B6 0.0184(16) 0.0200(15) 0.0183(16) 0.0019(12) -0.0033(12) 0.0001(12)
B7 0.023(2) 0.019(2) 0.017(2) 0.000 -0.0007(18) 0.000
loop_
_atom_type_symbol
_atom_type_description
_atom_type_scat_dispersion_real
_atom_type_scat_dispersion_imag
_atom_type_scat_source
C C 0.0033 0.0016 'International Tables Vol C Tables 4.2.6.8 and 6.1.1.4'
H H 0.0000 0.0000 'International Tables Vol C Tables 4.2.6.8 and 6.1.1.4'
B B 0.0013 0.0007 'International Tables Vol C Tables 4.2.6.8 and 6.1.1.4'
Br Br -0.2901 2.4595 'International Tables Vol C Tables 4.2.6.8 and 6.1.1.4'
S S 0.1246 0.1234 'International Tables Vol C Tables 4.2.6.8 and 6.1.1.4'
loop_
_geom_angle_atom_site_label_1
_geom_angle_atom_site_label_2
_geom_angle_atom_site_label_3
_geom_angle
_geom_angle_site_symmetry_1
_geom_angle_site_symmetry_3
_geom_angle_publ_flag
C1 S1 C3 95.47(14) . . ?
C2 S2 C1 95.48(14) . . ?
C1 C1 S1 122.67(9) 4_565 . ?
C1 C1 S2 122.26(9) 4_565 . ?
S1 C1 S2 115.07(15) . . ?
C3 C2 S2 117.1(2) . . ?
C3 C2 H2 121.5 . . ?
S2 C2 H2 121.5 . . ?
C2 C3 S1 116.9(2) . . ?
C2 C3 H3 121.6 . . ?
S1 C3 H3 121.6 . . ?
B7 C4 B5 115.6(3) . 4_565 ?
B7 C4 B5 115.6(3) . . ?
B5 C4 B5 63.2(3) 4_565 . ?
B7 C4 B6 63.07(18) . . ?
B5 C4 B6 115.7(3) 4_565 . ?
B5 C4 B6 62.99(18) . . ?
B7 C4 B6 63.07(18) . 4_565 ?
B5 C4 B6 62.99(17) 4_565 4_565 ?
B5 C4 B6 115.7(3) . 4_565 ?
B6 C4 B6 115.6(3) . 4_565 ?
B7 C4 H4 117.2 . . ?
B5 C4 H4 117.1 4_565 . ?
B5 C4 H4 117.1 . . ?
B6 C4 H4 117.2 . . ?
B6 C4 H4 117.2 4_565 . ?
B3 B1 B3 108.2(3) 4_565 . ?
B3 B1 B4 60.20(17) 4_565 4_565 ?
B3 B1 B4 108.5(2) . 4_565 ?
B3 B1 B4 108.5(2) 4_565 . ?
B3 B1 B4 60.20(17) . . ?
B4 B1 B4 60.4(2) 4_565 . ?
B3 B1 B2 59.90(16) 4_565 . ?
B3 B1 B2 59.90(16) . . ?
B4 B1 B2 108.1(2) 4_565 . ?
B4 B1 B2 108.1(2) . . ?
B3 B1 Br1 122.27(16) 4_565 . ?
B3 B1 Br1 122.27(16) . . ?
B4 B1 Br1 119.5(2) 4_565 . ?
B4 B1 Br1 119.5(2) . . ?
B2 B1 Br1 124.3(3) . . ?
B5 B2 B5 60.5(2) 4_565 . ?
B5 B2 B3 59.83(17) 4_565 4_565 ?
B5 B2 B3 108.1(3) . 4_565 ?
B5 B2 B3 108.1(3) 4_565 . ?
B5 B2 B3 59.83(17) . . ?
B3 B2 B3 107.7(3) 4_565 . ?
B5 B2 B1 107.3(3) 4_565 . ?
B5 B2 B1 107.3(3) . . ?
B3 B2 B1 59.60(16) 4_565 . ?
B3 B2 B1 59.60(16) . . ?
B5 B2 Br2 119.9(2) 4_565 . ?
B5 B2 Br2 119.9(2) . . ?
B3 B2 Br2 122.51(16) 4_565 . ?
B3 B2 Br2 122.51(16) . . ?
B1 B2 Br2 124.7(3) . . ?
B5 B3 B6 60.27(18) . . ?
B5 B3 B1 107.8(2) . . ?
B6 B3 B1 107.6(2) . . ?
B5 B3 B2 59.65(19) . . ?
B6 B3 B2 108.1(2) . . ?
B1 B3 B2 60.5(2) . . ?
B5 B3 B4 107.7(2) . . ?
B6 B3 B4 59.43(18) . . ?
B1 B3 B4 60.02(19) . . ?
B2 B3 B4 108.4(2) . . ?
B5 B3 Br3 121.42(19) . . ?
B6 B3 Br3 123.11(19) . . ?
B1 B3 Br3 121.2(2) . . ?
B2 B3 Br3 119.9(2) . . ?
B4 B3 Br3 123.05(19) . . ?
B6 B4 B7 60.33(19) . . ?
B6 B4 B1 107.9(2) . . ?
B7 B4 B1 107.4(2) . . ?
B6 B4 B3 60.02(18) . . ?
B7 B4 B3 107.9(2) . . ?
B1 B4 B3 59.78(17) . . ?
B6 B4 B4 108.17(14) . 4_565 ?
B7 B4 B4 59.69(13) . 4_565 ?
B1 B4 B4 59.82(12) . 4_565 ?
B3 B4 B4 107.74(13) . 4_565 ?
B6 B4 Br4 121.9(2) . . ?
B7 B4 Br4 122.2(2) . . ?
B1 B4 Br4 121.6(2) . . ?
B3 B4 Br4 121.78(19) . . ?
B4 B4 Br4 121.64(9) 4_565 . ?
C4 B5 B2 104.3(2) . . ?
C4 B5 B3 104.4(2) . . ?
B2 B5 B3 60.53(18) . . ?
C4 B5 B6 58.80(18) . . ?
B2 B5 B6 108.6(2) . . ?
B3 B5 B6 60.00(18) . . ?
C4 B5 B5 58.38(13) . 4_565 ?
B2 B5 B5 59.75(12) . 4_565 ?
B3 B5 B5 108.07(14) . 4_565 ?
B6 B5 B5 108.19(14) . 4_565 ?
C4 B5 H5 125.2 . . ?
B2 B5 H5 122.2 . . ?
B3 B5 H5 122.3 . . ?
B6 B5 H5 121.1 . . ?
B5 B5 H5 121.6 4_565 . ?
C4 B6 B4 104.0(2) . . ?
C4 B6 B3 103.7(2) . . ?
B4 B6 B3 60.56(17) . . ?
C4 B6 B7 58.0(2) . . ?
B4 B6 B7 60.1(2) . . ?
B3 B6 B7 108.1(2) . . ?
C4 B6 B5 58.21(19) . . ?
B4 B6 B5 108.2(2) . . ?
B3 B6 B5 59.73(18) . . ?
B7 B6 B5 107.4(2) . . ?
C4 B6 H6 125.8 . . ?
B4 B6 H6 122.1 . . ?
B3 B6 H6 122.4 . . ?
B7 B6 H6 121.7 . . ?
B5 B6 H6 121.7 . . ?
C4 B7 B4 104.3(3) . 4_565 ?
C4 B7 B4 104.3(3) . . ?
B4 B7 B4 60.6(3) 4_565 . ?
C4 B7 B6 58.95(18) . . ?
B4 B7 B6 108.3(3) 4_565 . ?
B4 B7 B6 59.55(17) . . ?
C4 B7 B6 58.95(18) . 4_565 ?
B4 B7 B6 59.55(17) 4_565 4_565 ?
B4 B7 B6 108.3(3) . 4_565 ?
B6 B7 B6 108.8(3) . 4_565 ?
C4 B7 H7 125.0 . . ?
B4 B7 H7 122.4 4_565 . ?
B4 B7 H7 122.4 . . ?
B6 B7 H7 121.1 . . ?
B6 B7 H7 121.1 4_565 . ?
loop_
_geom_bond_atom_site_label_1
_geom_bond_atom_site_label_2
_geom_bond_distance
_geom_bond_site_symmetry_2
_geom_bond_publ_flag
Br1 B1 1.960(4) . ?
Br2 B2 1.951(4) . ?
Br3 B3 1.959(3) . ?
Br4 B4 1.956(3) . ?
S1 C1 1.720(3) . ?
S1 C3 1.725(3) . ?
S2 C2 1.721(3) . ?
S2 C1 1.721(3) . ?
C1 C1 1.391(5) 4_565 ?
C2 C3 1.340(4) . ?
C2 H2 0.9500 . ?
C3 H3 0.9500 . ?
C4 B7 1.697(6) . ?
C4 B5 1.704(4) 4_565 ?
C4 B5 1.704(4) . ?
C4 B6 1.715(4) . ?
C4 B6 1.715(4) 4_565 ?
C4 H4 1.1200 . ?
B1 B3 1.784(4) 4_565 ?
B1 B3 1.784(4) . ?
B1 B4 1.788(5) 4_565 ?
B1 B4 1.788(5) . ?
B1 B2 1.800(6) . ?
B2 B5 1.773(5) 4_565 ?
B2 B5 1.773(5) . ?
B2 B3 1.789(4) 4_565 ?
B2 B3 1.789(4) . ?
B3 B5 1.777(4) . ?
B3 B6 1.782(4) . ?
B3 B4 1.791(4) . ?
B4 B6 1.771(5) . ?
B4 B7 1.781(5) . ?
B4 B4 1.798(6) 4_565 ?
B5 B6 1.786(5) . ?
B5 B5 1.787(6) 4_565 ?
B5 H5 1.1200 . ?
B6 B7 1.785(4) . ?
B6 H6 1.1200 . ?
B7 H7 1.1200 . ?
loop_
_geom_torsion_atom_site_label_1
_geom_torsion_atom_site_label_2
_geom_torsion_atom_site_label_3
_geom_torsion_atom_site_label_4
_geom_torsion
_geom_torsion_site_symmetry_1
_geom_torsion_site_symmetry_2
_geom_torsion_site_symmetry_3
_geom_torsion_site_symmetry_4
_geom_torsion_publ_flag
C3 S1 C1 C1 179.04(11) . . . 4_565 ?
C3 S1 C1 S2 -1.02(19) . . . . ?
C2 S2 C1 C1 -178.64(11) . . . 4_565 ?
C2 S2 C1 S1 1.42(19) . . . . ?
C1 S2 C2 C3 -1.4(3) . . . . ?
S2 C2 C3 S1 1.0(4) . . . . ?
C1 S1 C3 C2 0.0(3) . . . . ?
B3 B1 B2 B5 -37.57(18) 4_565 . . 4_565 ?
B3 B1 B2 B5 101.3(2) . . . 4_565 ?
B4 B1 B2 B5 -0.1(2) 4_565 . . 4_565 ?
B4 B1 B2 B5 63.76(18) . . . 4_565 ?
Br1 B1 B2 B5 -148.16(15) . . . 4_565 ?
B3 B1 B2 B5 -101.3(2) 4_565 . . . ?
B3 B1 B2 B5 37.57(18) . . . . ?
B4 B1 B2 B5 -63.76(18) 4_565 . . . ?
B4 B1 B2 B5 0.1(2) . . . . ?
Br1 B1 B2 B5 148.16(15) . . . . ?
B3 B1 B2 B3 138.8(3) . . . 4_565 ?
B4 B1 B2 B3 37.49(19) 4_565 . . 4_565 ?
B4 B1 B2 B3 101.3(2) . . . 4_565 ?
Br1 B1 B2 B3 -110.59(15) . . . 4_565 ?
B3 B1 B2 B3 -138.8(3) 4_565 . . . ?
B4 B1 B2 B3 -101.3(2) 4_565 . . . ?
B4 B1 B2 B3 -37.49(19) . . . . ?
Br1 B1 B2 B3 110.59(15) . . . . ?
B3 B1 B2 Br2 110.59(15) 4_565 . . . ?
B3 B1 B2 Br2 -110.59(15) . . . . ?
B4 B1 B2 Br2 148.08(14) 4_565 . . . ?
B4 B1 B2 Br2 -148.08(14) . . . . ?
Br1 B1 B2 Br2 0.000(1) . . . . ?
B3 B1 B3 B5 -0.8(4) 4_565 . . . ?
B4 B1 B3 B5 63.0(3) 4_565 . . . ?
B4 B1 B3 B5 100.6(2) . . . . ?
B2 B1 B3 B5 -37.6(2) . . . . ?
Br1 B1 B3 B5 -151.4(2) . . . . ?
B3 B1 B3 B6 -64.4(3) 4_565 . . . ?
B4 B1 B3 B6 -0.6(3) 4_565 . . . ?
B4 B1 B3 B6 36.9(2) . . . . ?
B2 B1 B3 B6 -101.2(3) . . . . ?
Br1 B1 B3 B6 144.9(2) . . . . ?
B3 B1 B3 B2 36.8(3) 4_565 . . . ?
B4 B1 B3 B2 100.6(3) 4_565 . . . ?
B4 B1 B3 B2 138.2(2) . . . . ?
Br1 B1 B3 B2 -113.8(3) . . . . ?
B3 B1 B3 B4 -101.4(3) 4_565 . . . ?
B4 B1 B3 B4 -37.6(2) 4_565 . . . ?
B2 B1 B3 B4 -138.2(2) . . . . ?
Br1 B1 B3 B4 108.0(3) . . . . ?
B3 B1 B3 Br3 145.92(15) 4_565 . . . ?
B4 B1 B3 Br3 -150.3(2) 4_565 . . . ?
B4 B1 B3 Br3 -112.7(2) . . . . ?
B2 B1 B3 Br3 109.1(3) . . . . ?
Br1 B1 B3 Br3 -4.7(4) . . . . ?
B5 B2 B3 B5 37.9(2) 4_565 . . . ?
B3 B2 B3 B5 101.1(3) 4_565 . . . ?
B1 B2 B3 B5 137.7(3) . . . . ?
Br2 B2 B3 B5 -108.2(3) . . . . ?
B5 B2 B3 B6 0.6(3) 4_565 . . . ?
B5 B2 B3 B6 -37.2(2) . . . . ?
B3 B2 B3 B6 63.8(3) 4_565 . . . ?
B1 B2 B3 B6 100.4(3) . . . . ?
Br2 B2 B3 B6 -145.4(2) . . . . ?
B5 B2 B3 B1 -99.8(3) 4_565 . . . ?
B5 B2 B3 B1 -137.7(3) . . . . ?
B3 B2 B3 B1 -36.6(3) 4_565 . . . ?
Br2 B2 B3 B1 114.1(3) . . . . ?
B5 B2 B3 B4 -62.3(3) 4_565 . . . ?
B5 B2 B3 B4 -100.2(2) . . . . ?
B3 B2 B3 B4 0.9(4) 4_565 . . . ?
B1 B2 B3 B4 37.5(2) . . . . ?
Br2 B2 B3 B4 151.6(2) . . . . ?
B5 B2 B3 Br3 149.0(2) 4_565 . . . ?
B5 B2 B3 Br3 111.1(2) . . . . ?
B3 B2 B3 Br3 -147.82(15) 4_565 . . . ?
B1 B2 B3 Br3 -111.2(2) . . . . ?
Br2 B2 B3 Br3 2.9(4) . . . . ?
B3 B1 B4 B6 63.5(3) 4_565 . . . ?
B3 B1 B4 B6 -37.3(2) . . . . ?
B4 B1 B4 B6 101.03(19) 4_565 . . . ?
B2 B1 B4 B6 0.1(2) . . . . ?
Br1 B1 B4 B6 -149.78(18) . . . . ?
B3 B1 B4 B7 -0.1(3) 4_565 . . . ?
B3 B1 B4 B7 -100.9(2) . . . . ?
B4 B1 B4 B7 37.4(3) 4_565 . . . ?
B2 B1 B4 B7 -63.6(2) . . . . ?
Br1 B1 B4 B7 146.6(2) . . . . ?
B3 B1 B4 B3 100.8(3) 4_565 . . . ?
B4 B1 B4 B3 138.29(18) 4_565 . . . ?
B2 B1 B4 B3 37.36(18) . . . . ?
Br1 B1 B4 B3 -112.52(18) . . . . ?
B3 B1 B4 B4 -37.50(14) 4_565 . . 4_565 ?
B3 B1 B4 B4 -138.29(18) . . . 4_565 ?
B2 B1 B4 B4 -100.94(18) . . . 4_565 ?
Br1 B1 B4 B4 109.2(2) . . . 4_565 ?
B3 B1 B4 Br4 -148.3(2) 4_565 . . . ?
B3 B1 B4 Br4 110.9(2) . . . . ?
B4 B1 B4 Br4 -110.78(17) 4_565 . . . ?
B2 B1 B4 Br4 148.29(18) . . . . ?
Br1 B1 B4 Br4 -1.6(3) . . . . ?
B5 B3 B4 B6 37.5(2) . . . . ?
B1 B3 B4 B6 138.3(2) . . . . ?
B2 B3 B4 B6 100.6(3) . . . . ?
Br3 B3 B4 B6 -111.9(2) . . . . ?
B5 B3 B4 B7 -0.6(3) . . . . ?
B6 B3 B4 B7 -38.13(19) . . . . ?
B1 B3 B4 B7 100.2(2) . . . . ?
B2 B3 B4 B7 62.5(3) . . . . ?
Br3 B3 B4 B7 -150.00(19) . . . . ?
B5 B3 B4 B1 -100.8(2) . . . . ?
B6 B3 B4 B1 -138.3(2) . . . . ?
B2 B3 B4 B1 -37.7(2) . . . . ?
Br3 B3 B4 B1 109.8(2) . . . . ?
B5 B3 B4 B4 -63.64(19) . . . 4_565 ?
B6 B3 B4 B4 -101.15(15) . . . 4_565 ?
B1 B3 B4 B4 37.15(15) . . . 4_565 ?
B2 B3 B4 B4 -0.6(2) . . . 4_565 ?
Br3 B3 B4 B4 146.97(15) . . . 4_565 ?
B5 B3 B4 Br4 148.6(2) . . . . ?
B6 B3 B4 Br4 111.1(2) . . . . ?
B1 B3 B4 Br4 -110.6(2) . . . . ?
B2 B3 B4 Br4 -148.4(2) . . . . ?
Br3 B3 B4 Br4 -0.8(3) . . . . ?
B7 C4 B5 B2 -67.2(3) . . . . ?
B5 C4 B5 B2 39.9(3) 4_565 . . . ?
B6 C4 B5 B2 -103.3(2) . . . . ?
B6 C4 B5 B2 3.7(3) 4_565 . . . ?
B7 C4 B5 B3 -4.6(3) . . . . ?
B5 C4 B5 B3 102.61(19) 4_565 . . . ?
B6 C4 B5 B3 -40.7(2) . . . . ?
B6 C4 B5 B3 66.4(3) 4_565 . . . ?
B7 C4 B5 B6 36.1(2) . . . . ?
B5 C4 B5 B6 143.3(2) 4_565 . . . ?
B6 C4 B5 B6 107.0(3) 4_565 . . . ?
B7 C4 B5 B5 -107.2(2) . . . 4_565 ?
B6 C4 B5 B5 -143.3(2) . . . 4_565 ?
B6 C4 B5 B5 -36.24(17) 4_565 . . 4_565 ?
B5 B2 B5 C4 -39.2(3) 4_565 . . . ?
B3 B2 B5 C4 -1.7(3) 4_565 . . . ?
B3 B2 B5 C4 98.7(2) . . . . ?
B1 B2 B5 C4 61.2(2) . . . . ?
Br2 B2 B5 C4 -148.81(19) . . . . ?
B5 B2 B5 B3 -137.91(19) 4_565 . . . ?
B3 B2 B5 B3 -100.3(3) 4_565 . . . ?
B1 B2 B5 B3 -37.47(18) . . . . ?
Br2 B2 B5 B3 112.53(19) . . . . ?
B5 B2 B5 B6 -100.7(2) 4_565 . . . ?
B3 B2 B5 B6 -63.1(3) 4_565 . . . ?
B3 B2 B5 B6 37.2(2) . . . . ?
B1 B2 B5 B6 -0.2(2) . . . . ?
Br2 B2 B5 B6 149.78(19) . . . . ?
B3 B2 B5 B5 37.57(15) 4_565 . . 4_565 ?
B3 B2 B5 B5 137.91(19) . . . 4_565 ?
B1 B2 B5 B5 100.44(18) . . . 4_565 ?
Br2 B2 B5 B5 -109.6(2) . . . 4_565 ?
B6 B3 B5 C4 40.06(19) . . . . ?
B1 B3 B5 C4 -60.5(3) . . . . ?
B2 B3 B5 C4 -98.5(2) . . . . ?
B4 B3 B5 C4 2.9(3) . . . . ?
Br3 B3 B5 C4 152.90(18) . . . . ?
B6 B3 B5 B2 138.5(2) . . . . ?
B1 B3 B5 B2 38.0(2) . . . . ?
B4 B3 B5 B2 101.4(2) . . . . ?
Br3 B3 B5 B2 -108.6(2) . . . . ?
B1 B3 B5 B6 -100.5(3) . . . . ?
B2 B3 B5 B6 -138.5(2) . . . . ?
B4 B3 B5 B6 -37.1(2) . . . . ?
Br3 B3 B5 B6 112.8(2) . . . . ?
B6 B3 B5 B5 101.00(15) . . . 4_565 ?
B1 B3 B5 B5 0.5(2) . . . 4_565 ?
B2 B3 B5 B5 -37.52(16) . . . 4_565 ?
B4 B3 B5 B5 63.86(19) . . . 4_565 ?
Br3 B3 B5 B5 -146.15(15) . . . 4_565 ?
B7 C4 B6 B4 -40.5(2) . . . . ?
B5 C4 B6 B4 66.6(3) 4_565 . . . ?
B5 C4 B6 B4 103.0(2) . . . . ?
B6 C4 B6 B4 -4.2(4) 4_565 . . . ?
B7 C4 B6 B3 -103.0(3) . . . . ?
B5 C4 B6 B3 4.1(3) 4_565 . . . ?
B5 C4 B6 B3 40.4(2) . . . . ?
B6 C4 B6 B3 -66.8(4) 4_565 . . . ?
B5 C4 B6 B7 107.1(3) 4_565 . . . ?
B5 C4 B6 B7 143.4(3) . . . . ?
B6 C4 B6 B7 36.3(3) 4_565 . . . ?
B7 C4 B6 B5 -143.4(3) . . . . ?
B5 C4 B6 B5 -36.3(2) 4_565 . . . ?
B6 C4 B6 B5 -107.1(3) 4_565 . . . ?
B7 B4 B6 C4 39.4(2) . . . . ?
B1 B4 B6 C4 -60.9(3) . . . . ?
B3 B4 B6 C4 -98.1(2) . . . . ?
B4 B4 B6 C4 2.4(2) 4_565 . . . ?
Br4 B4 B6 C4 151.0(2) . . . . ?
B7 B4 B6 B3 137.4(2) . . . . ?
B1 B4 B6 B3 37.16(19) . . . . ?
B4 B4 B6 B3 100.42(14) 4_565 . . . ?
Br4 B4 B6 B3 -110.9(2) . . . . ?
B1 B4 B6 B7 -100.3(2) . . . . ?
B3 B4 B6 B7 -137.4(2) . . . . ?
B4 B4 B6 B7 -37.03(18) 4_565 . . . ?
Br4 B4 B6 B7 111.6(3) . . . . ?
B7 B4 B6 B5 100.1(3) . . . . ?
B1 B4 B6 B5 -0.2(3) . . . . ?
B3 B4 B6 B5 -37.4(2) . . . . ?
B4 B4 B6 B5 63.0(2) 4_565 . . . ?
Br4 B4 B6 B5 -148.3(2) . . . . ?
B5 B3 B6 C4 -39.6(2) . . . . ?
B1 B3 B6 C4 61.3(3) . . . . ?
B2 B3 B6 C4 -2.7(3) . . . . ?
B4 B3 B6 C4 98.5(2) . . . . ?
Br3 B3 B6 C4 -149.8(2) . . . . ?
B5 B3 B6 B4 -138.1(2) . . . . ?
B1 B3 B6 B4 -37.2(2) . . . . ?
B2 B3 B6 B4 -101.1(2) . . . . ?
Br3 B3 B6 B4 111.8(2) . . . . ?
B5 B3 B6 B7 -100.0(3) . . . . ?
B1 B3 B6 B7 0.9(3) . . . . ?
B2 B3 B6 B7 -63.0(3) . . . . ?
B4 B3 B6 B7 38.1(2) . . . . ?
Br3 B3 B6 B7 149.9(2) . . . . ?
B1 B3 B6 B5 100.9(2) . . . . ?
B2 B3 B6 B5 37.0(2) . . . . ?
B4 B3 B6 B5 138.1(2) . . . . ?
Br3 B3 B6 B5 -110.1(2) . . . . ?
B2 B5 B6 C4 95.7(2) . . . . ?
B3 B5 B6 C4 133.2(2) . . . . ?
B5 B5 B6 C4 32.42(17) 4_565 . . . ?
C4 B5 B6 B4 -95.5(2) . . . . ?
B2 B5 B6 B4 0.3(3) . . . . ?
B3 B5 B6 B4 37.8(2) . . . . ?
B5 B5 B6 B4 -63.0(2) 4_565 . . . ?
C4 B5 B6 B3 -133.2(2) . . . . ?
B2 B5 B6 B3 -37.47(19) . . . . ?
B5 B5 B6 B3 -100.80(15) 4_565 . . . ?
C4 B5 B6 B7 -32.0(2) . . . . ?
B2 B5 B6 B7 63.8(3) . . . . ?
B3 B5 B6 B7 101.2(3) . . . . ?
B5 B5 B6 B7 0.4(2) 4_565 . . . ?
B5 C4 B7 B4 -4.2(3) 4_565 . . 4_565 ?
B5 C4 B7 B4 66.93(19) . . . 4_565 ?
B6 C4 B7 B4 103.0(2) . . . 4_565 ?
B6 C4 B7 B4 -40.24(18) 4_565 . . 4_565 ?
B5 C4 B7 B4 -66.93(19) 4_565 . . . ?
B5 C4 B7 B4 4.2(3) . . . . ?
B6 C4 B7 B4 40.24(18) . . . . ?
B6 C4 B7 B4 -103.0(2) 4_565 . . . ?
B5 C4 B7 B6 -107.2(3) 4_565 . . . ?
B5 C4 B7 B6 -36.1(2) . . . . ?
B6 C4 B7 B6 -143.2(3) 4_565 . . . ?
B5 C4 B7 B6 36.1(2) 4_565 . . 4_565 ?
B5 C4 B7 B6 107.2(3) . . . 4_565 ?
B6 C4 B7 B6 143.2(3) . . . 4_565 ?
B6 B4 B7 C4 -39.94(18) . . . . ?
B1 B4 B7 C4 61.1(2) . . . . ?
B3 B4 B7 C4 -2.0(2) . . . . ?
B4 B4 B7 C4 98.54(19) 4_565 . . . ?
Br4 B4 B7 C4 -150.98(19) . . . . ?
B6 B4 B7 B4 -138.5(2) . . . 4_565 ?
B1 B4 B7 B4 -37.4(3) . . . 4_565 ?
B3 B4 B7 B4 -100.50(19) . . . 4_565 ?
Br4 B4 B7 B4 110.48(18) . . . 4_565 ?
B1 B4 B7 B6 101.1(2) . . . . ?
B3 B4 B7 B6 38.0(2) . . . . ?
B4 B4 B7 B6 138.5(2) 4_565 . . . ?
Br4 B4 B7 B6 -111.0(3) . . . . ?
B6 B4 B7 B6 -101.5(3) . . . 4_565 ?
B1 B4 B7 B6 -0.4(3) . . . 4_565 ?
B3 B4 B7 B6 -63.5(3) . . . 4_565 ?
B4 B4 B7 B6 37.00(16) 4_565 . . 4_565 ?
Br4 B4 B7 B6 147.5(2) . . . 4_565 ?
B4 B6 B7 C4 133.4(3) . . . . ?
B3 B6 B7 C4 95.1(3) . . . . ?
B5 B6 B7 C4 32.1(2) . . . . ?
C4 B6 B7 B4 -96.0(3) . . . 4_565 ?
B4 B6 B7 B4 37.5(2) . . . 4_565 ?
B3 B6 B7 B4 -0.8(3) . . . 4_565 ?
B5 B6 B7 B4 -63.9(3) . . . 4_565 ?
C4 B6 B7 B4 -133.4(3) . . . . ?
B3 B6 B7 B4 -38.3(2) . . . . ?
B5 B6 B7 B4 -101.4(2) . . . . ?
C4 B6 B7 B6 -32.8(3) . . . 4_565 ?
B4 B6 B7 B6 100.6(3) . . . 4_565 ?
B3 B6 B7 B6 62.3(4) . . . 4_565 ?
B5 B6 B7 B6 -0.7(4) . . . 4_565 ?
