#------------------------------------------------------------------------------
#$Date: 2021-02-05 01:04:31 +0200 (Fri, 05 Feb 2021) $
#$Revision: 261628 $
#$URL: file:///home/coder/svn-repositories/cod/cif/7/24/18/7241843.cif $
#------------------------------------------------------------------------------
#
# This file is available in the Crystallography Open Database (COD),
# http://www.crystallography.net/
#
# All data on this site have been placed in the public domain by the
# contributors.
#
data_7241843
loop_
_publ_author_name
'Gu\'nka, Piotr A.'
'Hanfland, Michael'
'Chen, Yu-Sheng'
'Zachara, Janusz'
_publ_section_title
;
 High-pressure and low-temperature structural study of claudetite I, a
 monoclinic layered As2O3 polymorph
;
_journal_issue                   3
_journal_name_full               CrystEngComm
_journal_page_first              638
_journal_page_last               644
_journal_paper_doi               10.1039/D0CE01401J
_journal_volume                  23
_journal_year                    2021
_chemical_formula_moiety         'As2 O3'
_chemical_formula_sum            'As2 O3'
_chemical_formula_weight         197.84
_chemical_name_common            'claudetite I'
_chemical_name_systematic
;
arsenic(III) oxide
;
_space_group_IT_number           14
_space_group_name_Hall           '-P 2yn'
_space_group_name_H-M_alt        'P 1 21/n 1'
_symmetry_cell_setting           monoclinic
_symmetry_space_group_name_H-M   'P 1 21/n 1'
_audit_creation_date             2020-10-21T15:25
_audit_creation_method           'created in GSAS-II'
_audit_update_record
;
2020-10-22 deposited with the CCDC.	2020-12-10 downloaded from the CCDC.
;
_cell_angle_alpha                90
_cell_angle_beta                 94.5655(19)
_cell_angle_gamma                90
_cell_formula_units_Z            4
_cell_length_a                   5.09945(22)
_cell_length_b                   12.4945(3)
_cell_length_c                   4.42425(17)
_cell_measurement_pressure       3.16e6(5)
_cell_measurement_temperature    293
_cell_volume                     280.997(18)
_computing_data_reduction        Fit2D
_computing_structure_refinement
'GSAS-II (Toby & Von Dreele, J. Appl. Cryst. 46, 544-549, 2013)'
_diffrn_ambient_pressure         3.16e6(5)
_diffrn_ambient_temperature      293
_diffrn_detector                 'Mar555 flat panel'
_diffrn_detector_type            'Mar555 flat panel'
_diffrn_measurement_device_type  'ESRF ID09A beamline'
_diffrn_radiation_monochromator  Si
_diffrn_radiation_polarisn_ratio 0.9900
_diffrn_radiation_probe          x-ray
_diffrn_radiation_wavelength     0.41421
_diffrn_source                   'ESRF ID09A'
_diffrn_source_type              synchrotron
_exptl_crystal_colour            colourless
_exptl_crystal_density_diffrn    4.6765
_exptl_crystal_description       'white powder'
_pd_block_id                     2020-10-21T15:25|clau1_030rietveld||id09a
_pd_calc_method                  'Rietveld Refinement'
_pd_meas_number_of_points        4000
_pd_phase_name                   claudetiteI
_pd_prep_pressure                100.0(1)
_pd_prep_temperature             293
_pd_proc_info_datetime           2020-10-21T15:25
_pd_proc_ls_background_function
;
Background function: "chebyschev" function with 15 terms:
    760.1(4), 451.9(28), -32(8), -1.22(4)e3, 1.23(4)e3, 4.60(16)e3, 
    -8.24(6)e3, -6.32(23)e3, 17887(29), 191(29), -1.676(5)e4, 
    5.55(27)e3, 6.18(5)e3, -2.96(15)e3, -3.7(5)e2, 
;
_pd_proc_ls_pref_orient_corr
;
Simple spherical harmonic correction Order = 6
    Coefficients:  0:0:C(6,6) = 0.025(17); 0:0:C(4,4) = -0.026(21); 
    0:0:C(6,-2) = -0.077(21); 0:0:C(2,-2) = -0.024(11); 0:0:C(4,-4) = 0.203(17); 
    0:0:C(2,2) = 0.286(12); 0:0:C(4,0) = 0.077(17); 0:0:C(6,-6) = -0.075(22); 
    0:0:C(6,4) = -0.110(21); 0:0:C(4,2) = -0.072(18); 0:0:C(6,2) = 0.126(20); 
    0:0:C(6,-4) = 0.089(19); 0:0:C(6,0) = -0.030(21); 0:0:C(2,0) = -0.353(12); 
    0:0:C(4,-2) = -0.077(14); 
;
_pd_proc_ls_profile_function
;
Finger-Cox-Jephcoat function parameters U, V, W, X, Y, SH/L:
  peak variance(Gauss) = Utan(Th)^2^+Vtan(Th)+W:
  peak HW(Lorentz) = X/cos(Th)+Ytan(Th); SH/L = S/L+H/L
  U, V, W in (centideg)^2^, X & Y in centideg
    2.2(6)e2, -26(10), 2.1(4), 52.39(12), 7(3), 0.002, 
  Crystallite size in microns with "isotropic" model:
  parameters: Size, G/L mix
    1.000, 1.000, 
  Microstrain, "isotropic" model (10^6^ * delta Q/Q)
    parameters: Mustrain, G/L mix
    1000.000, 1.000, 

;
_pd_proc_ls_prof_R_factor        0.00496
_pd_proc_ls_prof_wR_expected     0.03607
_pd_proc_ls_prof_wR_factor       0.00768
_refine_ls_goodness_of_fit_all   0.216
_refine_ls_matrix_type           full
_refine_ls_number_parameters     57
_refine_ls_R_Fsqd_factor         0.05282
_refine_ls_shift/su_max          0.0018
_refine_ls_wR_factor_obs         0.00768
_reflns_d_resolution_high        1.078
_reflns_d_resolution_low         6.247
_reflns_limit_h_max              4
_reflns_limit_h_min              0
_reflns_limit_k_max              11
_reflns_limit_k_min              0
_reflns_limit_l_max              4
_reflns_limit_l_min              -4
_reflns_number_total             233
_cod_data_source_file            d0ce01401j3.cif
_cod_data_source_block           clau1_030rietveld
_cod_depositor_comments
'Adding full bibliography for 7241824--7241862.cif.'
_cod_original_cell_volume        280.998(9)
_cod_database_code               7241843
_refine_ls_r_f_factor            0.03434
_gsas_proc_ls_prof_r_b_factor    0.00953
_gsas_proc_ls_prof_wr_b_factor   0.01942
loop_
_space_group_symop_id
_space_group_symop_operation_xyz
1 x,y,z
2 1/2-x,1/2+y,1/2-z
3 -x,-y,-z
4 1/2+x,1/2-y,1/2+z
loop_
_atom_site_label
_atom_site_type_symbol
_atom_site_fract_x
_atom_site_fract_y
_atom_site_fract_z
_atom_site_occupancy
_atom_site_adp_type
_atom_site_U_iso_or_equiv
_atom_site_symmetry_multiplicity
As1 As 0.2633(6) 0.09572(25) 0.0476(5) 1.000 Uiso 0.0210(13) 4
As2 As 0.3483(5) 0.35517(30) 0.0105(6) 1.000 Uiso 0.0210 4
O3 O 0.4339(16) 0.21932(28) 0.0725(30) 1.000 Uiso 0.0210 4
O4 O 0.6640(12) 0.3984(11) 0.1550(8) 1.000 Uiso 0.0210 4
O5 O -0.0609(12) 0.1264(18) 0.1358(10) 1.000 Uiso 0.0210 4
loop_
_atom_type_symbol
_atom_type_number_in_cell
_atom_type_scat_Cromer_Mann_a1
_atom_type_scat_Cromer_Mann_a2
_atom_type_scat_Cromer_Mann_a3
_atom_type_scat_Cromer_Mann_a4
_atom_type_scat_Cromer_Mann_b1
_atom_type_scat_Cromer_Mann_b2
_atom_type_scat_Cromer_Mann_b3
_atom_type_scat_Cromer_Mann_b4
_atom_type_scat_Cromer_Mann_c
_atom_type_scat_length_neutron
_atom_type_scat_source
_atom_type_scat_dispersion_real
_atom_type_scat_dispersion_imag
_atom_type_scat_dispersion_source
As 8 16.6723 6.0701 3.4313 4.2779 2.6345 0.2647 12.9479 47.7972 2.531 0.658
https://subversion.xray.aps.anl.gov/pyGSAS/trunk/atmdata.py 0.283 0.775
https://subversion.xray.aps.anl.gov/pyGSAS/trunk/atmdata.py
O 12 3.0485 2.2868 1.5463 0.867 13.2771 5.7011 0.3239 32.9089 0.2508 0.5805
https://subversion.xray.aps.anl.gov/pyGSAS/trunk/atmdata.py 0.002 0.002
https://subversion.xray.aps.anl.gov/pyGSAS/trunk/atmdata.py
loop_
_geom_angle_atom_site_label_1
_geom_angle_atom_site_label_2
_geom_angle_atom_site_label_3
_geom_angle
_geom_angle_site_symmetry_1
_geom_angle_site_symmetry_2
_geom_angle_site_symmetry_3
_geom_angle_publ_flag
O3 As1 O4 97.2(7) 1_555 1_555 4_454 yes
O3 As1 O5 105.1(8) 1_555 1_555 1_555 yes
O4 As1 O5 90.48(25) 4_454 1_555 1_555 yes
O3 As2 O4 91.7(5) 1_555 1_555 1_555 yes
O3 As2 O5 101.0(10) 1_555 1_555 4_554 yes
O4 As2 O5 90.01(28) 1_555 1_555 4_554 yes
As1 O3 As2 135.5(5) 1_555 1_555 1_555 yes
As1 O4 As2 123.23(31) 4_555 1_555 1_555 yes
As1 O5 As2 123.6(3) 1_555 1_555 4_455 yes
loop_
_geom_bond_atom_site_label_1
_geom_bond_atom_site_label_2
_geom_bond_distance
_geom_bond_site_symmetry_1
_geom_bond_site_symmetry_2
_geom_bond_publ_flag
As1 O3 1.7717(21) 1_555 1_555 yes
As1 O4 1.7712(21) 1_555 4_454 yes
As1 O5 1.7704(21) 1_555 1_555 yes
As2 O3 1.7686(21) 1_555 1_555 yes
As2 O4 1.7691(21) 1_555 1_555 yes
As2 O5 1.7714(21) 1_555 4_554 yes
loop_
_pd_meas_2theta_scan
_pd_meas_intensity_total
_pd_calc_intensity_total
_pd_proc_intensity_bkg_calc
_pd_proc_ls_weight
0.00440 106.36472 0 0 0
0.01321 104.09317 0 0 0
0.02202 105.33397 0 0 0
0.03083 105.20937 0 0 0
0.03963 107.14974 0 0 0
0.04844 106.56567 0 0 0
0.05725 109.02783 0 0 0
0.06605 109.68243 0 0 0
0.07486 109.27271 0 0 0
0.08367 109.90311 0 0 0
0.09248 109.19283 0 0 0
0.10128 110.52973 0 0 0
0.11009 110.76302 0 0 0
0.11890 110.00766 0 0 0
0.12770 110.46645 0 0 0
0.13651 108.71134 0 0 0
0.14532 106.37706 0 0 0
0.15413 104.47613 0 0 0
0.16293 104.46522 0 0 0
0.17174 105.32787 0 0 0
0.18055 106.67529 0 0 0
0.18935 107.1568 0 0 0
0.19816 106.63303 0 0 0
0.20697 106.87246 0 0 0
0.21578 107.55673 0 0 0
0.22458 108.02837 0 0 0
0.23339 108.31868 0 0 0
0.24220 106.98057 0 0 0
0.25100 106.54042 0 0 0
0.25981 107.44254 0 0 0
0.26862 108.72533 0 0 0
0.27743 110.32831 0 0 0
0.28623 110.53871 0 0 0
0.29504 110.82005 0 0 0
0.30385 111.5881 0 0 0
0.31265 112.79831 0 0 0
0.32146 112.40469 0 0 0
0.33027 112.50056 0 0 0
0.33908 112.43996 0 0 0
0.34788 111.82832 0 0 0
0.35669 110.55913 0 0 0
0.36550 110.35853 0 0 0
0.37430 111.19992 0 0 0
0.38311 111.18397 0 0 0
0.39192 111.87582 0 0 0
0.40073 111.78732 0 0 0
0.40953 111.18316 0 0 0
0.41834 110.28807 0 0 0
0.42715 110.07817 0 0 0
0.43595 110.10728 0 0 0
0.44476 110.18678 0 0 0
0.45357 111.40906 0 0 0
0.46238 111.83569 0 0 0
0.47118 111.65768 0 0 0
0.47999 111.85556 0 0 0
0.48880 110.90437 0 0 0
0.49760 110.00043 0 0 0
0.50641 109.94177 0 0 0
0.51522 110.43302 0 0 0
0.52403 110.51952 0 0 0
0.53283 110.53217 0 0 0
0.54164 110.78214 0 0 0
0.55045 111.57693 0 0 0
0.55926 112.05927 0 0 0
0.56806 111.19176 0 0 0
0.57687 111.51801 0 0 0
0.58568 111.21294 0 0 0
0.59448 110.58839 0 0 0
0.60329 111.16806 0 0 0
0.61210 111.56729 0 0 0
0.62091 111.89409 0 0 0
0.62971 111.41036 0 0 0
0.63852 111.03645 0 0 0
0.64733 110.73637 0 0 0
0.65613 110.50297 0 0 0
0.66494 110.60015 0 0 0
0.67375 110.81299 0 0 0
0.68256 111.58552 0 0 0
0.69136 112.43232 0 0 0
0.70017 113.54124 0 0 0
0.70898 114.51755 0 0 0
0.71778 114.81355 0 0 0
0.72659 114.72375 0 0 0
0.73540 113.64198 0 0 0
0.74421 113.20373 0 0 0
0.75301 112.74149 0 0 0
0.76182 112.5136 0 0 0
0.77063 112.98872 0 0 0
0.77943 112.80437 0 0 0
0.78824 112.54226 0 0 0
0.79705 112.10175 0 0 0
0.80586 112.55122 0 0 0
0.81466 112.62395 0 0 0
0.82347 113.78012 0 0 0
0.83228 114.02138 0 0 0
0.84108 114.35535 0 0 0
0.84989 114.61028 0 0 0
0.85870 115.51388 0 0 0
0.86751 116.3658 0 0 0
0.87631 116.93679 0 0 0
0.88512 116.54924 0 0 0
0.89393 116.80199 0 0 0
0.90273 119.23325 0 0 0
0.91154 123.4491 0 0 0
0.92035 125.89544 0 0 0
0.92916 126.58131 0 0 0
0.93796 127.95198 0 0 0
0.94677 127.72111 0 0 0
0.95558 128.60471 0 0 0
0.96438 129.76826 0 0 0
0.97319 129.57922 0 0 0
0.98200 131.61403 0 0 0
0.99081 135.34497 0 0 0
0.99961 138.13504 0 0 0
1.00842 136.97861 0 0 0
1.01723 140.8006 0 0 0
1.02604 148.76764 0 0 0
1.03484 160.13022 0 0 0
1.04365 166.76416 0 0 0
1.05246 174.59343 0 0 0
1.06126 180.99388 0 0 0
1.07007 189.95905 0 0 0
1.07888 194.59364 0 0 0
1.08769 200.86713 0 0 0
1.09649 207.32021 0 0 0
1.10530 211.93951 0 0 0
1.11411 217.79021 0 0 0
1.12291 222.37505 0 0 0
1.13172 226.63322 0 0 0
1.14053 230.40724 0 0 0
1.14934 233.88441 0 0 0
1.15814 236.66916 0 0 0
1.16695 239.28073 0 0 0
1.17576 241.90485 0 0 0
1.18456 244.04337 0 0 0
1.19337 247.71681 0 0 0
1.20218 250.50537 0 0 0
1.21099 251.53587 0 0 0
1.21979 253.67506 0 0 0
1.22860 255.68398 0 0 0
1.23741 257.77441 0 0 0
1.24621 259.60486 0 0 0
1.25502 262.39676 0 0 0
1.26383 264.14111 0 0 0
1.27264 266.39011 0 0 0
1.28144 268.04987 0 0 0
1.29025 269.78522 0 0 0
1.29906 270.69391 0 0 0
1.30786 271.74585 0 0 0
1.31667 273.41122 0 0 0
1.32548 274.93027 0 0 0
1.33429 276.53915 0 0 0
1.34309 276.81906 0 0 0
1.35190 278.56873 0 0 0
1.36071 281.22311 0 0 0
1.36951 282.85791 0 0 0
1.37832 284.17734 0 0 0
1.38713 285.1297 0 0 0
1.39594 286.57968 0 0 0
1.40474 287.04474 0 0 0
1.41355 289.16006 0 0 0
1.42236 290.14236 0 0 0
1.43116 291.81067 0 0 0
1.43997 292.50775 0 0 0
1.44878 293.22595 0 0 0
1.45759 293.88718 0 0 0
1.46639 294.23074 0 0 0
1.47520 294.29727 0 0 0
1.48401 295.92673 0 0 0
1.49281 297.0419 0 0 0
1.50162 298.54993 0 0 0
1.51043 300.04605 0 0 0
1.51924 301.13257 0 0 0
1.52804 301.69305 0 0 0
1.53685 302.75964 0 0 0
1.54566 303.99957 0 0 0
1.55446 305.4437 0 0 0
1.56327 305.9025 0 0 0
1.57208 307.12793 0 0 0
1.58089 308.30215 0 0 0
1.58969 309.41605 0 0 0
1.59850 310.0368 0 0 0
1.60731 311.00592 0 0 0
1.61612 312.32651 0 0 0
1.62492 311.91513 0 0 0
1.63373 311.86581 0 0 0
1.64254 313.55804 0 0 0
1.65134 316.09604 0 0 0
1.66015 317.10858 0 0 0
1.66896 317.66 0 0 0
1.67777 318.55429 0 0 0
1.68657 318.85904 0 0 0
1.69538 319.75296 0 0 0
1.70419 320.8118 0 0 0
1.71299 322.38315 0 0 0
1.72180 323.41699 0 0 0
1.73061 325.04935 0 0 0
1.73942 324.50052 0 0 0
1.74822 324.55936 0 0 0
1.75703 325.96191 0 0 0
1.76584 327.10776 0 0 0
1.77464 327.04694 0 0 0
1.78345 326.53113 0 0 0
1.79226 327.56406 0 0 0
1.80107 327.95587 0 0 0
1.80987 328.8179 0 0 0
1.81868 329.80417 0 0 0
1.82749 330.72577 0 0 0
1.83629 331.27759 0 0 0
1.84510 332.80908 0 0 0
1.85391 333.31534 0 0 0
1.86272 333.14493 0 0 0
1.87152 333.50894 0 0 0
1.88033 335.13461 0 0 0
1.88914 337.02328 0 0 0
1.89794 338.07892 0 0 0
1.90675 338.36914 0 0 0
1.91556 338.39117 0 0 0
1.92437 338.79425 0 0 0
1.93317 339.25641 0 0 0
1.94198 340.02145 0 0 0
1.95079 340.28284 0 0 0
1.95959 340.9946 0 0 0
1.96840 341.85153 0 0 0
1.97721 341.89966 0 0 0
1.98602 341.90588 0 0 0
1.99482 341.59995 0 0 0
2.00363 342.56851 0 0 0
2.01244 343.79807 0 0 0
2.02124 345.45685 0 0 0
2.03005 346.88876 0 0 0
2.03886 347.42404 0 0 0
2.04767 346.7164 0 0 0
2.05647 346.67661 0 0 0
2.06528 347.39908 0 0 0
2.07409 347.95184 0 0 0
2.08289 349.14902 0 0 0
2.09170 351.24713 0 0 0
2.10051 351.99106 0 0 0
2.10932 351.89853 0 0 0
2.11812 351.99808 0 0 0
2.12693 352.89844 0 0 0
2.13574 353.91486 0 0 0
2.14455 354.19598 0 0 0
2.15335 353.94977 0 0 0
2.16216 354.47739 0 0 0
2.17097 354.39914 0 0 0
2.17977 354.45853 0 0 0
2.18858 355.138 0 0 0
2.19739 356.61072 0 0 0
2.20620 357.53848 0 0 0
2.21500 358.28107 0 0 0
2.22381 358.21164 0 0 0
2.23262 358.95255 0 0 0
2.24142 358.95728 0 0 0
2.25023 360.11749 0 0 0
2.25904 360.13162 0 0 0
2.26785 359.96921 0 0 0
2.27665 360.19226 0 0 0
2.28546 360.15414 0 0 0
2.29427 360.31616 0 0 0
2.30307 360.6937 0 0 0
2.31188 361.42068 0 0 0
2.32069 361.53864 0 0 0
2.32950 362.44427 0 0 0
2.33830 363.74536 0 0 0
2.34711 365.2023 0 0 0
2.35592 366.33917 0 0 0
2.36472 366.46539 0 0 0
2.37353 366.32181 0 0 0
2.38234 366.21439 0 0 0
2.39115 365.80823 0 0 0
2.39995 366.88852 0 0 0
2.40876 367.01199 0 0 0
2.41757 367.32599 0 0 0
2.42637 368.12939 0 0 0
2.43518 368.48184 0 0 0
2.44399 368.70093 0 0 0
2.45280 369.45285 0 0 0
2.46160 369.94437 0 0 0
2.47041 370.93304 0 0 0
2.47922 372.3833 0 0 0
2.48802 373.15094 0 0 0
2.49683 373.57501 0 0 0
2.50564 374.33441 0 0 0
2.51445 374.66852 0 0 0
2.52325 373.47894 0 0 0
2.53206 373.68005 0 0 0
2.54087 374.18655 0 0 0
2.54967 375.04285 0 0 0
2.55848 375.37247 0 0 0
2.56729 375.16272 381.980261 381.952932 0.00266551
2.57610 375.46973 381.814982 381.787459 0.002663331
2.58490 376.03802 381.672218 381.644498 0.002659306
2.59371 377.21268 381.551342 381.523423 0.002651024
2.60252 377.6127 381.451739 381.42362 0.002648216
2.61132 378.47531 381.372804 381.344482 0.00264218
2.62013 379.67627 381.313946 381.285418 0.002633823
2.62894 379.50934 381.27458 381.245845 0.002634981
2.63775 379.34109 381.254138 381.225193 0.00263615
2.64655 379.20926 381.25206 381.222902 0.002637066
2.65536 379.27567 381.267795 381.238423 0.002636605
2.66417 379.65497 381.300807 381.271218 0.002633971
2.67298 380.28885 381.350565 381.320757 0.00262958
2.68178 381.20767 381.416552 381.386522 0.002623242
2.69059 381.65643 381.498261 381.468006 0.002620158
2.69940 381.61813 381.595193 381.56471 0.002620421
2.70820 380.83743 381.70686 381.676147 0.002625792
2.71701 381.12067 381.835388 381.801837 0.002623841
2.72582 382.67383 381.975111 381.941312 0.002613192
2.73463 383.56015 382.128161 382.094109 0.002607153
2.74343 383.94373 382.294089 382.259782 0.002604548
2.75224 383.55002 382.472449 382.437884 0.002607222
2.76105 382.61801 382.662814 382.627988 0.002613573
2.76985 381.67645 382.864762 382.829672 0.00262002
2.77866 382.22656 383.077876 383.042518 0.002616249
2.78747 384.38971 383.30175 383.266122 0.002601526
2.79628 386.78372 383.535987 383.500085 0.002585424
2.80508 387.30783 383.780198 383.744018 0.002581926
2.81389 387.22607 384.033999 383.997539 0.002582471
2.82270 387.3739 384.297023 384.260279 0.002581485
2.83150 387.66803 384.568904 384.531873 0.002579527
2.84031 387.96283 384.849284 384.811963 0.002577567
2.84912 388.13171 385.137816 385.1002 0.002576445
2.85793 388.67282 385.434158 385.396243 0.002572858
2.86673 389.65521 385.737973 385.699757 0.002566371
2.87554 389.2374 386.048942 386.01042 0.002569126
2.88435 388.28561 386.366744 386.327912 0.002575424
2.89315 388.09689 386.691055 386.65191 0.002576676
2.90196 388.84961 387.021595 386.982132 0.002571688
2.91077 390.19589 387.358054 387.318269 0.002562815
2.91958 391.3129 387.700142 387.660032 0.0025555
2.92838 392.18808 388.047577 388.007137 0.002549797
2.93719 391.94693 388.400082 388.359307 0.002551366
2.94600 391.58182 388.757382 388.716268 0.002553745
2.95480 391.85501 389.119222 389.077765 0.002551964
2.96361 392.56317 389.485342 389.443537 0.002547361
2.97242 392.77945 389.855491 389.813333 0.002545958
2.98123 393.11609 390.229423 390.186908 0.002543778
2.99003 393.4516 390.606897 390.56402 0.002541609
2.99884 393.72925 390.987689 390.944445 0.002539816
3.00765 394.0817 391.371568 391.327951 0.002537545
3.01645 395.08035 391.758314 391.714319 0.002531131
3.02526 395.10193 392.147698 392.103321 0.002530992
3.03407 394.63998 392.539538 392.494773 0.002533955
3.04288 394.87439 392.933618 392.888459 0.002532451
3.05168 396.10654 393.329739 393.28418 0.002524573
3.06049 397.43713 393.727709 393.681745 0.002516121
3.06930 397.84769 394.12734 394.080965 0.002513525
3.07810 397.68228 394.528447 394.481654 0.00251457
3.08691 398.0556 394.93086 394.883643 0.002512212
3.09572 398.07745 395.334403 395.286757 0.002512074
3.10453 398.61218 395.73891 395.690828 0.002508704
3.11333 398.22705 396.144219 396.095693 0.00251113
3.12214 397.74847 396.550167 396.501191 0.002514152
3.13095 397.78229 396.956612 396.907179 0.002513938
3.13976 398.74728 397.3634 397.313504 0.002507854
3.14856 398.83237 397.770389 397.720022 0.002507319
3.15737 398.71698 398.177427 398.12658 0.002508045
3.16618 398.9075 398.584405 398.533072 0.002506847
3.17498 399.48526 398.991181 398.939353 0.002503221
3.18379 400.1369 399.397629 399.345298 0.002499145
3.19260 401.13861 399.803627 399.750784 0.002492904
3.20140 401.677 400.209053 400.15569 0.002489563
3.21021 401.50415 400.613802 400.55991 0.002490634
3.21902 401.57513 401.017761 400.963331 0.002490194
3.22783 401.677 401.420825 401.365847 0.002489563
3.23663 402.36566 401.822891 401.767355 0.002485302
3.24544 402.88071 402.225596 402.167758 0.002482124
3.25425 402.93799 402.625381 402.566956 0.002481771
3.26306 402.90961 403.023891 402.964867 0.002481946
3.27186 403.39032 403.421034 403.3614 0.002478989
3.28067 403.46884 403.816725 403.756471 0.002478506
3.28948 403.80618 404.210873 404.149985 0.002476436
3.29828 403.88864 404.603426 404.541892 0.00247593
3.30709 404.6149 404.994299 404.932106 0.002471486
3.31590 405.14749 405.38342 405.320555 0.002468237
3.32471 406.11255 405.770724 405.707172 0.002462372
3.33351 406.52155 406.156141 406.091888 0.002459894
3.34232 406.36838 406.539621 406.47465 0.002460821
3.35113 405.73001 406.9211 406.855397 0.002464693
3.35993 406.04349 407.300525 407.234072 0.00246279
3.36874 406.46835 407.677844 407.610623 0.002460216
3.37755 407.17062 408.053008 407.985 0.002455973
3.38636 407.08557 408.425966 408.357152 0.002456486
3.39516 407.60696 408.796684 408.727044 0.002453344
3.40397 407.72467 409.165117 409.094629 0.002452636
3.41278 407.41058 409.531228 409.459868 0.002454526
3.42158 406.69601 409.894981 409.822725 0.002458839
3.43039 407.17944 410.256331 410.183154 0.00245592
3.43920 407.84128 410.615274 410.541147 0.002451934
3.44801 408.47021 410.97177 410.896663 0.002448159
3.45681 408.67319 411.325793 411.249675 0.002446943
3.46562 408.79706 411.677319 411.600155 0.002446202
3.47443 409.03265 412.026334 411.948088 0.002444793
3.48323 410.39029 412.376927 412.293449 0.002436705
3.49204 410.76514 412.720888 412.636221 0.002434481
3.50085 410.92319 413.062291 412.976388 0.002433545
3.50966 410.8866 413.401126 413.313936 0.002433762
3.51846 411.37 413.737385 413.648849 0.002430902
3.52727 411.39471 414.071069 413.981124 0.002430756
3.53608 412.10159 414.402175 414.31075 0.002426586
3.54488 413.2243 414.730703 414.63772 0.002419993
3.55369 413.58282 415.05666 414.96203 0.002417895
3.56250 413.37167 415.380042 415.283666 0.00241913
3.57131 413.31973 415.700883 415.602649 0.002419434
3.58011 413.70721 416.019191 415.918968 0.002417168
3.58892 414.0314 416.334985 416.232627 0.002415276
3.59773 414.24686 416.648291 416.543626 0.00241402
3.60653 414.03519 416.959148 416.851976 0.002415254
3.61534 413.84009 417.267596 417.157681 0.002416392
3.62415 414.19516 417.573688 417.460751 0.002414321
3.63296 415.00958 417.877488 417.761194 0.002409583
3.64176 415.70123 418.179074 418.059019 0.002405574
3.65057 415.79517 418.478558 418.354245 0.00240503
3.65938 416.68436 418.776067 418.646883 0.002399898
3.66818 417.36615 419.071774 418.936948 0.002395978
3.67699 417.53354 419.365906 419.224456 0.002395017
3.68580 417.01212 419.658768 419.509425 0.002398012
3.69461 417.31198 419.950774 419.791865 0.002396289
3.70341 417.97336 420.242555 420.071815 0.002392497
3.71222 418.78748 420.535051 420.349287 0.002387846
3.72103 418.88376 420.862667 420.624302 0.002387297
3.72984 419.27502 421.163378 420.896881 0.002385069
3.73864 418.81967 421.476467 421.167054 0.002387662
3.74745 418.66443 421.814604 421.434844 0.002388548
3.75626 418.97153 422.197922 421.700278 0.002386797
3.76506 419.3548 422.650657 421.963381 0.002384616
3.77387 420.18332 423.189276 422.224179 0.002379914
3.78268 422.00803 423.797954 422.482708 0.002369623
3.79149 423.62268 424.381024 422.738994 0.002360591
3.80029 423.69763 424.744023 422.993067 0.002360174
3.80910 422.72287 424.795924 423.244959 0.002365616
3.81791 421.90958 424.696575 423.494701 0.002370176
3.82671 422.00998 424.616045 423.74232 0.002369612
3.83552 421.91229 424.616966 423.987864 0.002370161
3.84433 421.29205 424.700603 424.231359 0.00237365
3.85314 422.05417 424.846022 424.472838 0.002369364
3.86194 422.38171 425.02957 424.712341 0.002367527
3.87075 422.30127 425.233609 424.949902 0.002367978
3.87956 421.7442 425.447791 425.185557 0.002371106
3.88836 422.55286 425.666868 425.419343 0.002366568
3.89717 423.43927 425.888305 425.651298 0.002361614
3.90598 423.59213 426.1108 425.881458 0.002360762
3.91479 422.78671 426.333606 426.109866 0.002365259
3.92359 422.94366 426.556245 426.336558 0.002364381
3.93240 423.63684 426.778398 426.561574 0.002360512
3.94121 424.0733 426.999847 426.784954 0.002358083
3.95001 424.30197 427.220444 427.006737 0.002356812
3.95882 425.13983 427.440088 427.226963 0.002352167
3.96763 425.66602 427.665001 427.445672 0.00234926
3.97644 425.91708 427.882606 427.662912 0.002347875
3.98524 425.38992 428.099131 427.878717 0.002350784
3.99405 426.31097 428.314573 428.093135 0.002345706
4.00286 426.3468 428.541822 428.306205 0.002345508
4.01166 426.44556 428.755181 428.517968 0.002344965
4.02047 426.91891 428.967489 428.728468 0.002342365
4.02928 427.5264 429.178769 428.937746 0.002339037
4.03809 427.69003 429.389048 429.145844 0.002338142
4.04689 428.21558 429.598358 429.352809 0.002335272
4.05570 428.39734 429.806733 429.558682 0.002334282
4.06451 428.28574 430.014207 429.763506 0.00233489
4.07331 428.10681 430.220818 429.967325 0.002335866
4.08212 428.47702 430.426601 430.170179 0.002333847
4.09093 429.02069 430.631603 430.372116 0.00233089
4.09974 428.92487 430.835861 430.573178 0.002331411
4.10854 429.28287 431.039419 430.773409 0.002329466
4.11735 429.44461 431.242318 430.972851 0.002328589
4.12616 429.60165 431.444604 431.171549 0.002327738
4.13496 430.02234 431.646316 431.369544 0.002325461
4.14377 430.17169 431.847506 431.566885 0.002324653
4.15258 430.34204 432.048216 431.763611 0.002323733
4.16139 430.47067 432.248492 431.959768 0.002323039
4.17019 431.19595 432.448369 432.155386 0.002319131
4.17900 431.67886 432.671466 432.350533 0.002316537
4.18781 433.17935 432.87084 432.54524 0.002308513
4.19661 433.99243 433.069964 432.739547 0.002304188
4.20542 433.52374 433.268892 432.933503 0.002306679
4.21423 432.819 433.467669 433.127149 0.002310435
4.22304 432.17038 433.694423 433.320527 0.002313902
4.23184 432.3494 433.893187 433.513679 0.002312944
4.24065 432.49136 434.091946 433.706649 0.002312185
4.24946 433.90485 434.290747 433.899476 0.002304653
4.25826 434.98471 434.489642 434.092207 0.002298931
4.26707 435.24658 434.688681 434.284882 0.002297548
4.27588 435.74435 434.887911 434.477543 0.002294924
4.28469 436.31473 435.087384 434.670231 0.002291924
4.29349 436.79306 435.287148 434.862985 0.002289414
4.30230 436.20364 435.487257 435.055851 0.002292507
4.31111 436.40775 435.687762 435.248868 0.002291435
4.31992 436.81937 435.888713 435.442076 0.002289276
4.32872 436.74164 436.090163 435.635515 0.002289683
4.33753 436.60962 436.292165 435.829226 0.002290376
4.34634 437.573 436.494768 436.023247 0.002285333
4.35514 438.30719 436.698033 436.21762 0.002281505
4.36395 438.21704 436.90201 436.412384 0.002281974
4.37276 438.36539 437.106755 436.607578 0.002281202
4.38157 438.388 437.312324 436.803239 0.002281084
4.39037 438.70969 437.520027 436.999406 0.002279412
4.39918 439.27185 437.731741 437.196116 0.002276495
4.40799 439.51947 437.940157 437.393409 0.002275212
4.41679 439.79721 438.149629 437.591322 0.002273775
4.42560 440.28845 438.360221 437.789892 0.002271238
4.43441 441.08249 438.571983 437.989143 0.00226715
4.44322 442.16501 438.785003 438.189135 0.002261599
4.45202 442.75171 438.999336 438.389892 0.002258602
4.46083 442.41824 439.215047 438.591448 0.002260305
4.46964 442.09906 439.432211 438.793842 0.002261936
4.47844 442.03961 439.650898 438.997107 0.002262241
4.48725 442.8559 439.871184 439.201278 0.002258071
4.49606 443.04358 440.093146 439.406388 0.002257114
4.50487 443.24432 440.316864 439.612469 0.002256092
4.51367 442.85669 440.542427 439.819559 0.002258067
4.52248 442.93155 440.769921 440.027688 0.002257685
4.53129 443.52927 440.999441 440.23689 0.002254643
4.54009 445.29437 441.231083 440.447195 0.002245705
4.54890 445.32343 441.464952 440.658636 0.002245559
4.55771 445.25662 441.701156 440.871242 0.002245896
4.56652 444.74911 441.939816 441.085048 0.002248459
4.57532 444.26205 442.181053 441.300082 0.002250924
4.58413 444.87555 442.425002 441.516374 0.00224782
4.59294 445.99316 442.671805 441.733954 0.002242187
4.60174 446.60803 442.921616 441.952851 0.0022391
4.61055 446.60495 443.174597 442.173091 0.002239115
4.61936 446.39169 443.430935 442.394708 0.002240185
4.62817 446.61841 443.690823 442.617726 0.002239048
4.63697 447.86639 443.954473 442.842173 0.002232809
4.64578 448.60742 444.222121 443.068076 0.002229121
4.65459 449.44534 444.494019 443.295459 0.002224965
4.66339 449.8107 444.770456 443.524354 0.002223157
4.67220 449.85071 445.051747 443.754782 0.00222296
4.68101 450.229 445.338235 443.98677 0.002221092
4.68982 450.7901 445.630311 444.220341 0.002218327
4.69862 451.16534 445.928411 444.455521 0.002216482
4.70743 452.05157 446.233004 444.692319 0.002212137
4.71624 453.14279 446.544673 444.930783 0.00220681
4.72504 453.45377 446.864031 445.170927 0.002205296
4.73385 452.59299 447.191787 445.412772 0.002209491
4.74266 452.05643 447.528746 445.65634 0.002212113
4.75147 453.18723 447.87584 445.901651 0.002206594
4.76027 453.45459 448.234145 446.148727 0.002205292
4.76908 453.79962 448.60489 446.397586 0.002203616
4.77789 453.55496 448.989527 446.648253 0.002204804
4.78669 452.92767 449.389746 446.900745 0.002207858
4.79550 453.05142 449.807522 447.155081 0.002207255
4.80431 453.84091 450.245214 447.41128 0.002203415
4.81312 454.76904 450.705604 447.66936 0.002198918
4.82192 455.37265 451.19204 447.929336 0.002196004
4.83073 455.92471 451.709529 448.191232 0.002193345
4.83954 456.39163 452.26105 448.45506 0.002191101
4.84835 457.17419 452.853579 448.720837 0.00218735
4.85715 457.86298 453.49451 448.98858 0.00218406
4.86596 458.44501 454.193095 449.2583 0.002181287
4.87477 458.76031 454.960995 449.530019 0.002179788
4.88357 459.64459 455.81298 449.803748 0.002175594
4.89238 461.0451 456.768127 450.079502 0.002168985
4.90119 461.09476 457.851316 450.357293 0.002168752
4.91000 461.13608 459.095356 450.637135 0.002168557
4.91880 461.22241 460.544408 450.919038 0.002168151
4.92761 462.12534 462.258873 451.20302 0.002163915
4.93642 464.34048 464.323122 451.489089 0.002153592
4.94522 466.71051 466.860024 451.777258 0.002142656
4.95403 468.56558 470.060491 452.067536 0.002134173
4.96284 471.30161 474.255938 452.359931 0.002121784
4.97165 476.28241 480.086813 452.654447 0.002099595
4.98045 485.23685 488.838836 452.951112 0.002060849
4.98926 497.25101 502.922355 453.249929 0.002011057
4.99807 515.45398 526.183157 453.550904 0.001940037
5.00687 547.32983 563.379951 453.854045 0.001827052
5.01568 601.06903 618.092917 454.159359 0.001663702
5.02449 688.32678 688.17622 454.46685 0.001452798
5.03330 778.21503 756.317675 454.776533 0.001284992
5.04210 815.04614 783.883332 455.088409 0.001226924
5.05091 767.34735 747.995913 455.402486 0.001303191
5.05972 675.07471 678.095155 455.718769 0.001481318
5.06852 591.435 610.421502 456.037262 0.001690803
5.07733 543.10052 559.128449 456.357968 0.00184128
5.08614 514.05743 525.020424 456.680897 0.001945308
5.09495 497.22925 504.114453 457.00605 0.002011145
5.10375 487.37115 491.704092 457.33343 0.002051824
5.11256 481.86584 484.161334 457.663041 0.002075266
5.12137 478.24783 479.280355 457.994885 0.002090966
5.13017 475.13553 475.904698 458.32896 0.002104663
5.13898 473.80136 473.458764 458.665277 0.002110589
5.14779 472.74924 471.64076 459.003832 0.002115286
5.15660 472.09146 470.273073 459.344626 0.002118234
5.16540 471.79315 469.240439 459.687662 0.002119573
5.17421 471.51041 468.462907 460.032933 0.002120844
5.18302 470.89783 467.882931 460.380449 0.002123603
5.19182 470.19833 467.458491 460.730206 0.002126762
5.20063 471.05167 467.158213 461.082201 0.002122909
5.20944 471.23965 466.9582 461.436433 0.002122063
5.21825 470.90161 466.840214 461.792902 0.002123586
5.22705 470.65045 466.790055 462.151601 0.002124719
5.23586 471.2023 466.796485 462.512514 0.002122231
5.24467 471.61368 466.850629 462.875677 0.00212038
5.25347 471.53574 466.945355 463.241065 0.00212073
5.26228 472.01868 467.074901 463.608676 0.00211856
5.27109 472.61758 467.234518 463.978504 0.002115876
5.27990 472.39279 467.42035 464.350547 0.002116882
5.28870 472.41116 467.629199 464.724794 0.0021168
5.29751 472.82214 467.858382 465.10125 0.00211496
5.30632 472.58069 468.105676 465.479905 0.002116041
5.31513 472.74115 468.369208 465.860754 0.002115323
5.32393 473.39014 468.647402 466.24379 0.002112423
5.33274 474.56668 468.938906 466.629007 0.002107185
5.34155 475.2149 469.242587 467.016394 0.002104311
5.35035 475.02005 469.5575 467.405953 0.002105174
5.35916 474.9248 469.893077 467.797672 0.002105597
5.36797 474.93747 470.240065 468.191543 0.00210554
5.37678 475.23074 470.584344 468.587559 0.002104241
5.38558 475.32056 470.937268 468.985707 0.002103843
5.39439 475.58127 471.298454 469.385987 0.00210269
5.40320 475.80716 471.667582 469.788386 0.002101692
5.41200 476.27432 472.044415 470.192894 0.00209963
5.42081 477.03891 472.42877 470.599503 0.002096265
5.42962 477.51208 472.820553 471.008202 0.002094188
5.43843 477.56909 473.219729 471.418976 0.002093938
5.44723 477.47391 473.626339 471.831826 0.002094355
5.45604 477.93011 474.040506 472.246734 0.002092356
5.46485 478.55933 474.462433 472.663691 0.002089605
5.47365 478.09369 474.892419 473.082684 0.00209164
5.48246 478.51477 475.330878 473.503704 0.0020898
5.49127 480.07883 475.778359 473.926732 0.002082991
5.50008 481.30972 476.235575 474.351767 0.002077664
5.50888 481.35162 476.703397 474.778767 0.002077483
5.51769 481.9519 477.183039 475.207768 0.002074896
5.52650 482.65201 477.675934 475.638733 0.002071886
5.53530 482.32001 478.183944 476.07165 0.002073312
5.54411 482.29471 478.709448 476.506504 0.002073421
5.55292 483.29547 479.255531 476.943277 0.002069128
5.56173 484.14914 479.826192 477.381966 0.002065479
5.57053 484.20255 480.426675 477.822551 0.002065251
5.57934 483.83841 481.064009 478.265018 0.002066806
5.58815 483.20251 481.747649 478.709353 0.002069526
5.59695 483.16977 482.490606 479.155536 0.002069666
5.60576 483.93958 483.311342 479.603561 0.002066374
5.61457 484.77637 484.237014 480.053409 0.002062807
5.62338 485.90503 485.310991 480.505065 0.002058015
5.63218 486.72766 486.610819 480.958513 0.002054537
5.64099 487.94681 488.287671 481.413736 0.002049404
5.64980 488.83124 490.638113 481.870714 0.002045696
5.65860 491.17926 494.192371 482.329442 0.002035917
5.66741 494.79285 499.740441 482.789897 0.002021048
5.67622 501.741 508.168779 483.252062 0.00199306
5.68503 512.38324 519.977585 483.715922 0.001951664
5.69383 529.35425 534.233867 484.181459 0.001889094
5.70264 545.55487 546.530009 484.64865 0.001832996
5.71145 548.21027 549.167861 485.11749 0.001824118
5.72025 535.58264 540.292324 485.587955 0.001867125
5.72906 519.13947 526.934718 486.060027 0.001926265
5.73787 506.85892 515.031002 486.533689 0.001972936
5.74668 500.25586 506.451427 487.008918 0.001998977
5.75548 495.78952 500.984379 487.485705 0.002016985
5.76429 493.55164 497.820404 487.964028 0.00202613
5.77310 492.58673 496.104683 488.443841 0.002030099
5.78190 492.51996 495.215463 488.925179 0.002030375
5.79071 492.33591 494.786278 489.407997 0.002031134
5.79952 491.87149 494.626628 489.892275 0.002033051
5.80833 492.35352 494.640487 490.37799 0.002031061
5.81713 493.16629 494.77657 490.865133 0.002027714
5.82594 494.19022 495.004421 491.35368 0.002023512
5.83475 495.17233 495.304405 491.84361 0.002019499
5.84356 495.09952 495.663568 492.334905 0.002019796
5.85236 494.87003 496.07342 492.827545 0.002020733
5.86117 495.14639 496.528849 493.321504 0.002019605
5.86998 495.55945 497.027423 493.816775 0.002017921
5.87878 495.95459 497.569146 494.313331 0.002016314
5.88759 496.53329 498.156497 494.811152 0.002013964
5.89640 496.24878 498.794641 495.310218 0.002015118
5.90521 496.27676 499.492148 495.810504 0.002015005
5.91401 496.96265 500.272344 496.311999 0.002012224
5.92282 498.57138 501.135152 496.81468 0.002005731
5.93163 500.00006 502.122155 497.318523 0.002
5.94043 500.66269 503.287574 497.82351 0.001997353
5.94924 501.44946 504.733759 498.329619 0.001994219
5.95805 503.41193 506.663165 498.836825 0.001986445
5.96686 505.84491 509.457682 499.345117 0.001976891
5.97566 508.90231 513.743295 499.854468 0.001965014
5.98447 514.56696 520.341757 500.364859 0.001943382
5.99328 524.35101 529.985315 500.876268 0.001907119
6.00208 538.89502 542.658364 501.388674 0.001855649
6.01089 555.89423 556.146523 501.90205 0.001798903
6.01970 565.58313 564.266827 502.416386 0.001768087
6.02851 559.13477 561.062724 502.931656 0.001788478
6.03731 544.04065 549.670155 503.447838 0.001838098
6.04612 528.21368 537.263562 503.964882 0.001893173
6.05493 517.97943 527.431478 504.482824 0.001930579
6.06373 513.14526 520.777946 505.001615 0.001948766
6.07254 509.93024 516.743937 505.521226 0.001961053
6.08135 508.4173 514.491231 506.041648 0.001966888
6.09016 507.12411 513.304164 506.562855 0.001971904
6.09896 506.85104 512.71391 507.084824 0.001972966
6.10777 506.9942 512.460555 507.607533 0.001972409
6.11658 506.5603 512.411282 508.130956 0.001974099
6.12538 506.24054 512.497306 508.655083 0.001975346
6.13419 507.21933 512.679403 509.179886 0.001971534
6.14300 508.16422 512.932641 509.705343 0.001967868
6.15181 508.92676 513.240043 510.231434 0.001964919
6.16061 509.14594 513.589506 510.758136 0.001964073
6.16942 509.64877 513.972202 511.285422 0.001962136
6.17823 509.71817 514.381552 511.813283 0.001961868
6.18703 510.20407 514.812608 512.34169 0.00196
6.19584 510.90091 515.261585 512.870623 0.001957327
6.20465 511.79425 515.725537 513.40006 0.00195391
6.21346 511.47644 516.202174 513.929978 0.001955124
6.22226 511.57864 516.689685 514.460352 0.001954734
6.23107 512.12891 517.186634 514.991171 0.001952633
6.23988 513.04529 517.691869 515.522408 0.001949146
6.24868 513.90741 518.204472 516.054041 0.001945876
6.25749 514.24127 518.723698 516.586049 0.001944612
6.26630 513.98157 519.248951 517.118405 0.001945595
6.27511 513.90594 519.779778 517.6511 0.001945881
6.28391 514.68396 520.315802 518.184105 0.00194294
6.29272 515.88873 520.856748 518.7174 0.001938402
6.30153 516.25061 521.402415 519.250964 0.001937044
6.31033 516.83417 521.952644 519.784745 0.001934857
6.31914 517.16931 522.507434 520.318783 0.001933603
6.32795 517.50732 523.066749 520.853019 0.00193234
6.33676 517.86444 523.630668 521.387447 0.001931007
6.34556 518.64258 524.199322 521.922037 0.00192811
6.35437 519.61395 524.772915 522.45677 0.001924506
6.36318 519.7312 525.351735 522.991624 0.001924072
6.37198 520.36761 525.936172 523.526579 0.001921718
6.38079 520.81805 526.526712 524.061608 0.001920056
6.38960 521.36951 527.123993 524.596703 0.001918025
6.39841 521.672 527.7304 525.131836 0.001916913
6.40721 522.97839 528.343761 525.666988 0.001912125
6.41602 523.85602 528.96692 526.202137 0.001908921
6.42483 524.1911 529.601491 526.737264 0.001907701
6.43364 524.74689 530.249521 527.272342 0.001905681
6.44244 525.18066 530.913666 527.807364 0.001904107
6.45125 525.87219 531.597393 528.342302 0.001901603
6.46006 526.99731 532.305278 528.877137 0.001897543
6.46886 527.76532 533.043461 529.411849 0.001894782
6.47767 529.00214 533.820323 529.946411 0.001890352
6.48648 529.56299 534.647701 530.480817 0.001888349
6.49529 530.38867 535.542865 531.015041 0.00188541
6.50409 531.6499 536.533161 531.549063 0.001880937
6.51290 532.58112 537.666796 532.082863 0.001877648
6.52171 532.92322 539.036545 532.616422 0.001876443
6.53051 534.02655 540.818994 533.149715 0.001872566
6.53932 536.56323 543.328731 533.682735 0.001863713
6.54813 540.27087 547.033199 534.215456 0.001850923
6.55694 544.81635 552.466241 534.747859 0.001835481
6.56574 552.28113 559.965462 535.279927 0.001810672
6.57455 562.93695 569.084285 535.811639 0.001776398
6.58336 573.65912 577.399146 536.342947 0.001743196
6.59216 577.55652 580.252142 536.873887 0.001731432
6.60097 573.25793 575.791552 537.404422 0.001744415
6.60978 563.67981 567.945369 537.934528 0.001774057
6.61859 554.44531 560.667627 538.464187 0.001803604
6.62739 549.39508 555.362167 538.99338 0.001820184
6.63620 546.26526 552.038126 539.52209 0.001830612
6.64501 544.11249 550.229779 540.050293 0.001837855
6.65381 543.54688 549.413489 540.577983 0.001839768
6.66262 543.94733 549.188053 541.105136 0.001838413
6.67143 544.50226 549.307118 541.631735 0.00183654
6.68024 544.88513 549.640474 542.157763 0.001835249
6.68904 544.6134 550.124676 542.683197 0.001836165
6.69785 545.31458 550.730161 543.208031 0.001833804
6.70666 546.30707 551.444642 543.732242 0.001830472
6.71546 548.17987 552.26655 544.255814 0.001824219
6.72427 549.93182 553.203316 544.77873 0.001818407
6.73308 551.80017 554.271612 545.300973 0.00181225
6.74189 553.2818 555.500082 545.822521 0.001807397
6.75069 554.88525 556.936294 546.34337 0.001802174
6.75950 557.6499 558.662508 546.863498 0.00179324
6.76831 561.61188 560.833105 547.382888 0.001780589
6.77711 567.37665 563.749408 547.901525 0.001762498
6.78592 573.62933 567.970913 548.419393 0.001743286
6.79473 582.1626 574.409418 548.93647 0.001717733
6.80354 593.37524 584.271692 549.452753 0.001685274
6.81234 606.3985 598.677321 549.968222 0.001649081
6.82115 620.45734 617.762977 550.482859 0.001611714
6.82996 635.11591 638.672371 550.996652 0.001574516
6.83877 643.12817 652.741272 551.509579 0.0015549
6.84757 641.89355 650.188077 552.021607 0.001557891
6.85638 630.5376 633.931681 552.532775 0.001585948
6.86519 616.11469 614.894758 553.04304 0.001623074
6.87399 603.84296 599.355645 553.552386 0.00165606
6.88280 593.46973 588.689138 554.060801 0.001685006
6.89161 586.25867 582.240158 554.56827 0.001705732
6.90041 581.05328 578.797413 555.074773 0.001721013
6.90922 577.44312 577.260808 555.580309 0.001731772
6.91803 575.04944 576.878499 556.084858 0.001738981
6.92684 574.43005 577.228213 556.588407 0.001740856
6.93564 575.19507 578.10682 557.090942 0.001738541
6.94445 576.15674 579.431602 557.592452 0.001735639
6.95326 577.96686 581.184765 558.092917 0.001730203
6.96207 579.77185 583.389546 558.592337 0.001724816
6.97087 582.51068 586.104159 559.090692 0.001716707
6.97968 586.38928 589.425692 559.587971 0.001705352
6.98849 590.78589 593.518193 560.084161 0.001692661
6.99729 596.66174 598.559692 560.579245 0.001675991
7.00610 607.31189 604.894732 561.073223 0.0016466
7.01491 621.57263 613.050187 561.566076 0.001608822
7.02372 639.909 623.965064 562.057794 0.001562722
7.03252 662.42249 639.440495 562.548365 0.001509611
7.04133 694.06598 662.8998 563.037778 0.001440785
7.05014 737.83905 700.262208 563.526016 0.001355309
7.05894 800.10046 760.151074 564.01308 0.001249843
7.06775 888.66125 852.155212 564.498953 0.001125288
7.07656 1004.9955 981.918794 564.983625 0.000995029
7.08537 1131.6979 1140.176896 565.467086 0.000883628
7.09417 1238.6241 1280.865351 565.949325 0.000807347
7.10298 1258.7115 1318.720332 566.430326 0.000794463
7.11179 1187.4777 1222.917033 566.910092 0.000842121
7.12059 1071.703 1066.170588 567.38858 0.000933094
7.12940 946.40582 919.941775 567.865834 0.001056629
7.13821 851.32526 809.595172 568.341818 0.001174639
7.14702 779.62524 735.323077 568.816523 0.001282668
7.15582 727.55664 688.719347 569.289939 0.001374463
7.16463 691.82269 660.278303 569.762053 0.001445457
7.17344 665.0379 642.600629 570.232867 0.001503674
7.18224 646.72253 631.04542 570.702367 0.001546258
7.19105 632.82086 623.080189 571.170544 0.001580226
7.19986 623.34668 617.396122 571.637391 0.001604244
7.20867 616.99988 613.294278 572.102894 0.001620746
7.21747 613.38312 610.369563 572.567055 0.001630302
7.22628 610.42346 608.367168 573.029863 0.001638207
7.23509 608.87781 607.121165 573.491308 0.001642366
7.24389 607.43024 606.527445 573.951386 0.00164628
7.25270 606.633 606.529573 574.410087 0.001648443
7.26151 606.7948 607.10774 574.8674 0.001648004
7.27032 608.2597 608.285865 575.323328 0.001644035
7.27912 610.45874 610.135124 575.77786 0.001638112
7.28793 613.05707 612.79918 576.230989 0.00163117
7.29674 616.45905 616.550206 576.682709 0.001622168
7.30554 621.14948 621.902547 577.133014 0.001609918
7.31435 628.04517 629.793566 577.581893 0.001592242
7.32316 638.4046 641.785114 578.02935 0.001566405
7.33197 655.64911 660.135338 578.475374 0.001525206
7.34077 682.6665 687.558832 578.91996 0.001464844
7.34958 725.73199 726.394721 579.363103 0.001377919
7.35839 784.0719 776.216614 579.804793 0.001275393
7.36720 841.95581 829.230654 580.245034 0.001187711
7.37600 885.00598 872.988266 580.683818 0.001129936
7.38481 912.06421 907.80797 581.121114 0.001096414
7.39362 939.21436 939.488208 581.556967 0.00106472
7.40242 950.66974 951.295151 581.991349 0.00105189
7.41123 921.93103 918.558359 582.424256 0.00108468
7.42004 856.95148 852.795276 582.855679 0.001166927
7.42884 785.20239 785.084039 583.285623 0.001273557
7.43765 730.51575 731.535253 583.71408 0.001368896
7.44646 693.8172 694.566596 584.141047 0.001441302
7.45527 671.03339 671.357335 584.566521 0.001490239
7.46407 656.00873 657.900312 584.990498 0.00152437
7.47288 647.70471 650.739621 585.41297 0.001543913
7.48169 642.59161 647.562074 585.833945 0.001556198
7.49050 640.67157 647.09892 586.253415 0.001560862
7.49930 640.50403 648.796988 586.671377 0.00156127
7.50811 643.42261 652.552541 587.08783 0.001554188
7.51692 647.95984 658.604479 587.502771 0.001543306
7.52572 655.41541 667.61395 587.916193 0.00152575
7.53453 666.9566 680.957728 588.328104 0.001499348
7.54334 685.88086 701.267257 588.738498 0.001457979
7.55215 713.23419 733.039815 589.147373 0.001402064
7.56095 758.53442 782.797815 589.554727 0.001318332
7.56976 830.31897 858.056077 589.960556 0.001204356
7.57857 947.25128 964.349661 590.364867 0.001055686
7.58737 1108.3746 1098.244587 590.767654 0.000902222
7.59618 1269.6388 1232.816876 591.168917 0.000787626
7.60499 1349.1708 1316.337749 591.568656 0.000741196
7.61380 1342.1257 1334.568699 591.966869 0.000745087
7.62260 1319.4689 1340.013412 592.363553 0.000757881
7.63141 1350.365 1369.446064 592.758715 0.000740541
7.64022 1388.8307 1393.067062 593.152353 0.00072003
7.64902 1349.984 1342.347894 593.544465 0.00074075
7.65783 1214.478 1208.790236 593.93503 0.000823399
7.66664 1048.082 1053.686294 594.324093 0.000954124
7.67545 910.29102 922.314741 594.711632 0.00109855
7.68425 815.70581 826.280251 595.097644 0.001225932
7.69306 753.82349 761.752517 595.482138 0.00132657
7.70187 714.01752 720.42483 595.865111 0.001400526
7.71067 688.4906 694.193548 596.246565 0.001452453
7.71948 671.39453 677.069232 596.6265 0.001489437
7.72829 659.95642 665.366603 597.004918 0.001515252
7.73710 652.24805 657.069481 597.381817 0.001533159
7.74590 646.7049 651.13532 597.757207 0.0015463
7.75471 643.57611 647.04953 598.131086 0.001553818
7.76352 642.62286 644.626293 598.503455 0.001556123
7.77232 643.61737 643.975541 598.874317 0.001553718
7.78113 645.97241 645.560733 599.24367 0.001548054
7.78994 650.67932 650.255294 599.611525 0.001536855
7.79875 658.45673 659.260069 599.977881 0.001518703
7.80755 671.6098 673.699745 600.342739 0.00148896
7.81636 693.12189 693.555967 600.706104 0.001442748
7.82517 723.97754 715.82314 601.067978 0.001381258
7.83397 750.59961 733.52325 601.42836 0.001332268
7.84278 760.17816 737.558775 601.787262 0.001315481
7.85159 741.30969 723.43757 602.144683 0.001348964
7.86040 710.07257 698.943272 602.500626 0.001408307
7.86920 681.26154 674.870914 602.855096 0.001467865
7.87801 661.15277 656.017182 603.208092 0.00151251
7.88682 649.23138 642.856653 603.559626 0.001540283
7.89563 642.03766 634.267677 603.909698 0.001557541
7.90443 637.85028 628.817689 604.258313 0.001567766
7.91324 634.81793 625.313623 604.605474 0.001575255
7.92205 633.22772 622.956407 604.951167 0.001579211
7.93085 632.03265 621.282431 605.295436 0.001582197
7.93966 630.72357 620.041903 605.638261 0.001585481
7.94847 629.586 619.098739 605.979655 0.001588345
7.95727 629.0368 618.372872 606.31962 0.001589732
7.96608 629.1322 617.812306 606.658159 0.001589491
7.97489 628.86444 617.380933 606.99528 0.001590168
7.98370 628.34253 617.052453 607.330986 0.001591489
7.99250 627.94873 616.807278 607.665279 0.001592487
8.00131 628.47083 616.630418 607.998192 0.001591164
8.01012 628.38037 616.510371 608.329688 0.001591393
8.01893 628.37421 616.438052 608.659793 0.001591408
8.02773 628.45544 616.406271 608.988507 0.001591203
8.03654 628.37695 616.409262 609.315845 0.001591401
8.04535 628.46173 616.442804 609.64181 0.001591187
8.05415 628.54279 616.502149 609.966406 0.001590982
8.06296 627.91193 616.584612 610.289604 0.00159258
8.07177 627.31323 616.69438 610.611484 0.0015941
8.08057 627.49908 616.81581 610.932015 0.001593628
8.08938 627.82477 616.95387 611.251205 0.001592801
8.09819 628.81219 617.107108 611.569059 0.0015903
8.10700 629.27435 617.274358 611.885581 0.001589132
8.11580 629.34991 617.454711 612.200784 0.001588941
8.12461 629.02283 617.647476 612.514674 0.001589767
8.13342 628.70593 617.8522 612.827255 0.001590569
8.14223 628.91431 618.068663 613.138537 0.001590042
8.15103 628.88824 618.296886 613.448522 0.001590108
8.15984 628.27039 618.537184 613.757225 0.001591671
8.16865 627.71405 618.790202 614.06465 0.001593082
8.17745 628.48651 619.056995 614.370804 0.001591124
8.18626 629.20099 619.339146 614.675695 0.001589317
8.19507 629.53131 619.64206 614.979332 0.001588483
8.20388 629.42047 619.962825 615.281717 0.001588763
8.21268 628.90411 620.309176 615.582867 0.001590068
8.22149 628.50244 620.688326 615.882785 0.001591084
8.23030 629.05573 621.109727 616.18148 0.001589684
8.23910 630.1806 621.590782 616.47896 0.001586847
8.24791 630.81775 622.162018 616.775234 0.001585244
8.25672 630.94208 622.881031 617.070305 0.001584932
8.26553 631.85907 623.852862 617.36419 0.001582631
8.27433 633.21277 625.24945 617.656894 0.001579248
8.28314 634.65906 627.306834 617.948424 0.001575649
8.29195 637.3891 630.270024 618.23879 0.0015689
8.30075 641.10565 634.255568 618.527998 0.001559805
8.30956 645.4754 638.947644 618.816062 0.001549246
8.31837 648.33057 643.017162 619.102988 0.001542423
8.32718 648.65668 644.188346 619.388786 0.001541648
8.33598 645.90344 641.739602 619.673463 0.001548219
8.34479 642.01105 637.620899 619.95703 0.001557606
8.35360 637.73425 633.748003 620.239492 0.001568051
8.36240 634.69873 630.83214 620.520865 0.001575551
8.37121 632.64685 628.905551 620.801156 0.001580661
8.38002 631.10565 627.759282 621.080372 0.001584521
8.38883 630.19098 627.142125 621.358524 0.001586821
8.39763 629.15771 626.848996 621.635621 0.001589427
8.40644 629.50464 626.745068 621.911671 0.001588551
8.41525 629.75372 626.753244 622.186687 0.001587922
8.42406 629.91498 626.832311 622.460678 0.001587516
8.43286 629.44604 626.960024 622.733653 0.001588699
8.44167 629.53973 627.123402 623.005621 0.001588462
8.45048 629.58563 627.314115 623.276589 0.001588346
8.45928 629.34106 627.526508 623.546574 0.001588964
8.46809 629.56818 627.756582 623.815582 0.00158839
8.47690 629.53717 628.001959 624.083624 0.001588469
8.48571 629.84723 628.259531 624.350709 0.001587687
8.49451 630.32697 628.528314 624.616847 0.001586478
8.50332 630.6192 628.807216 624.882046 0.001585743
8.51213 630.59485 629.095565 625.146322 0.001585804
8.52093 630.37463 629.392873 625.409681 0.001586358
8.52974 629.73663 629.698893 625.672135 0.001587965
8.53855 630.08691 630.013558 625.933694 0.001587083
8.54736 631.07306 630.336965 626.194368 0.001584603
8.55616 631.50269 630.669357 626.454164 0.001583525
8.56497 631.40686 631.01112 626.713099 0.001583765
8.57378 631.37054 631.36277 626.97118 0.001583856
8.58258 631.22021 631.724988 627.228418 0.001584233
8.59139 631.37585 632.098772 627.484823 0.001583843
8.60020 632.10834 632.484682 627.740378 0.001582007
8.60900 632.74341 632.884167 627.99515 0.001580419
8.61781 632.97394 633.29854 628.249122 0.001579844
8.62662 632.39923 633.729438 628.502301 0.00158128
8.63543 632.32971 634.178745 628.754704 0.001581453
8.64423 633.27759 634.648658 629.006338 0.001579086
8.65304 633.82184 635.142839 629.257214 0.00157773
8.66185 634.94812 635.662289 629.507344 0.001574932
8.67066 635.45923 636.211633 629.756737 0.001573665
8.67946 635.58698 636.795212 630.005403 0.001573349
8.68827 635.2583 637.41814 630.253357 0.001574163
8.69708 635.65515 638.086541 630.500608 0.00157318
8.70588 636.4494 638.8079 630.747166 0.001571217
8.71469 637.24835 639.591215 630.993043 0.001569247
8.72350 638.06714 640.44749 631.238247 0.001567233
8.73231 638.50934 641.390452 631.482794 0.001566148
8.74111 638.98718 642.437038 631.726692 0.001564977
8.74992 640.18414 643.608594 631.969954 0.001562051
8.75873 641.44659 644.932161 632.212588 0.001558976
8.76753 642.88446 646.442722 632.454608 0.001555489
8.77634 643.14056 648.185768 632.69602 0.00155487
8.78515 644.05292 650.220564 632.936842 0.001552667
8.79396 645.73517 652.627902 633.177082 0.001548622
8.80276 648.76984 655.518119 633.416751 0.001541379
8.81157 652.04724 659.048704 633.65586 0.001533631
8.82038 656.36426 663.459775 633.894418 0.001523544
8.82918 661.84802 669.146408 634.13244 0.001510921
8.83799 669.74268 676.808049 634.369937 0.001493111
8.84680 681.47565 687.710609 634.606918 0.001467404
8.85561 697.50031 704.033994 634.843394 0.001433691
8.86441 722.67944 729.153821 635.079378 0.001383739
8.87322 758.82336 767.514305 635.314877 0.00131783
8.88203 810.83466 823.611561 635.549908 0.001233297
8.89083 886.73126 899.199548 635.784479 0.001127737
8.89964 975.9751 987.069035 636.018602 0.001024616
8.90845 1066.9215 1064.030958 636.252288 0.000937276
8.91726 1122.6891 1100.751578 636.485547 0.000890719
8.92606 1112.172 1082.73948 636.718389 0.000899141
8.93487 1031.8486 1015.427341 636.950829 0.000969134
8.94368 922.25879 927.117724 637.182876 0.001084294
8.95249 827.2381 846.482278 637.414542 0.001208842
8.96129 763.57916 784.891774 637.645837 0.001309622
8.97010 722.23145 742.211997 637.87677 0.001384598
8.97891 696.22382 714.269563 638.107357 0.00143632
8.98771 679.75323 696.385804 638.337607 0.001471122
8.99652 669.22821 684.795416 638.567531 0.001494259
9.00533 662.02325 676.972711 638.797139 0.001510521
9.01414 656.47174 671.42173 639.026443 0.001523295
9.02294 652.66455 667.31968 639.255451 0.001532181
9.03175 650.69049 664.194472 639.484179 0.001536829
9.04056 649.18365 661.77946 639.712637 0.001540396
9.04936 647.53979 659.899743 639.940834 0.001544307
9.05817 646.77863 658.435226 640.168781 0.001546124
9.06698 646.50433 657.300038 640.396491 0.00154678
9.07579 645.53918 656.431062 640.62397 0.001549093
9.08459 644.43921 655.781836 640.851235 0.001551737
9.09340 644.18829 655.317796 641.078294 0.001552341
9.10221 644.2735 655.013114 641.305158 0.001552136
9.11101 643.87512 654.849033 641.531839 0.001553096
9.11982 644.04456 654.812527 641.758343 0.001552688
9.12863 644.41418 654.894258 641.984687 0.001551797
9.13743 644.88147 655.089629 642.210857 0.001550673
9.14624 645.30377 655.399734 642.436905 0.001549658
9.15505 645.81555 655.822346 642.662826 0.00154843
9.16386 646.57446 656.366213 642.888627 0.001546612
9.17266 647.03094 657.040567 643.114319 0.001545521
9.18147 647.77386 657.860773 643.339912 0.001543749
9.19028 648.92609 658.847756 643.565417 0.001541008
9.19909 650.22357 660.029876 643.790843 0.001537933
9.20789 651.16254 661.44532 644.016203 0.001535715
9.21670 653.48401 663.145731 644.241507 0.001530259
9.22551 656.78082 665.201158 644.466765 0.001522578
9.23431 659.7807 667.70813 644.691986 0.001515655
9.24312 663.45135 670.804208 644.91718 0.00150727
9.25193 668.32715 674.69552 645.142361 0.001496273
9.26074 675.05518 679.716163 645.367538 0.00148136
9.26954 683.0105 686.455438 645.592719 0.001464106
9.27835 694.74872 695.994245 645.817916 0.001439369
9.28716 710.9054 710.249698 646.043139 0.001406657
9.29596 734.13525 732.312218 646.268395 0.001362147
9.30477 766.54993 766.405367 646.493699 0.001304546
9.31358 812.79578 817.018518 646.719059 0.001230321
9.32239 879.29755 886.749219 646.944485 0.001137271
9.33119 965.74744 971.717335 647.169987 0.001035467
9.34000 1052.525 1052.166762 647.395574 0.000950096
9.34881 1091.4286 1088.039499 647.621254 0.00091623
9.35761 1058.6691 1053.533107 647.847042 0.000944582
9.36642 979.61908 974.067686 648.072946 0.001020805
9.37523 892.30188 889.89714 648.298973 0.001120697
9.38404 824.75702 821.050116 648.525136 0.001212478
9.39284 777.14429 771.503459 648.751439 0.001286762
9.40165 744.43854 738.639037 648.977899 0.001343294
9.41046 723.69629 717.959766 649.204522 0.001381795
9.41926 709.86438 705.266975 649.431317 0.00140872
9.42807 700.70929 697.518406 649.658294 0.001427125
9.43688 695.36859 692.876867 649.885462 0.001438086
9.44569 693.53363 690.387994 650.112829 0.001441891
9.45449 693.92285 689.676298 650.340407 0.001441082
9.46330 696.32178 690.794046 650.568205 0.001436118
9.47211 701.52594 694.23448 650.796231 0.001425464
9.48092 709.96948 701.064716 651.024494 0.001408511
9.48972 723.59821 713.017831 651.253003 0.001381982
9.49853 742.46631 732.327859 651.481764 0.001346862
9.50734 767.98346 761.076506 651.710793 0.001302111
9.51614 801.06274 799.728464 651.940094 0.001248342
9.52495 839.68433 843.956235 652.169677 0.001190924
9.53376 871.03394 879.380829 652.399551 0.001148061
9.54257 876.68176 884.635479 652.629721 0.001140665
9.55137 851.24878 855.42524 652.860202 0.001174745
9.56018 809.92688 810.916689 653.090999 0.001234679
9.56899 771.41473 768.862877 653.32212 0.00129632
9.57779 741.51025 736.023561 653.553575 0.001348599
9.58660 720.29865 712.875905 653.785372 0.001388313
9.59541 704.12103 697.563814 654.017516 0.00142021
9.60422 692.5542 687.732932 654.250021 0.00144393
9.61302 683.86835 681.371217 654.482892 0.00146227
9.62183 677.70447 677.087126 654.716137 0.001475569
9.63064 672.92413 674.04718 654.949766 0.001486052
9.63944 669.53503 671.789228 655.183785 0.001493574
9.64825 667.35712 670.058493 655.418199 0.001498448
9.65706 665.61841 668.706522 655.653023 0.001502362
9.66587 664.79016 667.638607 655.888261 0.001504234
9.67467 663.68536 666.789594 656.123894 0.001506738
9.68348 662.61743 666.112426 656.359984 0.001509166
9.69229 661.91302 665.572468 656.59651 0.001510773
9.70109 661.82977 665.143453 656.833482 0.001510963
9.70990 661.87177 664.805249 657.070905 0.001510867
9.71871 661.78687 664.54213 657.308786 0.001511061
9.72752 661.86652 664.341825 657.547136 0.001510879
9.73632 661.43768 664.194559 657.78596 0.001511858
9.74513 660.50409 664.092433 658.025266 0.001513995
9.75394 660.73157 664.029119 658.26506 0.001513474
9.76274 660.84259 663.999437 658.505348 0.00151322
9.77155 660.61285 664.000816 658.74614 0.001513746
9.78036 660.46771 664.027746 658.987442 0.001514079
9.78917 660.52325 664.076241 659.22926 0.001513951
9.79797 660.23004 664.13878 659.471601 0.001514624
9.80678 660.05652 664.226325 659.714473 0.001515022
9.81559 660.00946 664.331317 659.957877 0.00151513
9.82439 660.13354 664.451174 660.201828 0.001514845
9.83320 659.79999 664.585366 660.446328 0.001515611
9.84201 659.83911 664.732993 660.691384 0.001515521
9.85082 661.12592 664.893359 660.937002 0.001512571
9.85962 662.32886 665.065941 661.183189 0.001509824
9.86843 662.7818 665.250449 661.429947 0.001508792
9.87724 662.69806 665.446678 661.67729 0.001508983
9.88604 662.95825 665.654697 661.925219 0.001508391
9.89485 663.29907 665.874772 662.173741 0.001507616
9.90366 663.94147 666.107395 662.422861 0.001506157
9.91247 664.44189 666.35334 662.672584 0.001505023
9.92127 663.83875 666.615737 662.92292 0.00150639
9.93008 663.50531 666.892097 663.173871 0.001507147
9.93889 664.55823 667.18651 663.425445 0.001504759
9.94769 665.51086 667.50176 663.677645 0.001502605
9.95650 666.24744 667.841575 663.930478 0.001500944
9.96531 666.74194 668.211013 664.183947 0.001499831
9.97412 667.33008 668.616954 664.438061 0.001498509
9.98292 667.9549 669.072871 664.692824 0.001497107
9.99173 669.237 669.58523 664.948241 0.001494239
10.00054 669.76147 670.179932 665.204319 0.001493069
10.00934 670.495 670.894693 665.461052 0.001491435
10.01815 671.73004 671.797559 665.718454 0.001488693
10.02696 673.64923 673.010052 665.97653 0.001484452
10.03577 675.84589 674.734394 666.235313 0.001479627
10.04457 678.45697 677.263574 666.49475 0.001473933
10.05338 683.10071 680.946902 666.754874 0.001463913
10.06219 689.03021 686.07783 667.015691 0.001451315
10.07099 696.46509 692.655216 667.277204 0.001435822
10.07980 703.63507 699.867167 667.539448 0.001421191
10.08861 709.93457 705.342698 667.802367 0.001408581
10.09742 709.39771 705.965424 668.065996 0.001409647
10.10622 703.44629 701.503685 668.330339 0.001421573
10.11503 695.3504 694.954248 668.595399 0.001438124
10.12384 689.35211 688.876469 668.861181 0.001450637
10.13265 685.04449 684.219869 669.12772 0.001459759
10.14145 681.82434 681.055781 669.394957 0.001466653
10.15026 679.52527 679.120929 669.662928 0.001471616
10.15907 678.22729 678.088622 669.931636 0.001474432
10.16787 678.37878 677.697659 670.201085 0.001474103
10.17668 678.29486 677.804409 670.471308 0.001474285
10.18549 678.35956 678.378876 670.742249 0.001474144
10.19430 678.63745 679.468138 671.01394 0.001473541
10.20310 680.12244 681.132116 671.286355 0.001470323
10.21191 682.30878 683.354574 671.559559 0.001465612
10.22072 685.14886 685.862993 671.833523 0.001459537
10.22952 687.36322 687.871502 672.108282 0.001454835
10.23833 688.07642 688.291939 672.383777 0.001453327
10.24714 685.72858 686.952208 672.660041 0.001458303
10.25595 682.93817 684.834972 672.937078 0.001464261
10.26475 682.10913 682.84634 673.214891 0.001466041
10.27356 681.40424 681.342353 673.493513 0.001467558
10.28237 679.80792 680.358331 673.772884 0.001471004
10.29117 678.6731 679.804767 674.053039 0.001473463
10.29998 679.27655 679.561766 674.333979 0.001472154
10.30879 680.32104 679.523807 674.615707 0.001469894
10.31760 680.58521 679.613962 674.898226 0.001469324
10.32640 680.13788 679.786384 675.181569 0.00147029
10.33521 680.32703 680.014872 675.465676 0.001469881
10.34402 681.27386 680.285286 675.750579 0.001467838
10.35282 681.81165 680.589786 676.036281 0.001466681
10.36163 681.97058 680.924753 676.322783 0.001466339
10.37044 682.87042 681.286232 676.610121 0.001464407
10.37925 683.32751 681.674542 676.898231 0.001463427
10.38805 683.25067 682.087983 677.187147 0.001463592
10.39686 683.05475 682.528189 677.476871 0.001464011
10.40567 683.69025 682.996759 677.767404 0.001462651
10.41447 684.84137 683.496158 678.058748 0.001460192
10.42328 685.61743 684.029999 678.350938 0.001458539
10.43209 685.94617 684.602786 678.643908 0.00145784
10.44090 686.1474 685.220668 678.937692 0.001457413
10.44970 687.85498 685.891728 679.232293 0.001453795
10.45851 689.18414 686.629811 679.527711 0.001450991
10.46732 690.3764 687.442249 679.823981 0.001448485
10.47612 691.54382 688.351342 680.121036 0.00144604
10.48493 693.21252 689.384631 680.418911 0.001442559
10.49374 694.53247 690.581569 680.717607 0.001439817
10.50255 696.50183 692.009104 681.017125 0.001435746
10.51135 699.61041 693.779805 681.317465 0.001429367
10.52016 703.25549 696.092771 681.618662 0.001421958
10.52897 706.88586 699.267477 681.920648 0.001414656
10.53777 710.96429 703.774507 682.223458 0.00140654
10.54658 716.45917 710.204457 682.527092 0.001395753
10.55539 724.00604 719.14224 682.831551 0.001381204
10.56420 732.19421 730.85758 683.13687 0.001365758
10.57300 742.25244 744.614699 683.442978 0.001347251
10.58181 751.07123 757.658232 683.749912 0.001331432
10.59062 757.258 765.827951 684.057671 0.001320554
10.59943 758.59351 767.362087 684.366254 0.001318229
10.60823 757.99487 764.172585 684.675663 0.00131927
10.61704 754.99579 758.326017 684.985932 0.001324511
10.62585 749.367 750.194988 685.29699 0.00133446
10.63465 740.78412 740.869577 685.608872 0.001349921
10.64346 732.84314 732.594615 685.921578 0.001364548
10.65227 726.13702 726.736141 686.235108 0.001377151
10.66108 722.78314 723.504151 686.549496 0.001383541
10.66988 721.67792 722.641863 686.86467 0.00138566
10.67869 722.43713 723.858528 687.180666 0.001384203
10.68750 724.57782 727.041159 687.497483 0.001380114
10.69630 729.88696 732.42284 687.81512 0.001370075
10.70511 739.11835 740.773781 688.133612 0.001352963
10.71392 752.50165 753.653438 688.452887 0.001328901
10.72273 770.12048 773.607122 688.772979 0.001298498
10.73153 798.11432 804.09686 689.093887 0.001252953
10.74034 838.62567 848.804708 689.415574 0.001192427
10.74915 898.9707 910.095575 689.738111 0.001112383
10.75795 983.42328 985.743327 690.061497 0.001016856
10.76676 1075.8353 1062.337856 690.385658 0.00092951
10.77557 1140.2834 1109.323069 690.710629 0.000876975
10.78438 1127.3185 1097.399298 691.036409 0.000887061
10.79318 1052.3199 1035.422944 691.362996 0.000950281
10.80199 954.24512 957.898417 691.690425 0.001047949
10.81080 873.74927 888.700328 692.018621 0.001144493
10.81960 816.81323 835.715388 692.347619 0.00122427
10.82841 784.69775 798.820173 692.677418 0.001274376
10.83722 763.4978 774.92266 693.008015 0.001309761
10.84602 751.39685 760.381399 693.339409 0.001330855
10.85483 743.95935 752.21694 693.671636 0.001344159
10.86364 741.19379 748.56311 694.004617 0.001349175
10.87245 741.91199 748.668017 694.33839 0.001347869
10.88125 746.54633 752.749754 694.672951 0.001339502
10.89006 755.4444 761.799752 695.008298 0.001323724
10.89887 769.24225 777.279018 695.344468 0.001299981
10.90768 791.65057 800.546588 695.681382 0.001263184
10.91648 822.3006 831.705709 696.019075 0.0012161
10.92529 859.6156 867.539358 696.357546 0.001163311
10.93410 893.42572 899.262555 696.696791 0.001119287
10.94290 908.41675 913.804543 697.036808 0.001100816
10.95171 898.32257 902.371142 697.377634 0.001113186
10.96052 867.60767 870.601659 697.719188 0.001152595
10.96933 828.5401 832.750037 698.061507 0.001206942
10.97813 795.81812 798.979553 698.404587 0.001256569
10.98694 771.4754 772.924144 698.748426 0.001296218
10.99575 755.01111 754.519597 699.09306 0.001324484
11.00455 743.74261 742.299863 699.438408 0.001344551
11.01336 736.79596 734.556385 699.784506 0.001357228
11.02217 732.83118 729.894755 700.131351 0.001364571
11.03098 730.0235 727.417939 700.47894 0.001369819
11.03978 728.93134 726.688869 700.827271 0.001371871
11.04859 728.70856 727.575176 701.176378 0.001372291
11.05740 729.76965 730.040456 701.526181 0.001370295
11.06621 732.01776 733.895212 701.876715 0.001366087
11.07501 735.33533 738.358816 702.227977 0.001359924
11.08382 736.85999 741.56393 702.579964 0.00135711
11.09263 736.78979 741.230253 702.932712 0.001357239
11.10143 733.89301 737.191404 703.286138 0.001362596
11.11024 729.93353 731.579067 703.640279 0.001369988
11.11905 726.69604 726.290962 703.99513 0.001376091
11.12786 725.13232 722.091722 704.350688 0.001379059
11.13666 723.72235 719.06806 704.70695 0.001381745
11.14547 721.95667 717.037321 705.063952 0.001385125
11.15428 720.61731 715.741894 705.42161 0.001387699
11.16308 720.18994 714.943859 705.77996 0.001388523
11.17189 719.51117 714.467043 706.138999 0.001389832
11.18070 719.30841 714.197833 706.498722 0.001390224
11.18951 719.69672 714.069421 706.859167 0.001389474
11.19831 719.255 714.044555 707.220248 0.001390327
11.20712 718.60333 714.102401 707.582001 0.001391588
11.21593 718.11786 714.233649 707.944424 0.001392529
11.22473 718.56659 714.429552 708.307511 0.001391659
11.23354 718.30957 714.694206 708.671259 0.001392157
11.24235 718.68085 715.03862 709.035704 0.001391438
11.25116 719.44128 715.491086 709.400761 0.001389968
11.25996 720.03424 716.087534 709.766465 0.001388823
11.26877 720.94843 716.895988 710.132813 0.001387062
11.27758 721.76843 717.995649 710.499758 0.001385486
11.28638 722.94897 719.455258 710.867422 0.001383223
11.29519 723.75012 721.293829 711.235675 0.001381692
11.30400 725.16797 723.384939 711.604554 0.001378991
11.31281 725.45416 725.298958 711.974055 0.001378447
11.32161 726.89368 726.309076 712.344173 0.001375717
11.33042 726.69067 726.041852 712.714946 0.001376101
11.33923 726.22418 724.994939 713.086285 0.001376985
11.34803 725.53821 723.91447 713.458227 0.001378287
11.35684 725.69824 723.234657 713.830768 0.001377983
11.36565 725.56866 723.123374 714.203903 0.001378229
11.37445 725.93671 723.629234 714.577628 0.001377531
11.38326 727.81104 724.741464 714.95198 0.001373983
11.39207 730.5163 726.380252 715.326869 0.001368895
11.40088 732.6123 728.315732 715.702334 0.001364978
11.40968 733.02612 730.033397 716.078369 0.001364208
11.41849 733.05591 730.86547 716.454969 0.001364152
11.42730 732.85803 730.632161 716.832172 0.001364521
11.43611 732.34283 729.811824 717.209889 0.001365481
11.44491 732.2041 728.963262 717.588156 0.001365739
11.45372 732.78589 728.430178 717.966968 0.001364655
11.46253 733.54797 728.361313 718.346322 0.001363237
11.47133 734.83685 728.803387 718.72621 0.001360846
11.48014 736.70648 729.798628 719.106673 0.001357393
11.48895 738.84045 731.457085 719.487618 0.001353472
11.49776 742.10175 734.022064 719.869083 0.001347524
11.50656 746.72046 737.902859 720.251063 0.001339189
11.51537 752.61792 743.650882 720.633554 0.001328695
11.52418 760.31091 751.83277 721.016592 0.001315251
11.53299 768.18408 762.760398 721.400087 0.001301771
11.54179 777.31317 775.975866 721.784076 0.001286483
11.55060 785.88855 789.1999 722.168554 0.001272445
11.55941 791.68695 797.48914 722.553516 0.001263126
11.56821 790.39575 796.124664 722.938956 0.001265189
11.57702 782.55768 786.296911 723.324913 0.001277861
11.58583 772.9389 773.492354 723.711294 0.001293763
11.59464 763.70166 761.772608 724.098138 0.001309412
11.60344 756.42865 752.642671 724.485438 0.001322002
11.61225 752.00641 746.210255 724.87319 0.001329776
11.62106 749.02972 742.02788 725.261433 0.001335061
11.62986 745.77289 739.511512 725.650072 0.001340891
11.63867 743.81104 738.143577 726.039146 0.001344427
11.64748 743.41022 737.565846 726.42865 0.001345152
11.65629 743.48035 737.591051 726.818578 0.001345025
11.66509 743.34607 738.173578 727.208925 0.001345268
11.67390 744.07031 739.364487 727.599729 0.001343959
11.68271 745.79718 741.263675 727.990897 0.001340847
11.69151 748.7218 743.951195 728.382467 0.00133561
11.70032 752.67767 747.37768 728.774433 0.00132859
11.70913 756.93927 751.155027 729.16679 0.00132111
11.71794 760.59833 754.317386 729.559577 0.001314754
11.72674 761.93903 755.736543 729.952699 0.001312441
11.73555 761.25433 755.497616 730.346195 0.001313621
11.74436 758.92163 755.020228 730.740059 0.001317659
11.75316 757.90674 755.661092 731.134286 0.001319424
11.76197 758.50995 758.051942 731.528871 0.001318374
11.77078 760.77222 762.129449 731.923851 0.001314454
11.77959 763.33008 766.956847 732.319132 0.001310049
11.78839 765.1394 770.40176 732.714753 0.001306951
11.79720 765.23615 770.149416 733.110708 0.001306786
11.80601 763.58911 766.194056 733.506992 0.001309605
11.81481 760.08063 760.720348 733.903599 0.00131565
11.82362 756.10791 755.613659 734.300522 0.001322563
11.83243 753.24426 751.651125 734.697757 0.001327591
11.84123 752.09161 748.946422 735.095298 0.001329625
11.85004 750.48615 747.331097 735.493138 0.00133247
11.85885 749.8299 746.54114 735.891318 0.001333636
11.86766 750.15759 746.304491 736.289741 0.001333053
11.87646 750.55103 746.369437 736.688446 0.001332354
11.88527 750.63043 746.553199 737.087428 0.001332214
11.89408 750.30933 746.807291 737.486681 0.001332784
11.90288 750.49219 747.177664 737.886199 0.001332459
11.91169 751.1806 747.713133 738.286022 0.001331238
11.92050 751.75867 748.441852 738.686053 0.001330214
11.92931 752.92719 749.385435 739.086332 0.00132815
11.93811 754.52118 750.573537 739.486853 0.001325344
11.94692 756.36456 752.05663 739.887611 0.001322114
11.95573 757.77844 753.922787 740.288644 0.001319647
11.96454 760.24689 756.319253 740.689856 0.001315362
11.97334 764.24768 759.485774 741.091287 0.001308476
11.98215 769.33447 763.798906 741.492932 0.001299825
11.99096 775.39331 769.822152 741.894783 0.001289668
11.99976 783.43512 778.323515 742.296836 0.00127643
12.00857 794.25983 790.177152 742.699131 0.001259034
12.01738 808.03033 806.055565 743.101569 0.001237577
12.02619 826.68762 826.167189 743.504192 0.001209647
12.03499 849.25751 850.251051 743.906993 0.001177499
12.04380 874.9895 876.557676 744.309967 0.001142871
12.05261 897.34161 898.758628 744.713153 0.001114403
12.06142 905.41486 906.200541 745.116454 0.001104466
12.07022 893.146 893.729614 745.519911 0.001119638
12.07903 867.37897 868.644363 745.923517 0.001152899
12.08784 839.36713 841.635794 746.327267 0.001191374
12.09664 817.77399 818.660835 746.731155 0.001222832
12.10545 802.27673 801.45217 747.135221 0.001246453
12.11426 791.42773 789.764839 747.539367 0.001263539
12.12307 784.59552 782.65735 747.943635 0.001274542
12.13187 781.72406 779.164021 748.348018 0.001279224
12.14068 780.08722 778.63592 748.752509 0.001281908
12.14949 779.94824 780.841349 749.157151 0.001282136
12.15829 782.7984 785.873618 749.561845 0.001277468
12.16710 789.25012 793.898945 749.966631 0.001267025
12.17591 798.53125 804.74738 750.371503 0.001252299
12.18472 809.37537 817.174495 750.776457 0.001235521
12.19352 818.76025 827.81831 751.181485 0.001221359
12.20233 822.22302 831.732777 751.58663 0.001216215
12.21114 819.18762 826.966695 751.991792 0.001220722
12.21994 810.9978 817.018488 752.397013 0.001233049
12.22875 803.02014 806.279403 752.802287 0.001245299
12.23756 796.24762 796.635723 753.207608 0.001255891
12.24637 789.91656 788.272495 753.613017 0.001265956
12.25517 783.63446 781.279847 754.018415 0.001276105
12.26398 778.78259 775.849718 754.423845 0.001284055
12.27279 775.06433 771.933273 754.829299 0.001290215
12.28159 772.59979 769.257903 755.234773 0.001294331
12.29040 770.41638 767.532529 755.640261 0.001297999
12.29921 769.36157 766.514906 756.045803 0.001299779
12.30802 768.68713 766.021917 756.451302 0.001300919
12.31682 767.97363 765.905383 756.856799 0.001302128
12.32563 768.03882 766.013058 757.262288 0.001302018
12.33444 768.15094 766.142079 757.667763 0.001301827
12.34324 767.92371 766.097166 758.073266 0.001302213
12.35205 766.54694 765.832642 758.478652 0.001304552
12.36086 766.09949 765.486572 758.884055 0.001305313
12.36966 765.54034 765.196715 759.289423 0.001306267
12.37847 765.09277 765.017874 759.694751 0.001307031
12.38728 765.22614 764.971073 760.10008 0.001306803
12.39609 765.03314 765.036785 760.505311 0.001307133
12.40489 765.14948 765.195106 760.910487 0.001306934
12.41370 766.1449 765.425762 761.3156 0.001305236
12.42251 766.71338 765.71468 761.720648 0.001304268
12.43131 766.73828 766.053744 762.125623 0.001304226
12.44012 767.0564 766.442126 762.530567 0.001303685
12.44893 767.65228 766.884865 762.935383 0.001302673
12.45774 768.70386 767.399978 763.340112 0.001300891
12.46654 770.17542 768.015511 763.744748 0.001298405
12.47535 771.22717 768.782957 764.149286 0.001296635
12.48416 771.56378 769.773568 764.553768 0.001296069
12.49297 772.41113 771.071791 764.958095 0.001294647
12.50177 773.72327 772.755279 765.36231 0.001292452
12.51058 775.52209 774.852322 765.766406 0.001289454
12.51939 777.6759 777.260978 766.17038 0.001285883
12.52819 780.49084 779.601433 766.574226 0.001281245
12.53700 782.22491 781.132856 766.977985 0.001278405
12.54581 782.03888 781.214597 767.38156 0.001278709
12.55462 781.26685 780.055951 767.784992 0.001279972
12.56342 780.50189 778.447099 768.188276 0.001281227
12.57223 779.23157 776.989321 768.591408 0.001283316
12.58104 777.76636 775.925177 768.994429 0.001285733
12.58985 777.13165 775.293718 769.397241 0.001286783
12.59865 776.56702 775.03828 769.799887 0.001287719
12.60746 776.80066 775.109959 770.20236 0.001287332
12.61627 777.95923 775.436046 770.604658 0.001285414
12.62507 778.40411 775.974567 771.006774 0.00128468
12.63388 778.54614 776.707918 771.40875 0.001284445
12.64269 779.08368 777.627362 771.810489 0.001283559
12.65150 779.57373 778.761221 772.212034 0.001282752
12.66030 779.87921 780.043646 772.613379 0.00128225
12.66911 780.9649 781.309288 773.014519 0.001280467
12.67792 782.09979 782.312323 773.415496 0.001278609
12.68672 783.66052 782.985269 773.816215 0.001276063
12.69553 784.06415 783.622134 774.216715 0.001275406
12.70434 784.26294 784.651547 774.616993 0.001275083
12.71315 785.52441 786.405375 775.017044 0.001273035
12.72195 788.05103 789.073024 775.416864 0.001268953
12.73076 791.36774 792.666242 775.816494 0.001263635
12.73957 794.61987 796.872042 776.215838 0.001258463
12.74837 797.93433 800.767532 776.614938 0.001253236
12.75718 799.58063 802.803481 777.01379 0.001250656
12.76599 799.27728 801.945277 777.412388 0.00125113
12.77480 796.4906 798.899523 777.810775 0.001255508
12.78360 793.46344 795.212103 778.208856 0.001260298
12.79241 790.47345 791.918137 778.606671 0.001265065
12.80122 788.60498 789.396989 779.004216 0.001268062
12.81002 787.79749 787.675481 779.401488 0.001269362
12.81883 786.99292 786.635514 779.798482 0.001270659
12.82764 786.40735 786.120522 780.195239 0.001271606
12.83645 786.41382 785.991644 780.591666 0.001271595
12.84525 786.95685 786.155528 780.987802 0.001270718
12.85406 788.07721 786.563213 781.383645 0.001268911
12.86287 788.71204 787.20352 781.77919 0.00126789
12.87167 788.86157 788.069964 782.174479 0.00126765
12.88048 789.80853 789.144983 782.569417 0.00126613
12.88929 790.78064 790.337181 782.964001 0.001264573
12.89809 791.87927 791.420199 783.358317 0.001262819
12.90690 792.6333 792.060914 783.752316 0.001261617
12.91571 792.27515 792.095331 784.145994 0.001262188
12.92452 791.5976 791.728025 784.539393 0.001263268
12.93332 790.95917 791.282846 784.932419 0.001264288
12.94213 790.33069 790.954944 785.325113 0.001265293
12.95094 790.34271 790.80954 785.717472 0.001265274
12.95974 790.78259 790.846132 786.109493 0.00126457
12.96855 790.82269 791.037972 786.501216 0.001264506
12.97736 790.89459 791.349513 786.892548 0.001264391
12.98617 791.58954 791.752431 787.283531 0.001263281
12.99497 792.08563 792.222171 787.674161 0.00126249
13.00378 791.60217 792.747504 788.064436 0.001263261
13.01259 791.74817 793.322016 788.454395 0.001263028
13.02140 792.20081 793.94537 788.843946 0.001262306
13.03020 793.5578 794.620683 789.233132 0.001260148
13.03901 794.12769 795.354066 789.621948 0.001259243
13.04782 794.31854 796.154542 790.010392 0.001258941
13.05662 794.89722 797.034696 790.39846 0.001258024
13.06543 796.62561 798.011376 790.786192 0.001255295
13.07424 797.80847 799.107333 791.173499 0.001253434
13.08305 798.7887 800.354367 791.56042 0.001251896
13.09185 799.96881 801.798773 791.946953 0.001250049
13.10066 802.57855 803.512365 792.333095 0.001245984
13.10947 805.09076 805.614775 792.718885 0.001242096
13.11828 807.98743 808.307374 793.104235 0.001237643
13.12708 812.43561 811.92909 793.489185 0.001230867
13.13589 818.83142 817.008396 793.873731 0.001221253
13.14470 825.79059 824.288526 794.257871 0.001210961
13.15350 835.16827 834.667237 794.641602 0.001197363
13.16231 848.26849 849.015479 795.024966 0.001178872
13.17112 867.47137 867.789126 795.407871 0.001152776
13.17993 892.94269 890.363901 795.790359 0.001119893
13.18873 920.7572 913.688788 796.172427 0.001086063
13.19754 940.75635 930.910736 796.554073 0.001062974
13.20635 940.50085 933.891301 796.935337 0.001063263
13.21515 921.54523 921.268401 797.316129 0.001085134
13.22396 895.43665 900.18193 797.696492 0.001116774
13.23277 872.24023 878.418282 798.076422 0.001146473
13.24157 855.36688 860.032737 798.455916 0.001169089
13.25038 843.52612 846.222767 798.834973 0.0011855
13.25919 835.68488 836.825082 799.213632 0.001196623
13.26800 830.55176 831.188093 799.591806 0.001204019
13.27680 828.5011 828.606438 799.969535 0.001206999
13.28561 828.00549 828.567262 800.346817 0.001207721
13.29442 829.66412 830.816419 800.72365 0.001205307
13.30323 833.5332 835.263074 801.100073 0.001199712
13.31203 839.4353 841.765193 801.476 0.001191277
13.32084 847.09723 849.915193 801.851471 0.001180502
13.32965 856.54437 858.899888 802.226483 0.001167482
13.33845 864.67548 867.063363 802.601036 0.001156503
13.34726 869.28088 871.556351 802.975125 0.001150376
13.35607 867.99536 870.232405 803.348793 0.00115208
13.36488 861.76398 864.094072 803.721952 0.001160411
13.37368 853.26416 855.758623 804.094642 0.00117197
13.38249 843.69019 847.061197 804.466862 0.001185269
13.39130 835.69116 839.107133 804.83861 0.001196614
13.40010 830.31232 832.624051 805.209926 0.001204366
13.40891 826.17822 827.850052 805.580723 0.001210393
13.41772 822.82111 824.646484 805.951043 0.001215331
13.42652 820.85626 822.739901 806.320841 0.00121824
13.43533 820.42096 821.887293 806.6902 0.001218886
13.44414 820.81757 821.949613 807.059077 0.001218298
13.45295 821.73688 822.918409 807.42751 0.001216935
13.46175 823.68036 824.904215 807.795415 0.001214063
13.47056 826.88721 828.087346 808.162833 0.001209355
13.47937 831.66852 832.633473 808.529761 0.001202402
13.48818 838.10004 838.545065 808.896198 0.001193175
13.49698 845.66797 845.401616 809.262184 0.001182497
13.50579 853.19635 851.916708 809.627635 0.001172063
13.51460 858.37335 855.781719 809.99259 0.001164994
13.52340 859.0979 855.075879 810.357048 0.001164012
13.53221 854.17883 850.390328 810.721009 0.001170715
13.54102 846.51978 844.098663 811.08447 0.001181307
13.54983 839.26501 838.12665 811.447472 0.001191519
13.55863 833.23456 833.328518 811.80993 0.001200142
13.56744 829.72577 829.889347 812.171885 0.001205217
13.57625 827.86749 827.690631 812.533336 0.001207923
13.58505 827.05322 826.501589 812.894281 0.001209112
13.59386 826.93176 826.087949 813.25476 0.00120929
13.60267 827.23578 826.262211 813.61469 0.001208845
13.61148 827.94806 826.913731 813.974112 0.001207805
13.62028 830.09875 828.017402 814.333024 0.001204676
13.62909 832.8371 829.661573 814.691424 0.001200715
13.63790 836.31873 832.077105 815.049313 0.001195716
13.64671 839.60767 835.641783 815.406729 0.001191032
13.65551 843.76056 840.856116 815.763591 0.00118517
13.66432 849.78113 848.284897 816.119938 0.001176774
13.67313 857.56458 858.414284 816.47577 0.001166093
13.68193 865.85083 871.384437 816.831085 0.001154933
13.69074 875.61066 886.470188 817.185924 0.00114206
13.69955 885.25641 901.287867 817.540204 0.001129616
13.70835 893.47424 911.601773 817.893965 0.001119226
13.71716 897.07001 913.403591 818.247207 0.00111474
13.72597 894.34766 906.109332 818.599929 0.001118133
13.73478 886.65417 893.032217 818.952131 0.001127835
13.74358 876.9574 878.652424 819.303851 0.001140306
13.75239 868.46747 865.967448 819.655009 0.001151454
13.76120 861.79974 856.15399 820.005645 0.001160362
13.77000 856.56122 849.347352 820.355758 0.001167459
13.77881 852.82904 845.254361 820.705347 0.001172568
13.78762 850.32233 843.471774 821.054452 0.001176025
13.79643 849.3891 843.633816 821.402994 0.001177317
13.80523 849.60797 845.431305 821.75101 0.001177013
13.81404 850.48096 848.518605 822.098501 0.001175805
13.82285 851.40582 852.300275 822.445467 0.001174528
13.83166 851.53973 855.617425 822.791947 0.001174343
13.84046 850.72974 856.855872 823.13786 0.001175461
13.84927 849.25397 855.150184 823.483248 0.001177504
13.85808 846.45093 851.330142 823.828109 0.001181403
13.86688 843.47052 846.923221 824.172443 0.001185578
13.87569 840.2251 842.946948 824.516251 0.001190157
13.88450 838.15906 839.795248 824.85957 0.001193091
13.89331 836.86676 837.511927 825.202322 0.001194933
13.90211 835.3045 835.982807 825.544548 0.001197168
13.91092 833.15045 835.04173 825.886246 0.001200263
13.91973 831.37115 834.525489 826.227416 0.001202832
13.92854 830.58405 834.302344 826.568098 0.001203972
13.93734 831.12885 834.280536 826.908213 0.001203183
13.94615 831.72278 834.402431 827.247801 0.001202324
13.95496 831.69934 834.635011 827.586862 0.001202358
13.96376 831.42511 834.961772 827.925356 0.001202754
13.97257 831.71527 835.374962 828.263362 0.001202335
13.98138 832.26605 835.875063 828.600879 0.001201539
13.99018 833.78699 836.467626 828.937831 0.001199347
13.99899 834.54999 837.16485 829.274256 0.001198251
14.00780 835.31909 837.987641 829.610154 0.001197147
14.01661 836.28357 838.970633 829.945526 0.001195767
14.02541 837.44043 840.173432 830.28041 0.001194115
14.03422 840.02008 841.695823 830.61473 0.001190448
14.04303 842.85266 843.699268 830.948524 0.001186447
14.05183 845.68915 846.434137 831.281793 0.001182468
14.06064 850.06079 850.246075 831.614538 0.001176386
14.06945 855.99646 855.553555 831.946757 0.001168229
14.07826 863.13239 862.775429 832.27849 0.001158571
14.08706 872.00439 872.180265 832.609662 0.001146783
14.09587 883.69208 883.620062 832.940311 0.001131616
14.10468 897.75012 896.033122 833.270436 0.001113896
14.11348 910.02216 906.88339 833.60004 0.001098874
14.12229 915.74457 912.626393 833.929158 0.001092008
14.13110 912.32562 911.355758 834.257718 0.0010961
14.13991 902.0307 904.721412 834.585757 0.00110861
14.14871 890.1106 896.191959 834.913276 0.001123456
14.15752 881.09131 888.198677 835.240275 0.001134956
14.16633 873.66614 881.332222 835.566755 0.001144602
14.17513 867.19244 875.211764 835.892754 0.001153147
14.18394 863.17468 869.686723 836.218198 0.001158514
14.19275 860.54535 865.094562 836.543124 0.001162054
14.20156 859.23071 861.741143 836.867534 0.001163832
14.21036 858.09125 859.686568 837.191429 0.001165377
14.21917 857.31036 858.867051 837.514845 0.001166439
14.22798 857.7887 859.226546 837.837709 0.001165788
14.23678 859.28033 860.798089 838.16006 0.001163765
14.24559 862.61908 863.736276 838.481899 0.00115926
14.25440 867.30823 868.247854 838.803225 0.001152993
14.26321 873.20886 874.443423 839.12404 0.001145201
14.27201 880.36859 882.138746 839.444381 0.001135888
14.28082 888.92743 890.515229 839.764176 0.001124951
14.28963 896.53967 897.733115 840.083462 0.0011154
14.29843 900.1264 901.432483 840.402241 0.001110955
14.30724 899.85083 900.876345 840.720512 0.001111295
14.31605 896.48291 898.121023 841.038314 0.00111547
14.32486 893.90771 896.145158 841.355574 0.001118684
14.33366 894.04419 897.054845 841.67233 0.001118513
14.34247 897.48871 901.860454 841.988583 0.00111422
14.35128 904.0871 910.651945 842.304333 0.001106088
14.36008 913.46661 922.425037 842.619583 0.001094731
14.36889 923.85858 934.424905 842.934367 0.001082417
14.37770 929.96741 941.891135 843.248617 0.001075306
14.38651 927.1441 940.527667 843.562368 0.001078581
14.39531 916.08716 930.658755 843.875622 0.001091599
14.40412 903.31592 916.670507 844.18838 0.001107032
14.41293 892.26373 902.713311 844.500678 0.001120745
14.42174 883.30469 890.915501 844.812446 0.001132112
14.43054 877.35748 881.911711 845.123722 0.001139786
14.43935 873.24091 875.600307 845.434506 0.001145159
14.44816 870.73651 871.586793 845.744799 0.001148453
14.45696 869.95129 869.424102 846.054602 0.00114949
14.46577 871.40533 868.771917 846.363952 0.001147572
14.47458 872.85455 869.483058 846.672779 0.001145666
14.48339 874.57721 871.627299 846.98112 0.00114341
14.49219 877.85156 875.466275 847.288977 0.001139145
14.50100 883.09271 881.373047 847.596314 0.001132384
14.50981 889.53027 889.700032 847.903239 0.001124189
14.51861 897.31555 900.550896 848.209647 0.001114435
14.52742 906.41644 913.422335 848.515575 0.001103246
14.53623 916.56024 926.557794 848.821024 0.001091036
14.54504 925.04504 936.359508 849.125995 0.001081028
14.55384 927.44452 938.675412 849.430525 0.001078232
14.56265 922.83197 932.566723 849.734544 0.001083621
14.57146 914.42645 921.441887 850.038089 0.001093582
14.58026 905.9845 909.562811 850.341162 0.001103772
14.58907 900.20087 899.517827 850.643762 0.001110863
14.59788 896.39972 892.332073 850.945893 0.001115574
14.60669 893.83209 888.158642 851.247589 0.001118778
14.61549 892.27759 886.675064 851.548783 0.001120727
14.62430 893.80841 887.251083 851.849511 0.001118808
14.63311 895.22839 888.92576 852.149773 0.001117033
14.64191 896.39587 890.730157 852.449572 0.001115579
14.65072 896.60297 892.282593 852.748942 0.001115321
14.65953 897.09766 893.776154 853.047818 0.001114706
14.66834 897.86255 895.117237 853.346233 0.001113756
14.67714 898.55042 895.441866 853.64419 0.001112904
14.68595 896.46191 893.829907 853.94169 0.001115496
14.69476 892.65295 890.519842 854.238734 0.001120256
14.70356 888.95959 886.767806 854.535358 0.001124911
14.71237 886.69965 883.744173 854.831494 0.001127778
14.72118 885.4422 882.078022 855.127179 0.001129379
14.72999 885.46155 881.988782 855.422414 0.001129355
14.73879 886.57166 883.433431 855.717199 0.00112794
14.74760 888.74438 886.115817 856.011571 0.001125183
14.75641 891.80151 889.389486 856.305462 0.001121326
14.76521 894.98389 892.230446 856.598909 0.001117339
14.77402 896.49182 893.607991 856.891913 0.001115459
14.78283 895.96008 893.285846 857.184474 0.001116121
14.79164 894.26074 892.147699 857.476594 0.001118242
14.80044 893.2674 891.44721 857.768309 0.001119486
14.80925 893.77472 892.032781 858.059552 0.00111885
14.81806 895.74615 894.165412 858.350358 0.001116388
14.82686 898.7027 897.522028 858.64073 0.001112715
14.83567 902.03381 901.195659 858.930667 0.001108606
14.84448 904.64575 904.05851 859.220205 0.001105405
14.85329 906.11377 905.501309 859.509279 0.001103614
14.86209 906.75665 905.424732 859.797924 0.001102832
14.87090 904.98718 903.817227 860.08614 0.001104988
14.87971 902.25311 901.133885 860.373929 0.001108336
14.88851 900.1203 898.554857 860.661293 0.001110963
14.89732 900.43597 897.356905 860.948265 0.001110573
14.90613 902.6394 898.445926 861.234782 0.001107862
14.91494 906.59448 902.368777 861.520877 0.001103029
14.92374 913.02588 909.387275 861.806553 0.001095259
14.93255 922.3338 919.392534 862.09181 0.001084206
14.94136 933.9408 931.573512 862.376682 0.001070732
14.95017 946.49866 943.811054 862.661106 0.001056526
14.95897 956.68695 952.422758 862.945115 0.001045274
14.96778 961.48541 953.922348 863.228711 0.001040057
14.97659 958.47894 948.196947 863.511896 0.00104332
14.98539 950.55914 938.220318 863.79467 0.001052012
14.99420 940.07312 926.84488 864.077067 0.001063747
15.00301 927.36646 915.66867 864.359024 0.001078322
15.01182 914.5813 905.691273 864.640575 0.001093397
15.02062 904.44348 897.54591 864.921721 0.001105652
15.02943 896.42413 891.377554 865.202463 0.001115543
15.03824 891.02698 886.974289 865.482803 0.0011223
15.04704 887.33643 883.991384 865.762741 0.001126968
15.05585 884.73901 882.094121 866.042281 0.001130277
15.06466 882.70325 881.020928 866.321421 0.001132884
15.07347 881.85211 880.601597 866.600165 0.001133977
15.08227 881.72144 880.758481 866.878545 0.001134145
15.09108 882.06421 881.495219 867.156498 0.001133704
15.09989 882.49933 882.880204 867.434058 0.001133145
15.10869 884.27405 885.015932 867.711227 0.001130871
15.11750 886.00525 887.99015 867.988005 0.001128661
15.12631 888.94391 891.81808 868.264393 0.00112493
15.13512 892.27631 896.404568 868.540425 0.001120729
15.14392 896.8045 901.454893 868.816038 0.00111507
15.15273 900.53363 906.214345 869.091266 0.001110453
15.16154 903.2525 909.337105 869.36611 0.00110711
15.17034 902.44714 909.647783 869.64057 0.001108098
15.17915 901.05231 907.398802 869.91468 0.001109813
15.18796 898.32129 904.112517 870.188378 0.001113187
15.19677 896.53711 901.274779 870.461697 0.001115403
15.20557 895.23956 899.723552 870.734637 0.001117019
15.21438 894.91608 899.7341 871.0072 0.001117423
15.22319 895.97015 901.151824 871.279388 0.001116109
15.23199 897.23706 903.41853 871.551231 0.001114533
15.24080 899.20868 905.656631 871.82267 0.001112089
15.24961 899.95691 907.018035 872.093737 0.001111164
15.25842 899.23779 906.968278 872.364432 0.001112053
15.26722 898.06281 905.392269 872.634757 0.001113508
15.27603 896.72113 902.805545 872.904744 0.001115174
15.28484 895.31183 900.118513 873.174332 0.001116929
15.29364 894.24518 898.03719 873.443553 0.001118262
15.30245 894.04913 896.823524 873.712409 0.001118507
15.31126 894.88556 896.351936 873.9809 0.001117461
15.32007 896.18854 896.226128 874.249027 0.001115837
15.32887 897.29504 896.034322 874.516822 0.001114461
15.33768 897.77344 895.721378 874.784225 0.001113867
15.34649 898.83942 895.627006 875.051268 0.001112546
15.35529 899.74615 896.17794 875.317951 0.001111425
15.36410 902.00903 897.709843 875.584276 0.001108636
15.37291 905.34955 900.475256 875.850273 0.001104546
15.38172 910.06281 904.64702 876.115884 0.001098825
15.39052 916.11243 910.258108 876.381139 0.001091569
15.39933 922.26166 917.14252 876.64604 0.001084291
15.40814 928.74445 925.081653 876.910587 0.001076722
15.41695 935.54291 933.99439 877.174781 0.001068898
15.42575 942.54437 943.531542 877.438653 0.001060958
15.43456 949.01105 952.169278 877.702144 0.001053729
15.44337 953.34363 957.083239 877.965285 0.00104894
15.45217 953.60901 956.008954 878.228077 0.001048648
15.46098 949.45581 949.512709 878.490521 0.001053235
15.46979 942.27582 940.148673 878.752647 0.00106126
15.47860 934.06201 930.109387 879.014396 0.001070593
15.48740 924.92572 920.663075 879.2758 0.001081168
15.49621 917.12714 912.560966 879.536858 0.001090361
15.50502 911.69141 906.140095 879.797572 0.001096862
15.51382 907.7475 901.371438 880.057943 0.001101628
15.52263 903.53174 898.006295 880.318 0.001106768
15.53144 900.73395 895.73445 880.577686 0.001110206
15.54025 898.71112 894.269523 880.83703 0.001112705
15.54905 897.22687 893.38263 881.096034 0.001114545
15.55786 896.94318 892.907753 881.354698 0.001114898
15.56667 896.97473 892.735224 881.613052 0.001114859
15.57547 896.95813 892.804648 881.871008 0.001114879
15.58428 897.51447 893.097027 882.128656 0.001114188
15.59309 898.58087 893.626201 882.385966 0.001112866
15.60190 899.7887 894.438423 882.64294 0.001111372
15.61070 901.26538 895.620101 882.899607 0.001109551
15.61951 903.92139 897.308859 883.155909 0.001106291
15.62832 907.09375 899.702487 883.411876 0.001102422
15.63712 910.85327 903.053517 883.667508 0.001097872
15.64593 915.87354 907.644868 883.922806 0.001091854
15.65474 921.37848 913.736484 884.177771 0.00108533
15.66355 928.03979 921.454159 884.432432 0.00107754
15.67235 935.03784 930.581853 884.686731 0.001069475
15.68116 942.35785 940.260788 884.940698 0.001061168
15.68997 948.40643 948.864582 885.194334 0.0010544
15.69877 952.81848 954.709061 885.447638 0.001049518
15.70758 953.79498 957.05144 885.70064 0.001048443
15.71639 952.40649 955.75905 885.953283 0.001049972
15.72520 948.91998 950.768743 886.205596 0.00105383
15.73400 943.21783 942.871311 886.457579 0.0010602
15.74281 936.2663 933.889082 886.709232 0.001068072
15.75162 930.67847 925.506251 886.960557 0.001074485
15.76042 925.68323 918.587328 887.211581 0.001080283
15.76923 921.58746 913.35255 887.462248 0.001085084
15.77804 918.34131 909.682968 887.712587 0.00108892
15.78685 916.68909 907.335163 887.962597 0.001090882
15.79565 915.19348 906.04833 888.21228 0.001092665
15.80446 915.01398 905.607006 888.461664 0.001092879
15.81327 915.21692 905.874922 888.710691 0.001092637
15.82207 915.9035 906.812964 888.959391 0.001091818
15.83088 917.75055 908.485512 889.207764 0.001089621
15.83969 920.41901 911.062757 889.45581 0.001086462
15.84850 923.88269 914.812376 889.703529 0.001082389
15.85730 928.90094 920.08123 889.95095 0.001076541
15.86611 935.70612 927.250019 890.198015 0.001068712
15.87492 944.6543 936.653883 890.444753 0.001058588
15.88373 956.53308 948.417667 890.691165 0.001045442
15.89253 971.33698 962.129314 890.93725 0.001029509
15.90134 988.14838 976.49504 891.183036 0.001011994
15.91015 1003.1496 989.644927 891.428467 0.00099686
15.91895 1015.9994 1000.511199 891.673571 0.000984253
15.92776 1025.4436 1009.352369 891.918349 0.000975188
15.93657 1034.5663 1015.884416 892.162799 0.000966589
15.94538 1036.134 1017.925674 892.406923 0.000965126
15.95418 1028.0813 1013.382208 892.650746 0.000972686
15.96299 1008.8729 1003.208578 892.894215 0.000991205
15.97180 990.08868 990.5604 893.137356 0.001010011
15.98060 972.07983 977.736049 893.380169 0.001028722
15.98941 958.24921 965.318747 893.622654 0.00104357
15.99822 946.33936 953.386687 893.864839 0.001056703
16.00702 936.87311 942.452666 894.10664 0.00106738
16.01583 928.75439 933.138957 894.348167 0.001076711
16.02464 922.66479 925.704285 894.58931 0.001083817
16.03345 917.37994 920.030487 894.830179 0.001090061
16.04225 913.84955 915.837306 895.070663 0.001094272
16.05106 911.65369 912.814158 895.3109 0.001096908
16.05987 909.68878 910.687773 895.550723 0.001099277
16.06868 907.90228 909.239263 895.790271 0.00110144
16.07748 906.02209 908.314903 896.029433 0.001103726
16.08629 904.89685 907.821047 896.268318 0.001105098
16.09510 904.86108 907.716892 896.506843 0.001105142
16.10391 905.20111 908.003938 896.745063 0.001104727
16.11271 904.80328 908.701222 896.982896 0.001105213
16.12152 904.95776 909.828016 897.220449 0.001105024
16.13032 905.81677 911.365352 897.457614 0.001103976
16.13913 907.03088 913.20846 897.694499 0.001102498
16.14794 908.42438 915.087534 897.931021 0.001100807
16.15675 910.02527 916.513404 898.167234 0.001098871
16.16555 910.1366 916.942315 898.403058 0.001098736
16.17436 908.8327 916.18734 898.638598 0.001100313
16.18317 907.24261 914.583173 898.873746 0.001102241
16.19198 905.52557 912.666065 899.108637 0.001104331
16.20078 903.90381 910.843469 899.343108 0.001106312
16.20959 903.04077 909.316911 899.577293 0.00110737
16.21840 902.03284 908.147238 899.811084 0.001108607
16.22721 901.09595 907.317013 900.044587 0.00110976
16.23601 900.36896 906.775164 900.277722 0.001110656
16.24482 900.11902 906.459233 900.51054 0.001110964
16.25363 900.50153 906.311066 900.742961 0.001110492
16.26243 900.72455 906.283819 900.975092 0.001110217
16.27124 900.79358 906.343617 901.206824 0.001110132
16.28005 900.85828 906.467478 901.438262 0.001110053
16.28886 900.82379 906.639898 901.669328 0.001110095
16.29766 901.06549 906.849313 901.900071 0.001109797
16.30647 901.40472 907.086199 902.130414 0.00110938
16.31528 901.25201 907.345089 902.360459 0.001109568
16.32408 901.45264 907.626892 902.590101 0.001109321
16.33289 902.03906 907.929598 902.819443 0.001108599
16.34170 903.50256 908.278308 903.048406 0.001106804
16.35051 903.95276 908.672575 903.277042 0.001106252
16.35931 903.14984 909.121813 903.505271 0.001107236
16.36812 903.71576 909.639971 903.733197 0.001106543
16.37693 904.71484 910.247984 903.960713 0.001105321
16.38573 905.79419 910.979127 904.187897 0.001104004
16.39454 906.52539 911.883278 904.414748 0.001103113
16.40335 908.03961 913.030054 904.641188 0.001101274
16.41215 909.87891 914.51037 904.867317 0.001099047
16.42096 911.73138 916.428281 905.093032 0.001096814
16.42977 913.85535 918.889161 905.318461 0.001094265
16.43858 917.18677 921.967736 905.543447 0.00109029
16.44738 920.52905 925.667961 905.768119 0.001086332
16.45619 924.12616 929.825597 905.992372 0.001082103
16.46500 928.09283 934.001692 906.216307 0.001077478
16.47380 931.53296 937.499744 906.439822 0.001073499
16.48261 934.58154 939.77829 906.663042 0.001069998
16.49142 937.16028 940.893063 906.885812 0.001067053
16.50023 939.12952 941.256728 907.10826 0.001064816
16.50903 940.30011 941.077308 907.330282 0.00106349
16.51784 940.54651 940.352196 907.551977 0.001063212
16.52665 941.16095 939.336256 907.77327 0.001062518
16.53546 942.1405 938.701394 907.994208 0.001061413
16.54426 943.65277 939.234115 908.214715 0.001059712
16.55307 945.66376 941.544506 908.43489 0.001057458
16.56188 949.84515 946.038723 908.654631 0.001052803
16.57068 956.92529 952.932296 908.874037 0.001045014
16.57949 965.25098 962.156214 909.093032 0.001036
16.58830 975.02606 973.147284 909.311663 0.001025614
16.59710 984.86365 984.46501 909.529855 0.001015369
16.60591 992.66736 993.617336 909.747705 0.001007387
16.61472 995.68768 998.015486 909.965113 0.001004331
16.62353 995.02557 997.004791 910.182201 0.001004999
16.63233 991.77716 992.253679 910.398819 0.001008291
16.64114 987.31561 985.898058 910.615088 0.001012847
16.64995 981.43793 979.423025 910.83091 0.001018913
16.65876 976.5976 973.953126 911.046379 0.001023963
16.66756 973.01648 970.349858 911.261398 0.001027732
16.67637 971.09198 968.807893 911.476085 0.001029769
16.68518 970.17395 968.645899 911.690294 0.001030743
16.69399 969.47968 968.467948 911.904144 0.001031481
16.70279 967.1322 966.81224 912.117536 0.001033985
16.71160 962.73425 962.948596 912.330566 0.001038708
16.72041 956.49066 957.210676 912.543159 0.001045489
16.72921 949.51086 950.626394 912.755362 0.001053174
16.73802 943.50629 944.23138 912.967101 0.001059876
16.74683 938.64111 938.65366 913.17847 0.00106537
16.75563 934.36627 934.132311 913.389372 0.001070244
16.76444 930.64319 930.656713 913.599899 0.001074526
16.77325 927.80688 928.096827 913.80998 0.001077811
16.78206 926.58844 926.275578 914.01966 0.001079228
16.79086 925.11084 925.017024 914.228865 0.001080952
16.79967 923.70374 924.169908 914.437688 0.001082598
16.80848 922.72021 923.619587 914.646034 0.001083752
16.81729 922.2218 923.286272 914.854018 0.001084338
16.82609 922.06976 923.120858 915.061497 0.001084517
16.83490 921.76825 923.098292 915.268586 0.001084871
16.84371 922.08765 923.213611 915.47519 0.001084496
16.85251 922.11688 923.480197 915.681401 0.001084461
16.86132 922.4173 923.929139 915.887123 0.001084108
16.87013 924.1571 924.608547 916.092471 0.001082067
16.87893 926.16345 925.578002 916.297304 0.001079723
16.88774 927.47919 926.900153 916.501734 0.001078191
16.89655 929.34601 928.621152 916.705668 0.001076025
16.90536 931.77399 930.746277 916.909196 0.001073222
16.91416 935.23767 933.192122 917.112248 0.001069247
16.92297 938.93958 935.712919 917.31482 0.001065031
16.93178 941.83612 937.834743 917.51698 0.001061756
16.94058 942.979 938.959699 917.718634 0.001060469
16.94939 942.11566 938.763758 917.919872 0.001061441
16.95820 939.69763 937.481006 918.120622 0.001064172
16.96701 936.48828 935.658901 918.320929 0.001067819
16.97581 933.57245 933.781341 918.520722 0.001071154
16.98462 931.73669 932.14284 918.72009 0.001073265
16.99343 930.05414 930.882011 918.91894 0.001075206
17.00223 928.95502 930.033642 919.117361 0.001076478
17.01104 929.35046 929.574699 919.315282 0.00107602
17.01985 930.05597 929.456901 919.512746 0.001075204
17.02866 930.64197 929.631207 919.709685 0.001074527
17.03746 931.45892 930.062287 919.906185 0.001073585
17.04627 932.37079 930.737342 920.102155 0.001072535
17.05508 933.6283 931.672477 920.297704 0.00107109
17.06388 934.05463 932.913255 920.492697 0.001070601
17.07269 935.55682 934.538118 920.687243 0.001068882
17.08150 938.30719 936.653694 920.88125 0.001065749
17.09031 941.3479 939.392456 921.074804 0.001062307
17.09911 945.10437 942.89659 921.267817 0.001058084
17.10792 949.40631 947.300799 921.460394 0.00105329
17.11673 954.48865 952.674414 921.652403 0.001047681
17.12554 959.98352 958.955454 921.84395 0.001041685
17.13434 966.38849 965.892966 922.034947 0.001034781
17.14315 973.70294 973.211661 922.225477 0.001027007
17.15196 982.12079 980.913167 922.415474 0.001018205
17.16077 991.05792 989.263731 922.604978 0.001009023
17.16957 1000.3105 998.381052 922.793923 0.00099969
17.17838 1010.3293 1008.125328 922.982393 0.000989776
17.18718 1019.4396 1018.420995 923.170299 0.000980931
17.19599 1028.8314 1029.492859 923.357724 0.000971977
17.20480 1037.3547 1041.317229 923.544603 0.00096399
17.21361 1046.5052 1052.586408 923.730975 0.000955561
17.22241 1053.2079 1060.330028 923.916776 0.00094948
17.23122 1054.4662 1061.225255 924.102086 0.000948347
17.24003 1048.675 1053.911122 924.28682 0.000953584
17.24884 1036.3522 1040.158251 924.47108 0.000964923
17.25764 1021.899 1023.696221 924.654738 0.00097857
17.26645 1008.2324 1007.941806 924.837897 0.000991835
17.27526 997.18054 994.92844 925.020471 0.001002827
17.28406 989.81494 985.449813 925.20254 0.00101029
17.29287 985.56329 979.52815 925.38402 0.001014648
17.30168 983.49878 976.672851 925.565011 0.001016778
17.31049 981.90894 975.966808 925.745388 0.001018424
17.31929 981.87451 976.068462 925.92525 0.00101846
17.32810 980.83875 975.446327 926.104515 0.001019536
17.33691 977.91675 973.132439 926.283261 0.001022582
17.34571 972.37115 969.341703 926.461424 0.001028414
17.35452 968.00244 965.069918 926.639043 0.001033055
17.36333 964.19037 961.274563 926.816056 0.00103714
17.37214 961.22223 958.526491 926.99254 0.001040342
17.38094 959.6651 957.082339 927.168413 0.00104203
17.38975 959.74438 956.985393 927.343752 0.001041944
17.39856 960.32898 958.104972 927.518496 0.00104131
17.40737 961.25452 960.15255 927.692681 0.001040307
17.41617 962.07526 962.799494 927.866247 0.00103942
17.42498 964.03339 965.901945 928.039269 0.001037308
17.43379 966.3374 969.516512 928.211668 0.001034835
17.44260 968.32123 973.562747 928.383537 0.001032715
17.45140 970.19312 977.446919 928.554759 0.001030723
17.46021 971.68372 980.036725 928.725389 0.001029141
17.46901 971.85144 980.11988 928.895464 0.001028964
17.47782 969.49731 977.205249 929.064904 0.001031462
17.48663 965.08582 971.957459 929.233783 0.001036177
17.49544 960.69061 965.702419 929.402043 0.001040918
17.50424 956.63165 959.58827 929.569719 0.001045334
17.51305 952.69086 954.260478 929.736751 0.001049658
17.52186 949.71924 949.954135 929.903213 0.001052943
17.53066 946.99933 946.674948 930.069028 0.001055967
17.53947 944.62439 944.309831 930.234287 0.001058622
17.54828 942.94629 942.701109 930.398875 0.001060506
17.55709 942.21326 941.684219 930.562884 0.001061331
17.56589 941.70209 941.117711 930.726236 0.001061907
17.57470 940.73676 940.899356 930.889005 0.001062997
17.58351 940.50531 940.9856 931.051132 0.001063258
17.59232 940.2403 941.384983 931.212651 0.001063558
17.60112 940.93457 942.132337 931.373507 0.001062773
17.60993 941.80194 943.253708 931.533768 0.001061794
17.61874 943.37231 944.73414 931.693361 0.001060027
17.62754 944.72888 946.483418 931.852356 0.001058505
17.63635 946.21265 948.274258 932.010697 0.001056845
17.64516 947.31219 949.701166 932.168416 0.001055618
17.65396 947.54126 950.278676 932.325459 0.001055363
17.66277 946.57581 949.76112 932.481894 0.001056439
17.67158 945.52856 948.363526 932.637649 0.00105761
17.68039 944.05365 946.557406 932.792792 0.001059262
17.68919 942.56659 944.748961 932.947267 0.001060933
17.69800 940.68628 943.16487 933.101109 0.001063054
17.70681 939.36737 941.895367 933.254262 0.001064546
17.71562 938.04736 940.952167 933.406793 0.001066044
17.72442 937.42419 940.307879 933.558633 0.001066753
17.73323 937.3949 939.915985 933.709863 0.001066786
17.74204 937.82953 939.727509 933.860381 0.001066292
17.75085 937.63068 939.697553 934.010268 0.001066518
17.75965 937.64502 939.789281 934.159455 0.001066502
17.76846 938.26703 939.97262 934.308007 0.001065795
17.77727 939.07605 940.21972 934.455873 0.001064876
17.78607 939.3869 940.502683 934.603083 0.001064524
17.79488 939.79694 940.801642 934.749585 0.00106406
17.80369 939.46899 941.122102 934.895444 0.001064431
17.81249 939.88 941.498485 935.040592 0.001063966
17.82130 940.7699 941.977739 935.185092 0.001062959
17.83011 941.6026 942.602406 935.328894 0.001062019
17.83892 942.29456 943.405013 935.472028 0.001061239
17.84772 943.66473 944.403172 935.614444 0.001059698
17.85653 944.91345 945.590986 935.756204 0.001058298
17.86534 946.52179 946.929292 935.897242 0.0010565
17.87415 947.81573 948.362141 936.037636 0.001055057
17.88295 949.65826 949.86378 936.177288 0.00105301
17.89176 951.45764 951.46334 936.316277 0.001051019
17.90057 953.55383 953.179387 936.454537 0.001048708
17.90937 955.9812 954.967323 936.592129 0.001046046
17.91818 958.48492 956.801584 936.728989 0.001043313
17.92699 960.22528 958.805665 936.865193 0.001041422
17.93579 961.90588 961.266998 937.000646 0.001039603
17.94460 965.55975 964.464147 937.135423 0.001035669
17.95341 969.75598 968.481492 937.269462 0.001031187
17.96222 974.23645 973.108425 937.402822 0.001026445
17.97102 977.55945 977.815427 937.535454 0.001022956
17.97983 981.07275 981.932465 937.667389 0.001019292
17.98864 984.40607 984.947359 937.798579 0.001015841
17.99744 987.03485 986.664492 937.929052 0.001013135
18.00625 987.38867 987.185206 938.058837 0.001012772
18.01506 987.43097 986.723769 938.187888 0.001012729
18.02387 987.07886 985.260733 938.316231 0.00101309
18.03267 985.31665 982.570892 938.443823 0.001014902
18.04148 982.26617 978.754247 938.570719 0.001018054
18.05029 978.26923 974.48819 938.69686 0.001022213
18.05909 973.78754 970.624995 938.822302 0.001026918
18.06790 971.21362 967.800875 938.947001 0.00102964
18.07671 970.45007 966.37266 939.070984 0.00103045
18.08552 971.07758 966.518935 939.194206 0.001029784
18.09432 972.33728 968.299227 939.316723 0.00102845
18.10313 974.43835 971.659787 939.438477 0.001026232
18.11194 977.26367 976.378152 939.559522 0.001023265
18.12074 981.60437 981.964767 939.679816 0.00101874
18.12955 986.69623 987.625489 939.799385 0.001013483
18.13836 990.97699 992.381259 939.918185 0.001009105
18.14717 993.05115 995.259671 940.036272 0.001006997
18.15597 992.16052 995.434326 940.153588 0.001007901
18.16478 988.58691 992.597598 940.2702 0.001011545
18.17359 981.67529 987.315999 940.386027 0.001018667
18.18240 974.60065 980.749306 940.501133 0.001026061
18.19120 968.6543 974.042474 940.615465 0.00103236
18.20001 964.09961 967.953141 940.729074 0.001037237
18.20882 960.52032 962.839708 940.84192 0.001041102
18.21763 957.47321 958.775924 940.954027 0.001044416
18.22643 954.78174 955.682991 941.065356 0.00104736
18.23524 952.44421 953.407028 941.175957 0.00104993
18.24404 950.6593 951.77677 941.285778 0.001051902
18.25285 949.64148 950.630879 941.394868 0.001053029
18.26166 948.70233 949.837352 941.50319 0.001054071
18.27047 948.7002 949.29557 941.610765 0.001054074
18.27927 948.81268 948.935474 941.717558 0.001053949
18.28808 947.94714 948.710539 941.823615 0.001054911
18.29689 947.85352 948.591875 941.928888 0.001055015
18.30570 948.50415 948.562404 942.033423 0.001054292
18.31450 948.646 948.613411 942.137184 0.001054134
18.32331 949.15808 948.742111 942.240194 0.001053565
18.33212 949.64795 948.95122 942.342417 0.001053022
18.34092 950.62982 949.24977 942.443898 0.001051934
18.34973 951.55505 949.655012 942.544591 0.001050911
18.35854 952.95361 950.197233 942.644552 0.001049369
18.36735 953.65106 950.924741 942.743712 0.001048602
18.37615 954.83234 951.912176 942.842127 0.001047304
18.38496 956.48621 953.26579 942.939752 0.001045493
18.39377 959.01587 955.127629 943.03663 0.001042736
18.40257 961.72577 957.666862 943.132728 0.001039797
18.41138 965.58215 961.065634 943.228067 0.001035645
18.42019 969.90131 965.479995 943.322614 0.001031033
18.42900 973.76324 970.994405 943.416412 0.001026944
18.43780 978.0437 977.533059 943.509417 0.001022449
18.44661 983.27295 984.733768 943.601672 0.001017012
18.45542 988.1618 991.751614 943.693144 0.00101198
18.46423 992.33771 997.208814 943.783854 0.001007721
18.47303 994.11743 999.634019 943.873771 0.001005917
18.48184 993.29773 998.40962 943.962934 0.001006747
18.49065 990.56091 994.160572 944.051305 0.001009529
18.49945 986.62793 988.139236 944.138921 0.001013553
18.50826 981.30896 981.545775 944.225754 0.001019047
18.51707 976.52899 975.261253 944.311823 0.001024035
18.52587 971.96442 969.822947 944.397098 0.001028844
18.53468 967.70081 965.462225 944.481599 0.001033377
18.54349 964.42285 962.202163 944.565344 0.00103689
18.55230 962.32074 959.945264 944.648306 0.001039155
18.56110 961.49457 958.535424 944.730502 0.001040047
18.56991 960.53156 957.795866 944.811906 0.00104109
18.57872 959.75104 957.541334 944.892553 0.001041937
18.58752 959.37622 957.573853 944.972408 0.001042344
18.59633 958.87628 957.684035 945.051516 0.001042887
18.60514 957.81708 957.703737 945.129822 0.001044041
18.61395 956.9989 957.593663 945.207373 0.001044933
18.62275 957.41644 957.456018 945.284132 0.001044478
18.63156 957.71924 957.441987 945.360135 0.001044147
18.64037 958.43146 957.665154 945.435356 0.001043371
18.64918 959.22858 958.17236 945.509813 0.001042504
18.65798 958.98621 958.938585 945.583481 0.001042768
18.66679 959.35925 959.86812 945.656393 0.001042362
18.67560 961.0213 960.81799 945.728516 0.00104056
18.68440 962.00269 961.665292 945.799885 0.001039498
18.69321 962.4751 962.354093 945.870475 0.001038988
18.70202 963.58777 962.884008 945.940303 0.001037788
18.71082 964.77411 963.317893 946.009344 0.001036512
18.71963 965.5434 963.825335 946.077633 0.001035686
18.72844 967.50677 964.648074 946.145137 0.001033584
18.73725 969.30609 966.003742 946.211889 0.001031666
18.74605 970.74298 968.017667 946.277866 0.001030139
18.75486 972.75397 970.71185 946.343084 0.001028009
18.76367 974.7312 974.039462 946.407522 0.001025924
18.77248 977.94385 977.948844 946.471209 0.001022554
18.78128 981.99847 982.35194 946.534118 0.001018332
18.79009 986.20148 986.977116 946.596285 0.001013992
18.79890 990.14874 991.262213 946.657669 0.001009949
18.80770 993.18921 994.597856 946.718306 0.001006857
18.81651 994.82654 996.76364 946.778168 0.0010052
18.82532 996.93359 998.020301 946.837285 0.001003076
18.83413 999.22046 998.649418 946.895637 0.00100078
18.84293 1000.7825 998.527349 946.953238 0.000999218
18.85174 999.69379 997.249134 947.01007 0.001000306
18.86055 996.43835 994.742763 947.066161 0.001003574
18.86935 992.875 991.603368 947.121485 0.001007176
18.87816 990.25989 988.725208 947.17607 0.001009836
18.88697 987.49591 986.787863 947.229897 0.001012662
18.89578 986.35303 986.052299 947.282981 0.001013836
18.90458 986.08478 986.364703 947.335304 0.001014112
18.91339 987.1983 987.166647 947.386893 0.001012968
18.92220 988.50354 987.563269 947.437724 0.00101163
18.93100 987.8996 986.674715 947.487823 0.001012249
18.93981 985.34277 984.206359 947.537174 0.001014875
18.94862 981.10492 980.618895 947.585789 0.001019259
18.95743 976.17285 976.689948 947.633655 0.001024409
18.96623 972.74146 973.049541 947.680793 0.001028022
18.97504 970.2605 970.07568 947.727185 0.001030651
18.98385 968.81793 967.966782 947.772859 0.001032186
18.99265 968.41211 966.830627 947.817784 0.001032618
19.00146 969.31586 966.731234 947.861989 0.001031655
19.01027 970.60437 967.712996 947.905455 0.001030286
19.01908 972.8006 969.802996 947.948205 0.00102796
19.02788 976.70013 972.993266 947.990224 0.001023856
19.03669 982.25238 977.203522 948.031525 0.001018068
19.04550 989.20197 982.202607 948.072096 0.001010916
19.05431 997.71783 987.497956 948.111957 0.001002287
19.06311 1005.1298 992.196965 948.151092 0.000994896
19.07192 1008.8091 995.106521 948.189512 0.000991268
19.08073 1007.519 995.297169 948.227233 0.000992537
19.08953 1002.4468 992.81977 948.264231 0.000997559
19.09834 995.50232 988.67602 948.300529 0.001004518
19.10715 989.5658 984.08294 948.336112 0.001010544
19.11595 985.05145 979.91293 948.371 0.001015175
19.12476 981.81854 976.614673 948.405183 0.001018518
19.13357 978.96973 974.312241 948.438671 0.001021482
19.14238 976.89154 972.928178 948.471456 0.001023655
19.15118 975.70319 972.29604 948.503553 0.001024902
19.15999 976.15918 972.2682 948.534952 0.001024423
19.16880 976.88232 972.741223 948.56567 0.001023665
19.17760 976.29559 973.585541 948.595697 0.00102428
19.18641 975.74707 974.539742 948.625045 0.001024856
19.19522 975.76294 975.164205 948.653705 0.001024839
19.20403 975.776 974.987171 948.681694 0.001024825
19.21283 974.64685 973.825518 948.709 0.001026013
19.22164 972.73828 971.943948 948.735644 0.001028026
19.23045 970.69244 969.83393 948.761609 0.001030192
19.23926 969.09839 967.905295 948.786912 0.001031887
19.24806 968.41895 966.380159 948.811547 0.001032611
19.25687 967.50006 965.315586 948.835526 0.001033592
19.26568 966.73608 964.64902 948.858841 0.001034408
19.27448 965.97498 964.210237 948.88151 0.001035224
19.28329 965.60162 963.763288 948.903519 0.001035624
19.29210 963.8277 963.119738 948.924885 0.00103753
19.30091 962.25842 962.262056 948.9456 0.001039222
19.30971 961.40088 961.330462 948.965678 0.001040149
19.31852 960.27203 960.506249 948.985114 0.001041372
19.32733 959.69788 959.928942 949.003917 0.001041995
19.33613 959.47192 959.683047 949.022084 0.00104224
19.34494 959.54315 959.824052 949.039626 0.001042163
19.35375 960.06195 960.370998 949.056538 0.001041599
19.36256 960.83038 961.317875 949.072831 0.001040766
19.37136 962.20264 962.622261 949.088505 0.001039282
19.38017 963.8949 964.18445 949.103565 0.001037458
19.38898 965.63971 965.818268 949.11801 0.001035583
19.39778 967.17932 967.258383 949.13185 0.001033934
19.40659 967.53278 968.266729 949.145084 0.001033557
19.41540 967.34308 968.829894 949.157721 0.001033759
19.42421 967.67511 969.218428 949.169756 0.001033405
19.43301 967.87689 969.822336 949.181202 0.001033189
19.44182 968.99036 970.952869 949.192056 0.001032002
19.45063 970.68719 972.761264 949.202326 0.001030198
19.45943 971.87085 975.218928 949.212014 0.001028943
19.46824 974.06702 978.114272 949.221126 0.001026623
19.47705 977.3728 981.041423 949.229662 0.001023151
19.48586 979.86237 983.41685 949.23763 0.001020551
19.49466 981.32141 984.610055 949.24503 0.001019034
19.50347 981.3728 984.277682 949.251871 0.001018981
19.51228 979.77704 982.633184 949.258153 0.00102064
19.52109 976.98926 980.295381 949.263883 0.001023553
19.52989 973.96289 977.873534 949.269063 0.001026733
19.53870 971.21228 975.711141 949.273698 0.001029641
19.54751 969.62329 973.914584 949.277793 0.001031328
19.55631 969.36084 972.449306 949.281351 0.001031608
19.56512 969.63635 971.192768 949.284377 0.001031314
19.57393 969.11115 969.969475 949.286876 0.001031873
19.58273 967.77405 968.673688 949.288851 0.001033299
19.59154 966.80408 967.355055 949.290308 0.001034336
19.60035 965.40582 966.147546 949.29125 0.001035834
19.60916 964.10992 965.136682 949.291682 0.001037226
19.61796 963.32709 964.318921 949.291609 0.001038069
19.62677 962.77515 963.65421 949.291035 0.001038664
19.63558 962.00317 963.129527 949.289965 0.001039498
19.64438 961.43628 962.763741 949.288403 0.001040111
19.65319 960.61792 962.570022 949.286355 0.001040997
19.66200 960.68958 962.551252 949.283824 0.001040919
19.67081 960.99622 962.722247 949.280816 0.001040587
19.67961 961.48779 963.092646 949.277336 0.001040055
19.68842 962.31506 963.612766 949.273387 0.001039161
19.69723 963.26007 964.133958 949.268976 0.001038141
19.70604 963.2467 964.441435 949.264105 0.001038156
19.71484 962.51385 964.375828 949.258783 0.001038946
19.72365 961.38202 963.945319 949.253011 0.001040169
19.73246 960.46771 963.283267 949.246797 0.001041159
19.74126 959.18488 962.514674 949.240143 0.001042552
19.75007 958.22803 961.693812 949.233056 0.001043593
19.75888 957.88763 960.86082 949.22554 0.001043964
19.76769 957.42578 960.101641 949.217602 0.001044467
19.77649 957.27582 959.533808 949.209245 0.001044631
19.78530 957.33582 959.255948 949.200476 0.001044566
19.79411 957.11304 959.320722 949.191297 0.001044809
19.80291 957.47852 959.733205 949.181717 0.00104441
19.81172 959.08606 960.451186 949.171737 0.001042659
19.82053 960.20776 961.373408 949.161367 0.001041441
19.82934 961.32367 962.319363 949.150608 0.001040232
19.83814 962.02826 963.032229 949.13947 0.001039471
19.84695 962.07098 963.268574 949.12795 0.001039424
19.85576 961.8537 962.950891 949.116064 0.001039659
19.86456 960.80518 962.230537 949.103808 0.001040794
19.87337 960.16278 961.37611 949.091195 0.00104149
19.88218 959.84686 960.630767 949.078224 0.001041833
19.89099 959.38562 960.158027 949.064905 0.001042334
19.89979 958.91162 960.046923 949.051238 0.001042849
19.90860 959.01233 960.333681 949.037236 0.001042739
19.91741 959.62189 961.009283 949.022897 0.001042077
19.92621 960.48578 962.016307 949.008233 0.00104114
19.93502 962.42853 963.242472 948.993244 0.001039038
19.94383 964.01105 964.528687 948.977938 0.001037333
19.95264 965.38037 965.72771 948.962319 0.001035861
19.96144 965.93921 966.799041 948.946398 0.001035262
19.97025 966.61859 967.852224 948.930172 0.001034534
19.97906 967.37988 969.064275 948.913655 0.00103372
19.98786 968.54919 970.559392 948.896844 0.001032472
19.99667 969.72296 972.346639 948.879751 0.001031222
20.00548 970.15637 974.345343 948.862378 0.001030762
20.01429 970.95111 976.369585 948.844736 0.001029918
20.02309 971.77753 978.074765 948.826822 0.001029042
20.03190 972.47632 978.996126 948.808651 0.001028303
20.04071 973.38623 978.827048 948.790218 0.001027341
20.04951 973.06342 977.705304 948.77154 0.001027682
20.05832 971.93042 976.14123 948.752613 0.00102888
20.06713 971.08679 974.677131 948.733451 0.001029774
20.07594 971.37634 973.646231 948.714052 0.001029467
20.08474 972.7403 973.117068 948.694428 0.001028024
20.09355 973.75769 972.904704 948.674575 0.00102695
20.10236 974.3136 972.614528 948.654513 0.001026364
20.11117 973.9649 971.791114 948.634234 0.001026731
20.11997 972.13507 970.187697 948.613755 0.001028664
20.12878 969.55139 967.922671 948.593071 0.001031405
20.13759 965.48926 965.345449 948.572194 0.001035744
20.14639 961.5755 962.792076 948.551131 0.00103996
20.15520 958.02502 960.474935 948.529881 0.001043814
20.16401 956.00775 958.491424 948.508457 0.001046017
20.17281 954.81506 956.865006 948.486856 0.001047323
20.18162 954.16498 955.57894 948.465092 0.001048037
20.19043 953.33618 954.594147 948.443163 0.001048948
20.19924 952.16663 953.863569 948.421084 0.001050236
20.20804 951.83496 953.340096 948.398851 0.001050602
20.21685 951.72693 952.983977 948.376477 0.001050722
20.22566 950.39227 952.764903 948.35396 0.001052197
20.23447 949.76599 952.66197 948.331311 0.001052891
20.24327 949.33899 952.660317 948.308531 0.001053365
20.25208 948.80304 952.74706 948.285634 0.00105396
20.26089 949.1626 952.906044 948.262614 0.00105356
20.26969 949.91669 953.111318 948.239488 0.001052724
20.27850 951.33997 953.320958 948.216246 0.001051149
20.28731 952.32513 953.476402 948.192912 0.001050062
20.29612 952.09869 953.519987 948.169475 0.001050311
20.30492 951.6618 953.425796 948.145953 0.001050793
20.31373 951.46393 953.216271 948.12234 0.001051012
20.32254 951.32391 952.947752 948.098651 0.001051167
20.33134 950.5401 952.68229 948.074879 0.001052033
20.34015 950.72296 952.470826 948.051045 0.001051831
20.34896 951.01373 952.350594 948.027139 0.00105151
20.35777 950.68188 952.350842 948.003179 0.001051877
20.36657 950.25696 952.498435 947.979158 0.001052347
20.37538 951.08698 952.820585 947.955089 0.001051429
20.38419 952.04004 953.345029 947.930971 0.001050376
20.39299 952.79449 954.096676 947.906818 0.001049544
20.40180 953.69086 955.092411 947.882624 0.001048558
20.41061 954.94263 956.330394 947.858403 0.001047183
20.41942 955.94421 957.777412 947.83415 0.001046086
20.42822 956.99121 959.342304 947.809878 0.001044942
20.43703 958.57483 960.849311 947.785585 0.001043215
20.44584 959.69177 962.031514 947.761284 0.001042001
20.45464 960.22766 962.613879 947.736969 0.00104142
20.46345 960.06061 962.477633 947.712655 0.001041601
20.47226 959.11133 961.754341 947.688333 0.001042632
20.48107 958.82184 960.726305 947.664022 0.001042947
20.48987 958.81506 959.656028 947.639714 0.001042954
20.49868 958.21771 958.706864 947.615423 0.001043604
20.50749 957.90271 957.953912 947.591143 0.001043947
20.51629 958.21057 957.411925 947.566888 0.001043612
20.52510 958.14032 957.063825 947.542648 0.001043688
20.53391 957.92035 956.862213 947.518444 0.001043928
20.54272 958.05609 956.725586 947.494266 0.00104378
20.55152 957.71942 956.553268 947.470127 0.001044147
20.56033 957.28864 956.274946 947.44602 0.001044617
20.56914 957.42023 955.888755 947.421957 0.001044473
20.57795 956.75238 955.43898 947.397936 0.001045203
20.58675 955.99329 954.967056 947.373968 0.001046032
20.59556 955.86493 954.497672 947.350045 0.001046173
20.60437 955.61993 954.055681 947.326181 0.001046441
20.61317 955.05347 953.672984 947.302367 0.001047062
20.62198 954.91504 953.37988 947.278615 0.001047214
20.63079 954.99182 953.198801 947.254921 0.001047129
20.63959 955.22955 953.148357 947.231297 0.001046869
20.64840 955.64734 953.24969 947.207734 0.001046411
20.65721 956.47083 953.531129 947.184244 0.00104551
20.66602 956.73633 954.030999 947.160816 0.00104522
20.67482 957.35309 954.796276 947.137469 0.001044547
20.68363 958.37054 955.877421 947.114196 0.001043438
20.69244 959.89612 957.318586 947.090993 0.001041779
20.70124 961.90247 959.145188 947.067873 0.001039606
20.71005 964.23291 961.356359 947.044826 0.001037094
20.71886 966.39368 963.912759 947.021861 0.001034775
20.72767 968.94415 966.71854 946.998975 0.001032051
20.73647 972.0011 969.568836 946.976175 0.001028805
20.74528 974.33441 972.101989 946.953452 0.001026342
20.75409 976.74548 973.850732 946.930818 0.001023808
20.76290 977.8739 974.469311 946.908259 0.001022627
20.77170 977.84375 973.970077 946.885792 0.001022658
20.78051 976.49469 972.712335 946.863403 0.001024071
20.78932 974.4386 971.169121 946.841102 0.001026232
20.79812 972.57489 969.730546 946.81888 0.001028198
20.80693 972.54156 968.621656 946.796742 0.001028234
20.81574 972.45563 967.88003 946.774685 0.001028325
20.82455 972.25824 967.359057 946.752713 0.001028533
20.83335 971.81427 966.773165 946.730815 0.001029003
20.84216 971.55475 965.832519 946.709002 0.001029278
20.85097 970.2934 964.428813 946.68726 0.001030616
20.85977 967.91614 962.684645 946.665596 0.001033147
20.86858 965.065 960.841243 946.644003 0.0010362
20.87739 962.96704 959.111404 946.622486 0.001038457
20.88620 961.09918 957.627543 946.601033 0.001040475
20.89500 959.77643 956.457157 946.579651 0.001041909
20.90381 958.6795 955.627074 946.558324 0.001043101
20.91262 958.23981 955.145697 946.537065 0.00104358
20.92142 957.93689 955.013569 946.515857 0.00104391
20.93023 957.45386 955.232183 946.494708 0.001044437
20.93904 956.93677 955.807704 946.473602 0.001045001
20.94785 957.6203 956.748733 946.452546 0.001044255
20.95665 959.32031 958.059555 946.431524 0.001042405
20.96546 960.84393 959.725948 946.410544 0.001040752
20.97427 961.94067 961.71278 946.389591 0.001039565
20.98307 964.46686 963.972755 946.368667 0.001036842
20.99188 967.02954 966.463771 946.347759 0.001034095
21.00069 969.69843 969.120987 946.326867 0.001031248
21.00950 971.91309 971.784542 946.305981 0.001028899
21.01830 974.50897 974.135276 946.285101 0.001026158
21.02711 976.25562 975.707216 946.26421 0.001024322
21.03592 976.08124 976.061682 946.243312 0.001024505
21.04472 974.73407 975.052194 946.222389 0.001025921
21.05353 973.04944 972.913428 946.201441 0.001027697
21.06234 970.22168 970.090939 946.180455 0.001030692
21.07115 966.79004 967.005967 946.159429 0.001034351
21.07995 963.78955 963.964826 946.138345 0.001037571
21.08876 961.08539 961.174193 946.117204 0.00104049
21.09757 958.26599 958.756558 946.095983 0.001043552
21.10637 956.39294 956.767088 946.074689 0.001045595
21.11518 954.72748 955.203378 946.053297 0.001047419
21.12399 953.77081 954.029663 946.031807 0.00104847
21.13280 953.34485 953.193882 946.010199 0.001048938
21.14160 953.34424 952.641792 945.988471 0.001048939
21.15041 953.25262 952.32282 945.966598 0.00104904
21.15922 952.92029 952.194002 945.944583 0.001049406
21.16803 952.79303 952.217791 945.922401 0.001049546
21.17683 952.8277 952.360445 945.900048 0.001049508
21.18564 953.54706 952.590097 945.877502 0.001048716
21.19445 953.8681 952.886126 945.854756 0.001048363
21.20325 954.02667 953.25315 945.83179 0.001048189
21.21206 954.23041 953.722168 945.808596 0.001047965
21.22087 954.72955 954.331619 945.785155 0.001047417
21.22968 954.68658 955.10479 945.761446 0.001047464
21.23848 955.82422 956.028404 945.737459 0.001046217
21.24729 957.16907 957.041788 945.713172 0.001044748
21.25610 958.40704 958.030328 945.688577 0.001043398
21.26490 959.3775 958.849391 945.663645 0.001042343
21.27371 960.02563 959.385486 945.638368 0.001041639
21.28252 960.047 959.62284 945.612715 0.001041616
21.29133 960.56036 959.656693 945.586677 0.001041059
21.30013 961.25806 959.659059 945.560227 0.001040303
21.30894 962.14667 959.826857 945.533354 0.001039343
21.31775 962.18414 960.332959 945.506025 0.001039302
21.32655 961.96588 961.293832 945.47823 0.001039538
21.33536 962.77106 962.758697 945.449933 0.001038669
21.34417 965.41577 964.696368 945.421123 0.001035823
21.35298 968.19244 966.977625 945.391769 0.001032853
21.36178 969.73767 969.352594 945.361857 0.001031207
21.37059 971.07385 971.487689 945.331348 0.001029788
21.37940 972.47076 973.071993 945.300232 0.001028309
21.38820 972.82831 973.956317 945.268464 0.001027931
21.39701 972.67865 974.170452 945.236039 0.001028089
21.40582 972.80444 973.791668 945.202913 0.001027956
21.41463 972.4624 972.815648 945.169071 0.001028317
21.42343 969.91382 971.178513 945.13447 0.001031019
21.43224 967.15662 968.910792 945.099092 0.001033959
21.44105 964.52325 966.221994 945.062899 0.001036782
21.44985 961.22614 963.422144 945.025872 0.001040338
21.45866 958.51422 960.783073 944.987964 0.001043281
21.46747 956.73566 958.474441 944.94916 0.001045221
21.47628 955.01514 956.567594 944.909408 0.001047104
21.48508 954.14703 955.071476 944.868688 0.001048057
21.49389 953.63348 953.957331 944.826957 0.001048621
21.50270 952.76367 953.177371 944.784193 0.001049578
21.51150 951.94525 952.672108 944.740341 0.001050481
21.52031 951.82654 952.376726 944.695384 0.001050612
21.52912 952.19379 952.227857 944.649263 0.001050206
21.53793 952.30768 952.178362 944.601956 0.001050081
21.54673 952.17401 952.21406 944.553412 0.001050228
21.55554 952.46973 952.357854 944.503607 0.001049902
21.56435 952.59424 952.654349 944.452479 0.001049765
21.57315 953.1864 953.151265 944.400007 0.001049113
21.58196 953.59259 953.889451 944.346118 0.001048666
21.59077 954.07715 954.895006 944.290806 0.001048133
21.59958 955.46558 956.18067 944.233995 0.00104661
21.60838 956.8924 957.727283 944.175663 0.00104505
21.61719 958.85089 959.492985 944.115739 0.001042915
21.62600 961.14496 961.424479 944.054193 0.001040426
21.63481 963.59167 963.478456 943.990965 0.001037784
21.64361 965.97156 965.609665 943.926024 0.001035227
21.65242 968.52777 967.763952 943.859292 0.001032495
21.66123 970.74249 969.895175 943.790746 0.001030139
21.67003 973.1759 971.983381 943.720303 0.001027563
21.67884 975.17676 973.971941 943.647932 0.001025455
21.68765 977.61652 975.696432 943.573562 0.001022896
21.69646 979.53461 976.896987 943.497162 0.001020893
21.70526 980.39093 977.325605 943.418639 0.001020001
21.71407 979.52899 976.878716 943.337972 0.001020899
21.72288 977.3363 975.644064 943.255055 0.001023189
21.73168 975.14832 973.816211 943.169882 0.001025485
21.74049 972.60162 971.578556 943.082345 0.00102817
21.74930 969.08234 969.081648 942.99242 0.001031904
21.75810 965.55383 966.464318 942.900022 0.001035675
21.76691 962.81372 963.861016 942.805065 0.001038623
21.77572 960.94153 961.403625 942.707514 0.001040646
21.78453 958.90173 959.221407 942.607277 0.00104286
21.79333 956.61871 957.419826 942.504321 0.001045349
21.80214 955.14191 956.054366 942.398527 0.001046965
21.81095 954.35742 955.127304 942.289872 0.001047825
21.81976 953.92291 954.590339 942.178219 0.001048303
21.82856 952.89764 954.357907 942.063571 0.001049431
21.83737 951.6192 954.320693 941.945786 0.001050841
21.84618 950.96899 954.367719 941.824841 0.001051559
21.85498 950.68799 954.399611 941.700601 0.00105187
21.86379 951.02747 954.313752 941.573027 0.001051494
21.87260 950.95734 954.008121 941.442008 0.001051572
21.88141 950.06421 953.428133 941.307507 0.00105256
21.89021 949.3374 952.617544 941.169377 0.001053366
21.89902 949.10681 951.706042 941.027595 0.001053622
21.90783 947.86072 950.844038 940.882007 0.001055007
21.91663 947.50037 950.156039 940.732573 0.001055409
21.92544 947.66168 949.732289 940.579169 0.001055229
21.93425 947.7251 949.635341 940.421753 0.001055158
21.94306 947.71332 949.909065 940.260161 0.001055171
21.95186 948.11188 950.580473 940.094368 0.001054728
21.96067 948.38342 951.656106 939.924203 0.001054426
21.96948 949.37445 953.113307 939.749622 0.001053325
21.97828 951.71539 954.889479 939.570485 0.001050734
21.98709 954.23724 956.852565 939.38675 0.001047957
21.99590 956.9765 958.7769 939.198229 0.001044958
22.00471 959.16272 960.33612 939.004901 0.001042576
22.01351 960.55017 961.175202 938.806546 0.00104107
22.02232 960.28375 961.057602 938.603191 0.001041359
22.03113 958.82306 959.992695 938.394607 0.001042945
22.03993 957.14276 958.230882 938.180775 0.001044776
22.04874 954.57867 956.138331 937.961481 0.001047583
22.05755 952.95056 954.060499 937.736683 0.001049372
22.06636 951.97528 952.244584 937.506208 0.001050447
22.07516 950.2666 950.83216 937.270014 0.001052336
22.08397 949.12091 949.878726 937.027869 0.001053607
22.09278 949.07758 949.37291 936.779757 0.001053655
22.10159 948.69073 949.242321 936.525438 0.001054084
22.11039 948.27911 949.350131 936.264865 0.001054542
22.11920 948.54364 949.494678 935.997849 0.001054248
22.12801 949.14355 949.437889 935.724345 0.001053581
22.13681 949.06842 948.979272 935.444092 0.001053665
22.14562 948.91626 948.045185 935.157079 0.001053834
22.15443 948.76477 946.707224 934.863034 0.001054002
22.16324 948.31769 945.119448 934.561912 0.001054499
22.17204 947.3869 943.437932 934.253498 0.001055535
22.18085 946.63965 941.785991 933.93775 0.001056368
22.18966 946.26044 940.242579 933.614374 0.001056792
22.19846 945.80933 938.850086 933.283364 0.001057296
22.20727 946.04712 937.619547 932.944373 0
22.21608 946.8194 0 0 0
22.22489 947.93622 0 0 0
22.23369 948.65576 0 0 0
22.24250 948.82172 0 0 0
22.25131 949.97968 0 0 0
22.26011 951.59454 0 0 0
22.26892 952.48511 0 0 0
22.27773 954.16278 0 0 0
22.28654 956.65973 0 0 0
22.29534 958.62262 0 0 0
22.30415 960.61176 0 0 0
22.31296 963.1015 0 0 0
22.32176 965.61383 0 0 0
22.33057 967.70508 0 0 0
22.33938 967.75311 0 0 0
22.34819 966.14368 0 0 0
22.35699 964.60504 0 0 0
22.36580 963.21875 0 0 0
22.37461 961.77954 0 0 0
22.38341 960.55682 0 0 0
22.39222 959.27661 0 0 0
22.40103 958.24237 0 0 0
22.40984 956.98199 0 0 0
22.41864 955.82538 0 0 0
22.42745 954.70221 0 0 0
22.43626 954.58508 0 0 0
22.44506 953.92969 0 0 0
22.45387 953.26593 0 0 0
22.46268 952.9967 0 0 0
22.47149 953.17493 0 0 0
22.48029 953.8042 0 0 0
22.48910 955.14081 0 0 0
22.49791 955.75067 0 0 0
22.50671 956.53125 0 0 0
22.51552 956.95959 0 0 0
22.52433 956.59473 0 0 0
22.53314 955.69385 0 0 0
22.54194 954.13617 0 0 0
22.55075 952.56921 0 0 0
22.55956 951.44122 0 0 0
22.56837 950.41974 0 0 0
22.57717 949.64319 0 0 0
22.58598 949.26843 0 0 0
22.59479 949.13342 0 0 0
22.60359 949.75183 0 0 0
22.61240 949.61334 0 0 0
22.62121 948.65668 0 0 0
22.63001 948.16052 0 0 0
22.63882 947.77673 0 0 0
22.64763 946.93262 0 0 0
22.65644 945.6449 0 0 0
22.66524 943.85822 0 0 0
22.67405 942.7594 0 0 0
22.68286 942.10797 0 0 0
22.69167 942.12378 0 0 0
22.70047 942.53119 0 0 0
22.70928 943.33618 0 0 0
22.71809 943.71875 0 0 0
22.72689 943.52667 0 0 0
22.73570 943.44623 0 0 0
22.74451 943.91058 0 0 0
22.75332 944.73932 0 0 0
22.76212 946.26642 0 0 0
22.77093 946.89825 0 0 0
22.77974 947.40814 0 0 0
22.78854 948.49231 0 0 0
22.79735 949.29736 0 0 0
22.80616 949.78198 0 0 0
22.81497 949.08179 0 0 0
22.82377 948.06555 0 0 0
22.83258 948.12872 0 0 0
22.84139 948.71649 0 0 0
22.85019 948.53876 0 0 0
22.85900 948.86023 0 0 0
22.86781 948.96545 0 0 0
22.87662 948.93219 0 0 0
22.88542 948.93341 0 0 0
22.89423 949.39801 0 0 0
22.90304 949.74976 0 0 0
22.91184 950.26385 0 0 0
22.92065 951.25299 0 0 0
22.92946 951.93414 0 0 0
22.93827 952.31378 0 0 0
22.94707 952.72949 0 0 0
22.95588 952.82007 0 0 0
22.96469 953.86487 0 0 0
22.97349 954.98767 0 0 0
22.98230 953.99194 0 0 0
22.99111 952.49689 0 0 0
22.99992 951.66833 0 0 0
23.00872 951.1756 0 0 0
23.01753 949.67218 0 0 0
23.02634 947.8302 0 0 0
23.03514 947.07098 0 0 0
23.04395 947.64038 0 0 0
23.05276 947.7243 0 0 0
23.06157 947.24182 0 0 0
23.07037 946.93384 0 0 0
23.07918 947.5874 0 0 0
23.08799 948.02014 0 0 0
23.09679 948.49713 0 0 0
23.10560 948.68304 0 0 0
23.11441 949.25024 0 0 0
23.12322 950.20703 0 0 0
23.13202 950.61713 0 0 0
23.14083 950.62268 0 0 0
23.14964 951.02606 0 0 0
23.15845 950.98663 0 0 0
23.16725 950.37274 0 0 0
23.17606 948.62775 0 0 0
23.18487 946.32916 0 0 0
23.19367 944.91217 0 0 0
23.20248 943.26764 0 0 0
23.21129 941.96313 0 0 0
23.22010 940.69281 0 0 0
23.22890 940.17407 0 0 0
23.23771 939.02338 0 0 0
23.24652 937.62988 0 0 0
23.25532 936.73914 0 0 0
23.26413 936.86017 0 0 0
23.27294 936.82629 0 0 0
23.28175 936.42499 0 0 0
23.29055 936.0741 0 0 0
23.29936 936.14996 0 0 0
23.30817 936.12085 0 0 0
23.31697 936.23279 0 0 0
23.32578 936.22302 0 0 0
23.33459 936.53497 0 0 0
23.34340 936.47455 0 0 0
23.35220 935.92944 0 0 0
23.36101 935.802 0 0 0
23.36982 936.31366 0 0 0
23.37862 936.56476 0 0 0
23.38743 937.47876 0 0 0
23.39624 939.3587 0 0 0
23.40505 940.23334 0 0 0
23.41385 941.16498 0 0 0
23.42266 941.87799 0 0 0
23.43147 942.8111 0 0 0
23.44027 942.96271 0 0 0
23.44908 942.66339 0 0 0
23.45789 942.19507 0 0 0
23.46670 941.87793 0 0 0
23.47550 941.81287 0 0 0
23.48431 943.25714 0 0 0
23.49312 945.26013 0 0 0
23.50192 945.0957 0 0 0
23.51073 944.82269 0 0 0
23.51954 945.21387 0 0 0
23.52835 944.31256 0 0 0
23.53715 943.91046 0 0 0
23.54596 944.75696 0 0 0
23.55477 945.67566 0 0 0
23.56357 946.39447 0 0 0
23.57238 947.39661 0 0 0
23.58119 949.88928 0 0 0
23.59000 951.93585 0 0 0
23.59880 953.25885 0 0 0
23.60761 956.06665 0 0 0
23.61642 959.3916 0 0 0
23.62523 960.99756 0 0 0
23.63403 961.44434 0 0 0
23.64284 960.43134 0 0 0
23.65165 958.13953 0 0 0
23.66045 956.01929 0 0 0
23.66926 953.31622 0 0 0
23.67807 950.23578 0 0 0
23.68687 948.59729 0 0 0
23.69568 947.35522 0 0 0
23.70449 946.37305 0 0 0
23.71330 945.14697 0 0 0
23.72210 943.02478 0 0 0
23.73091 942.40442 0 0 0
23.73972 942.328 0 0 0
23.74853 941.98761 0 0 0
23.75733 942.33984 0 0 0
23.76614 943.76459 0 0 0
23.77495 944.47784 0 0 0
23.78375 944.02325 0 0 0
23.79256 945.10071 0 0 0
23.80137 947.16376 0 0 0
23.81018 948.58832 0 0 0
23.81898 949.20404 0 0 0
23.82779 949.84479 0 0 0
23.83660 949.78979 0 0 0
23.84540 948.50983 0 0 0
23.85421 947.15753 0 0 0
23.86302 946.67444 0 0 0
23.87183 945.32172 0 0 0
23.88063 943.45209 0 0 0
23.88944 942.69507 0 0 0
23.89825 941.90552 0 0 0
23.90705 939.9613 0 0 0
23.91586 938.29462 0 0 0
23.92467 937.2027 0 0 0
23.93348 936.12634 0 0 0
23.94228 935.69904 0 0 0
23.95109 935.54742 0 0 0
23.95990 934.85291 0 0 0
23.96870 933.63367 0 0 0
23.97751 932.4151 0 0 0
23.98632 931.56543 0 0 0
23.99513 931.22699 0 0 0
24.00393 930.73016 0 0 0
24.01274 930.71802 0 0 0
24.02155 929.79498 0 0 0
24.03035 929.8681 0 0 0
24.03916 930.25403 0 0 0
24.04797 930.85956 0 0 0
24.05678 931.25708 0 0 0
24.06558 931.17615 0 0 0
24.07439 931.03784 0 0 0
24.08320 931.0838 0 0 0
24.09201 931.56946 0 0 0
24.10081 932.16406 0 0 0
24.10962 932.25641 0 0 0
24.11842 932.77374 0 0 0
24.12723 933.86041 0 0 0
24.13604 934.25824 0 0 0
24.14485 934.88055 0 0 0
24.15365 935.18304 0 0 0
24.16246 935.52698 0 0 0
24.17127 935.56342 0 0 0
24.18008 935.46484 0 0 0
24.18888 935.45935 0 0 0
24.19769 934.83063 0 0 0
24.20650 934.24744 0 0 0
24.21531 934.1004 0 0 0
24.22411 934.43127 0 0 0
24.23292 934.70435 0 0 0
24.24173 934.93964 0 0 0
24.25053 934.48059 0 0 0
24.25934 934.13428 0 0 0
24.26815 934.53455 0 0 0
24.27696 935.24896 0 0 0
24.28576 935.58508 0 0 0
24.29457 937.04529 0 0 0
24.30338 938.17401 0 0 0
24.31218 938.00195 0 0 0
24.32099 938.28748 0 0 0
24.32980 938.80383 0 0 0
24.33861 939.23724 0 0 0
24.34741 938.90405 0 0 0
24.35622 939.34357 0 0 0
24.36503 940.41895 0 0 0
24.37383 941.92206 0 0 0
24.38264 942.88251 0 0 0
24.39145 943.29272 0 0 0
24.40026 942.466 0 0 0
24.40906 941.41327 0 0 0
24.41787 940.66943 0 0 0
24.42668 938.63831 0 0 0
24.43548 937.24347 0 0 0
24.44429 936.05505 0 0 0
24.45310 935.11493 0 0 0
24.46191 934.95264 0 0 0
24.47071 935.13153 0 0 0
24.47952 934.93866 0 0 0
24.48833 934.81726 0 0 0
24.49713 935.13477 0 0 0
24.50594 935.26068 0 0 0
24.51475 935.24316 0 0 0
24.52356 935.36688 0 0 0
24.53236 934.71582 0 0 0
24.54117 933.35242 0 0 0
24.54998 932.48035 0 0 0
24.55878 932.31128 0 0 0
24.56759 931.61523 0 0 0
24.57640 930.71893 0 0 0
24.58520 929.83197 0 0 0
24.59401 929.26654 0 0 0
24.60282 929.16766 0 0 0
24.61163 928.97314 0 0 0
24.62043 928.40656 0 0 0
24.62924 928.97833 0 0 0
24.63805 929.39685 0 0 0
24.64686 929.41602 0 0 0
24.65566 930.17157 0 0 0
24.66447 930.33911 0 0 0
24.67328 930.86908 0 0 0
24.68209 931.32611 0 0 0
24.69089 932.40137 0 0 0
24.69970 933.36346 0 0 0
24.70851 934.42078 0 0 0
24.71731 936.05096 0 0 0
24.72612 938.21649 0 0 0
24.73493 939.51508 0 0 0
24.74373 939.56995 0 0 0
24.75254 938.40796 0 0 0
24.76135 936.57678 0 0 0
24.77016 934.46887 0 0 0
24.77896 932.40637 0 0 0
24.78777 930.83167 0 0 0
24.79658 929.6203 0 0 0
24.80539 928.62518 0 0 0
24.81419 928.23907 0 0 0
24.82300 928.34308 0 0 0
24.83181 927.29962 0 0 0
24.84061 926.46307 0 0 0
24.84942 926.75781 0 0 0
24.85823 927.32092 0 0 0
24.86704 927.15137 0 0 0
24.87584 927.12927 0 0 0
24.88465 927.4502 0 0 0
24.89346 926.97882 0 0 0
24.90226 926.6051 0 0 0
24.91107 927.21631 0 0 0
24.91988 928.17792 0 0 0
24.92869 928.3999 0 0 0
24.93749 929.74048 0 0 0
24.94630 931.24103 0 0 0
24.95511 932.44836 0 0 0
24.96392 934.12836 0 0 0
24.97272 935.44617 0 0 0
24.98153 936.68665 0 0 0
24.99034 938.43237 0 0 0
24.99914 939.65332 0 0 0
25.00795 939.12769 0 0 0
25.01676 937.47699 0 0 0
25.02556 935.14923 0 0 0
25.03437 933.24078 0 0 0
25.04318 931.45038 0 0 0
25.05198 929.98297 0 0 0
25.06079 928.46893 0 0 0
25.06960 926.54321 0 0 0
25.07841 924.72644 0 0 0
25.08721 923.81641 0 0 0
25.09602 923.12152 0 0 0
25.10483 922.30823 0 0 0
25.11364 921.7746 0 0 0
25.12244 921.27667 0 0 0
25.13125 921.86646 0 0 0
25.14006 923.33673 0 0 0
25.14887 925.22107 0 0 0
25.15767 926.28918 0 0 0
25.16648 926.56995 0 0 0
25.17528 926.50836 0 0 0
25.18409 927.25452 0 0 0
25.19290 929.36139 0 0 0
25.20171 930.78595 0 0 0
25.21051 931.81042 0 0 0
25.21932 932.36517 0 0 0
25.22813 931.92206 0 0 0
25.23694 930.64185 0 0 0
25.24574 929.92975 0 0 0
25.25455 928.75995 0 0 0
25.26336 928.21173 0 0 0
25.27217 928.16449 0 0 0
25.28097 927.5838 0 0 0
25.28978 927.17694 0 0 0
25.29859 926.44122 0 0 0
25.30739 926.38599 0 0 0
25.31620 926.7757 0 0 0
25.32501 927.26074 0 0 0
25.33382 927.23907 0 0 0
25.34262 926.43585 0 0 0
25.35143 925.04498 0 0 0
25.36024 924.89844 0 0 0
25.36904 924.05206 0 0 0
25.37785 922.70709 0 0 0
25.38666 922.46387 0 0 0
25.39547 922.18439 0 0 0
25.40427 921.26654 0 0 0
25.41308 921.20355 0 0 0
25.42189 921.56897 0 0 0
25.43070 920.72644 0 0 0
25.43950 920.20685 0 0 0
25.44831 920.05835 0 0 0
25.45712 920.11865 0 0 0
25.46592 920.23975 0 0 0
25.47473 920.63031 0 0 0
25.48354 920.64203 0 0 0
25.49234 920.17181 0 0 0
25.50115 919.78156 0 0 0
25.50996 920.23907 0 0 0
25.51876 920.99524 0 0 0
25.52757 921.18933 0 0 0
25.53638 921.03113 0 0 0
25.54519 920.88251 0 0 0
25.55399 921.30933 0 0 0
25.56280 921.52216 0 0 0
25.57161 921.88635 0 0 0
25.58042 921.98077 0 0 0
25.58922 922.01221 0 0 0
25.59803 921.51263 0 0 0
25.60684 919.47137 0 0 0
25.61564 918.19623 0 0 0
25.62445 917.73199 0 0 0
25.63326 917.10083 0 0 0
25.64206 916.72125 0 0 0
25.65087 916.44666 0 0 0
25.65968 916.58777 0 0 0
25.66849 916.56281 0 0 0
25.67729 916.49902 0 0 0
25.68610 917.65717 0 0 0
25.69491 918.22766 0 0 0
25.70372 917.75275 0 0 0
25.71252 916.78638 0 0 0
25.72133 915.55658 0 0 0
25.73014 914.32251 0 0 0
25.73895 912.51563 0 0 0
25.74775 911.67657 0 0 0
25.75656 911.3075 0 0 0
25.76537 910.90771 0 0 0
25.77417 910.57074 0 0 0
25.78298 909.8595 0 0 0
25.79179 908.54065 0 0 0
25.80059 907.90796 0 0 0
25.80940 908.61804 0 0 0
25.81821 908.09601 0 0 0
25.82702 906.90747 0 0 0
25.83582 906.65399 0 0 0
25.84463 907.02118 0 0 0
25.85344 906.4917 0 0 0
25.86225 905.09174 0 0 0
25.87105 904.96808 0 0 0
25.87986 905.3988 0 0 0
25.88867 905.8139 0 0 0
25.89747 906.25531 0 0 0
25.90628 906.06012 0 0 0
25.91509 906.06482 0 0 0
25.92390 906.44507 0 0 0
25.93270 906.8299 0 0 0
25.94151 906.99988 0 0 0
25.95032 906.42096 0 0 0
25.95912 906.36847 0 0 0
25.96793 906.57593 0 0 0
25.97674 906.39655 0 0 0
25.98555 906.34998 0 0 0
25.99435 906.66937 0 0 0
26.00316 907.38361 0 0 0
26.01197 907.61957 0 0 0
26.02078 907.82294 0 0 0
26.02958 907.18408 0 0 0
26.03839 905.81189 0 0 0
26.04719 905.19153 0 0 0
26.05600 904.77057 0 0 0
26.06481 904.77094 0 0 0
26.07362 904.64557 0 0 0
26.08242 904.2757 0 0 0
26.09123 904.84491 0 0 0
26.10004 905.72681 0 0 0
26.10884 906.12463 0 0 0
26.11765 906.1051 0 0 0
26.12646 906.90387 0 0 0
26.13527 907.77045 0 0 0
26.14407 908.02716 0 0 0
26.15288 908.3197 0 0 0
26.16169 908.91827 0 0 0
26.17050 909.96173 0 0 0
26.17930 910.36609 0 0 0
26.18811 911.32758 0 0 0
26.19692 911.7016 0 0 0
26.20573 912.98639 0 0 0
26.21453 911.60059 0 0 0
26.22334 910.9126 0 0 0
26.23214 910.58954 0 0 0
26.24095 909.83783 0 0 0
26.24976 909.64087 0 0 0
26.25857 908.2356 0 0 0
26.26737 907.7702 0 0 0
26.27618 907.67786 0 0 0
26.28499 907.46393 0 0 0
26.29380 906.4436 0 0 0
26.30260 904.73706 0 0 0
26.31141 903.68268 0 0 0
26.32022 904.09186 0 0 0
26.32903 904.61829 0 0 0
26.33783 904.33936 0 0 0
26.34664 903.37299 0 0 0
26.35545 903.79553 0 0 0
26.36425 904.78992 0 0 0
26.37306 904.4408 0 0 0
26.38187 904.50842 0 0 0
26.39068 904.55518 0 0 0
26.39948 904.41382 0 0 0
26.40829 904.78644 0 0 0
26.41710 904.87646 0 0 0
26.42590 904.38525 0 0 0
26.43471 904.18182 0 0 0
26.44352 903.69208 0 0 0
26.45233 902.86005 0 0 0
26.46113 903.18652 0 0 0
26.46994 904.09149 0 0 0
26.47875 904.59772 0 0 0
26.48756 904.19781 0 0 0
26.49636 904.39172 0 0 0
26.50517 905.12823 0 0 0
26.51397 905.14636 0 0 0
26.52278 905.27838 0 0 0
26.53159 905.8045 0 0 0
26.54040 905.61871 0 0 0
26.54920 905.51642 0 0 0
26.55801 905.55621 0 0 0
26.56682 905.276 0 0 0
26.57563 905.83429 0 0 0
26.58443 906.50903 0 0 0
26.59324 906.2998 0 0 0
26.60205 906.4704 0 0 0
26.61085 906.93634 0 0 0
26.61966 908.06873 0 0 0
26.62847 909.9007 0 0 0
26.63728 911.19208 0 0 0
26.64608 911.68652 0 0 0
26.65489 910.47485 0 0 0
26.66370 909.12537 0 0 0
26.67250 909.90747 0 0 0
26.68131 910.09082 0 0 0
26.69012 909.51465 0 0 0
26.69892 908.41455 0 0 0
26.70773 907.72345 0 0 0
26.71654 906.93915 0 0 0
26.72535 904.77789 0 0 0
26.73415 903.54083 0 0 0
26.74296 903.13104 0 0 0
26.75177 902.39606 0 0 0
26.76058 901.8927 0 0 0
26.76938 902.07446 0 0 0
26.77819 901.59161 0 0 0
26.78700 900.94122 0 0 0
26.79581 900.9054 0 0 0
26.80461 900.6521 0 0 0
26.81342 900.48798 0 0 0
26.82223 900.37964 0 0 0
26.83103 900.05426 0 0 0
26.83984 899.46802 0 0 0
26.84865 900.1557 0 0 0
26.85745 902.72363 0 0 0
26.86626 904.03705 0 0 0
26.87507 903.58832 0 0 0
26.88388 903.409 0 0 0
26.89268 903.72296 0 0 0
26.90149 903.3714 0 0 0
26.91030 902.57587 0 0 0
26.91911 902.70612 0 0 0
26.92791 903.47125 0 0 0
26.93672 903.79248 0 0 0
26.94553 904.51471 0 0 0
26.95433 905.85724 0 0 0
26.96314 906.26776 0 0 0
26.97195 905.82605 0 0 0
26.98075 906.05133 0 0 0
26.98956 906.14343 0 0 0
26.99837 906.0415 0 0 0
27.00718 905.66016 0 0 0
27.01598 904.62195 0 0 0
27.02479 904.18225 0 0 0
27.03360 903.19366 0 0 0
27.04241 901.96198 0 0 0
27.05121 901.25098 0 0 0
27.06002 900.07178 0 0 0
27.06883 900.05591 0 0 0
27.07764 899.76685 0 0 0
27.08644 899.22559 0 0 0
27.09525 899.6955 0 0 0
27.10405 899.13312 0 0 0
27.11286 899.19202 0 0 0
27.12167 899.10217 0 0 0
27.13048 899.39893 0 0 0
27.13928 900.27667 0 0 0
27.14809 900.29541 0 0 0
27.15690 900.71765 0 0 0
27.16570 901.05365 0 0 0
27.17451 901.32355 0 0 0
27.18332 901.84192 0 0 0
27.19213 902.98584 0 0 0
27.20093 903.14514 0 0 0
27.20974 903.25781 0 0 0
27.21855 904.65637 0 0 0
27.22736 904.11908 0 0 0
27.23616 903.83881 0 0 0
27.24497 904.54364 0 0 0
27.25378 903.99127 0 0 0
27.26259 902.88544 0 0 0
27.27139 902.45111 0 0 0
27.28020 902.77417 0 0 0
27.28900 902.64508 0 0 0
27.29781 902.68097 0 0 0
27.30662 902.87103 0 0 0
27.31543 901.42566 0 0 0
27.32423 899.27429 0 0 0
27.33304 899.52301 0 0 0
27.34185 898.92633 0 0 0
27.35066 897.91724 0 0 0
27.35946 898.35272 0 0 0
27.36827 897.44806 0 0 0
27.37708 896.54791 0 0 0
27.38588 896.86963 0 0 0
27.39469 896.57916 0 0 0
27.40350 896.20203 0 0 0
27.41231 897.29694 0 0 0
27.42111 897.573 0 0 0
27.42992 897.88867 0 0 0
27.43873 898.06659 0 0 0
27.44753 897.86731 0 0 0
27.45634 898.66888 0 0 0
27.46515 898.59839 0 0 0
27.47396 896.57013 0 0 0
27.48276 895.03931 0 0 0
27.49157 895.33331 0 0 0
27.50038 895.42926 0 0 0
27.50919 895.14709 0 0 0
27.51799 895.75751 0 0 0
27.52680 895.07666 0 0 0
27.53561 892.20465 0 0 0
27.54442 891.75867 0 0 0
27.55322 892.65942 0 0 0
27.56203 892.36957 0 0 0
27.57083 892.67767 0 0 0
27.57964 893.46326 0 0 0
27.58845 893.78064 0 0 0
27.59726 894.30786 0 0 0
27.60606 894.40112 0 0 0
27.61487 894.46045 0 0 0
27.62368 894.93805 0 0 0
27.63249 894.87561 0 0 0
27.64129 894.93671 0 0 0
27.65010 895.02808 0 0 0
27.65891 895.03284 0 0 0
27.66771 894.88641 0 0 0
27.67652 894.97351 0 0 0
27.68533 895.39899 0 0 0
27.69414 896.323 0 0 0
27.70294 897.17078 0 0 0
27.71175 897.31104 0 0 0
27.72056 897.46893 0 0 0
27.72936 898.41858 0 0 0
27.73817 899.27039 0 0 0
27.74698 899.76874 0 0 0
27.75578 899.97455 0 0 0
27.76459 900.1488 0 0 0
27.77340 900.08728 0 0 0
27.78221 899.70435 0 0 0
27.79101 900.12476 0 0 0
27.79982 900.37219 0 0 0
27.80863 900.54358 0 0 0
27.81744 900.53711 0 0 0
27.82624 900.43042 0 0 0
27.83505 900.40082 0 0 0
27.84386 900.30066 0 0 0
27.85266 900.41449 0 0 0
27.86147 900.14612 0 0 0
27.87028 900.23602 0 0 0
27.87909 900.14948 0 0 0
27.88789 899.43567 0 0 0
27.89670 898.67267 0 0 0
27.90551 898.71045 0 0 0
27.91431 899.36218 0 0 0
27.92312 899.96741 0 0 0
27.93193 900.31378 0 0 0
27.94074 900.03876 0 0 0
27.94954 900.08423 0 0 0
27.95835 899.39142 0 0 0
27.96716 898.75012 0 0 0
27.97596 899.80688 0 0 0
27.98477 900.01172 0 0 0
27.99358 899.22638 0 0 0
28.00239 899.74799 0 0 0
28.01119 899.13318 0 0 0
28.02000 897.84222 0 0 0
28.02881 897.63312 0 0 0
28.03761 897.96704 0 0 0
28.04642 898.79419 0 0 0
28.05523 899.73285 0 0 0
28.06404 901.09521 0 0 0
28.07284 901.80273 0 0 0
28.08165 900.70557 0 0 0
28.09046 898.86548 0 0 0
28.09927 898.62866 0 0 0
28.10807 898.7804 0 0 0
28.11688 897.61847 0 0 0
28.12569 897.18903 0 0 0
28.13450 898.03448 0 0 0
28.14330 899.60913 0 0 0
28.15211 900.78882 0 0 0
28.16091 901.25031 0 0 0
28.16972 901.12244 0 0 0
28.17853 901.70093 0 0 0
28.18734 902.48779 0 0 0
28.19614 902.24615 0 0 0
28.20495 903.50964 0 0 0
28.21376 905.99597 0 0 0
28.22256 908.30408 0 0 0
28.23137 910.57806 0 0 0
28.24018 911.13123 0 0 0
28.24899 911.10529 0 0 0
28.25779 911.32025 0 0 0
28.26660 911.59656 0 0 0
28.27541 912.97589 0 0 0
28.28422 913.79175 0 0 0
28.29302 914.3053 0 0 0
28.30183 915.12885 0 0 0
28.31064 916.09973 0 0 0
28.31945 916.10968 0 0 0
28.32825 914.07581 0 0 0
28.33706 912.44977 0 0 0
28.34586 909.7959 0 0 0
28.35467 892.86542 0 0 0
28.36348 884.66278 0 0 0
28.37229 891.92548 0 0 0
28.38109 894.21436 0 0 0
28.38990 895.75891 0 0 0
28.39871 897.22351 0 0 0
28.40752 898.62958 0 0 0
28.41632 899.52625 0 0 0
28.42513 900.33783 0 0 0
28.43394 900.38812 0 0 0
28.44274 899.86505 0 0 0
28.45155 900.47998 0 0 0
28.46036 901.44299 0 0 0
28.46917 900.85742 0 0 0
28.47797 900.65704 0 0 0
28.48678 900.21008 0 0 0
28.49559 899.06128 0 0 0
28.50439 898.92407 0 0 0
28.51320 899.32098 0 0 0
28.52201 899.48602 0 0 0
28.53082 899.13971 0 0 0
28.53962 899.09717 0 0 0
28.54843 898.36877 0 0 0
28.55724 897.70062 0 0 0
28.56605 896.27203 0 0 0
28.57485 894.66803 0 0 0
28.58366 893.38306 0 0 0
28.59247 892.73303 0 0 0
28.60127 892.90747 0 0 0
28.61008 893.42889 0 0 0
28.61889 893.26312 0 0 0
28.62769 892.625 0 0 0
28.63650 892.62842 0 0 0
28.64531 892.02625 0 0 0
28.65412 891.49896 0 0 0
28.66292 892.56146 0 0 0
28.67173 893.88361 0 0 0
28.68054 893.70795 0 0 0
28.68935 893.79944 0 0 0
28.69815 893.31049 0 0 0
28.70696 892.71429 0 0 0
28.71577 892.92267 0 0 0
28.72458 893.5307 0 0 0
28.73338 893.93518 0 0 0
28.74219 893.86139 0 0 0
28.75100 892.70325 0 0 0
28.75980 891.32391 0 0 0
28.76861 892.39362 0 0 0
28.77742 893.21631 0 0 0
28.78622 893.26471 0 0 0
28.79503 894.15924 0 0 0
28.80384 894.43756 0 0 0
28.81264 893.0755 0 0 0
28.82145 891.96313 0 0 0
28.83026 891.83948 0 0 0
28.83907 891.66632 0 0 0
28.84787 892.17975 0 0 0
28.85668 891.62292 0 0 0
28.86549 891.20386 0 0 0
28.87430 891.74915 0 0 0
28.88310 891.69678 0 0 0
28.89191 890.68994 0 0 0
28.90072 890.16626 0 0 0
28.90952 889.09698 0 0 0
28.91833 888.0788 0 0 0
28.92714 889.50171 0 0 0
28.93595 890.26331 0 0 0
28.94475 890.51892 0 0 0
28.95356 890.09991 0 0 0
28.96237 890.04248 0 0 0
28.97117 892.35229 0 0 0
28.97998 893.6828 0 0 0
28.98879 893.41473 0 0 0
28.99760 892.14282 0 0 0
29.00640 890.70654 0 0 0
29.01521 891.4726 0 0 0
29.02402 892.93011 0 0 0
29.03282 894.1452 0 0 0
29.04163 894.52185 0 0 0
29.05044 892.07599 0 0 0
29.05925 889.56561 0 0 0
29.06805 888.61932 0 0 0
29.07686 888.58173 0 0 0
29.08567 889.03845 0 0 0
29.09447 887.82489 0 0 0
29.10328 887.1828 0 0 0
29.11209 887.99084 0 0 0
29.12090 887.41815 0 0 0
29.12970 887.59686 0 0 0
29.13851 887.54272 0 0 0
29.14732 887.59479 0 0 0
29.15613 888.18719 0 0 0
29.16493 887.57428 0 0 0
29.17374 888.3028 0 0 0
29.18255 887.62634 0 0 0
29.19136 885.59558 0 0 0
29.20016 885.60095 0 0 0
29.20897 887.65649 0 0 0
29.21777 888.99695 0 0 0
29.22658 887.89423 0 0 0
29.23539 886.92438 0 0 0
29.24420 887.32001 0 0 0
29.25300 887.95667 0 0 0
29.26181 887.67969 0 0 0
29.27062 887.69684 0 0 0
29.27942 887.08643 0 0 0
29.28823 886.68243 0 0 0
29.29704 887.15216 0 0 0
29.30585 887.84546 0 0 0
29.31465 888.68457 0 0 0
29.32346 889.91516 0 0 0
29.33227 891.23309 0 0 0
29.34108 890.33209 0 0 0
29.34988 889.59778 0 0 0
29.35869 890.53546 0 0 0
29.36750 891.55438 0 0 0
29.37630 891.15381 0 0 0
29.38511 890.07629 0 0 0
29.39392 890.26843 0 0 0
29.40273 891.02362 0 0 0
29.41153 889.88013 0 0 0
29.42034 890.914 0 0 0
29.42915 891.23096 0 0 0
29.43795 889.13 0 0 0
29.44676 889.82324 0 0 0
29.45557 889.73822 0 0 0
29.46438 888.49664 0 0 0
29.47318 890.16541 0 0 0
29.48199 891.31848 0 0 0
29.49080 889.38928 0 0 0
29.49960 889.54559 0 0 0
29.50841 890.2301 0 0 0
29.51722 888.65912 0 0 0
29.52603 888.03241 0 0 0
29.53483 889.27612 0 0 0
29.54364 889.85468 0 0 0
29.55245 888.97412 0 0 0
29.56125 888.53192 0 0 0
29.57006 889.21021 0 0 0
29.57887 889.27374 0 0 0
29.58768 889.59619 0 0 0
29.59648 890.12482 0 0 0
29.60529 889.59149 0 0 0
29.61410 889.51062 0 0 0
29.62291 890.08759 0 0 0
29.63171 888.82477 0 0 0
29.64052 887.92133 0 0 0
29.64933 889.05939 0 0 0
29.65813 888.66901 0 0 0
29.66694 887.06476 0 0 0
29.67575 887.50818 0 0 0
29.68455 886.72369 0 0 0
29.69336 884.91803 0 0 0
29.70217 885.41284 0 0 0
29.71098 886.08881 0 0 0
29.71978 886.29236 0 0 0
29.72859 885.50366 0 0 0
29.73740 885.18896 0 0 0
29.74621 885.6405 0 0 0
29.75501 885.5531 0 0 0
29.76382 885.4635 0 0 0
29.77263 884.76361 0 0 0
29.78143 884.55676 0 0 0
29.79024 886.29883 0 0 0
29.79905 887.00653 0 0 0
29.80786 886.50067 0 0 0
29.81666 886.45923 0 0 0
29.82547 887.45929 0 0 0
29.83428 888.2373 0 0 0
29.84308 886.69165 0 0 0
29.85189 886.0423 0 0 0
29.86070 886.13452 0 0 0
29.86951 886.40717 0 0 0
29.87831 886.85504 0 0 0
29.88712 885.9231 0 0 0
29.89593 886.12915 0 0 0
29.90473 887.93329 0 0 0
29.91354 888.43713 0 0 0
29.92235 888.28473 0 0 0
29.93116 888.69769 0 0 0
29.93996 889.04932 0 0 0
29.94877 891.06842 0 0 0
29.95758 892.87659 0 0 0
29.96638 894.30707 0 0 0
29.97519 894.62073 0 0 0
29.98400 894.45154 0 0 0
29.99281 894.23059 0 0 0
30.00161 894.15283 0 0 0
30.01042 892.95313 0 0 0
30.01923 892.5639 0 0 0
30.02803 893.13995 0 0 0
30.03684 892.34033 0 0 0
30.04565 892.94299 0 0 0
30.05446 893.67999 0 0 0
30.06326 893.8891 0 0 0
30.07207 894.28485 0 0 0
30.08088 894.24341 0 0 0
30.08968 893.31226 0 0 0
30.09849 893.633 0 0 0
30.10730 894.74878 0 0 0
30.11611 895.01636 0 0 0
30.12491 894.66351 0 0 0
30.13372 894.4859 0 0 0
30.14253 894.66553 0 0 0
30.15133 895.69751 0 0 0
30.16014 897.0744 0 0 0
30.16895 895.62567 0 0 0
30.17776 892.44971 0 0 0
30.18656 890.86908 0 0 0
30.19537 892.76923 0 0 0
30.20418 893.95325 0 0 0
30.21299 892.14532 0 0 0
30.22179 892.50543 0 0 0
30.23060 892.53265 0 0 0
30.23941 890.83008 0 0 0
30.24821 890.84119 0 0 0
30.25702 888.76178 0 0 0
30.26583 888.17773 0 0 0
30.27463 890.24188 0 0 0
30.28344 890.34235 0 0 0
30.29225 889.02356 0 0 0
30.30106 888.96783 0 0 0
30.30986 891.07184 0 0 0
30.31867 892.6214 0 0 0
30.32748 893.08771 0 0 0
30.33629 892.90875 0 0 0
30.34509 894.05859 0 0 0
30.35390 893.98419 0 0 0
30.36271 895.33557 0 0 0
30.37151 897.26044 0 0 0
30.38032 894.41461 0 0 0
30.38913 894.10712 0 0 0
30.39794 896.76483 0 0 0
30.40674 897.73236 0 0 0
30.41555 893.90198 0 0 0
30.42436 889.4079 0 0 0
30.43316 889.69098 0 0 0
30.44197 891.86304 0 0 0
30.45078 891.43213 0 0 0
30.45959 892.57397 0 0 0
30.46839 891.86243 0 0 0
30.47720 891.34515 0 0 0
30.48601 891.95691 0 0 0
30.49481 891.14819 0 0 0
30.50362 889.51807 0 0 0
30.51243 890.48157 0 0 0
30.52124 891.25006 0 0 0
30.53004 890.58313 0 0 0
30.53885 890.20825 0 0 0
30.54766 889.31726 0 0 0
30.55646 888.30005 0 0 0
30.56527 887.44873 0 0 0
30.57408 887.90112 0 0 0
30.58289 886.97937 0 0 0
30.59169 885.67859 0 0 0
30.60050 885.10132 0 0 0
30.60931 884.31738 0 0 0
30.61811 882.30164 0 0 0
30.62692 882.62225 0 0 0
30.63573 883.00781 0 0 0
30.64454 882.27911 0 0 0
30.65334 881.54987 0 0 0
30.66215 881.79993 0 0 0
30.67096 881.79346 0 0 0
30.67977 881.66791 0 0 0
30.68857 881.82239 0 0 0
30.69738 881.00195 0 0 0
30.70619 881.5343 0 0 0
30.71499 881.41919 0 0 0
30.72380 880.41595 0 0 0
30.73261 880.5564 0 0 0
30.74141 880.27216 0 0 0
30.75022 879.32202 0 0 0
30.75903 878.56635 0 0 0
30.76784 879.2052 0 0 0
30.77664 880.89874 0 0 0
30.78545 880.31372 0 0 0
30.79426 880.65619 0 0 0
30.80307 879.34723 0 0 0
30.81187 877.83087 0 0 0
30.82068 878.52716 0 0 0
30.82949 877.74829 0 0 0
30.83829 877.7475 0 0 0
30.84710 877.91425 0 0 0
30.85591 876.41309 0 0 0
30.86472 874.81635 0 0 0
30.87352 875.24109 0 0 0
30.88233 876.29755 0 0 0
30.89114 877.15466 0 0 0
30.89994 877.67377 0 0 0
30.90875 876.81256 0 0 0
30.91756 876.03607 0 0 0
30.92637 875.90973 0 0 0
30.93517 874.81409 0 0 0
30.94398 875.62689 0 0 0
30.95279 875.85602 0 0 0
30.96159 875.85779 0 0 0
30.97040 876.84015 0 0 0
30.97921 877.11792 0 0 0
30.98802 877.54248 0 0 0
30.99682 876.89233 0 0 0
31.00563 876.7229 0 0 0
31.01444 875.72144 0 0 0
31.02324 875.68298 0 0 0
31.03205 875.74969 0 0 0
31.04086 875.49768 0 0 0
31.04967 877.06128 0 0 0
31.05847 876.87524 0 0 0
31.06728 876.00989 0 0 0
31.07609 874.63 0 0 0
31.08489 872.48645 0 0 0
31.09370 872.27802 0 0 0
31.10251 870.03967 0 0 0
31.11132 868.29126 0 0 0
31.12012 870.42059 0 0 0
31.12893 870.98254 0 0 0
31.13774 874.4079 0 0 0
31.14654 873.10309 0 0 0
31.15535 870.21179 0 0 0
31.16416 870.40027 0 0 0
31.17297 870.91333 0 0 0
31.18177 872.73242 0 0 0
31.19058 872.46527 0 0 0
31.19939 872.06384 0 0 0
31.20819 871.75946 0 0 0
31.21700 870.2475 0 0 0
31.22581 870.29022 0 0 0
31.23462 868.67688 0 0 0
31.24342 870.04962 0 0 0
31.25223 873.99097 0 0 0
31.26104 874.63342 0 0 0
31.26985 875.66516 0 0 0
31.27865 877.81549 0 0 0
31.28746 878.24756 0 0 0
31.29627 880.31714 0 0 0
31.30507 882.89233 0 0 0
31.31388 878.52844 0 0 0
31.32269 873.56177 0 0 0
31.33150 873.63898 0 0 0
31.34030 874.73047 0 0 0
31.34911 873.45038 0 0 0
31.35792 871.47009 0 0 0
31.36672 866.57538 0 0 0
31.37553 865.20251 0 0 0
31.38434 865.57837 0 0 0
31.39315 864.37939 0 0 0
31.40195 862.75659 0 0 0
31.41076 862.0271 0 0 0
31.41957 862.07568 0 0 0
31.42837 861.88672 0 0 0
31.43718 862.5993 0 0 0
31.44599 861.28534 0 0 0
31.45480 860.21161 0 0 0
31.46360 858.00592 0 0 0
31.47241 858.6347 0 0 0
31.48122 858.38013 0 0 0
31.49002 859.7995 0 0 0
31.49883 861.95337 0 0 0
31.50764 862.19519 0 0 0
31.51645 861.39246 0 0 0
31.52525 860.17206 0 0 0
31.53406 861.37585 0 0 0
31.54287 863.83136 0 0 0
31.55167 861.21735 0 0 0
31.56048 856.80688 0 0 0
31.56929 855.8479 0 0 0
31.57810 859.20917 0 0 0
31.58690 860.85809 0 0 0
31.59571 857.90161 0 0 0
31.60452 857.82074 0 0 0
31.61332 858.7215 0 0 0
31.62213 858.23547 0 0 0
31.63094 857.45331 0 0 0
31.63975 858.13422 0 0 0
31.64855 860.78857 0 0 0
31.65736 860.29138 0 0 0
31.66617 859.3291 0 0 0
31.67497 858.23596 0 0 0
31.68378 855.06256 0 0 0
31.69259 853.82501 0 0 0
31.70140 853.16656 0 0 0
31.71020 856.02429 0 0 0
31.71901 859.33521 0 0 0
31.72782 858.24078 0 0 0
31.73663 855.40289 0 0 0
31.74543 857.30212 0 0 0
31.75424 857.76031 0 0 0
31.76305 854.96698 0 0 0
31.77185 857.10272 0 0 0
31.78066 852.92065 0 0 0
31.78947 850.6507 0 0 0
31.79828 852.43829 0 0 0
31.80708 854.55042 0 0 0
31.81589 855.79993 0 0 0
31.82470 852.89417 0 0 0
31.83350 854.11749 0 0 0
31.84231 856.28473 0 0 0
31.85112 858.63385 0 0 0
31.85993 861.82013 0 0 0
31.86873 862.39624 0 0 0
31.87754 858.828 0 0 0
31.88635 857.85895 0 0 0
31.89515 857.0199 0 0 0
31.90396 854.2713 0 0 0
31.91277 853.45337 0 0 0
31.92158 856.71625 0 0 0
31.93038 855.93451 0 0 0
31.93919 853.62244 0 0 0
31.94800 854.81641 0 0 0
31.95680 855.24969 0 0 0
31.96561 854.74188 0 0 0
31.97442 856.92047 0 0 0
31.98323 856.29169 0 0 0
31.99203 850.34308 0 0 0
32.00084 850.37909 0 0 0
32.00965 847.21124 0 0 0
32.01846 844.64984 0 0 0
32.02726 845.71802 0 0 0
32.03607 847.6358 0 0 0
32.04488 850.57245 0 0 0
32.05368 847.56018 0 0 0
32.06249 845.40686 0 0 0
32.07130 844.63031 0 0 0
32.08011 840.25134 0 0 0
32.08891 839.88196 0 0 0
32.09772 842.69885 0 0 0
32.10652 840.04083 0 0 0
32.11533 839.16772 0 0 0
32.12414 843.09991 0 0 0
32.13295 845.37518 0 0 0
32.14175 845.32446 0 0 0
32.15056 841.44873 0 0 0
32.15937 839.46045 0 0 0
32.16817 832.80243 0 0 0
32.17698 828.72571 0 0 0
32.18579 838.20386 0 0 0
32.19460 840.17065 0 0 0
32.20340 833.68866 0 0 0
32.21221 833.56824 0 0 0
32.22102 837.24554 0 0 0
32.22983 834.492 0 0 0
32.23863 833.83838 0 0 0
32.24744 837.89197 0 0 0
32.25625 834.96796 0 0 0
32.26506 837.1554 0 0 0
32.27386 839.46973 0 0 0
32.28267 841.41113 0 0 0
32.29148 837.74969 0 0 0
32.30029 832.33575 0 0 0
32.30909 836.95502 0 0 0
32.31790 841.67242 0 0 0
32.32671 838.7536 0 0 0
32.33551 833.35022 0 0 0
32.34432 832.48779 0 0 0
32.35313 832.22467 0 0 0
32.36194 831.80194 0 0 0
32.37074 830.32867 0 0 0
32.37955 825.98309 0 0 0
32.38835 824.28314 0 0 0
32.39716 825.10907 0 0 0
32.40597 827.67041 0 0 0
32.41478 821.13672 0 0 0
32.42358 812.6015 0 0 0
32.43239 811.53436 0 0 0
32.44120 814.84271 0 0 0
32.45000 819.42712 0 0 0
32.45881 819.95087 0 0 0
32.46762 819.04004 0 0 0
32.47643 817.35956 0 0 0
32.48523 810.66504 0 0 0
32.49404 804.87653 0 0 0
32.50285 803.61774 0 0 0
32.51165 811.67865 0 0 0
32.52046 813.93561 0 0 0
32.52927 802.51288 0 0 0
32.53808 796.22699 0 0 0
32.54688 802.06238 0 0 0
32.55569 816.25098 0 0 0
32.56450 821.14404 0 0 0
32.57331 810.77887 0 0 0
32.58211 805.20844 0 0 0
32.59092 803.36755 0 0 0
32.59973 802.02399 0 0 0
32.60854 793.37408 0 0 0
32.61734 788.23016 0 0 0
32.62615 789.16608 0 0 0
32.63496 785.69348 0 0 0
32.64376 788.86707 0 0 0
32.65257 790.25031 0 0 0
32.66138 782.95117 0 0 0
32.67018 788.55316 0 0 0
32.67899 781.88824 0 0 0
32.68780 766.48969 0 0 0
32.69661 766.50287 0 0 0
32.70541 764.39362 0 0 0
32.71422 758.95496 0 0 0
32.72303 755.79437 0 0 0
32.73183 749.71246 0 0 0
32.74064 733.58136 0 0 0
32.74945 729.02771 0 0 0
32.75825 727.43927 0 0 0
32.76706 705.64185 0 0 0
32.77587 693.70996 0 0 0
32.78468 683.92389 0 0 0
32.79348 654.19293 0 0 0
32.80229 630.27179 0 0 0
32.81110 610.52106 0 0 0
32.81991 575.54712 0 0 0
32.82871 526.71667 0 0 0
32.83752 473.21478 0 0 0
32.84633 406.11267 0 0 0
32.85514 275.94193 0 0 0
32.86394 185.96547 0 0 0
32.87275 192.58937 0 0 0
32.88156 186.78677 0 0 0
32.89037 171.7744 0 0 0
32.89917 170.46318 0 0 0
32.90798 178.78232 0 0 0
32.91679 174.54283 0 0 0
32.92559 169.69637 0 0 0
32.93440 169.03871 0 0 0
32.94321 166.8441 0 0 0
32.95202 166.92558 0 0 0
32.96082 169.73207 0 0 0
32.96963 166.33781 0 0 0
32.97844 168.23318 0 0 0
32.98724 173.53789 0 0 0
32.99605 176.30194 0 0 0
33.00486 173.91327 0 0 0
33.01366 177.85486 0 0 0
33.02247 183.36281 0 0 0
33.03128 186.83792 0 0 0
33.04008 192.29727 0 0 0
33.04889 185.96785 0 0 0
33.05770 176.9581 0 0 0
33.06650 176.25117 0 0 0
33.07531 176.07082 0 0 0
33.08412 179.15895 0 0 0
33.09293 172.50584 0 0 0
33.10173 161.89012 0 0 0
33.11054 169.36082 0 0 0
33.11935 173.66237 0 0 0
33.12816 168.8951 0 0 0
33.13696 166.33557 0 0 0
33.14577 173.50285 0 0 0
33.15458 164.46114 0 0 0
33.16339 159.87445 0 0 0
33.17219 171.44286 0 0 0
33.18100 175.23212 0 0 0
33.18981 178.74884 0 0 0
33.19862 184.81151 0 0 0
33.20742 184.55139 0 0 0
33.21623 172.56711 0 0 0
33.22504 164.27417 0 0 0
33.23385 163.18443 0 0 0
33.24265 166.93713 0 0 0
33.25146 174.37657 0 0 0
33.26026 173.75063 0 0 0
33.26907 165.6076 0 0 0
33.27788 167.05122 0 0 0
33.28669 169.62891 0 0 0
33.29549 173.81091 0 0 0
33.30430 177.36366 0 0 0
33.31311 178.21764 0 0 0
33.32191 173.41544 0 0 0
33.33072 172.6286 0 0 0
33.33953 179.49202 0 0 0
33.34833 184.48984 0 0 0
33.35714 183.71017 0 0 0
33.36595 183.28918 0 0 0
33.37476 179.08339 0 0 0
33.38356 180.05156 0 0 0
33.39237 184.48601 0 0 0
33.40118 180.81671 0 0 0
33.40999 166.12811 0 0 0
33.41879 154.80556 0 0 0
33.42760 155.46208 0 0 0
33.43641 163.57173 0 0 0
33.44522 166.95633 0 0 0
33.45402 175.75267 0 0 0
33.46283 172.8033 0 0 0
33.47164 163.64641 0 0 0
33.48045 161.26877 0 0 0
33.48925 163.69675 0 0 0
33.49806 172.36046 0 0 0
33.50687 179.52788 0 0 0
33.51568 186.61371 0 0 0
33.52448 189.70558 0 0 0
33.53329 189.32063 0 0 0
33.54210 188.47142 0 0 0
33.55090 191.35034 0 0 0
33.55971 191.53619 0 0 0
33.56852 183.39322 0 0 0
33.57732 182.35306 0 0 0
33.58613 188.42802 0 0 0
33.59494 183.76955 0 0 0
33.60375 176.61247 0 0 0
33.61255 173.53615 0 0 0
33.62136 178.5585 0 0 0
33.63016 182.7473 0 0 0
33.63897 183.05374 0 0 0
33.64778 176.37329 0 0 0
33.65659 169.80447 0 0 0
33.66539 171.68346 0 0 0
33.67420 181.04829 0 0 0
33.68301 193.5403 0 0 0
33.69181 196.36977 0 0 0
33.70062 198.5304 0 0 0
33.70943 196.92635 0 0 0
33.71824 203.16693 0 0 0
33.72704 209.78026 0 0 0
33.73585 207.67894 0 0 0
33.74466 195.24901 0 0 0
33.75347 189.01605 0 0 0
33.76227 187.5869 0 0 0
33.77108 187.7979 0 0 0
33.77989 190.05562 0 0 0
33.78870 187.1409 0 0 0
33.79750 179.02132 0 0 0
33.80631 162.7746 0 0 0
33.81512 156.89487 0 0 0
33.82393 172.01129 0 0 0
33.83273 189.23944 0 0 0
33.84154 190.27231 0 0 0
33.85035 184.99889 0 0 0
33.85915 177.84729 0 0 0
33.86796 179.03915 0 0 0
33.87677 190.96315 0 0 0
33.88557 191.87004 0 0 0
33.89438 187.69765 0 0 0
33.90319 194.56848 0 0 0
33.91199 196.42166 0 0 0
33.92080 181.31613 0 0 0
33.92961 175.15431 0 0 0
33.93842 183.70119 0 0 0
33.94722 195.02052 0 0 0
33.95603 196.26521 0 0 0
33.96484 187.35132 0 0 0
33.97364 177.77039 0 0 0
33.98245 177.4644 0 0 0
33.99126 182.16754 0 0 0
34.00007 190.23785 0 0 0
34.00887 187.27174 0 0 0
34.01768 186.90347 0 0 0
34.02649 186.49828 0 0 0
34.03530 186.20901 0 0 0
34.04410 182.2298 0 0 0
34.05291 173.10414 0 0 0
34.06172 176.50267 0 0 0
34.07053 190.28479 0 0 0
34.07933 192.93654 0 0 0
34.08814 185.72977 0 0 0
34.09695 182.5439 0 0 0
34.10575 179.97858 0 0 0
34.11456 179.97337 0 0 0
34.12337 185.27444 0 0 0
34.13217 198.82738 0 0 0
34.14098 200.76724 0 0 0
34.14979 196.80359 0 0 0
34.15860 203.79848 0 0 0
34.16740 202.72218 0 0 0
34.17621 206.57968 0 0 0
34.18502 211.88492 0 0 0
34.19382 210.01436 0 0 0
34.20263 211.85788 0 0 0
34.21144 200.81566 0 0 0
34.22024 190.55551 0 0 0
34.22905 186.28227 0 0 0
34.23786 185.28062 0 0 0
34.24667 193.55795 0 0 0
34.25547 196.85013 0 0 0
34.26428 191.04565 0 0 0
34.27309 186.91595 0 0 0
34.28189 193.69606 0 0 0
34.29070 195.93155 0 0 0
34.29951 202.57256 0 0 0
34.30832 207.14192 0 0 0
34.31712 207.97369 0 0 0
34.32593 195.72137 0 0 0
34.33474 190.41347 0 0 0
34.34355 184.23593 0 0 0
34.35235 193.16373 0 0 0
34.36116 199.75446 0 0 0
34.36997 201.07039 0 0 0
34.37878 206.89415 0 0 0
34.38758 207.911 0 0 0
34.39639 206.24574 0 0 0
34.40520 201.13582 0 0 0
34.41401 202.04343 0 0 0
34.42281 206.99496 0 0 0
34.43162 214.49696 0 0 0
34.44043 219.51797 0 0 0
34.44923 210.43073 0 0 0
34.45804 204.88443 0 0 0
34.46685 209.67644 0 0 0
34.47566 210.35367 0 0 0
34.48446 208.65994 0 0 0
34.49327 206.32181 0 0 0
34.50207 206.35518 0 0 0
34.51088 209.46834 0 0 0
34.51969 212.55133 0 0 0
34.52850 214.42357 0 0 0
34.53730 204.91646 0 0 0
34.54611 205.49762 0 0 0
34.55492 214.47668 0 0 0
34.56372 211.5836 0 0 0
34.57253 201.99635 0 0 0
34.58134 202.80818 0 0 0
34.59015 204.80045 0 0 0
34.59895 193.91608 0 0 0
34.60776 179.35071 0 0 0
34.61657 182.07463 0 0 0
34.62538 194.60091 0 0 0
34.63418 204.75703 0 0 0
34.64299 203.47029 0 0 0
34.65180 198.85802 0 0 0
34.66060 197.59386 0 0 0
34.66941 199.30412 0 0 0
34.67822 206.80373 0 0 0
34.68703 206.6897 0 0 0
34.69583 206.13945 0 0 0
34.70464 204.16025 0 0 0
34.71345 204.26788 0 0 0
34.72226 214.46533 0 0 0
34.73106 204.00958 0 0 0
34.73987 178.75966 0 0 0
34.74868 176.50346 0 0 0
34.75748 192.5751 0 0 0
34.76629 200.8362 0 0 0
34.77510 207.72385 0 0 0
34.78390 212.83594 0 0 0
34.79271 210.97121 0 0 0
34.80152 203.51414 0 0 0
34.81033 197.95946 0 0 0
34.81913 188.47144 0 0 0
34.82794 189.50414 0 0 0
34.83675 194.36812 0 0 0
34.84555 192.44658 0 0 0
34.85436 181.31239 0 0 0
34.86317 175.9845 0 0 0
34.87197 190.51228 0 0 0
34.88078 206.03738 0 0 0
34.88959 203.37511 0 0 0
34.89840 205.90149 0 0 0
34.90720 235.06662 0 0 0
34.91601 240.81596 0 0 0
34.92482 230.13937 0 0 0
34.93363 219.70384 0 0 0
34.94243 199.62474 0 0 0
34.95124 185.20085 0 0 0
34.96005 188.84584 0 0 0
34.96886 192.8177 0 0 0
34.97766 197.96703 0 0 0
34.98647 206.27168 0 0 0
34.99528 207.0594 0 0 0
35.00409 203.27866 0 0 0
35.01289 203.8121 0 0 0
35.02170 210.63156 0 0 0
35.03051 218.6378 0 0 0
35.03931 216.88518 0 0 0
35.04812 212.94391 0 0 0
35.05693 208.76472 0 0 0
35.06573 200.88826 0 0 0
35.07454 201.40454 0 0 0
35.08335 206.03677 0 0 0
35.09215 216.38029 0 0 0
35.10096 227.93159 0 0 0
35.10977 222.56375 0 0 0
35.11858 212.30342 0 0 0
35.12738 207.34334 0 0 0
35.13619 208.8448 0 0 0
35.14500 216.21718 0 0 0
35.15380 216.45976 0 0 0
35.16261 207.85185 0 0 0
35.17142 203.66899 0 0 0
35.18023 204.87816 0 0 0
35.18903 206.46504 0 0 0
35.19784 213.65198 0 0 0
35.20665 216.22653 0 0 0
35.21545 209.01102 0 0 0
35.22426 204.31618 0 0 0
loop_
_gsas_i100_meas
0.08
45.52
7.42
5.96
3.56
11.88
100.00
18.82
38.22
69.95
83.43
4.21
15.08
4.20
29.17
33.74
0.09
20.92
37.21
30.99
5.26
1.68
5.96
2.78
4.04
59.75
6.01
21.95
2.35
4.36
1.67
1.53
0.21
12.01
3.14
4.98
0.20
1.71
16.33
7.62
10.30
1.53
0.44
2.07
0.03
0.70
3.45
0.81
21.24
0.83
7.97
1.53
6.59
0.06
7.48
7.03
4.02
6.17
4.99
2.03
0.14
7.30
13.31
0.09
13.12
2.62
4.57
0.99
3.33
3.30
0.14
3.38
14.34
2.49
0.28
4.80
1.68
2.44
1.42
1.89
12.07
1.75
0.03
7.03
7.52
0.02
9.55
0.07
16.49
2.16
1.98
1.20
0.19
0.00
0.00
2.61
0.19
2.18
12.26
3.27
0.02
3.60
3.71
0.23
0.83
2.19
0.22
0.00
2.73
2.30
3.86
10.06
12.67
6.09
1.82
2.14
5.31
0.05
0.11
0.00
2.21
0.12
0.46
0.11
1.17
2.93
3.31
4.84
2.82
6.02
0.53
0.96
0.01
9.17
0.01
1.73
0.12
0.97
0.82
0.97
0.07
0.01
0.91
4.47
0.92
5.61
0.40
5.84
0.04
7.55
2.09
0.05
0.93
0.34
3.82
0.08
1.47
2.17
0.46
1.06
3.91
0.66
1.55
0.56
0.09
0.45
1.47
0.63
0.01
1.75
0.05
0.35
1.16
0.64
3.99
2.36
0.85
0.00
0.00
0.26
0.10
0.00
0.98
1.26
0.10
0.22
0.63
0.27
0.35
0.07
0.05
0.10
0.16
3.17
1.89
0.71
3.24
0.00
0.72
0.24
4.18
1.30
0.58
0.33
0.47
0.90
0.70
0.03
1.56
2.07
0.94
2.28
0.31
0.72
1.54
1.28
0.05
2.85
0.79
1.61
0.93
0.00
0.46
1.15
0.03
0.02
0.02
2.42
1.53
0.04
0.39
1.71
0.28
