#------------------------------------------------------------------------------
#$Date: 2021-02-05 01:04:31 +0200 (Fri, 05 Feb 2021) $
#$Revision: 261628 $
#$URL: file:///home/coder/svn-repositories/cod/cif/7/24/18/7241838.cif $
#------------------------------------------------------------------------------
#
# This file is available in the Crystallography Open Database (COD),
# http://www.crystallography.net/
#
# All data on this site have been placed in the public domain by the
# contributors.
#
data_7241838
loop_
_publ_author_name
'Gu\'nka, Piotr A.'
'Hanfland, Michael'
'Chen, Yu-Sheng'
'Zachara, Janusz'
_publ_section_title
;
 High-pressure and low-temperature structural study of claudetite I, a
 monoclinic layered As2O3 polymorph
;
_journal_issue                   3
_journal_name_full               CrystEngComm
_journal_page_first              638
_journal_page_last               644
_journal_paper_doi               10.1039/D0CE01401J
_journal_volume                  23
_journal_year                    2021
_chemical_formula_moiety         'As2 O3'
_chemical_formula_sum            'As2 O3'
_chemical_formula_weight         197.84
_chemical_name_common            'claudetite I'
_chemical_name_systematic
;
arsenic(III) oxide
;
_space_group_IT_number           14
_space_group_name_Hall           '-P 2yn'
_space_group_name_H-M_alt        'P 1 21/n 1'
_symmetry_cell_setting           monoclinic
_symmetry_space_group_name_H-M   'P 1 21/n 1'
_audit_creation_date             2020-10-21T15:18
_audit_creation_method           'created in GSAS-II'
_audit_update_record
;
2020-10-22 deposited with the CCDC.	2020-12-10 downloaded from the CCDC.
;
_cell_angle_alpha                90
_cell_angle_beta                 94.5756(23)
_cell_angle_gamma                90
_cell_formula_units_Z            4
_cell_length_a                   5.07859(27)
_cell_length_b                   12.4595(4)
_cell_length_c                   4.41318(20)
_cell_measurement_pressure       3.55e6(5)
_cell_measurement_temperature    293
_cell_volume                     278.36(2)
_computing_data_reduction        Fit2D
_computing_structure_refinement
'GSAS-II (Toby & Von Dreele, J. Appl. Cryst. 46, 544-549, 2013)'
_diffrn_ambient_pressure         3.55e6(5)
_diffrn_ambient_temperature      293
_diffrn_detector                 'Mar555 flat panel'
_diffrn_detector_type            'Mar555 flat panel'
_diffrn_measurement_device_type  'ESRF ID09A beamline'
_diffrn_radiation_monochromator  Si
_diffrn_radiation_polarisn_ratio 0.9900
_diffrn_radiation_probe          x-ray
_diffrn_radiation_wavelength     0.41421
_diffrn_source                   'ESRF ID09A'
_diffrn_source_type              synchrotron
_exptl_crystal_colour            colourless
_exptl_crystal_density_diffrn    4.7208
_exptl_crystal_description       'white powder'
_pd_block_id                     2020-10-21T15:18|clau1_029rietveld||id09a
_pd_calc_method                  'Rietveld Refinement'
_pd_meas_number_of_points        4000
_pd_phase_name                   claudetiteI
_pd_prep_pressure                100.0(1)
_pd_prep_temperature             293
_pd_proc_info_datetime           2020-10-21T15:18
_pd_proc_ls_background_function
;
Background function: "chebyschev" function with 20 terms:
    764.1(6), 297(4), 569(16), 4.26(6)e3, -1.557(11)e4, -5.710(30)e4, 
    1.5029(25)e5, 3.315(5)e5, -7.2673(9)e5, -1.05190(7)e6, 1.97033(22)e6, 
    1.9913(5)e6, -3.14721(7)e6, -2.31231(26)e6, 2.94678(20)e6, 
    1.6149(3)e6, -1.49795(23)e6, -6.219(5)e5, 3.1940(23)e5, 1.013(5)e5, 
;
_pd_proc_ls_pref_orient_corr
;
Simple spherical harmonic correction Order = 6
    Coefficients:  0:0:C(6,6) = -0.085(18); 0:0:C(4,4) = 0.095(22); 
    0:0:C(6,-2) = 0.091(23); 0:0:C(2,-2) = -0.012(11); 0:0:C(4,-4) = -0.029(18); 
    0:0:C(2,2) = 0.505(13); 0:0:C(4,0) = -0.312(17); 0:0:C(6,-6) = -0.221(23); 
    0:0:C(6,4) = -0.054(22); 0:0:C(4,2) = -0.130(18); 0:0:C(6,2) = -0.196(21); 
    0:0:C(6,-4) = 0.153(19); 0:0:C(6,0) = -0.078(22); 0:0:C(2,0) = -0.118(12); 
    0:0:C(4,-2) = -0.113(15); 
;
_pd_proc_ls_profile_function
;
Finger-Cox-Jephcoat function parameters U, V, W, X, Y, SH/L:
  peak variance(Gauss) = Utan(Th)^2^+Vtan(Th)+W:
  peak HW(Lorentz) = X/cos(Th)+Ytan(Th); SH/L = S/L+H/L
  U, V, W in (centideg)^2^, X & Y in centideg
    1.09(10)e3, -210(16), 11.1(8), 1.76(29), 34(4), 0.002, 
  Crystallite size in microns with "isotropic" model:
  parameters: Size, G/L mix
    1.000, 1.000, 
  Microstrain, "isotropic" model (10^6^ * delta Q/Q)
    parameters: Mustrain, G/L mix
    1000.000, 1.000, 

;
_pd_proc_ls_prof_R_factor        0.00600
_pd_proc_ls_prof_wR_expected     0.03573
_pd_proc_ls_prof_wR_factor       0.00981
_refine_ls_goodness_of_fit_all   0.279
_refine_ls_matrix_type           full
_refine_ls_number_parameters     62
_refine_ls_R_Fsqd_factor         0.05251
_refine_ls_shift/su_max          0.0007
_refine_ls_wR_factor_obs         0.00982
_reflns_d_resolution_high        1.074
_reflns_d_resolution_low         6.230
_reflns_limit_h_max              4
_reflns_limit_h_min              0
_reflns_limit_k_max              11
_reflns_limit_k_min              0
_reflns_limit_l_max              4
_reflns_limit_l_min              -4
_reflns_number_total             233
_cod_data_source_file            d0ce01401j3.cif
_cod_data_source_block           clau1_029rietveld
_cod_depositor_comments
'Adding full bibliography for 7241824--7241862.cif.'
_cod_original_cell_volume        278.360(11)
_cod_database_code               7241838
_refine_ls_r_f_factor            0.03257
_gsas_proc_ls_prof_r_b_factor    0.01157
_gsas_proc_ls_prof_wr_b_factor   0.02416
loop_
_space_group_symop_id
_space_group_symop_operation_xyz
1 x,y,z
2 1/2-x,1/2+y,1/2-z
3 -x,-y,-z
4 1/2+x,1/2-y,1/2+z
loop_
_atom_site_label
_atom_site_type_symbol
_atom_site_fract_x
_atom_site_fract_y
_atom_site_fract_z
_atom_site_occupancy
_atom_site_adp_type
_atom_site_U_iso_or_equiv
_atom_site_symmetry_multiplicity
As1 As 0.2722(8) 0.09360(23) 0.0456(6) 1.000 Uiso 0.0061(14) 4
As2 As 0.3459(6) 0.35536(28) 0.0090(6) 1.000 Uiso 0.0061 4
O3 O 0.4274(20) 0.2204(3) 0.099(3) 1.000 Uiso 0.0061 4
O4 O 0.6504(16) 0.4098(11) 0.1592(11) 1.000 Uiso 0.0061 4
O5 O -0.0517(14) 0.1248(17) 0.1384(12) 1.000 Uiso 0.0061 4
loop_
_atom_type_symbol
_atom_type_number_in_cell
_atom_type_scat_Cromer_Mann_a1
_atom_type_scat_Cromer_Mann_a2
_atom_type_scat_Cromer_Mann_a3
_atom_type_scat_Cromer_Mann_a4
_atom_type_scat_Cromer_Mann_b1
_atom_type_scat_Cromer_Mann_b2
_atom_type_scat_Cromer_Mann_b3
_atom_type_scat_Cromer_Mann_b4
_atom_type_scat_Cromer_Mann_c
_atom_type_scat_length_neutron
_atom_type_scat_source
_atom_type_scat_dispersion_real
_atom_type_scat_dispersion_imag
_atom_type_scat_dispersion_source
As 8 16.6723 6.0701 3.4313 4.2779 2.6345 0.2647 12.9479 47.7972 2.531 0.658
https://subversion.xray.aps.anl.gov/pyGSAS/trunk/atmdata.py 0.283 0.775
https://subversion.xray.aps.anl.gov/pyGSAS/trunk/atmdata.py
O 12 3.0485 2.2868 1.5463 0.867 13.2771 5.7011 0.3239 32.9089 0.2508 0.5805
https://subversion.xray.aps.anl.gov/pyGSAS/trunk/atmdata.py 0.002 0.002
https://subversion.xray.aps.anl.gov/pyGSAS/trunk/atmdata.py
loop_
_geom_angle_atom_site_label_1
_geom_angle_atom_site_label_2
_geom_angle_atom_site_label_3
_geom_angle
_geom_angle_site_symmetry_1
_geom_angle_site_symmetry_2
_geom_angle_site_symmetry_3
_geom_angle_publ_flag
O3 As1 O4 105.5(7) 1_555 1_555 4_454 yes
O3 As1 O5 100.7(8) 1_555 1_555 1_555 yes
O4 As1 O5 88.2(3) 4_454 1_555 1_555 yes
O3 As2 O4 95.6(5) 1_555 1_555 1_555 yes
O3 As2 O5 105.1(10) 1_555 1_555 4_554 yes
O4 As2 O5 88.8(4) 1_555 1_555 4_554 yes
As1 O3 As2 136.3(5) 1_555 1_555 1_555 yes
As1 O4 As2 125.5(4) 4_555 1_555 1_555 yes
As1 O5 As2 126.2(4) 1_555 1_555 4_455 yes
loop_
_geom_bond_atom_site_label_1
_geom_bond_atom_site_label_2
_geom_bond_distance
_geom_bond_site_symmetry_1
_geom_bond_site_symmetry_2
_geom_bond_publ_flag
As1 O3 1.7725(27) 1_555 1_555 yes
As1 O4 1.7678(27) 1_555 4_454 yes
As1 O5 1.7694(27) 1_555 1_555 yes
As2 O3 1.7701(27) 1_555 1_555 yes
As2 O4 1.7685(27) 1_555 1_555 yes
As2 O5 1.7731(27) 1_555 4_554 yes
loop_
_pd_meas_2theta_scan
_pd_meas_intensity_total
_pd_calc_intensity_total
_pd_proc_intensity_bkg_calc
_pd_proc_ls_weight
0.00440 100.75845 0 0 0
0.01321 110.62768 0 0 0
0.02202 109.40588 0 0 0
0.03083 109.69585 0 0 0
0.03963 110.99357 0 0 0
0.04844 110.91217 0 0 0
0.05725 107.62251 0 0 0
0.06605 106.5927 0 0 0
0.07486 107.58067 0 0 0
0.08367 108.31599 0 0 0
0.09248 108.42114 0 0 0
0.10128 106.03639 0 0 0
0.11009 107.02193 0 0 0
0.11890 107.33437 0 0 0
0.12770 106.86934 0 0 0
0.13651 107.37309 0 0 0
0.14532 107.54374 0 0 0
0.15413 107.28796 0 0 0
0.16293 106.91314 0 0 0
0.17174 106.59943 0 0 0
0.18055 106.10571 0 0 0
0.18935 105.31667 0 0 0
0.19816 103.71181 0 0 0
0.20697 104.49519 0 0 0
0.21578 105.45851 0 0 0
0.22458 106.37366 0 0 0
0.23339 107.92869 0 0 0
0.24220 109.30499 0 0 0
0.25100 110.10573 0 0 0
0.25981 109.63831 0 0 0
0.26862 109.33415 0 0 0
0.27743 109.09738 0 0 0
0.28623 109.96307 0 0 0
0.29504 110.36289 0 0 0
0.30385 110.43073 0 0 0
0.31265 110.31303 0 0 0
0.32146 109.70024 0 0 0
0.33027 108.73019 0 0 0
0.33908 108.15937 0 0 0
0.34788 108.45841 0 0 0
0.35669 107.88749 0 0 0
0.36550 109.00582 0 0 0
0.37430 110.13367 0 0 0
0.38311 110.66382 0 0 0
0.39192 109.92699 0 0 0
0.40073 110.39819 0 0 0
0.40953 110.60381 0 0 0
0.41834 111.22238 0 0 0
0.42715 112.22823 0 0 0
0.43595 112.60011 0 0 0
0.44476 111.07389 0 0 0
0.45357 109.72212 0 0 0
0.46238 108.3295 0 0 0
0.47118 108.33279 0 0 0
0.47999 108.56266 0 0 0
0.48880 109.01538 0 0 0
0.49760 109.24879 0 0 0
0.50641 109.83434 0 0 0
0.51522 109.28172 0 0 0
0.52403 109.19344 0 0 0
0.53283 108.37974 0 0 0
0.54164 107.86329 0 0 0
0.55045 108.06152 0 0 0
0.55926 108.59525 0 0 0
0.56806 108.74227 0 0 0
0.57687 108.7486 0 0 0
0.58568 108.42285 0 0 0
0.59448 108.23148 0 0 0
0.60329 107.73553 0 0 0
0.61210 107.06027 0 0 0
0.62091 107.55668 0 0 0
0.62971 108.36401 0 0 0
0.63852 108.75269 0 0 0
0.64733 109.65694 0 0 0
0.65613 110.78925 0 0 0
0.66494 111.24673 0 0 0
0.67375 111.19603 0 0 0
0.68256 110.66197 0 0 0
0.69136 110.83573 0 0 0
0.70017 111.63578 0 0 0
0.70898 111.56534 0 0 0
0.71778 110.90141 0 0 0
0.72659 110.20465 0 0 0
0.73540 109.43844 0 0 0
0.74421 109.4985 0 0 0
0.75301 109.94555 0 0 0
0.76182 110.23193 0 0 0
0.77063 110.87274 0 0 0
0.77943 111.67504 0 0 0
0.78824 111.69198 0 0 0
0.79705 111.07571 0 0 0
0.80586 111.11874 0 0 0
0.81466 110.88461 0 0 0
0.82347 112.46339 0 0 0
0.83228 113.77583 0 0 0
0.84108 114.59903 0 0 0
0.84989 115.62339 0 0 0
0.85870 115.34979 0 0 0
0.86751 115.69702 0 0 0
0.87631 116.03985 0 0 0
0.88512 117.0688 0 0 0
0.89393 118.39039 0 0 0
0.90273 119.17799 0 0 0
0.91154 120.29529 0 0 0
0.92035 121.91985 0 0 0
0.92916 121.56551 0 0 0
0.93796 121.49149 0 0 0
0.94677 120.31722 0 0 0
0.95558 119.39126 0 0 0
0.96438 117.4484 0 0 0
0.97319 118.61462 0 0 0
0.98200 120.63895 0 0 0
0.99081 123.84518 0 0 0
0.99961 125.931 0 0 0
1.00842 128.74002 0 0 0
1.01723 135.41801 0 0 0
1.02604 138.17719 0 0 0
1.03484 145.31287 0 0 0
1.04365 155.64018 0 0 0
1.05246 168.62816 0 0 0
1.06126 173.51508 0 0 0
1.07007 183.24454 0 0 0
1.07888 188.02678 0 0 0
1.08769 192.70276 0 0 0
1.09649 198.8213 0 0 0
1.10530 206.37006 0 0 0
1.11411 215.25081 0 0 0
1.12291 221.61661 0 0 0
1.13172 226.93608 0 0 0
1.14053 229.89061 0 0 0
1.14934 233.21228 0 0 0
1.15814 237.34462 0 0 0
1.16695 239.93504 0 0 0
1.17576 241.33112 0 0 0
1.18456 242.92418 0 0 0
1.19337 246.54175 0 0 0
1.20218 249.16672 0 0 0
1.21099 250.21651 0 0 0
1.21979 252.69705 0 0 0
1.22860 255.16264 0 0 0
1.23741 257.82544 0 0 0
1.24621 259.09204 0 0 0
1.25502 260.73001 0 0 0
1.26383 263.03229 0 0 0
1.27264 266.51035 0 0 0
1.28144 268.14215 0 0 0
1.29025 270.11221 0 0 0
1.29906 271.414 0 0 0
1.30786 272.74707 0 0 0
1.31667 272.43729 0 0 0
1.32548 273.55313 0 0 0
1.33429 276.11404 0 0 0
1.34309 278.5903 0 0 0
1.35190 278.97681 0 0 0
1.36071 279.93207 0 0 0
1.36951 281.01053 0 0 0
1.37832 282.75214 0 0 0
1.38713 283.86115 0 0 0
1.39594 285.32477 0 0 0
1.40474 286.18869 0 0 0
1.41355 287.10849 0 0 0
1.42236 288.06326 0 0 0
1.43116 289.8877 0 0 0
1.43997 291.67068 0 0 0
1.44878 292.9064 0 0 0
1.45759 293.76559 0 0 0
1.46639 294.41879 0 0 0
1.47520 296.59479 0 0 0
1.48401 297.81161 0 0 0
1.49281 299.72321 0 0 0
1.50162 300.18961 0 0 0
1.51043 300.66223 0 0 0
1.51924 302.28802 0 0 0
1.52804 303.9614 0 0 0
1.53685 304.1524 0 0 0
1.54566 303.57166 0 0 0
1.55446 304.9671 0 0 0
1.56327 306.08435 0 0 0
1.57208 306.64548 0 0 0
1.58089 308.12076 0 0 0
1.58969 309.12933 0 0 0
1.59850 310.29495 0 0 0
1.60731 312.21082 0 0 0
1.61612 313.66327 0 0 0
1.62492 313.67932 0 0 0
1.63373 314.99185 0 0 0
1.64254 316.03107 0 0 0
1.65134 317.16022 0 0 0
1.66015 317.88321 0 0 0
1.66896 318.10776 0 0 0
1.67777 316.94052 0 0 0
1.68657 317.72974 0 0 0
1.69538 318.63385 0 0 0
1.70419 319.07254 0 0 0
1.71299 319.65045 0 0 0
1.72180 320.73267 0 0 0
1.73061 321.29028 0 0 0
1.73942 322.66498 0 0 0
1.74822 324.34271 0 0 0
1.75703 325.81647 0 0 0
1.76584 326.05722 0 0 0
1.77464 326.19681 0 0 0
1.78345 326.36609 0 0 0
1.79226 327.33981 0 0 0
1.80107 328.45157 0 0 0
1.80987 329.78818 0 0 0
1.81868 330.83304 0 0 0
1.82749 330.96793 0 0 0
1.83629 332.26303 0 0 0
1.84510 332.21997 0 0 0
1.85391 332.06985 0 0 0
1.86272 331.86603 0 0 0
1.87152 333.76355 0 0 0
1.88033 334.89963 0 0 0
1.88914 335.06747 0 0 0
1.89794 335.733 0 0 0
1.90675 337.54041 0 0 0
1.91556 338.73251 0 0 0
1.92437 338.78897 0 0 0
1.93317 339.59833 0 0 0
1.94198 339.93262 0 0 0
1.95079 340.88605 0 0 0
1.95959 341.54132 0 0 0
1.96840 342.38651 0 0 0
1.97721 341.43564 0 0 0
1.98602 342.02594 0 0 0
1.99482 343.37051 0 0 0
2.00363 344.00229 0 0 0
2.01244 344.46686 0 0 0
2.02124 345.49713 0 0 0
2.03005 345.62421 0 0 0
2.03886 345.84439 0 0 0
2.04767 346.36423 0 0 0
2.05647 347.27109 0 0 0
2.06528 348.19067 0 0 0
2.07409 348.58121 0 0 0
2.08289 349.05484 0 0 0
2.09170 350.1001 0 0 0
2.10051 351.25757 0 0 0
2.10932 352.04349 0 0 0
2.11812 351.90976 0 0 0
2.12693 352.10992 0 0 0
2.13574 353.00003 0 0 0
2.14455 352.94528 0 0 0
2.15335 352.6705 0 0 0
2.16216 353.81949 0 0 0
2.17097 354.86224 0 0 0
2.17977 355.0264 0 0 0
2.18858 354.45718 0 0 0
2.19739 355.49731 0 0 0
2.20620 356.99313 0 0 0
2.21500 358.06564 0 0 0
2.22381 358.55594 0 0 0
2.23262 358.85309 0 0 0
2.24142 359.55353 0 0 0
2.25023 360.47989 0 0 0
2.25904 360.60416 0 0 0
2.26785 360.97861 0 0 0
2.27665 361.07208 0 0 0
2.28546 361.63702 0 0 0
2.29427 362.23886 0 0 0
2.30307 363.52841 0 0 0
2.31188 363.6329 0 0 0
2.32069 363.53171 0 0 0
2.32950 363.79153 0 0 0
2.33830 364.41083 0 0 0
2.34711 364.35654 0 0 0
2.35592 364.43423 0 0 0
2.36472 365.19165 0 0 0
2.37353 366.09033 0 0 0
2.38234 366.94894 0 0 0
2.39115 367.50989 0 0 0
2.39995 367.63217 0 0 0
2.40876 368.87842 0 0 0
2.41757 369.62979 0 0 0
2.42637 369.64209 0 0 0
2.43518 369.79062 0 0 0
2.44399 370.16016 0 0 0
2.45280 370.23254 0 0 0
2.46160 370.20154 0 0 0
2.47041 370.89899 0 0 0
2.47922 371.83383 0 0 0
2.48802 372.38867 0 0 0
2.49683 372.77155 0 0 0
2.50564 374.02359 0 0 0
2.51445 374.11099 0 0 0
2.52325 374.6626 0 0 0
2.53206 375.08716 0 0 0
2.54087 375.04828 0 0 0
2.54967 374.52151 0 0 0
2.55848 375.6008 0 0 0
2.56729 376.13785 0 0 0
2.57610 376.34857 0 0 0
2.58490 376.93185 0 0 0
2.59371 377.49939 0 0 0
2.60252 377.30475 0 0 0
2.61132 377.8598 0 0 0
2.62013 378.64902 0 0 0
2.62894 379.73895 0 0 0
2.63775 380.00516 0 0 0
2.64655 380.64459 0 0 0
2.65536 380.29605 0 0 0
2.66417 380.81998 0 0 0
2.67298 381.15921 0 0 0
2.68178 382.11514 0 0 0
2.69059 382.66177 0 0 0
2.69940 383.05887 0 0 0
2.70820 382.92065 0 0 0
2.71701 382.67871 0 0 0
2.72582 383.46268 0 0 0
2.73463 384.07364 0 0 0
2.74343 384.65372 0 0 0
2.75224 384.73608 0 0 0
2.76105 384.51599 0 0 0
2.76985 384.42838 0 0 0
2.77866 384.43869 0 0 0
2.78747 385.50772 0 0 0
2.79628 385.92923 0 0 0
2.80508 386.0506 0 0 0
2.81389 386.3812 0 0 0
2.82270 387.22983 0 0 0
2.83150 387.57712 0 0 0
2.84031 387.58322 0 0 0
2.84912 387.7106 0 0 0
2.85793 388.77673 0 0 0
2.86673 390.0437 0 0 0
2.87554 389.73416 0 0 0
2.88435 390.04166 0 0 0
2.89315 390.39496 0 0 0
2.90196 390.7785 0 0 0
2.91077 391.18732 0 0 0
2.91958 391.58624 0 0 0
2.92838 392.10654 0 0 0
2.93719 391.492 0 0 0
2.94600 391.60825 0 0 0
2.95480 391.92194 0 0 0
2.96361 392.74655 0 0 0
2.97242 392.81161 0 0 0
2.98123 393.08881 0 0 0
2.99003 392.82016 0 0 0
2.99884 393.1409 0 0 0
3.00765 393.64856 0 0 0
3.01645 393.96375 0 0 0
3.02526 394.1452 398.817464 398.781879 0.002537136
3.03407 393.66098 398.449874 398.414004 0.002540257
3.04288 394.12589 398.140808 398.104649 0.00253726
3.05168 395.22906 397.886891 397.85044 0.002530178
3.06049 396.86008 397.68489 397.648143 0.00251978
3.06930 398.22809 397.531705 397.494659 0.002511124
3.07810 398.28036 397.424369 397.387019 0.002510794
3.08691 398.1344 397.360035 397.322378 0.002511715
3.09572 397.82199 397.335987 397.298018 0.002513687
3.10453 398.52335 397.349621 397.311337 0.002509263
3.11333 398.63306 397.39845 397.359847 0.002508573
3.12214 398.15088 397.480098 397.44117 0.002511611
3.13095 398.40506 397.596038 397.553039 0.002510008
3.13976 399.18686 397.736637 397.693288 0.002505092
3.14856 399.54199 397.903554 397.85985 0.002502866
3.15737 399.60083 398.094812 398.050748 0.002502497
3.16618 399.60526 398.308549 398.264122 0.00250247
3.17498 399.0369 398.542974 398.498177 0.002506034
3.18379 399.88062 398.796388 398.751217 0.002500746
3.19260 400.95639 399.067176 399.021625 0.002494037
3.20140 401.84109 399.353801 399.307867 0.002488546
3.21021 401.58609 399.654815 399.608491 0.002490126
3.21902 401.8472 399.968835 399.922116 0.002488508
3.22783 402.11792 400.294554 400.247434 0.002486833
3.23663 402.70627 400.630733 400.583207 0.002483199
3.24544 402.2915 400.976204 400.928266 0.00248576
3.25425 402.39658 401.329857 401.281502 0.002485111
3.26306 402.96198 401.690658 401.641879 0.002481624
3.27186 404.17239 402.05762 402.008411 0.002474192
3.28067 405.13791 402.429819 402.380174 0.002468295
3.28948 405.66077 402.806373 402.756286 0.002465114
3.29828 405.32074 403.186492 403.135955 0.002467182
3.30709 404.98553 403.569398 403.518406 0.002469224
3.31590 404.96869 403.954377 403.902922 0.002469327
3.32471 405.27951 404.34076 404.288835 0.002467433
3.33351 404.72009 404.72792 404.675519 0.002470843
3.34232 404.7067 405.115288 405.062402 0.002470925
3.35113 405.99146 405.50232 405.448942 0.002463106
3.35993 406.69632 405.888519 405.834641 0.002458837
3.36874 406.79434 406.273424 406.219039 0.002458245
3.37755 406.6691 406.656614 406.601712 0.002459002
3.38636 406.73761 407.037695 406.982268 0.002458587
3.39516 406.63776 407.41632 407.36036 0.002459191
3.40397 406.866 407.792162 407.735659 0.002457812
3.41278 407.37976 408.190396 408.107873 0.002454712
3.42158 407.75131 408.559943 408.476736 0.002452475
3.43039 408.49207 408.9259 408.842 0.002448028
3.43920 408.81879 409.288083 409.203478 0.002446072
3.44801 409.31461 409.646294 409.560972 0.002443108
3.45681 409.28738 410.000371 409.91432 0.002443271
3.46562 408.94406 410.35017 410.263378 0.002445322
3.47443 408.57547 410.695581 410.608035 0.002447528
3.48323 409.09131 411.036503 410.948189 0.002444442
3.49204 409.80215 411.372857 411.283761 0.002440202
3.50085 410.1571 411.704582 411.614689 0.00243809
3.50966 410.31528 412.031634 411.940929 0.00243715
3.51846 410.55731 412.353983 412.262449 0.002435714
3.52727 411.23065 412.671624 412.579244 0.002431725
3.53608 412.17612 412.984554 412.89131 0.002426147
3.54488 412.60211 413.29279 413.198661 0.002423642
3.55369 413.17636 413.59636 413.501326 0.002420274
3.56250 413.30829 413.895293 413.799331 0.002419501
3.57131 412.78534 414.18966 414.092747 0.002422567
3.58011 412.3837 414.479514 414.381622 0.002424926
3.58892 413.02084 414.764925 414.666026 0.002421185
3.59773 413.78488 415.045971 414.946033 0.002416715
3.60653 413.39883 415.322746 415.221735 0.002418972
3.61534 413.24063 415.595345 415.493221 0.002419898
3.62415 413.82007 415.863873 415.76059 0.002416509
3.63296 414.73929 416.128441 416.02395 0.002411153
3.64176 414.70688 416.389165 416.283408 0.002411342
3.65057 415.05206 416.646177 416.539086 0.002409336
3.65938 415.4852 416.899608 416.791102 0.002406825
3.66818 415.77835 417.149599 417.039582 0.002405128
3.67699 415.51315 417.3963 417.284655 0.002406663
3.68580 415.47128 417.639878 417.52645 0.002406905
3.69461 415.30765 417.880517 417.765096 0.002407854
3.70341 416.03491 418.118483 418.000744 0.002403644
3.71222 416.53876 418.361676 418.233526 0.002400737
3.72103 417.77332 418.595613 418.46358 0.002393643
3.72984 418.46552 418.828724 418.691045 0.002389683
3.73864 418.96518 419.06241 418.916069 0.002386833
3.74745 418.62869 419.312785 419.13879 0.002388752
3.75626 419.02008 419.55352 419.359351 0.00238652
3.76506 419.12289 419.800441 419.577895 0.002385935
3.77387 418.92175 420.053811 419.79456 0.002387081
3.78268 419.2038 420.311493 420.009492 0.002385475
3.79149 419.67548 420.568083 420.22283 0.002382793
3.80029 420.42722 420.814569 420.434711 0.002378533
3.80910 421.16858 421.040301 420.645274 0.002374346
3.81791 422.41983 421.239736 420.854655 0.002367313
3.82671 423.24078 421.417749 421.062981 0.002362721
3.83552 423.24597 421.585135 421.270397 0.002362692
3.84433 422.33124 421.751492 421.477028 0.00236781
3.85314 421.87152 421.922845 421.682998 0.00237039
3.86194 421.48102 422.101897 421.888437 0.002372586
3.87075 422.1748 422.288841 422.093466 0.002368687
3.87956 422.52805 422.482381 422.298205 0.002366707
3.88836 423.36914 422.6807 422.502771 0.002362005
3.89717 423.80344 422.88214 422.707279 0.002359584
3.90598 423.4231 423.08551 422.911837 0.002361704
3.91479 422.89093 423.290099 423.116558 0.002364676
3.92359 422.44876 423.495549 423.321545 0.002367151
3.93240 423.61267 423.701725 423.526901 0.002360647
3.94121 424.16675 423.908605 423.732722 0.002357563
3.95001 424.59818 424.132317 423.939106 0.002355168
3.95882 425.29276 424.340807 424.14614 0.002351321
3.96763 425.96698 424.550159 424.353914 0.0023476
3.97644 426.01074 424.760449 424.562518 0.002347359
3.98524 425.80014 424.97174 424.772029 0.00234852
3.99405 426.10336 425.184107 424.982527 0.002346848
4.00286 426.43881 425.431051 425.194085 0.002345002
4.01166 426.64243 425.645928 425.406775 0.002343883
4.02047 427.13046 425.862077 425.620662 0.002341205
4.02928 426.71863 426.07956 425.835811 0.002343465
4.03809 426.42587 426.298433 426.05228 0.002345073
4.04689 426.75705 426.518757 426.27013 0.002343254
4.05570 427.44357 426.740581 426.489412 0.00233949
4.06451 428.0145 426.963956 426.710175 0.002336369
4.07331 427.67615 427.188927 426.932467 0.002338218
4.08212 427.17978 427.415536 427.156327 0.002340935
4.09093 427.69104 427.643829 427.3818 0.002338136
4.09974 428.52899 427.873839 427.608919 0.002333564
4.10854 429.23648 428.105602 427.837718 0.002329718
4.11735 429.659 428.339149 428.068226 0.002327427
4.12616 429.49097 428.574507 428.30047 0.002328338
4.13496 429.65961 428.8117 428.53447 0.002327424
4.14377 429.59247 429.050754 428.770251 0.002327788
4.15258 429.95773 429.291687 429.007829 0.00232581
4.16139 430.27258 429.534516 429.247217 0.002324108
4.17019 430.68884 429.77924 429.488412 0.002321862
4.17900 431.08279 430.025898 429.731451 0.00231974
4.18781 431.82538 430.274918 429.976326 0.002315751
4.19661 432.44885 430.525439 430.223036 0.002312412
4.20542 432.04993 430.784475 430.471587 0.002314547
4.21423 431.60358 431.03891 430.721974 0.002316941
4.22304 431.03915 431.295284 430.974191 0.002319975
4.23184 431.09805 431.553594 431.228232 0.002319658
4.24065 432.17865 431.813833 431.484086 0.002313858
4.24946 432.80283 432.075992 431.741738 0.002310521
4.25826 432.20148 432.340066 432.00118 0.002313736
4.26707 431.84766 432.606042 432.262393 0.002315631
4.27588 432.71161 432.873906 432.525356 0.002311008
4.28469 433.8602 433.143642 432.79005 0.00230489
4.29349 433.93997 433.415232 433.056449 0.002304466
4.30230 434.14215 433.688663 433.324534 0.002303393
4.31111 434.29956 433.963912 433.594275 0.002302558
4.31992 435.13748 434.240958 433.865646 0.002298124
4.32872 435.1705 434.51978 434.138615 0.00229795
4.33753 435.36032 434.800354 434.413152 0.002296948
4.34634 435.46362 435.082652 434.689221 0.002296403
4.35514 435.53415 435.366657 434.966792 0.002296031
4.36395 436.33093 435.652338 435.245829 0.002291838
4.37276 436.87347 435.939669 435.526293 0.002288992
4.38157 438.04623 436.228623 435.808147 0.002282864
4.39037 438.12305 436.519173 436.091352 0.002282464
4.39918 438.48782 436.811287 436.375863 0.002280565
4.40799 438.75845 437.104944 436.661647 0.002279158
4.41679 439.18274 437.400113 436.948657 0.002276957
4.42560 439.0448 437.696766 437.23685 0.002277672
4.43441 439.08362 437.994858 437.526168 0.002277471
4.44322 439.02063 438.294396 437.816596 0.002277797
4.45202 439.68619 438.595338 438.108076 0.002274349
4.46083 439.98474 438.897653 438.400556 0.002272806
4.46964 440.68555 439.201324 438.693998 0.002269192
4.47844 441.08896 439.506325 438.988352 0.002267116
4.48725 441.44604 439.812632 439.28357 0.002265283
4.49606 442.01517 440.120227 439.579606 0.002262366
4.50487 442.31668 440.429085 439.876409 0.002260824
4.51367 442.69089 440.739198 440.173938 0.002258913
4.52248 442.61523 441.05055 440.472141 0.002259299
4.53129 441.92206 441.363127 440.77097 0.002262842
4.54009 441.71463 441.676923 441.070379 0.002263905
4.54890 441.29953 441.991931 441.370319 0.002266035
4.55771 441.73529 442.308149 441.670739 0.002263799
4.56652 442.9758 442.625586 441.971598 0.00225746
4.57532 443.63568 442.944247 442.272847 0.002254102
4.58413 443.37311 443.264146 442.574436 0.002255437
4.59294 443.66068 443.585302 442.876322 0.002253975
4.60174 443.81955 443.907742 443.178456 0.002253168
4.61055 444.95572 444.231495 443.480789 0.002247415
4.61936 445.86221 444.556613 443.783284 0.002242845
4.62817 445.54401 444.88314 444.085892 0.002244447
4.63697 445.46454 445.211142 444.388568 0.002244848
4.64578 445.81274 445.54069 444.69127 0.002243094
4.65459 445.9126 445.871869 444.99395 0.002242592
4.66339 445.94821 446.204788 445.296573 0.002242413
4.67220 446.91507 446.539563 445.599094 0.002237562
4.68101 447.83154 446.876333 445.901473 0.002232983
4.68982 447.98492 447.215257 446.203669 0.002232218
4.69862 448.12192 447.556521 446.505643 0.002231536
4.70743 448.09326 447.90032 446.80734 0.002231678
4.71624 448.72809 448.248265 447.108753 0.002228521
4.72504 448.99771 448.597979 447.409836 0.002227183
4.73385 448.59476 448.951108 447.710549 0.002229183
4.74266 449.173 449.308034 448.010858 0.002226314
4.75147 449.39722 449.669193 448.310731 0.002225203
4.76027 449.58701 450.035095 448.610133 0.002224264
4.76908 450.00668 450.406332 448.909031 0.002222189
4.77789 450.68268 450.783591 449.207401 0.002218856
4.78669 451.00592 451.167675 449.50521 0.002217266
4.79550 451.06473 451.559526 449.802431 0.002216977
4.80431 450.65952 451.960241 450.099037 0.00221897
4.81312 450.42209 452.371132 450.395002 0.00222014
4.82192 450.24112 452.79373 450.690299 0.002221032
4.83073 451.46368 453.229886 450.98491 0.002215018
4.83954 452.65775 453.681804 451.27881 0.002209175
4.84835 453.14343 454.152128 451.571979 0.002206807
4.85715 453.24911 454.644084 451.864396 0.002206292
4.86596 453.51962 455.161581 452.156042 0.002204976
4.87477 454.39706 455.709458 452.446904 0.002200718
4.88357 455.17984 456.293706 452.736963 0.002196934
4.89238 456.53125 456.921785 453.026207 0.002190431
4.90119 457.34088 457.603153 453.31462 0.002186553
4.91000 458.25763 458.349891 453.602192 0.002182179
4.91880 458.81976 459.177588 453.888907 0.002179505
4.92761 458.6492 460.10697 454.174765 0.002180316
4.93642 459.80573 461.166664 454.459753 0.002174832
4.94522 461.83511 462.399238 454.743864 0.002165275
4.95403 464.02252 463.875782 455.027093 0.002155068
4.96284 466.29596 465.728536 455.309433 0.002144561
4.97165 469.2724 468.218811 455.590875 0.002130958
4.98045 473.02246 471.85516 455.871436 0.002114065
4.98926 477.82697 477.552232 456.151109 0.002092808
4.99807 485.14728 486.761566 456.429893 0.00206123
5.00687 497.03772 501.417071 456.707789 0.00201192
5.01568 513.20874 523.513714 456.984802 0.001948525
5.02449 539.74768 554.227641 457.260932 0.001852718
5.03330 579.45709 592.723456 457.536193 0.001725753
5.04210 639.00684 634.806786 457.810588 0.001564928
5.05091 700.47552 671.555898 458.084126 0.001427602
5.05972 736.48755 690.056973 458.356817 0.001357796
5.06852 713.51257 681.447996 458.628671 0.001401517
5.07733 653.69714 650.277246 458.899699 0.00152976
5.08614 588.35754 609.364234 459.169918 0.001699647
5.09495 546.71118 569.428584 459.439341 0.001829119
5.10375 518.84613 536.226977 459.707984 0.001927354
5.11256 501.56619 511.641573 459.975863 0.001993755
5.12137 489.36221 495.072793 460.242996 0.002043476
5.13017 481.82764 484.698497 460.509399 0.002075431
5.13898 476.74908 478.488635 460.775099 0.002097539
5.14779 474.00052 474.79716 461.040113 0.002109702
5.15660 471.46378 472.525925 461.304464 0.002121054
5.16540 469.8085 471.039184 461.568175 0.002128527
5.17421 468.33591 470.003287 461.831267 0.00213522
5.18302 467.67966 469.249774 462.093771 0.002138216
5.19182 467.16528 468.690669 462.355712 0.00214057
5.20063 467.26511 468.275583 462.617115 0.002140113
5.20944 467.40802 467.971929 462.87801 0.002139458
5.21825 467.19604 467.756553 463.138424 0.002140429
5.22705 466.85535 467.612297 463.398386 0.002141991
5.23586 466.57724 467.526 463.657917 0.002143268
5.24467 466.24149 467.487397 463.917075 0.002144811
5.25347 466.55844 467.488371 464.175877 0.002143354
5.26228 467.32874 467.52251 464.434358 0.002139821
5.27109 467.8056 467.584661 464.692551 0.00213764
5.27990 467.64325 467.670618 464.950491 0.002138382
5.28870 466.74704 467.776987 465.208209 0.002142488
5.29751 466.8418 467.900993 465.465749 0.002142053
5.30632 466.793 468.052697 465.723145 0.002142277
5.31513 467.43146 468.205497 465.980433 0.002139351
5.32393 467.58527 468.392128 466.237651 0.002138647
5.33274 468.76154 468.567391 466.494839 0.002133281
5.34155 469.18353 468.752057 466.752032 0.002131362
5.35035 469.59091 468.945217 467.009277 0.002129513
5.35916 469.59479 469.146105 467.26661 0.002129496
5.36797 469.91074 469.354074 467.524072 0.002128064
5.37678 470.17545 469.5686 467.781705 0.002126866
5.38558 470.94336 469.789255 468.039547 0.002123398
5.39439 471.76889 470.015694 468.297647 0.002119682
5.40320 471.62714 470.247649 468.556043 0.002120319
5.41200 471.97632 470.484925 468.814778 0.00211875
5.42081 472.45575 470.727386 469.073896 0.0021166
5.42962 472.92734 470.974965 469.333441 0.00211449
5.43843 473.31992 471.227653 469.593451 0.002112736
5.44723 473.55743 471.485508 469.853979 0.002111676
5.45604 472.92072 471.748649 470.115064 0.002114519
5.46485 472.70093 472.017262 470.376752 0.002115503
5.47365 472.78091 472.291619 470.639086 0.002115145
5.48246 473.57202 472.572066 470.902112 0.002111611
5.49127 473.52563 472.859051 471.165871 0.002111818
5.50008 473.41656 473.153153 471.430414 0.002112305
5.50888 473.79929 473.455057 471.695768 0.002110598
5.51769 475.21725 473.765678 471.962008 0.002104301
5.52650 476.2356 474.086086 472.229164 0.002099801
5.53530 476.0542 474.417646 472.497281 0.002100601
5.54411 476.33374 474.762044 472.766404 0.002099368
5.55292 476.88303 475.121397 473.036575 0.00209695
5.56173 477.94907 475.498415 473.307844 0.002092273
5.57053 477.79105 475.896524 473.580253 0.002092965
5.57934 477.59348 476.320162 473.853848 0.002093831
5.58815 477.51352 476.77514 474.128671 0.002094182
5.59695 478.22574 477.269324 474.404765 0.002091063
5.60576 478.62299 477.813791 474.682179 0.002089327
5.61457 478.93643 478.425546 474.960954 0.00208796
5.62338 479.7674 479.133987 475.241134 0.002084343
5.63218 480.6116 479.994884 475.522761 0.002080682
5.64099 481.38013 481.117849 475.805879 0.00207736
5.64980 482.50729 482.709806 476.090527 0.002072508
5.65860 484.10251 485.122664 476.376754 0.002065678
5.66741 486.31378 488.86967 476.664598 0.002056286
5.67622 489.51868 494.553327 476.9541 0.002042823
5.68503 494.53448 502.655204 477.245302 0.002022104
5.69383 503.63678 513.199954 477.538244 0.001985558
5.70264 519.80658 525.321619 477.832964 0.001923792
5.71145 540.97321 536.72658 478.129507 0.00184852
5.72025 557.70758 543.523147 478.427909 0.001793054
5.72906 556.13568 542.379523 478.728209 0.001798122
5.73787 539.33246 534.148018 479.030445 0.001854144
5.74668 518.31836 522.760178 479.334651 0.001929316
5.75548 503.32645 511.643858 479.640871 0.001986782
5.76429 495.08109 502.538337 479.949138 0.002019871
5.77310 491.49866 495.945904 480.25947 0.002034594
5.78190 489.12534 491.6385 480.571937 0.002044466
5.79071 487.87448 489.061293 480.886557 0.002049708
5.79952 487.30099 487.626796 481.203363 0.00205212
5.80833 486.99524 486.875919 481.522384 0.002053408
5.81713 486.86514 486.512314 481.843661 0.002053957
5.82594 486.70395 486.369188 482.167222 0.002054637
5.83475 486.38818 486.360646 482.493097 0.002055971
5.84356 486.45065 486.443459 482.821317 0.002055707
5.85236 486.92618 486.594869 483.151912 0.002053699
5.86117 487.51624 486.801954 483.484906 0.002051214
5.86998 487.93433 487.056879 483.820335 0.002049456
5.87878 488.50665 487.354946 484.158222 0.002047055
5.88759 489.10571 487.693894 484.498595 0.002044548
5.89640 489.83896 488.073504 484.841477 0.002041487
5.90521 490.0546 488.495604 485.186891 0.002040589
5.91401 490.35681 488.964345 485.534868 0.002039331
5.92282 490.8782 489.486825 485.885427 0.002037165
5.93163 491.47809 490.084195 486.23859 0.002034679
5.94043 492.38736 490.757552 486.594379 0.002030921
5.94924 493.68442 491.553739 486.952814 0.002025585
5.95805 495.03601 492.546405 487.313911 0.002020055
5.96686 495.78741 493.879337 487.677695 0.002016994
5.97566 496.66608 495.811884 488.044182 0.002013425
5.98447 498.55243 498.754516 488.413388 0.002005807
5.99328 502.01297 503.245687 488.785328 0.00199198
6.00208 506.75308 509.81728 489.160018 0.001973348
6.01089 513.67383 518.724102 489.537468 0.001946761
6.01970 525.24231 529.56332 489.917699 0.001903883
6.02851 542.11694 540.762055 490.300718 0.00184462
6.03731 556.78253 549.076198 490.686538 0.001796033
6.04612 558.54535 550.666776 491.075146 0.001790365
6.05493 545.62628 544.819728 491.466595 0.001832756
6.06373 529.26849 534.848293 491.860873 0.0018894
6.07254 516.11414 524.433798 492.257981 0.001937556
6.08135 508.6066 515.626941 492.657935 0.001966156
6.09016 504.10425 509.121324 493.060737 0.001983717
6.09896 502.27267 504.816463 493.466389 0.00199095
6.10777 501.27222 502.23059 493.874897 0.001994924
6.11658 500.35541 500.805778 494.286257 0.001998579
6.12538 500.05927 500.085774 494.70048 0.001999763
6.13419 500.20474 499.767063 495.117563 0.001999181
6.14300 500.50085 499.675121 495.537504 0.001997999
6.15181 500.41827 499.71857 495.960303 0.001998328
6.16061 499.97418 499.850655 496.385956 0.002000103
6.16942 499.86826 500.046204 496.814455 0.002000527
6.17823 500.8313 500.29011 497.245806 0.00199668
6.18703 501.07556 500.572332 497.679998 0.001995707
6.19584 501.16537 500.885682 498.117025 0.001995349
6.20465 501.60901 501.224777 498.55688 0.001993585
6.21346 502.27356 501.585546 498.999554 0.001990947
6.22226 502.86072 501.964843 499.445033 0.001988622
6.23107 502.97369 502.36021 499.893316 0.001988176
6.23988 503.23499 502.769724 500.344388 0.001987143
6.24868 503.70746 503.191866 500.798236 0.001985279
6.25749 504.34628 503.625422 501.254846 0.001982765
6.26630 504.71866 504.069433 501.714201 0.001981302
6.27511 504.68359 504.523156 502.176295 0.001981439
6.28391 504.91882 504.985987 502.641106 0.001980516
6.29272 505.68567 505.457473 503.108619 0.001977513
6.30153 506.20065 505.93727 503.578814 0.001975501
6.31033 507.26517 506.425114 504.051648 0.001971356
6.31914 507.72061 506.920907 504.527153 0.001969587
6.32795 508.06876 507.424553 505.005276 0.001968238
6.33676 508.05051 507.936085 505.486008 0.001968308
6.34556 508.70065 508.455594 505.96932 0.001965793
6.35437 508.57092 508.983265 506.45519 0.001966294
6.36318 508.66251 509.519372 506.943592 0.00196594
6.37198 509.60733 510.064301 507.434503 0.001962295
6.38079 510.26306 510.618536 507.927891 0.001959773
6.38960 510.47986 511.182722 508.42374 0.001958941
6.39841 511.33368 511.757654 508.922018 0.00195567
6.40721 512.66223 512.344331 509.422695 0.001950602
6.41602 513.17566 512.943994 509.925744 0.00194865
6.42483 513.49957 513.558213 510.431134 0.001947421
6.43364 514.22723 514.188939 510.938828 0.001944666
6.44244 515.15662 514.83866 511.448807 0.001941157
6.45125 514.69861 515.512199 511.961032 0.001942885
6.46006 514.76935 516.210314 512.475472 0.001942618
6.46886 515.88947 516.939949 512.992091 0.0019384
6.47767 515.98566 517.708083 513.51085 0.001938038
6.48648 516.04272 518.524234 514.031725 0.001937824
6.49529 516.8797 519.401788 514.554675 0.001934686
6.50409 518.13654 520.361163 515.079662 0.001929993
6.51290 519.24799 521.437131 515.60665 0.001925862
6.52171 520.72821 522.694581 516.135601 0.001920388
6.53051 522.42896 524.259073 516.666469 0.001914136
6.53932 524.19983 526.363669 517.199229 0.001907669
6.54813 525.90387 529.395396 517.733833 0.001901488
6.55694 527.88342 533.898205 518.270242 0.001894358
6.56574 532.04852 540.471952 518.808414 0.001879528
6.57455 538.66711 549.516129 519.348308 0.001856434
6.58336 549.78943 560.838948 519.889851 0.001818878
6.59216 564.96326 573.055512 520.433055 0.001770027
6.60097 581.87561 582.837679 520.977858 0.00171858
6.60978 587.16351 585.675532 521.524211 0.001703103
6.61859 577.48822 580.195463 522.072068 0.001731637
6.62739 561.85956 569.973867 522.621386 0.001779804
6.63620 547.72137 559.257698 523.172119 0.001825746
6.64501 540.70795 550.33358 523.724214 0.001849427
6.65381 536.97296 543.89783 524.277638 0.001862291
6.66262 534.48505 539.788866 524.832339 0.00187096
6.67143 533.32135 537.468648 525.388267 0.001875042
6.68024 532.93707 536.34761 525.945377 0.001876394
6.68904 532.04395 535.958975 526.503614 0.001879544
6.69785 532.68604 536.002283 527.062942 0.001877278
6.70666 534.20709 536.310726 527.623306 0.001871933
6.71546 535.65417 536.801299 528.184658 0.001866876
6.72427 536.58936 537.436586 528.746946 0.001863622
6.73308 537.54218 538.20274 529.310124 0.001860319
6.74189 538.18512 539.099942 529.874132 0.001858097
6.75069 539.87823 540.14027 530.438935 0.00185227
6.75950 543.05255 541.350221 531.004475 0.001841442
6.76831 545.93005 542.781072 531.570702 0.001831737
6.77711 549.08215 544.533642 532.137564 0.001821221
6.78592 552.58203 546.806508 532.70501 0.001809686
6.79473 557.85468 549.972137 533.272982 0.001792582
6.80354 563.99512 554.657913 533.841442 0.001773065
6.81234 571.51508 561.75877 534.410332 0.001749735
6.82115 581.88062 572.27875 534.979599 0.001718566
6.82996 595.05469 586.929676 535.549191 0.001680518
6.83877 608.84631 605.458495 536.11905 0.001642451
6.84757 623.79608 625.588533 536.689103 0.001603088
6.85638 634.62396 641.642488 537.259358 0.001575736
6.86519 635.36005 645.873913 537.829729 0.001573911
6.87399 628.21204 636.133242 538.400163 0.001591819
6.88280 613.42603 618.782914 538.970608 0.001630188
6.89161 598.37 600.990038 539.541011 0.001671207
6.90041 587.41846 586.420424 540.111314 0.001702364
6.90922 578.24707 576.08039 540.681476 0.001729365
6.91803 572.04974 569.596689 541.251439 0.0017481
6.92684 568.33612 566.045809 541.82115 0.001759522
6.93564 566.13672 564.467104 542.390556 0.001766358
6.94445 565.11206 564.127271 542.959606 0.001769561
6.95326 564.43542 564.571639 543.52824 0.001771682
6.96207 565.31445 565.564474 544.09642 0.001768927
6.97087 567.3952 567.006432 544.664086 0.00176244
6.97968 570.01794 568.876017 545.231186 0.001754331
6.98849 573.06451 571.200133 545.79767 0.001745004
6.99729 576.93781 574.04348 546.363478 0.001733289
7.00610 582.9281 577.512467 546.928573 0.001715477
7.01491 591.29541 581.773572 547.492895 0.001691202
7.02372 602.47351 587.095154 548.056396 0.001659824
7.03252 616.55377 593.968238 548.619023 0.001621919
7.04133 633.6908 603.249871 549.180725 0.001578057
7.05014 654.99298 616.672553 549.741447 0.001526734
7.05894 684.31738 637.321879 550.301151 0.00146131
7.06775 724.85834 670.104449 550.859781 0.00137958
7.07656 776.07819 721.481097 551.417286 0.00128853
7.08537 841.63715 797.824321 551.973619 0.00118816
7.09417 929.28503 902.015757 552.528729 0.001076096
7.10298 1024.7208 1027.909887 553.082563 0.000975876
7.11179 1116.4604 1151.012784 553.635084 0.000895688
7.12059 1165.2131 1222.160317 554.186207 0.000858212
7.12940 1148.1906 1198.240475 554.735948 0.000870936
7.13821 1074.5342 1095.75644 555.284227 0.000930636
7.14702 973.54663 968.181085 555.830999 0.001027172
7.15582 879.4234 852.962727 556.376216 0.001137109
7.16463 804.41095 764.103512 556.919827 0.001243146
7.17344 747.97766 702.413793 557.461799 0.001336938
7.18224 706.96039 662.735824 558.00208 0.001414506
7.19105 675.99176 638.349759 558.540627 0.001479308
7.19986 653.05322 623.465301 559.077394 0.001531269
7.20867 635.89832 614.114448 559.612333 0.001572578
7.21747 622.18658 607.968489 560.145413 0.001607235
7.22628 612.14655 603.791306 560.676584 0.001633596
7.23509 606.18182 600.946068 561.205805 0.00164967
7.24389 600.9516 599.092339 561.733035 0.001664028
7.25270 597.64465 598.037128 562.258232 0.001673235
7.26151 595.47479 597.667182 562.78135 0.001679332
7.27032 593.8855 597.921893 563.302361 0.001683826
7.27912 593.38086 598.783472 563.82122 0.001685258
7.28793 594.08105 600.275828 564.337888 0.001683272
7.29674 595.2066 602.473509 564.852327 0.001680089
7.30554 597.26758 605.529707 565.3645 0.001674291
7.31435 600.88538 609.73628 565.874364 0.001664211
7.32316 606.18658 615.645527 566.381893 0.001649657
7.33197 613.3233 624.251811 566.887048 0.001630461
7.34077 623.49884 637.191891 567.389792 0.001603852
7.34958 640.48602 656.833909 567.890092 0.001561314
7.35839 665.8421 686.084393 568.387907 0.001501858
7.36720 706.14813 727.772865 568.883217 0.001416133
7.37600 765.77667 783.243323 569.375983 0.001305864
7.38481 846.4859 849.320205 569.866146 0.001181355
7.39362 924.78406 915.006937 570.35373 0.001081334
7.40242 975.93756 968.156076 570.838677 0.001024656
7.41123 1005.2547 1008.539648 571.320958 0.000994773
7.42004 1032.2725 1035.586968 571.800537 0.000968736
7.42884 1040.91 1030.86316 572.277399 0.000960698
7.43765 1003.6308 980.153652 572.751509 0.000996382
7.44646 919.6911 901.258261 573.222841 0.001087322
7.45527 827.11237 822.244973 573.691369 0.001209026
7.46407 755.01202 757.92357 574.157067 0.001324482
7.47288 708.39093 711.582245 574.619906 0.00141165
7.48169 678.25647 681.152655 575.079873 0.001474369
7.49050 659.83038 662.734998 575.536938 0.001515541
7.49930 647.54089 652.473706 575.99108 0.001544304
7.50811 639.76642 647.47065 576.442278 0.00156307
7.51692 635.90692 645.951528 576.890509 0.001572557
7.52572 635.88165 647.049392 577.33575 0.00157262
7.53453 640.04944 650.540706 577.777991 0.001562379
7.54334 647.16693 656.733203 578.217208 0.001545196
7.55215 657.88446 666.571824 578.653384 0.001520024
7.56095 674.8476 681.917905 579.086501 0.001481816
7.56976 700.82489 705.861978 579.516539 0.00142689
7.57857 738.9342 742.721214 579.943492 0.0013533
7.58737 792.92102 797.368073 580.367341 0.00126116
7.59618 871.61707 873.698224 580.788071 0.001147293
7.60499 975.33014 971.722221 581.20567 0.001025294
7.61380 1096.4185 1081.807073 581.620125 0.00091206
7.62260 1200.3129 1180.079031 582.031421 0.000833116
7.63141 1261.7255 1248.137679 582.439556 0.000792565
7.64022 1298.4733 1304.310949 582.844515 0.000770135
7.64902 1356.912 1378.887558 583.24629 0.000736967
7.65783 1445.7457 1468.071182 583.64485 0.000691685
7.66664 1504.4576 1518.629223 584.040232 0.000664691
7.67545 1468.7321 1466.680273 584.432407 0.000680859
7.68425 1329.9146 1320.520621 584.821365 0.000751928
7.69306 1150.3884 1146.180832 585.20711 0.000869272
7.70187 988.65247 991.829892 585.589633 0.001011478
7.71067 867.88019 873.881184 585.96893 0.001152233
7.71948 785.49786 791.768432 586.345 0.001273078
7.72829 731.42224 738.114363 586.717839 0.001367199
7.73710 695.09955 704.149985 587.087443 0.001438643
7.74590 671.95471 682.548941 587.453821 0.001488196
7.75471 656.4079 668.354877 587.816967 0.001523443
7.76352 645.51837 658.690846 588.176884 0.001549143
7.77232 637.56891 652.063814 588.533574 0.001568458
7.78113 632.59985 647.805571 588.887035 0.001580778
7.78994 630.90112 645.786591 589.237279 0.001585034
7.79875 631.80432 646.355742 589.584307 0.001582769
7.80755 635.43866 650.390559 589.928124 0.001573716
7.81636 643.53143 659.259915 590.268736 0.001553926
7.82517 663.43884 674.521492 590.606149 0.001507298
7.83397 690.67865 697.176646 590.940368 0.001447851
7.84278 734.99182 726.262904 591.271408 0.001360559
7.85159 779.15295 756.460851 591.599274 0.001283445
7.86040 796.71429 775.953014 591.923977 0.001255155
7.86920 793.771 772.087015 592.245526 0.001259809
7.87801 747.41589 746.448353 592.56393 0.001337943
7.88682 705.34375 713.04249 592.879208 0.001417748
7.89563 668.95984 682.641425 593.191368 0.001494858
7.90443 644.26617 659.135097 593.500425 0.001552154
7.91324 631.21667 642.640758 593.806393 0.001584242
7.92205 623.22467 631.767601 594.109269 0.001604558
7.93085 617.24255 624.792443 594.409104 0.001620109
7.93966 613.96136 620.260501 594.705893 0.001628767
7.94847 612.22876 617.177783 594.99966 0.001633376
7.95727 611.17883 614.957446 595.29042 0.001636182
7.96608 609.85583 613.279263 595.578191 0.001639732
7.97489 608.95563 611.969648 595.862991 0.001642156
7.98370 608.31476 610.928053 596.144842 0.001643886
7.99250 607.48669 610.090558 596.42376 0.001646127
8.00131 607.21844 609.412954 596.699788 0.001646854
8.01012 607.22461 608.863475 596.972914 0.001646837
8.01893 606.60706 608.417018 597.243176 0.001648514
8.02773 606.50043 608.055558 597.510594 0.001648803
8.03654 606.54828 607.768284 597.775198 0.001648673
8.04535 606.49353 607.543092 598.037008 0.001648822
8.05415 606.22583 607.361747 598.296051 0.00164955
8.06296 606.3786 607.223409 598.552323 0.001649135
8.07177 606.04382 607.122175 598.805908 0.001650046
8.08057 606.22961 607.053263 599.056804 0.00164954
8.08938 606.70935 607.012754 599.305038 0.001648236
8.09819 606.77045 606.997416 599.550638 0.00164807
8.10700 607.26764 607.004583 599.79363 0.00164672
8.11580 607.89172 607.032094 600.034048 0.00164503
8.12461 608.03528 607.07818 600.27192 0.001644641
8.13342 607.59979 607.145941 600.507276 0.00164582
8.14223 607.67102 607.225355 600.740146 0.001645627
8.15103 607.6864 607.320151 600.970559 0.001645586
8.15984 607.79694 607.429878 601.198552 0.001645286
8.16865 608.2868 607.555503 601.424155 0.001643961
8.17745 608.48389 607.695117 601.647401 0.001643429
8.18626 608.0661 607.850416 601.868323 0.001644558
8.19507 608.05579 608.022501 602.086954 0.001644586
8.20388 608.52625 608.213089 602.303327 0.001643314
8.21268 609.13501 608.42465 602.517481 0.001641672
8.22149 608.65704 608.660671 602.729448 0.001642961
8.23030 608.26489 608.926091 602.939265 0.001644021
8.23910 608.53357 609.228465 603.146968 0.001643295
8.24791 609.61456 609.576812 603.352592 0.001640381
8.25672 610.4679 609.987623 603.556173 0.001638088
8.26553 611.19922 610.487739 603.757752 0.001636128
8.27433 611.40344 611.125908 603.957364 0.001635581
8.28314 612.0943 611.992166 604.155049 0.001633735
8.29195 614.17566 613.242984 604.350843 0.001628199
8.30075 616.34546 615.118834 604.544784 0.001622467
8.30956 619.52856 617.926917 604.736915 0.001614131
8.31837 623.62335 621.956774 604.927274 0.001603532
8.32718 630.05884 627.297799 605.1159 0.001587153
8.33598 638.10065 633.455662 605.302833 0.001567151
8.34479 645.41986 638.685974 605.488114 0.001549379
8.35360 647.64026 640.163446 605.671781 0.001544067
8.36240 643.65063 636.922664 605.85388 0.001553638
8.37121 635.58575 631.273451 606.034449 0.001573352
8.38002 627.84821 625.718512 606.213531 0.001592742
8.38883 622.52539 621.324439 606.391166 0.00160636
8.39763 618.49646 618.241449 606.567398 0.001616824
8.40644 615.84039 616.254235 606.742266 0.001623797
8.41525 614.26178 615.049382 606.915816 0.00162797
8.42406 613.53015 614.345389 607.088091 0.001629912
8.43286 613.19067 613.942278 607.259131 0.001630814
8.44167 613.32599 613.718157 607.428981 0.001630454
8.45048 613.24756 613.605518 607.597682 0.001630663
8.45928 613.20331 613.56775 607.76528 0.00163078
8.46809 613.44617 613.58435 607.931819 0.001630135
8.47690 613.32745 613.64214 608.09734 0.00163045
8.48571 613.31952 613.732799 608.261889 0.001630472
8.49451 613.86218 613.850386 608.425509 0.00162903
8.50332 613.51202 613.99065 608.588243 0.00162996
8.51213 613.79028 614.150524 608.750137 0.001629221
8.52093 613.96423 614.328985 608.911236 0.001628759
8.52974 614.83337 614.522191 609.071583 0.001626457
8.53855 615.36926 614.730255 609.231222 0.001625041
8.54736 615.09473 614.952537 609.390198 0.001625766
8.55616 614.30127 615.188733 609.548553 0.001627866
8.56497 614.76514 615.438808 609.706337 0.001626637
8.57378 615.12421 615.702961 609.863591 0.001625688
8.58258 615.98468 615.981634 610.020361 0.001623417
8.59139 616.72302 616.27547 610.17669 0.001621473
8.60020 617.17841 616.585282 610.332605 0.001620277
8.60900 616.95099 616.912221 610.488188 0.001620874
8.61781 617.35907 617.257998 610.643464 0.001619803
8.62662 618.15649 617.623279 610.798476 0.001617713
8.63543 618.70105 618.010344 610.953272 0.001616289
8.64423 618.95435 618.421359 611.107895 0.001615628
8.65304 619.16949 618.858825 611.262389 0.001615067
8.66185 619.99261 619.325693 611.416799 0.001612922
8.67066 620.34393 619.825374 611.571167 0.001612009
8.67946 620.52057 620.361905 611.725538 0.00161155
8.68827 620.52734 620.940016 611.879958 0.001611533
8.69708 621.09576 621.565238 612.034468 0.001610058
8.70588 622.02832 622.244194 612.189114 0.001607644
8.71469 623.34045 622.984678 612.343938 0.00160426
8.72350 624.21851 623.796063 612.498982 0.001602003
8.73231 624.5387 624.68966 612.654292 0.001601182
8.74111 624.99628 625.67908 612.80991 0.00160001
8.74992 626.36871 626.781 612.96588 0.001596504
8.75873 627.37231 628.015975 613.122242 0.00159395
8.76753 627.74268 629.409386 613.27904 0.001593009
8.77634 629.03613 630.99311 613.436315 0.001589734
8.78515 630.82709 632.807559 613.594111 0.00158522
8.79396 632.73535 634.904221 613.75247 0.00158044
8.80276 634.50061 637.36074 613.911431 0.001576043
8.81157 636.73047 640.243409 614.071038 0.001570523
8.82038 639.21869 643.680194 614.231328 0.00156441
8.82918 642.71075 647.831435 614.392346 0.00155591
8.83799 647.33685 652.923837 614.554131 0.001544791
8.84680 653.32776 659.297761 614.716724 0.001530625
8.85561 661.45227 667.499758 614.880164 0.001511825
8.86441 672.22009 678.466318 615.04449 0.001487608
8.87322 687.5683 693.832332 615.20974 0.001454401
8.88203 709.29736 716.351665 615.375957 0.001409846
8.89083 740.70807 750.266033 615.543178 0.00135006
8.89964 785.00464 801.294274 615.71144 0.001273878
8.90845 849.66156 875.639145 615.880782 0.001176939
8.91726 938.16833 976.885797 616.051242 0.001065907
8.92606 1058.9418 1098.696358 616.222854 0.000944339
8.93487 1198.3217 1216.097593 616.39566 0.0008345
8.94368 1333.205 1293.383697 616.569694 0.000750072
8.95249 1394.5486 1302.05015 616.744992 0.000717078
8.96129 1316.704 1229.539323 616.92159 0.000759472
8.97010 1136.8295 1105.329532 617.099522 0.000879639
8.97891 961.98785 978.733617 617.278825 0.001039514
8.98771 835.81543 876.160419 617.459533 0.001196436
8.99652 759.63306 802.054005 617.64168 0.001316425
9.00533 717.12958 751.892611 617.8253 0.001394448
9.01414 690.9574 719.032659 618.010425 0.001447267
9.02294 674.31079 697.5268 618.197086 0.001482996
9.03175 663.23145 683.040214 618.385321 0.001507769
9.04056 656.10742 672.829423 618.575158 0.001524141
9.04936 650.32202 665.30732 618.76663 0.0015377
9.05817 646.62469 659.579265 618.959767 0.001546492
9.06698 643.53174 655.124615 619.154599 0.001553925
9.07579 640.76764 651.616847 619.351155 0.001560628
9.08459 639.52209 648.836726 619.549469 0.001563668
9.09340 639.14362 646.629353 619.749566 0.001564594
9.10221 638.73877 644.881672 619.951477 0.001565585
9.11101 637.66772 643.510258 620.155229 0.001568215
9.11982 637.25726 642.456164 620.360847 0.001569225
9.12863 636.77258 641.669057 620.568363 0.001570419
9.13743 636.82202 641.112448 620.77778 0.001570297
9.14624 636.61969 640.763758 620.989164 0.001570797
9.15505 637.24255 640.605561 621.202524 0.001569261
9.16386 637.26801 640.626681 621.417882 0.001569198
9.17266 637.40857 640.821917 621.635264 0.001568852
9.18147 638.1347 641.191269 621.854693 0.001567067
9.19028 639.36169 641.740285 622.076192 0.00156406
9.19909 641.42883 642.480174 622.299783 0.001559019
9.20789 643.24713 643.430717 622.525491 0.001554612
9.21670 644.63599 644.614334 622.753336 0.001551263
9.22551 646.00403 646.068543 622.983341 0.001547978
9.23431 648.06152 647.841834 623.215524 0.001543063
9.24312 650.7771 649.999462 623.449904 0.001536624
9.25193 653.54639 652.630146 623.686505 0.001530113
9.26074 657.40833 655.854803 623.925344 0.001521125
9.26954 662.57983 659.84203 624.166438 0.001509252
9.27835 667.33875 664.835096 624.409807 0.001498489
9.28716 674.09222 671.207821 624.655467 0.001483477
9.29596 683.62787 679.575163 624.903431 0.001462784
9.30477 696.11139 691.012113 625.153722 0.001436552
9.31358 713.99835 707.415877 625.406353 0.001400563
9.32239 739.32227 731.942247 625.661337 0.00135259
9.33119 775.19849 769.27227 625.91869 0.001289992
9.34000 831.297 825.254622 626.178425 0.00120294
9.34881 913.09912 905.311981 626.440552 0.001095171
9.35761 1018.595 1010.429794 626.70509 0.000981744
9.36642 1146.855 1127.476825 626.972048 0.00087195
9.37523 1219.4342 1215.171013 627.241437 0.000820052
9.38404 1220.0502 1220.121836 627.513268 0.000819638
9.39284 1140.7791 1139.792508 627.787548 0.000876594
9.40165 1016.5993 1024.969378 628.064293 0.000983672
9.41046 908.70038 918.857536 628.343509 0.001100473
9.41926 833.95929 837.081135 628.625203 0.001199099
9.42807 782.90161 779.759881 628.909385 0.0012773
9.43688 750.92609 741.790722 629.196061 0.001331689
9.44569 728.55908 717.325168 629.485234 0.001372572
9.45449 713.94617 701.566086 629.776918 0.001400666
9.46330 704.24536 691.251855 630.071113 0.00141996
9.47211 698.77771 684.441328 630.367826 0.00143107
9.48092 695.53088 680.072018 630.66706 0.001437751
9.48972 694.93146 677.64673 630.968819 0.001438991
9.49853 696.32788 677.029552 631.273102 0.001436105
9.50734 700.1983 678.41991 631.579919 0.001428167
9.51614 705.77509 682.43215 631.889269 0.001416882
9.52495 714.36456 690.177664 632.201152 0.001399845
9.53376 724.48108 703.301944 632.51557 0.001380298
9.54257 737.91541 723.690416 632.832519 0.001355169
9.55137 755.61615 752.69469 633.152005 0.001323423
9.56018 777.61096 789.172652 633.474024 0.00128599
9.56899 799.40131 825.054133 633.798574 0.001250936
9.57779 810.85016 842.416194 634.125653 0.001233273
9.58660 804.21454 828.113392 634.455259 0.001243449
9.59541 782.21198 792.503024 634.787384 0.001278426
9.60422 755.32654 754.23675 635.122032 0.001323931
9.61302 731.79968 722.74097 635.459194 0.001366494
9.62183 714.11389 699.756075 635.798866 0.001400337
9.63064 700.86725 684.059772 636.141042 0.001426804
9.63944 690.66595 673.697521 636.485715 0.001447878
9.64825 682.0611 666.87575 636.832875 0.001466144
9.65706 676.02155 662.269217 637.182523 0.001479243
9.66587 672.16412 659.028409 637.534647 0.001487732
9.67467 669.66223 656.657418 637.889198 0.00149329
9.68348 667.3421 654.870409 638.246247 0.001498482
9.69229 664.896 653.50242 638.605746 0.001503995
9.70109 663.19299 652.444567 638.967683 0.001507857
9.70990 662.21429 651.626036 639.332049 0.001510085
9.71871 661.01123 650.995466 639.698829 0.001512834
9.72752 659.36676 650.514985 640.068018 0.001516607
9.73632 658.36829 650.156005 640.439601 0.001518907
9.74513 657.64624 649.898306 640.813565 0.001520574
9.75394 657.04584 649.721921 641.189897 0.001521964
9.76274 656.65228 649.615149 641.568579 0.001522876
9.77155 656.36145 649.567408 641.949606 0.001523551
9.78036 656.88177 649.570281 642.332958 0.001522344
9.78917 657.08606 649.618169 642.71862 0.001521871
9.79797 657.42676 649.703738 643.106578 0.001521082
9.80678 656.82001 649.822244 643.496814 0.001522487
9.81559 656.37262 649.970599 643.889307 0.001523525
9.82439 656.90033 650.145648 644.28405 0.001522301
9.83320 656.90387 650.344765 644.681021 0.001522293
9.84201 656.34247 650.565775 645.080202 0.001523595
9.85082 655.82678 650.806834 645.481573 0.001524793
9.85962 656.07581 651.070824 645.885117 0.001524214
9.86843 656.6662 651.348858 646.290809 0.001522844
9.87724 657.38086 651.64201 646.698639 0.001521188
9.88604 657.9599 651.950609 647.108581 0.001519849
9.89485 657.67273 652.274042 647.520617 0.001520513
9.90366 658.07782 652.611891 647.934723 0.001519577
9.91247 658.26617 652.963901 648.350875 0.001519142
9.92127 658.41669 653.330029 648.769059 0.001518795
9.93008 658.51093 653.710441 649.189249 0.001518578
9.93889 658.96881 654.105515 649.611422 0.001517523
9.94769 659.43347 654.515902 650.035555 0.001516453
9.95650 659.51624 654.942633 650.461624 0.001516263
9.96531 659.55536 655.386967 650.889601 0.001516173
9.97412 660.62701 655.851999 651.319472 0.001513713
9.98292 661.38794 656.337882 651.751207 0.001511972
9.99173 661.34424 656.849144 652.18478 0.001512072
10.00054 661.66846 657.390297 652.620173 0.001511331
10.00934 662.97168 657.967718 653.057338 0.00150836
10.01815 664.12103 658.589964 653.496266 0.00150575
10.02696 665.00049 659.267573 653.93693 0.001503758
10.03577 665.82922 660.018723 654.379354 0.001501887
10.04457 666.67462 660.870213 654.823409 0.001499982
10.05338 668.21814 661.867528 655.26912 0.001496517
10.06219 669.84143 663.086514 655.716459 0.001492891
10.07099 672.10034 664.657456 656.165397 0.001487873
10.07980 674.10199 666.782803 656.615959 0.001483455
10.08861 676.93365 669.740028 657.068013 0.00147725
10.09742 680.9433 673.846129 657.521581 0.001468551
10.10622 685.91046 679.333391 657.976636 0.001457916
10.11503 690.50598 686.031371 658.433147 0.001448213
10.12384 695.2196 692.628794 658.891086 0.001438394
10.13265 697.65057 696.184079 659.350474 0.001433382
10.14145 696.0528 694.528724 659.811178 0.001436673
10.15026 691.58734 689.336479 660.27322 0.001445949
10.15907 686.2923 683.694532 660.736569 0.001457105
10.16787 682.39081 679.194088 661.201194 0.001465436
10.17668 679.67535 676.14561 661.667119 0.001471291
10.18549 678.06616 674.383319 662.134205 0.001474782
10.19430 677.091 673.648387 662.602476 0.001476906
10.20310 676.64825 673.745151 663.071846 0.001477873
10.21191 676.27081 674.600654 663.54239 0.001478698
10.22072 676.62811 676.267583 664.014023 0.001477917
10.22952 677.4873 678.879406 664.486768 0.001476042
10.23833 679.02728 682.54284 664.960484 0.001472695
10.24714 681.69348 687.09403 665.435195 0.001466935
10.25595 684.47906 691.568754 665.910866 0.001460965
10.26475 685.61664 693.896228 666.387466 0.001458541
10.27356 684.16431 692.629979 666.865017 0.001461637
10.28237 681.20929 688.980073 667.343378 0.001467978
10.29117 679.61511 685.057613 667.822569 0.001471421
10.29998 678.30981 681.922197 668.302559 0.001474253
10.30879 677.79865 679.759881 668.783315 0.001475364
10.31760 677.16022 678.428265 669.264802 0.001476755
10.32640 677.08069 677.71001 669.747044 0.001476929
10.33521 676.75958 677.408356 670.229898 0.00147763
10.34402 677.13214 677.376013 670.713384 0.001476817
10.35282 677.35699 677.517302 671.197471 0.001476326
10.36163 677.78674 677.774828 671.682124 0.00147539
10.37044 677.9079 678.119478 672.167366 0.001475127
10.37925 677.78149 678.52346 672.653053 0.001475402
10.38805 678.00848 678.984048 673.139206 0.001474908
10.39686 678.38245 679.483163 673.625793 0.001474095
10.40567 679.15991 680.021241 674.11278 0.001472407
10.41447 679.71545 680.596218 674.600134 0.001471204
10.42328 680.51337 681.20601 675.087876 0.001469479
10.43209 681.54895 681.84996 675.575864 0.001467246
10.44090 682.61945 682.529998 676.064118 0.001464945
10.44970 682.87744 683.248444 676.552606 0.001464392
10.45851 683.55768 684.008932 677.041295 0.001462934
10.46732 684.60754 684.816579 677.530206 0.001460691
10.47612 686.03015 685.678023 678.019196 0.001457662
10.48493 686.89716 686.602231 678.508288 0.001455822
10.49374 687.66937 687.601074 678.997448 0.001454187
10.50255 689.34528 688.690853 679.486643 0.001450652
10.51135 690.81427 689.891011 679.975841 0.001447567
10.52016 692.32971 691.230912 680.465065 0.001444399
10.52897 694.51154 692.750936 680.954171 0.001439861
10.53777 697.02942 694.511514 681.443181 0.00143466
10.54658 699.66559 696.608055 681.932065 0.001429254
10.55539 702.75787 699.195577 682.420789 0.001422965
10.56420 706.45142 702.525641 682.909377 0.001415526
10.57300 710.67133 706.986203 683.397686 0.00140712
10.58181 715.87402 713.126345 683.88574 0.001396894
10.59062 723.32623 721.625948 684.373507 0.001382502
10.59943 733.58282 733.143873 684.860955 0.001363173
10.60823 746.77979 747.809175 685.348054 0.001339083
10.61704 759.91809 764.058402 685.834827 0.001315931
10.62585 771.76367 777.794912 686.321134 0.001295733
10.63465 778.8512 785.26109 686.806997 0.001283942
10.64346 780.33319 786.606519 687.292388 0.001281504
10.65227 781.38177 782.479866 687.777275 0.001279784
10.66108 774.30121 772.650737 688.261684 0.001291487
10.66988 763.21008 760.071964 688.745473 0.001310255
10.67869 751.9527 748.921778 689.22867 0.001329871
10.68750 738.72595 741.1449 689.711244 0.001353682
10.69630 733.99628 736.880339 690.193165 0.001362405
10.70511 733.62079 735.698694 690.67446 0.001363102
10.71392 737.13202 737.211836 691.154991 0.001356609
10.72273 743.46912 741.319451 691.634783 0.001345046
10.73153 753.229 748.380832 692.113808 0.001327617
10.74034 767.14508 759.389628 692.591985 0.001303534
10.74915 786.88196 776.124479 693.069393 0.001270839
10.75795 813.47424 801.204129 693.546005 0.001229295
10.76676 848.69495 837.806387 694.021686 0.00117828
10.77557 896.30554 888.743984 694.496463 0.001115691
10.78438 953.17615 953.861106 694.970309 0.001049124
10.79318 1016.3799 1023.516667 695.443198 0.000983884
10.80199 1058.4159 1070.778052 695.915157 0.000944808
10.81080 1059.6091 1065.435425 696.386054 0.000943744
10.81960 1009.8369 1012.119056 696.855917 0.000990259
10.82841 942.81757 943.507456 697.32472 0.001060651
10.83722 880.83972 882.822439 697.79244 0.00113528
10.84602 835.52277 836.938282 698.259051 0.001196855
10.85483 802.11871 805.027184 698.724582 0.001246698
10.86364 781.5191 784.131107 699.188904 0.001279559
10.87245 767.65942 771.196727 699.652046 0.001302661
10.88125 759.69958 763.876471 700.113985 0.00131631
10.89006 756.20697 760.720347 700.574699 0.001322389
10.89887 756.74878 761.142924 701.034216 0.001321443
10.90768 762.10376 765.329174 701.492412 0.001312157
10.91648 772.43054 774.13824 701.949315 0.001294615
10.92529 788.26575 788.968863 702.404906 0.001268608
10.93410 810.94476 811.4396 702.859163 0.00123313
10.94290 841.66479 842.493204 703.312065 0.001188121
10.95171 878.88416 880.213332 703.763644 0.001137806
10.96052 913.73651 916.288341 704.213777 0.001094407
10.96933 934.41565 936.157787 704.662497 0.001070188
10.97813 930.91895 929.413573 705.109783 0.001074207
10.98694 905.54602 901.468305 705.555618 0.001104306
10.99575 868.6615 866.084068 706.000034 0.001151196
11.00455 830.01453 831.873344 706.442912 0.001204798
11.01336 798.8822 802.70557 706.884285 0.001251749
11.02217 775.88519 780.20988 707.324136 0.00128885
11.03098 759.71936 764.025601 707.762449 0.001316276
11.03978 749.16852 752.801547 708.199207 0.001334813
11.04859 741.38623 745.12126 708.634443 0.001348825
11.05740 736.30939 739.885947 709.068045 0.001358125
11.06621 732.32764 736.343607 709.500046 0.001365509
11.07501 730.40045 734.049843 709.930431 0.001369112
11.08382 729.91119 732.756166 710.359188 0.00137003
11.09263 730.67749 732.354727 710.786349 0.001368593
11.10143 730.35406 732.773963 711.211806 0.001369199
11.11024 730.1441 733.843091 711.635594 0.001369593
11.11905 730.51843 735.041832 712.0577 0.001368891
11.12786 730.83905 735.379261 712.478114 0.00136829
11.13666 729.4455 734.17829 712.896822 0.001370904
11.14547 727.94037 731.94437 713.313862 0.001373739
11.15428 726.04865 729.623873 713.729127 0.001377318
11.16308 724.18359 727.718269 714.142656 0.001380865
11.17189 722.15735 726.321387 714.554439 0.00138474
11.18070 721.30457 725.369152 714.964466 0.001386377
11.18951 720.45679 724.76092 715.372774 0.001388008
11.19831 719.55322 724.396515 715.779264 0.001389751
11.20712 718.62823 724.203387 716.183972 0.00139154
11.21593 718.64923 724.130039 716.586892 0.001391499
11.22473 718.54608 724.143442 716.988016 0.001391699
11.23354 718.76929 724.223211 717.387339 0.001391267
11.24235 718.44769 724.356827 717.784898 0.00139189
11.25116 718.38812 724.536464 718.180598 0.001392005
11.25996 718.42596 724.757634 718.574479 0.001391932
11.26877 718.99115 725.018461 718.966536 0.001390838
11.27758 719.62585 725.319886 719.35672 0.001389611
11.28638 720.59113 725.667423 719.74516 0.00138775
11.29519 720.82886 726.069057 720.131721 0.001387292
11.30400 721.52722 726.542235 720.516443 0.001385949
11.31281 721.98956 727.111535 720.899323 0.001385062
11.32161 722.32727 727.807997 721.28036 0.001384414
11.33042 722.82056 728.6632 721.659595 0.001383469
11.33923 723.30951 729.691316 722.036941 0.001382534
11.34803 723.85461 730.841068 722.412439 0.001381493
11.35684 724.4411 731.920022 722.786091 0.001380374
11.36565 725.5329 732.62471 723.157895 0.001378297
11.37445 725.98639 732.875415 723.527852 0.001377436
11.38326 725.98486 732.967864 723.896005 0.001377439
11.39207 725.74713 733.248115 724.262273 0.00137789
11.40088 725.50812 733.918482 724.626698 0.001378344
11.40968 726.2345 735.083761 724.989283 0.001376966
11.41849 727.18048 736.789929 725.350031 0.001375174
11.42730 729.10846 738.974168 725.708986 0.001371538
11.43611 730.56799 741.284822 726.06607 0.001368798
11.44491 731.73785 742.920277 726.421328 0.00136661
11.45372 733.10583 743.124036 726.774764 0.00136406
11.46253 734.67853 742.12482 727.126383 0.00136114
11.47133 735.83826 740.820286 727.476191 0.001358994
11.48014 736.14996 739.827877 727.824232 0.001358419
11.48895 736.24475 739.356019 728.170435 0.001358244
11.49776 737.09241 739.423808 728.514845 0.001356682
11.50656 738.98914 740.01483 728.857469 0.0013532
11.51537 741.83521 741.14871 729.198316 0.001348008
11.52418 745.21808 742.926485 729.53743 0.001341889
11.53299 749.11646 745.561959 729.874744 0.001334906
11.54179 754.15546 749.386148 730.210304 0.001325987
11.55060 760.12958 754.835445 730.54412 0.001315565
11.55941 767.91895 762.345457 730.876202 0.001302221
11.56821 776.36871 772.093718 731.206559 0.001288048
11.57702 785.12836 783.30573 731.535238 0.001273677
11.58583 791.62567 793.045504 731.862177 0.001263223
11.59464 792.70483 796.473732 732.187422 0.001261504
11.60344 788.01184 791.485425 732.510987 0.001269016
11.61225 779.92737 781.600622 732.832882 0.001282171
11.62106 771.19275 771.385291 733.153156 0.001296693
11.62986 763.97382 763.031001 733.471749 0.001308945
11.63867 757.76093 756.925683 733.78871 0.001319677
11.64748 752.71155 752.77095 734.104054 0.00132853
11.65629 749.40906 750.114561 734.417792 0.001334385
11.66509 747.25586 748.542687 734.72994 0.00133823
11.67390 746.1983 747.7494 735.040548 0.001340126
11.68271 745.3642 747.553842 735.349558 0.001341626
11.69151 745.52209 747.888244 735.657023 0.001341342
11.70032 746.10657 748.781321 735.962956 0.001340291
11.70913 747.27521 750.331046 736.267375 0.001338195
11.71794 749.05731 752.68101 736.570329 0.001335011
11.72674 752.64502 755.954888 736.871766 0.001328648
11.73555 757.2821 760.106273 737.171738 0.001320512
11.74436 762.40405 764.573073 737.470261 0.00131164
11.75316 766.38928 767.90299 737.767353 0.00130482
11.76197 767.35144 768.490146 738.063031 0.001303184
11.77078 764.43573 766.509363 738.357348 0.001308154
11.77959 760.61353 763.780231 738.650254 0.001314728
11.78839 758.05219 761.838334 738.941802 0.00131917
11.79720 757.15741 761.343512 739.23201 0.001320729
11.80601 758.01453 762.432983 739.520898 0.001319236
11.81481 759.75598 764.900121 739.808485 0.001316212
11.82362 760.90637 767.98962 740.094791 0.001314222
11.83243 761.72736 770.128261 740.379837 0.001312806
11.84123 761.80695 769.715097 740.663641 0.001312669
11.85004 760.84412 766.892118 740.946226 0.00131433
11.85885 758.52332 763.245776 741.227643 0.001318351
11.86766 755.98407 760.022519 741.50785 0.001322779
11.87646 754.16217 757.657519 741.7869 0.001325975
11.88527 752.78967 756.160715 742.064815 0.001328392
11.89408 752.04156 755.391465 742.341616 0.001329714
11.90288 752.02936 755.176546 742.617326 0.001329735
11.91169 753.1814 755.318971 742.891998 0.001327701
11.92050 753.6344 755.608684 743.165591 0.001326903
11.92931 753.92542 755.917448 743.43816 0.001326391
11.93811 753.96948 756.275786 743.709728 0.001326314
11.94692 754.18408 756.791953 743.980318 0.001325936
11.95573 754.87549 757.540209 744.249983 0.001324722
11.96454 756.43768 758.561885 744.518686 0.001321986
11.97334 758.45056 759.894902 744.786481 0.001318478
11.98215 760.45239 761.594202 745.053392 0.001315007
11.99096 762.73755 763.748152 745.319443 0.001311067
11.99976 765.6806 766.497621 745.584659 0.001306028
12.00857 769.61566 770.048976 745.849092 0.00129935
12.01738 774.84796 774.720528 746.112708 0.001290576
12.02619 781.50305 780.971784 746.375561 0.001279586
12.03499 789.68372 789.418473 746.637677 0.00126633
12.04380 801.37909 800.766151 746.89908 0.001247849
12.05261 816.81372 815.670647 747.159824 0.001224269
12.06142 836.45752 834.852749 747.419875 0.001195518
12.07022 859.9538 859.363222 747.679289 0.001162853
12.07903 887.80212 889.427269 747.938091 0.001126377
12.08784 913.19196 921.232676 748.196306 0.00109506
12.09664 931.21942 944.192371 748.45396 0.001073861
12.10545 931.93347 945.811474 748.711107 0.001073038
12.11426 914.00635 924.949764 748.967715 0.001094084
12.12307 883.7312 893.371165 749.223839 0.001131566
12.13187 853.80292 862.71937 749.479504 0.00117123
12.14068 829.71417 838.153919 749.734738 0.001205234
12.14949 813.43372 820.494745 749.989594 0.001229356
12.15829 803.93207 808.99496 750.244041 0.001243886
12.16710 798.60052 802.62573 750.498133 0.001252191
12.17591 796.53064 800.596271 750.751898 0.001255444
12.18472 798.08368 802.509449 751.005361 0.001253001
12.19352 802.54156 808.306932 751.258548 0.001246041
12.20233 810.02118 818.012943 751.511515 0.001234536
12.21114 820.974 831.119499 751.76423 0.001218065
12.21994 830.90784 845.308955 752.016747 0.001203503
12.22875 839.55194 855.351084 752.269095 0.001191112
12.23756 842.69928 855.854803 752.521298 0.001186663
12.24637 840.98767 847.405791 752.773411 0.001189078
12.25517 833.15796 835.656903 753.025404 0.001200253
12.26398 827.3584 824.717989 753.277331 0.001208666
12.27279 820.08185 815.069128 753.529219 0.00121939
12.28159 813.62909 805.775547 753.781093 0.001229061
12.29040 804.15753 796.894555 754.03298 0.001243537
12.29921 797.05518 789.286822 754.284935 0.001254618
12.30802 789.22589 783.429821 754.536925 0.001267064
12.31682 784.25513 779.272022 754.789007 0.001275095
12.32563 779.35016 776.578523 755.041205 0.00128312
12.33444 775.63196 775.112503 755.293546 0.001289271
12.34324 772.55493 774.679452 755.546083 0.001294406
12.35205 771.73749 775.087242 755.798757 0.001295777
12.36086 771.50726 776.017318 756.05168 0.001296164
12.36966 772.70209 776.839668 756.304847 0.00129416
12.37847 773.03882 776.720855 756.558284 0.001293596
12.38728 772.47565 775.34657 756.812046 0.001294539
12.39609 771.02454 773.262939 757.0661 0.001296976
12.40489 769.30463 771.180683 757.320499 0.001299875
12.41370 767.67371 769.458235 757.575269 0.001302637
12.42251 766.6424 768.169554 757.830435 0.001304389
12.43131 766.91522 767.269956 758.08602 0.001303925
12.44012 767.63342 766.682907 758.34208 0.001302705
12.44893 768.50391 766.333697 758.598579 0.00130123
12.45774 768.18518 766.162475 758.855572 0.001301769
12.46654 767.79315 766.127157 759.113081 0.001302434
12.47535 767.75537 766.203265 759.371132 0.001302498
12.48416 768.56085 766.381223 759.629777 0.001301133
12.49297 769.5683 766.662979 759.888981 0.00129943
12.50177 770.87421 767.066487 760.148797 0.001297229
12.51058 771.22968 767.627413 760.409247 0.001296631
12.51939 771.72467 768.401469 760.670356 0.001295799
12.52819 773.19641 769.469705 760.932145 0.001293332
12.53700 774.69122 770.932942 761.194667 0.001290837
12.54581 776.38989 772.881646 761.457885 0.001288013
12.55462 778.07391 775.402249 761.721851 0.001285225
12.56342 780.03625 778.392824 761.986587 0.001281992
12.57223 782.05292 781.387172 762.252114 0.001278686
12.58104 783.93475 783.387602 762.518485 0.001275616
12.58985 784.67096 783.426978 762.785659 0.00127442
12.59865 783.19464 781.657563 763.053689 0.001276822
12.60746 781.8255 779.157194 763.322595 0.001279058
12.61627 780.53619 776.825113 763.592398 0.001281171
12.62507 779.65485 775.028449 763.863118 0.001282619
12.63388 778.71191 773.816253 764.134806 0.001284172
12.64269 778.56189 773.120919 764.40742 0.001284419
12.65150 779.65039 772.841774 764.68101 0.001282626
12.66030 779.89972 772.879749 764.955596 0.001282216
12.66911 780.37097 773.161653 765.231196 0.001281442
12.67792 780.93622 773.662276 765.507861 0.001280514
12.68672 782.13037 774.383333 765.785547 0.001278559
12.69553 783.24426 775.297631 766.064303 0.001276741
12.70434 784.79779 776.289857 766.344146 0.001274214
12.71315 786.05792 777.167335 766.625095 0.001272171
12.72195 786.48566 777.84761 766.907166 0.001271479
12.73076 787.40253 778.530681 767.190409 0.001269998
12.73957 788.17291 779.555705 767.474776 0.001268757
12.74837 789.20544 781.19831 767.760315 0.001267097
12.75718 790.27728 783.619626 768.047044 0.001265379
12.76599 792.35577 786.835367 768.334976 0.001262059
12.77480 794.79364 790.561459 768.624161 0.001258188
12.78360 797.53235 793.92389 768.914548 0.001253868
12.79241 797.94397 795.515859 769.206185 0.001253221
12.80122 796.71588 794.519282 769.499086 0.001255153
12.81002 794.97772 791.656946 769.793265 0.001257897
12.81883 793.35687 788.308276 770.088735 0.001260467
12.82764 791.86401 785.371817 770.385545 0.001262843
12.83645 789.62 783.133562 770.683639 0.001266432
12.84525 787.80139 781.584015 770.983065 0.001269355
12.85406 786.99561 780.615391 771.283834 0.001270655
12.86287 787.09302 780.105843 771.585958 0.001270498
12.87167 786.77094 779.955164 771.889484 0.001271018
12.88048 786.8855 780.095508 772.194355 0.001270833
12.88929 787.03302 780.499978 772.50058 0.001270595
12.89809 787.94141 781.172536 772.80824 0.00126913
12.90690 788.78784 782.136615 773.11731 0.001267768
12.91571 789.70752 783.415325 773.4278 0.001266292
12.92452 790.49139 784.992713 773.739756 0.001265036
12.93332 791.90851 786.729649 774.053115 0.001262772
12.94213 793.39539 788.257134 774.367922 0.001260406
12.95094 793.55304 789.042667 774.684185 0.001260155
12.95974 793.40051 788.851219 775.001912 0.001260397
12.96855 793.30298 788.021689 775.321147 0.001260552
12.97736 792.73901 787.076606 775.641826 0.001261449
12.98617 792.47522 786.327248 775.96399 0.001261869
12.99497 792.78693 785.862923 776.287647 0.001261373
13.00378 792.67291 785.69238 776.612802 0.001261554
13.01259 792.31042 785.767373 776.939499 0.001262132
13.02140 792.32129 786.041733 777.267669 0.001262114
13.03020 793.1626 786.476217 777.597354 0.001260776
13.03901 793.6889 787.02725 777.928558 0.00125994
13.04782 793.95593 787.710177 778.261286 0.001259516
13.05662 794.87921 788.503466 778.595541 0.001258053
13.06543 795.9386 789.410125 778.931365 0.001256378
13.07424 796.5824 790.440324 779.268686 0.001255363
13.08305 797.60706 791.610599 779.607542 0.00125375
13.09185 797.98798 792.945177 779.947938 0.001253152
13.10066 799.57849 794.477383 780.289874 0.001250659
13.10947 802.1402 796.253018 780.633392 0.001246665
13.11828 804.26697 798.334918 780.978414 0.001243368
13.12708 805.93689 800.815455 781.32498 0.001240792
13.13589 808.56317 803.832662 781.673091 0.001236762
13.14470 812.34979 807.598699 782.022746 0.001230997
13.15350 817.86151 812.446215 782.373944 0.001222701
13.16231 824.31866 818.877139 782.726726 0.001213123
13.17112 832.46814 827.607262 783.08101 0.001201247
13.17993 842.44867 839.584231 783.436833 0.001187016
13.18873 856.88678 855.914753 783.794195 0.001167015
13.19754 877.87927 877.673299 784.153092 0.001139109
13.20635 905.98981 905.459802 784.513563 0.001103765
13.21515 940.82465 938.281629 784.875523 0.001062897
13.22396 978.638 971.474625 785.239009 0.001021828
13.23277 1006.0764 994.983746 785.604017 0.00099396
13.24157 1011.653 997.802059 785.970542 0.000988481
13.25038 993.6543 978.835322 786.338581 0.001006386
13.25919 960.88245 948.211718 786.708169 0.00104071
13.26800 925.4671 916.767349 787.079218 0.001080535
13.27680 895.32867 890.052155 787.451764 0.001116908
13.28561 871.84198 869.552432 787.8258 0.001146997
13.29442 856.13434 854.929247 788.201319 0.001168041
13.30323 845.83942 845.278136 788.578358 0.001182258
13.31203 840.01971 839.66689 788.956823 0.001190448
13.32084 837.26636 837.380038 789.336749 0.001194363
13.32965 837.10797 837.993667 789.718129 0.001194589
13.33845 839.08374 841.345074 790.100954 0.001191776
13.34726 843.79584 847.394874 790.485215 0.001185121
13.35607 850.77734 856.067502 790.870946 0.001175396
13.36488 860.22748 867.1859 791.258051 0.001162483
13.37368 871.26227 880.264281 791.646562 0.00114776
13.38249 882.38983 893.5408 792.036471 0.001133286
13.39130 890.02338 903.173346 792.427766 0.001123566
13.40010 890.00922 905.078059 792.820481 0.001123584
13.40891 883.71124 898.559706 793.214515 0.001131591
13.41772 873.30334 886.40199 793.609901 0.001145077
13.42652 861.73236 872.164992 794.006582 0.001160453
13.43533 850.79443 858.671625 794.404636 0.001175372
13.44414 841.51215 847.485091 794.804005 0.001188337
13.45295 834.70862 839.030562 795.204722 0.001198023
13.46175 831.77441 833.121934 795.606681 0.001202249
13.47056 830.12347 829.378211 796.009915 0.00120464
13.47937 829.19788 827.445018 796.41441 0.001205985
13.48818 829.16656 827.0962 796.820151 0.00120603
13.49698 831.33826 828.269773 797.22717 0.00120288
13.50579 834.78296 831.058398 797.63536 0.001197916
13.51460 840.7597 835.669301 798.044751 0.0011894
13.52340 847.91071 842.33547 798.455327 0.001179369
13.53221 855.77155 851.150032 798.867074 0.001168536
13.54102 864.12555 861.711157 799.279973 0.001157239
13.54983 870.52496 872.478507 799.694057 0.001148732
13.55863 874.68793 880.256509 800.109214 0.001143265
13.56744 876.29071 881.532545 800.525474 0.001141174
13.57625 872.62616 875.734891 800.94282 0.001145966
13.58505 863.67914 865.886892 801.361233 0.001157837
13.59386 855.41327 855.504274 801.780744 0.001169026
13.60267 848.41388 846.549428 802.201239 0.00117867
13.61148 842.87103 839.634453 802.622747 0.001186421
13.62028 839.34412 834.715238 803.045249 0.001191406
13.62909 837.78833 831.519721 803.468727 0.001193619
13.63790 837.13538 829.735423 803.893161 0.00119455
13.64671 837.15546 829.102097 804.318579 0.001194521
13.65551 837.46112 829.458049 804.744866 0.001194085
13.66432 839.78009 830.766643 805.17205 0.001190788
13.67313 843.21033 833.129177 805.60011 0.001185944
13.68193 845.95392 836.794133 806.029025 0.001182097
13.69074 850.31946 842.143465 806.458825 0.001176029
13.69955 855.76801 849.659032 806.889389 0.001168541
13.70835 862.50806 859.84814 807.320747 0.001159409
13.71716 870.63324 873.069094 807.752876 0.001148589
13.72597 879.89673 889.168352 808.185755 0.001136497
13.73478 890.20441 906.737498 808.619362 0.001123338
13.74358 900.58887 922.172321 809.053724 0.001110385
13.75239 906.79822 930.11632 809.488721 0.001102781
13.76120 907.23126 927.052489 809.924379 0.001102255
13.77000 903.07782 914.758782 810.360676 0.001107324
13.77881 894.95673 898.474697 810.797588 0.001117372
13.78762 885.80762 882.66865 811.235144 0.001128913
13.79643 877.03162 869.524809 811.673219 0.00114021
13.80523 869.36584 859.616856 812.111841 0.001150264
13.81404 864.97064 852.80745 812.550987 0.001156109
13.82285 862.3407 848.73301 812.990631 0.001159634
13.83166 859.30249 847.009417 813.430802 0.001163735
13.84046 857.37842 847.307904 813.871374 0.001166346
13.84927 856.71735 849.336184 814.312374 0.001167246
13.85808 855.72156 852.711128 814.753778 0.001168604
13.86688 855.2132 856.697548 815.195561 0.001169299
13.87569 854.86951 859.938319 815.637699 0.001169769
13.88450 853.76233 860.766858 816.080218 0.001171286
13.89331 851.42322 858.48017 816.522992 0.001174504
13.90211 848.34973 854.034755 816.966048 0.001178759
13.91092 845.93079 849.001481 817.409359 0.00118213
13.91973 844.31781 844.437925 817.852901 0.001184388
13.92854 842.07147 840.752623 818.2967 0.001187548
13.93734 840.16333 837.990664 818.74063 0.001190245
13.94615 838.92163 836.04415 819.184716 0.001192006
13.95496 838.82166 834.759078 819.628932 0.001192149
13.96376 838.69574 833.984154 820.073202 0.001192328
13.97257 837.64801 833.590868 820.517604 0.001193819
13.98138 836.40234 833.48237 820.962109 0.001195597
13.99018 836.40631 833.591574 821.406594 0.001195591
13.99899 836.10553 833.876288 821.851082 0.001196021
14.00780 835.38068 834.312872 822.295547 0.001197059
14.01661 835.11066 834.891033 822.739965 0.001197446
14.02541 836.08191 835.610965 823.184359 0.001196055
14.03422 837.15503 836.482027 823.628604 0.001194522
14.04303 838.65753 837.524146 824.072725 0.001192382
14.05183 839.79633 838.771144 824.516695 0.001190765
14.06064 841.3963 840.277684 824.960488 0.001188501
14.06945 843.62433 842.129992 825.40408 0.001185362
14.07826 846.36053 844.460067 825.847495 0.00118153
14.08706 849.31512 847.461245 826.290606 0.001177419
14.09587 852.58124 851.399794 826.733438 0.001172909
14.10468 857.52429 856.612305 827.175966 0.001166148
14.11348 864.3833 863.480804 827.618164 0.001156894
14.12229 872.98077 872.372144 828.060056 0.001145501
14.13110 882.7467 883.498169 828.501518 0.001132828
14.13991 896.08685 896.650603 828.942573 0.001115963
14.14871 910.8269 910.644234 829.383196 0.001097903
14.15752 926.34491 922.699483 829.823361 0.001079512
14.16633 934.53027 928.911187 830.263045 0.001070056
14.17513 935.24896 926.949277 830.70227 0.001069234
14.18394 925.10333 918.407952 831.140913 0.00108096
14.19275 911.34607 907.189585 831.578998 0.001097278
14.20156 897.14545 896.479811 832.0165 0.001114646
14.21036 887.06818 887.764595 832.453394 0.001127309
14.21917 879.16748 881.317073 832.889706 0.00113744
14.22798 873.51807 876.840149 833.325311 0.001144796
14.23678 869.80322 873.958996 833.760234 0.001149685
14.24559 867.94464 872.518001 834.194452 0.001152147
14.25440 867.58875 872.599797 834.627938 0.00115262
14.26321 868.68506 874.353937 835.060671 0.001151165
14.27201 870.74036 878.02255 835.492674 0.001148448
14.28082 875.07843 883.886163 835.923825 0.001142755
14.28963 881.84283 892.279344 836.35415 0.001133989
14.29843 890.31097 903.475049 836.783625 0.001123203
14.30724 900.72076 917.436354 837.212226 0.001110222
14.31605 913.56104 933.347275 837.63998 0.001094618
14.32486 928.58569 948.897211 838.066765 0.001076907
14.33366 942.44031 960.120387 838.492607 0.001061075
14.34247 949.63037 963.461817 838.917483 0.001053041
14.35128 949.90222 959.191991 839.341371 0.00105274
14.36008 947.43713 951.434103 839.764248 0.001055479
14.36889 947.55896 944.736571 840.18614 0.001055343
14.37770 952.00214 941.880066 840.606929 0.001050418
14.38651 959.97736 943.879622 841.026642 0.001041691
14.39531 968.93665 950.342708 841.445255 0.001032059
14.40412 975.29724 959.30787 841.862748 0.001025328
14.41293 974.08453 966.88908 842.279147 0.001026605
14.42174 964.97351 968.286248 842.694337 0.001036298
14.43054 950.98169 961.094184 843.108343 0.001051545
14.43935 933.56158 947.393284 843.521145 0.001071167
14.44816 916.62183 931.408522 843.932723 0.001090962
14.45696 902.67133 916.351653 844.343057 0.001107823
14.46577 892.13586 903.681459 844.752173 0.001120906
14.47458 885.29224 893.723555 845.159958 0.001129571
14.48339 880.35895 886.284108 845.566441 0.0011359
14.49219 876.2619 880.978877 845.9716 0.001141211
14.50100 874.17487 877.399947 846.375373 0.001143936
14.50981 873.69464 875.193137 846.777877 0.001144565
14.51861 873.43701 874.105839 847.178957 0.001144902
14.52742 873.91113 873.998196 847.578641 0.001144281
14.53623 874.87244 874.8414 847.97691 0.001143024
14.54504 876.6073 876.697955 848.373748 0.001140762
14.55384 878.99097 879.692785 848.769181 0.001137668
14.56265 882.73248 883.965702 849.163103 0.001132846
14.57146 887.91284 889.60305 849.555542 0.001126237
14.58026 892.63049 896.51021 849.946482 0.001120284
14.58907 897.44958 904.161272 850.335907 0.001114269
14.59788 901.9704 911.275335 850.7238 0.001108684
14.60669 904.93164 915.855582 851.11019 0.001105056
14.61549 904.67761 916.290936 851.494975 0.001105366
14.62430 902.96515 912.854016 851.878182 0.001107462
14.63311 900.67603 907.486595 852.259798 0.001110277
14.64191 897.784 902.219952 852.639808 0.001113854
14.65072 895.21234 898.290353 853.01824 0.001117053
14.65953 893.59955 896.216828 853.394997 0.001119069
14.66834 893.21478 896.080934 853.770106 0.001119552
14.67714 893.95978 897.648472 854.143555 0.001118619
14.68595 895.76013 900.377417 854.515332 0.00111637
14.69476 899.19189 903.501551 854.885424 0.00111211
14.70356 903.24097 906.354999 855.25386 0.001107124
14.71237 907.79388 908.626869 855.620546 0.001101572
14.72118 912.01135 909.929677 855.985511 0.001096478
14.72999 915.69629 909.625106 856.348746 0.001092065
14.73879 916.92535 907.432027 856.710238 0.001090601
14.74760 914.02515 904.031287 857.070019 0.001094062
14.75641 908.8728 900.631255 857.427997 0.001100264
14.76521 903.38812 898.208468 857.784203 0.001106944
14.77402 899.94617 897.276445 858.138627 0.001111178
14.78283 899.07153 898.000261 858.491261 0.001112259
14.79164 902.01178 900.306482 858.842097 0.001108633
14.80044 907.75079 903.853158 859.191165 0.001101624
14.80925 916.0343 907.897827 859.538378 0.001091662
14.81806 921.99567 911.29858 859.883769 0.001084604
14.82686 923.09216 913.027652 860.227329 0.001083315
14.83567 919.73199 913.032794 860.569054 0.001087273
14.84448 914.61591 912.320119 860.908973 0.001093355
14.85329 910.43347 912.098875 861.247005 0.001098378
14.86209 910.56403 913.070888 861.583182 0.00109822
14.87090 913.61847 915.249664 861.917498 0.001094549
14.87971 917.98584 917.981248 862.249949 0.001089341
14.88851 922.61389 920.151848 862.58053 0.001083877
14.89732 926.86774 920.781528 862.909274 0.001078903
14.90613 928.38281 919.628518 863.236102 0.001077142
14.91494 925.50171 917.209328 863.561048 0.001080495
14.92374 921.00433 914.503422 863.884109 0.001085771
14.93255 917.78448 912.578993 864.205283 0.00108958
14.94136 916.61072 912.309897 864.524602 0.001090976
14.95017 918.66833 914.290106 864.841992 0.001088532
14.95897 924.01764 918.905645 865.157488 0.00108223
14.96778 932.41473 926.385287 865.471088 0.001072484
14.97659 945.27179 936.730336 865.782792 0.001057897
14.98539 960.92206 949.486442 866.092598 0.001040667
14.99420 977.98383 963.311181 866.400542 0.001022512
15.00301 990.8028 975.54002 866.706553 0.001009283
15.01182 1001.1907 982.713686 867.010667 0.000998811
15.02062 1003.8862 982.58723 867.312885 0.000996129
15.02943 997.09357 975.70158 867.613208 0.001002915
15.03824 982.62207 964.395506 867.911638 0.001017685
15.04704 964.49042 951.102029 868.208176 0.001036817
15.05585 947.20306 937.793105 868.502824 0.00105574
15.06466 931.85522 925.828818 868.795586 0.001073128
15.07347 919.90234 915.869793 869.086465 0.001087072
15.08227 909.58002 908.020722 869.375496 0.001099408
15.09108 902.46912 902.085453 869.662617 0.001108071
15.09989 896.89667 897.74728 869.947865 0.001114956
15.10869 892.81128 894.684683 870.231246 0.001120058
15.11750 890.05682 892.621284 870.512762 0.001123524
15.12631 888.54169 891.34809 870.792421 0.00112544
15.13512 887.97266 890.727863 871.070258 0.001126161
15.14392 888.03625 890.688815 871.346217 0.00112608
15.15273 888.33112 891.21101 871.620334 0.001125706
15.16154 888.36737 892.310335 871.892617 0.00112566
15.17034 888.66248 894.014682 872.163072 0.001125287
15.17915 889.61963 896.339048 872.431737 0.001124076
15.18796 891.36865 899.26007 872.698559 0.00112187
15.19677 893.84198 902.677289 872.963575 0.001118766
15.20557 896.97345 906.320022 873.226795 0.00111486
15.21438 899.77905 909.630913 873.488226 0.001111384
15.22319 901.45691 911.848956 873.747877 0.001109315
15.23199 901.40741 912.502295 874.005787 0.001109376
15.24080 900.77765 911.878139 874.261906 0.001110152
15.24961 900.50427 910.806622 874.516274 0.001110489
15.25842 900.75958 910.050232 874.768901 0.001110174
15.26722 901.38641 909.966915 875.019797 0.001109402
15.27603 902.49487 910.50938 875.269001 0.00110804
15.28484 903.94293 911.350466 875.516468 0.001106265
15.29364 904.63617 912.040561 875.762236 0.001105417
15.30245 903.7428 912.145542 876.006319 0.00110651
15.31126 903.11725 911.422187 876.248727 0.001107276
15.32007 902.4361 910.03766 876.489473 0.001108112
15.32887 901.61578 908.507347 876.728597 0.00110912
15.33768 901.48584 907.349373 876.966057 0.00110928
15.34649 901.62378 906.846069 877.201893 0.00110911
15.35529 902.9928 907.00917 877.436118 0.001107429
15.36410 905.26245 907.615901 877.668747 0.001104652
15.37291 906.62177 908.322542 877.899819 0.001102996
15.38172 908.68494 908.908307 878.129296 0.001100491
15.39052 910.74457 909.490996 878.357218 0.001098003
15.39933 912.20618 910.443147 878.583601 0.001096243
15.40814 913.89825 912.12662 878.808459 0.001094214
15.41695 916.75726 914.722814 879.031807 0.001090801
15.42575 921.44739 918.16842 879.253686 0.001085249
15.43456 926.90442 922.110636 879.474061 0.00107886
15.44337 931.68677 925.992312 879.692974 0.001073322
15.45217 935.1745 929.41304 879.91044 0.001069319
15.46098 938.172 932.542186 880.126476 0.001065903
15.46979 940.88885 935.997702 880.341123 0.001062825
15.47860 942.48737 940.260306 880.554348 0.001061022
15.48740 944.20618 945.171365 880.766193 0.001059091
15.49621 947.02313 949.733171 880.976676 0.00105594
15.50502 948.50018 952.358559 881.185814 0.001054296
15.51382 948.6264 951.734654 881.393624 0.001054156
15.52263 944.52435 947.692925 881.600147 0.001058734
15.53144 939.12848 941.172421 881.805355 0.001064817
15.54025 931.44727 933.535448 882.00929 0.001073598
15.54905 924.26147 925.977732 882.211969 0.001081945
15.55786 918.0257 919.250322 882.413412 0.001089294
15.56667 913.40857 913.674381 882.613659 0.0010948
15.57547 909.52582 909.288355 882.812662 0.001099474
15.58428 907.15967 905.983156 883.010508 0.001102342
15.59309 904.86969 903.594743 883.207192 0.001105132
15.60190 903.74286 901.951937 883.402735 0.001106509
15.61070 903.69482 900.901962 883.597178 0.001106568
15.61951 903.03375 900.325517 883.790496 0.001107378
15.62832 902.79498 900.14146 883.982732 0.001107671
15.63712 903.00494 900.309197 884.173905 0.001107414
15.64593 904.01453 900.82677 884.364035 0.001106177
15.65474 905.28455 901.727972 884.553142 0.001104625
15.66355 907.08759 903.078208 884.741268 0.001102429
15.67235 909.80774 904.969653 884.92839 0.001099133
15.68116 913.81555 907.512147 885.11455 0.001094313
15.68997 917.69696 910.82053 885.299769 0.001089684
15.69877 922.1474 914.986564 885.484068 0.001084425
15.70758 926.37042 920.028788 885.667487 0.001079482
15.71639 930.97937 925.797379 885.850007 0.001074138
15.72520 935.54272 931.85483 886.031668 0.001068898
15.73400 940.43121 937.424259 886.212491 0.001063342
15.74281 944.20581 941.658193 886.392498 0.001059091
15.75162 946.84637 944.158112 886.57171 0.001056138
15.76042 947.56506 945.10652 886.750167 0.001055337
15.76923 947.2616 944.756913 886.927851 0.001055675
15.77804 945.38159 943.03446 887.104803 0.001057774
15.78685 942.15729 939.834646 887.281044 0.001061394
15.79565 938.03424 935.522191 887.456595 0.001066059
15.80446 935.09332 930.869871 887.631497 0.001069412
15.81327 931.47931 926.614841 887.805732 0.001073561
15.82207 927.87811 923.196552 887.979341 0.001077728
15.83088 925.23853 920.791126 888.152345 0.001080802
15.83969 923.91577 919.436176 888.324766 0.00108235
15.84850 923.64136 919.123801 888.496624 0.001082671
15.85730 923.17426 919.859338 888.667961 0.001083219
15.86611 924.64331 921.699506 888.838758 0.001081498
15.87492 927.8537 924.774114 889.009056 0.001077756
15.88373 932.54504 929.29896 889.178877 0.001072334
15.89253 936.96857 935.576782 889.348241 0.001067272
15.90134 943.07312 943.977113 889.517189 0.001060363
15.91015 950.10217 954.89042 889.685703 0.001052518
15.91895 961.0658 968.653769 889.853823 0.001040511
15.92776 974.68134 985.382819 890.021571 0.001025976
15.93657 992.52759 1004.70178 890.188967 0.001007529
15.94538 1011.9766 1025.382141 890.356032 0.000988165
15.95418 1036.0653 1045.20738 890.522806 0.00096519
15.96299 1057.3966 1061.631089 890.68927 0.000945719
15.97180 1075.1201 1072.988644 890.855465 0.000930129
15.98060 1086.0642 1078.697995 891.021411 0.000920756
15.98941 1090.0792 1078.238639 891.187128 0.000917365
15.99822 1082.5166 1071.044425 891.352656 0.000923773
16.00702 1067.9799 1057.928407 891.517957 0.000936347
16.01583 1046.7891 1041.456086 891.683128 0.000955302
16.02464 1024.8807 1024.453898 891.848112 0.000975723
16.03345 1005.2675 1008.514086 892.013004 0.00099476
16.04225 985.8421 993.891515 892.17775 0.001014361
16.05106 969.8175 980.280391 892.342462 0.001031122
16.05987 955.03912 967.628436 892.507047 0.001047078
16.06868 944.9469 956.239111 892.671617 0.001058261
16.07748 935.36292 946.454253 892.836118 0.001069104
16.08629 928.20667 938.386202 893.000642 0.001077346
16.09510 922.50989 931.947754 893.165152 0.001083999
16.10391 919.21411 926.944579 893.329704 0.001087886
16.11271 915.28992 923.16837 893.49426 0.00109255
16.12152 912.52051 920.430928 893.658913 0.001095866
16.13032 910.50507 918.582912 893.823607 0.001098292
16.13913 909.4552 917.510027 893.988433 0.001099559
16.14794 909.09235 917.134465 894.153353 0.001099998
16.15675 909.29303 917.392543 894.318422 0.001099755
16.16555 909.48987 918.220007 894.4836 0.001099517
16.17436 910.31128 919.52066 894.648981 0.001098525
16.18317 911.76233 921.112323 894.814504 0.001096777
16.19198 913.0697 922.672043 894.980282 0.001095207
16.20078 913.91077 923.730149 895.146216 0.001094199
16.20959 913.89038 923.829337 895.312418 0.001094223
16.21840 912.39905 922.798604 895.478827 0.001096012
16.22721 909.98657 920.868287 895.645535 0.001098917
16.23601 907.85028 918.487597 895.812501 0.001101503
16.24482 906.05927 916.065565 895.979777 0.001103681
16.25363 904.69275 913.858761 896.147321 0.001105348
16.26243 903.25793 911.983859 896.315223 0.001107103
16.27124 902.62787 910.471998 896.483423 0.001107876
16.28005 901.51385 909.305511 896.652009 0.001109245
16.28886 901.04382 908.446505 896.82094 0.001109824
16.29766 901.26721 907.848113 896.990265 0.001109549
16.30647 901.0658 907.46353 897.159942 0.001109797
16.31528 900.71027 907.249834 897.33006 0.001110235
16.32408 901.05194 907.159982 897.500554 0.001109814
16.33289 901.02283 907.176205 897.671514 0.00110985
16.34170 901.521 907.253452 897.842894 0.001109237
16.35051 901.22156 907.355792 898.014745 0.001109605
16.35931 901.46362 907.456786 898.18702 0.001109307
16.36812 902.28119 907.551413 898.359807 0.001108302
16.37693 902.90967 907.655509 898.533041 0.001107531
16.38573 903.20203 907.792801 898.706789 0.001107172
16.39454 903.62213 907.983591 898.881063 0.001106657
16.40335 904.32422 908.242506 899.055813 0.001105798
16.41215 905.32495 908.581437 899.231128 0.001104576
16.42096 905.80103 909.012727 899.406937 0.001103995
16.42977 906.63849 909.552848 899.583351 0.001102975
16.43858 908.2868 910.223583 899.760256 0.001100974
16.44738 909.6441 911.055319 899.937763 0.001099331
16.45619 911.23431 912.086673 900.115797 0.001097413
16.46500 912.63159 913.365664 900.294449 0.001095732
16.47380 914.94885 914.945718 900.473644 0.001092957
16.48261 917.87848 916.884202 900.653491 0.001089469
16.49142 920.55377 919.229415 900.833874 0.001086303
16.50023 922.98804 922.011014 901.014903 0.001083438
16.50903 926.82263 925.20842 901.1965 0.001078955
16.51784 931.55969 928.713905 901.378754 0.001073469
16.52665 935.62738 932.299628 901.561608 0.001068802
16.53546 939.22656 935.643038 901.74511 0.001064706
16.54426 943.27496 938.49389 901.9292 0.001060136
16.55307 946.90497 940.815669 902.113968 0.001056072
16.56188 950.05426 942.76721 902.299332 0.001052571
16.57068 952.15979 944.545251 902.485381 0.001050244
16.57949 955.31531 946.342313 902.672055 0.001046775
16.58830 958.38293 948.461875 902.859399 0.001043424
16.59710 961.57013 951.343308 903.047352 0.001039966
16.60591 965.42297 955.414448 903.236001 0.001035815
16.61472 970.43439 960.91218 903.425263 0.001030466
16.62353 976.67609 967.769124 903.615246 0.001023881
16.63233 984.6441 975.486484 903.805823 0.001015595
16.64114 993.27002 983.056675 903.997102 0.001006776
16.64995 1000.9647 989.091094 904.188998 0.000999036
16.65876 1005.1763 992.415346 904.381596 0.00099485
16.66756 1005.3508 992.755001 904.57481 0.000994678
16.67637 1002.6499 990.777004 904.768749 0.000997357
16.68518 997.48303 987.502629 904.963279 0.001002523
16.69399 992.07294 983.885602 905.15851 0.00100799
16.70279 985.49292 980.760079 905.354351 0.001014721
16.71160 980.79108 978.764109 905.55089 0.001019585
16.72041 977.5387 978.152739 905.748056 0.001022977
16.72921 976.19971 978.63936 905.945893 0.001024381
16.73802 976.05499 979.384881 906.14433 0.001024532
16.74683 976.32318 979.200988 906.343452 0.001024251
16.75563 974.64545 977.064777 906.543167 0.001026014
16.76444 970.40729 972.664456 906.743561 0.001030495
16.77325 964.1062 966.511867 906.944561 0.00103723
16.78206 957.00128 959.544606 907.146207 0.001044931
16.79086 950.53534 952.638137 907.348427 0.001052039
16.79967 944.81134 946.35893 907.551307 0.001058412
16.80848 939.90295 940.979254 907.754748 0.00106394
16.81729 936.09894 936.564233 907.958859 0.001068263
16.82609 933.29443 933.072515 908.163497 0.001071473
16.83490 931.40491 930.40197 908.368769 0.001073647
16.84371 929.56067 928.434362 908.574575 0.001075777
16.85251 928.41748 927.051 908.781002 0.001077102
16.86132 927.53436 926.150361 908.987947 0.001078127
16.87013 926.8291 925.654475 909.195521 0.001078948
16.87893 926.02838 925.514389 909.403573 0.001079881
16.88774 925.86908 925.710047 909.612213 0.001080066
16.89655 926.59747 926.249472 909.821337 0.001079217
16.90536 927.47998 927.165101 910.03103 0.00107819
16.91416 928.0202 928.506993 910.241212 0.001077563
16.92297 929.14746 930.335725 910.451872 0.001076255
16.93178 931.87134 932.710547 910.663071 0.00107311
16.94058 934.20819 935.670191 910.874704 0.001070425
16.94939 937.06451 939.212097 911.086855 0.001067162
16.95820 940.45453 943.247548 911.299442 0.001063316
16.96701 948.22864 947.54202 911.5125 0.001054598
16.97581 954.8053 951.645543 911.725945 0.001047334
16.98462 962.40881 954.895227 911.939863 0.001039059
16.99343 964.5824 956.594015 912.154144 0.001036718
17.00223 963.20471 956.378671 912.368872 0.001038201
17.01104 955.61749 954.460785 912.583962 0.001046444
17.01985 948.95966 951.478602 912.799448 0.001053786
17.02866 942.85742 948.125726 913.015245 0.001060606
17.03746 940.48145 944.903669 913.231437 0.001063285
17.04627 938.21631 942.092775 913.447911 0.001065852
17.05508 936.58759 939.814172 913.664777 0.001067706
17.06388 935.19434 938.109936 913.881872 0.001069296
17.07269 935.51117 936.981996 914.099304 0.001068934
17.08150 936.85168 936.413749 914.31696 0.001067405
17.09031 938.2121 936.381556 914.534925 0.001065857
17.09911 939.01093 936.869116 914.753082 0.00106495
17.10792 940.94299 937.879378 914.971541 0.001062764
17.11673 943.33844 939.441687 915.190137 0.001060065
17.12554 946.17029 941.619951 915.408979 0.001056892
17.13434 949.5354 944.508463 915.627949 0.001053147
17.14315 954.20447 948.232908 915.847133 0.001047993
17.15196 958.67822 952.93763 916.066437 0.001043103
17.16077 964.78998 958.775762 916.285896 0.001036495
17.16957 971.46564 965.875295 916.505418 0.001029372
17.17838 980.23975 974.30966 916.725084 0.001020159
17.18718 990.20288 984.025331 916.944778 0.001009894
17.19599 1003.7864 994.804039 917.164582 0.000996228
17.20480 1017.7676 1006.233194 917.384404 0.000982543
17.21361 1034.0599 1017.775279 917.604276 0.000967062
17.22241 1046.2534 1028.910292 917.824104 0.000955791
17.23122 1056.4084 1039.391982 918.04397 0.000946604
17.24003 1060.3668 1049.328226 918.263757 0.00094307
17.24884 1064.978 1058.935628 918.483571 0.000938987
17.25764 1067.3746 1068.020587 918.703242 0.000936878
17.26645 1074.142 1075.776804 918.922879 0.000930976
17.27526 1079.1021 1081.109699 919.142361 0.000926696
17.28406 1082.2321 1083.145926 919.361769 0.000924016
17.29287 1078.7294 1081.346818 919.580986 0.000927017
17.30168 1073.7802 1075.498771 919.800116 0.000931289
17.31049 1064.1628 1066.065431 920.018991 0.000939706
17.31929 1054.905 1054.405679 920.237715 0.000947953
17.32810 1044.343 1042.334495 920.456171 0.00095754
17.33691 1038.6853 1031.34691 920.674438 0.000962756
17.34571 1032.3721 1022.238213 920.892422 0.000968643
17.35452 1030.7386 1015.075389 921.110153 0.000970178
17.36333 1028.0272 1009.342363 921.327537 0.000972737
17.37214 1025.4556 1004.203979 921.544654 0.000975176
17.38094 1017.2714 998.930878 921.761384 0.000983022
17.38975 1011.0267 993.289019 921.977807 0.000989094
17.39856 999.72754 987.598188 922.19383 0.001000273
17.40737 991.55579 982.420416 922.40948 0.001008516
17.41617 982.48035 978.243782 922.624667 0.001017832
17.42498 978.10492 975.362213 922.839466 0.001022385
17.43379 974.21063 973.897086 923.053761 0.001026472
17.44260 973.39801 973.826766 923.267654 0.001027329
17.45140 972.76233 975.002649 923.480979 0.001028
17.46021 973.69586 977.158233 923.693789 0.001027015
17.46901 974.58453 979.960683 923.906112 0.001026078
17.47782 975.65839 983.096177 924.117834 0.001024949
17.48663 977.29736 986.303058 924.329029 0.00102323
17.49544 978.22827 989.241141 924.539607 0.001022256
17.50424 978.34351 991.330187 924.749595 0.001022136
17.51305 977.47974 991.805679 924.958903 0.001023039
17.52186 974.92444 990.090162 925.167606 0.001025721
17.53066 972.24475 986.211093 925.375591 0.001028548
17.53947 969.50623 980.807801 925.582955 0.001031453
17.54828 964.64899 974.751605 925.789538 0.001036647
17.55709 959.7204 968.76411 925.995439 0.00104197
17.56589 956.18176 963.301956 926.200545 0.001045826
17.57470 953.45007 958.589 926.404931 0.001048823
17.58351 951.35162 954.706389 926.608507 0.001051136
17.59232 949.48322 951.642349 926.811301 0.001053205
17.60112 948.12866 949.342621 927.013226 0.001054709
17.60993 946.76471 947.731033 927.214355 0.001056229
17.61874 945.3172 946.730819 927.414579 0.001057846
17.62754 944.71869 946.275146 927.613969 0.001058516
17.63635 944.58331 946.314126 927.812441 0.001058668
17.64516 945.15143 946.811571 928.010021 0.001058032
17.65396 946.11859 947.73633 928.206625 0.00105695
17.66277 946.99304 949.047788 928.402324 0.001055974
17.67158 948.15778 950.673962 928.597011 0.001054677
17.68039 949.29022 952.487459 928.79076 0.001053419
17.68919 950.62213 954.272335 928.983485 0.001051943
17.69800 951.15021 955.716959 929.175214 0.001051359
17.70681 951.22192 956.478592 929.365866 0.001051279
17.71562 950.66028 956.3325 929.555511 0.0010519
17.72442 950.17059 955.306563 929.744046 0.001052443
17.73323 948.72009 953.660097 929.931562 0.001054052
17.74204 947.01135 951.734164 930.117916 0.001055954
17.75085 946.04565 949.808993 930.303199 0.001057031
17.75965 945.01691 948.062884 930.48731 0.001058182
17.76846 944.39587 946.585965 930.670319 0.001058878
17.77727 943.53491 945.413019 930.852148 0.001059844
17.78607 942.85516 944.543653 931.032824 0.001060608
17.79488 942.58594 943.959872 931.212271 0.001060911
17.80369 942.57147 943.632623 931.390557 0.001060928
17.81249 942.84589 943.528331 931.567587 0.001060619
17.82130 942.70984 943.611256 931.743429 0.001060772
17.83011 943.51581 943.845876 931.918008 0.001059866
17.83892 944.76752 944.200841 932.091351 0.001058461
17.84772 945.51379 944.658047 932.263387 0.001057626
17.85653 946.0451 945.221307 932.434183 0.001057032
17.86534 946.78021 945.915179 932.603647 0.001056211
17.87415 948.45392 946.775373 932.771865 0.001054347
17.88295 949.4693 947.833158 932.93871 0.00105322
17.89176 950.17303 949.108079 933.104266 0.00105244
17.90057 951.21039 950.598164 933.268448 0.001051292
17.90937 952.89722 952.276387 933.431318 0.001049431
17.91818 955.17078 954.087036 933.592794 0.001046933
17.92699 957.83667 955.963686 933.752956 0.001044019
17.93579 960.37067 957.84892 933.911687 0.001041265
17.94460 962.47961 959.712386 934.069066 0.001038983
17.95341 964.59283 961.542292 934.225015 0.001036707
17.96222 967.49677 963.359825 934.379594 0.001033595
17.97102 970.4314 965.255789 934.532744 0.00103047
17.97983 973.32458 967.41141 934.68449 0.001027406
17.98864 976.83148 970.051486 934.834775 0.001023718
17.99744 981.22321 973.366851 934.983624 0.001019136
18.00625 987.5304 977.447994 935.131066 0.001012627
18.01506 994.0578 982.236894 935.277043 0.001005978
18.02387 998.94196 987.505639 935.421583 0.001001059
18.03267 1003.8867 992.864583 935.564629 0.000996128
18.04148 1007.2524 997.85378 935.706243 0.0009928
18.05029 1009.1724 1002.06435 935.846355 0.000990911
18.05909 1011.1085 1005.215547 935.985023 0.000989014
18.06790 1012.1982 1007.069468 936.122196 0.000987949
18.07671 1011.0377 1007.368112 936.257902 0.000989083
18.08552 1008.7733 1005.98244 936.392091 0.000991303
18.09432 1004.7563 1003.152971 936.52482 0.000995266
18.10313 1000.4831 999.533908 936.656028 0.000999517
18.11194 995.75848 995.949582 936.78577 0.00100426
18.12074 992.26062 993.129133 936.914 0.0010078
18.12955 990.27887 991.577951 937.040747 0.001009817
18.13836 989.30176 991.584139 937.165965 0.001010814
18.14717 990.10443 993.259343 937.289712 0.001009994
18.15597 993.1543 996.558938 937.411929 0.001006893
18.16478 997.82056 1001.264979 937.532687 0.001002184
18.17359 1005.0339 1006.926193 937.651904 0.000994991
18.18240 1014.7261 1012.797267 937.769647 0.000985488
18.19120 1024.9426 1017.821625 937.885865 0.000975664
18.20001 1032.0797 1020.825992 938.000612 0.000968917
18.20882 1035.0823 1020.927319 938.11385 0.000966107
18.21763 1029.459 1017.937591 938.225608 0.000971384
18.22643 1019.9217 1012.407293 938.335849 0.000980467
18.23524 1007.9964 1005.281843 938.444628 0.000992067
18.24404 995.13538 997.512962 938.551898 0.001004888
18.25285 984.05035 989.842264 938.657712 0.001016208
18.26166 976.2265 982.750762 938.762037 0.001024352
18.27047 970.4032 976.497822 938.864902 0.001030499
18.27927 965.9021 971.183619 938.966277 0.001035302
18.28808 962.85175 966.797581 939.066213 0.001038581
18.29689 960.69611 963.268994 939.16467 0.001040912
18.30570 958.6701 960.491068 939.261699 0.001043112
18.31450 957.31073 958.348702 939.357273 0.001044593
18.32331 956.84729 956.727656 939.451421 0.001045099
18.33212 956.35547 955.527042 939.544118 0.001045636
18.34092 955.27985 954.662237 939.635413 0.001046814
18.34973 954.65277 954.068246 939.725274 0.001047501
18.35854 955.08551 953.698087 939.813758 0.001047027
18.36735 955.22675 953.522112 939.900814 0.001046872
18.37615 955.52673 953.526203 939.986501 0.001046543
18.38496 956.34515 953.710789 940.070788 0.001045648
18.39377 957.73169 954.090663 940.153725 0.001044134
18.40257 958.15564 954.694878 940.235292 0.001043672
18.41138 959.51263 955.567557 940.315518 0.001042196
18.42019 961.26428 956.766413 940.394386 0.001040297
18.42900 963.22498 958.363799 940.471944 0.001038179
18.43780 964.99402 960.43967 940.548167 0.001036276
18.44661 967.5307 963.079065 940.623102 0.001033559
18.45542 969.76172 966.359252 940.696734 0.001031181
18.46423 971.87134 970.339838 940.769093 0.001028943
18.47303 974.92932 975.036214 940.840166 0.001025715
18.48184 978.10773 980.39902 940.91 0.001022382
18.49065 981.29211 986.256413 940.978574 0.001019065
18.49945 985.03082 992.27069 941.045934 0.001015197
18.50826 988.38611 997.895478 941.112071 0.00101175
18.51707 991.07422 1002.438466 941.177012 0.001009006
18.52587 992.8244 1005.245113 941.240751 0.001007227
18.53468 994.20667 1005.94224 941.303317 0.001005827
18.54349 994.70233 1004.532189 941.364738 0.001005326
18.55230 993.98248 1001.319487 941.425009 0.001006054
18.56110 990.69989 996.788083 941.484159 0.001009387
18.56991 985.64868 991.50853 941.542182 0.00101456
18.57872 980.05664 986.032648 941.599121 0.001020349
18.58752 976.06268 980.804835 941.654967 0.001024524
18.59633 972.18347 976.113482 941.709767 0.001028612
18.60514 969.29358 972.114654 941.763499 0.001031679
18.61395 967.20795 968.856178 941.816213 0.001033904
18.62275 966.24622 966.32065 941.8679 0.001034933
18.63156 966.24506 964.446387 941.918601 0.001034934
18.64037 966.50854 963.146649 941.968316 0.001034652
18.64918 966.41266 962.317769 942.017073 0.001034755
18.65798 966.01141 961.852529 942.064875 0.001035184
18.66679 965.12085 961.655343 942.111759 0.00103614
18.67560 965.02948 961.663934 942.157724 0.001036238
18.68440 965.33685 961.858886 942.202808 0.001035908
18.69321 965.19836 962.252056 942.247014 0.001036056
18.70202 965.13763 962.862236 942.290371 0.001036122
18.71082 966.39105 963.692713 942.332882 0.001034778
18.71963 968.60034 964.718907 942.374585 0.001032418
18.72844 970.00696 965.884516 942.41548 0.00103092
18.73725 970.24536 967.112637 942.455605 0.001030667
18.74605 971.1217 968.331912 942.494966 0.001029737
18.75486 972.18317 969.517205 942.533589 0.001028613
18.76367 973.32471 970.719014 942.571481 0.001027406
18.77248 974.79913 972.062648 942.60868 0.001025852
18.78128 976.75763 973.712852 942.645186 0.001023795
18.79009 979.01501 975.827315 942.681041 0.001021435
18.79890 981.20374 978.517806 942.71624 0.001019156
18.80770 983.31543 981.840426 942.750821 0.001016968
18.81651 985.71295 985.797857 942.784789 0.001014494
18.82532 989.44781 990.367605 942.818179 0.001010665
18.83413 994.23071 995.507333 942.850999 0.001005803
18.84293 998.20667 1001.13085 942.883276 0.001001797
18.85174 1001.8704 1007.052035 942.915019 0.000998133
18.86055 1005.8436 1012.960789 942.946262 0.00099419
18.86935 1010.1733 1018.451909 942.97701 0.000989929
18.87816 1013.7249 1023.109974 943.007297 0.000986461
18.88697 1016.9457 1026.547142 943.037132 0.000983337
18.89578 1017.7044 1028.435001 943.066541 0.000982604
18.90458 1017.361 1028.603096 943.095534 0.000982935
18.91339 1016.2551 1027.196766 943.124144 0.000984005
18.92220 1013.5513 1024.708362 943.152376 0.00098663
18.93100 1009.7265 1021.800942 943.180263 0.000990367
18.93981 1006.28 1019.07015 943.207814 0.000993759
18.94862 1003.8313 1016.892484 943.235055 0.000996183
18.95743 1003.4104 1015.370259 943.261996 0.000996601
18.96623 1003.7477 1014.329572 943.288667 0.000996266
18.97504 1004.4213 1013.355041 943.315075 0.000995598
18.98385 1004.1596 1011.921095 943.341254 0.000995858
18.99265 1002.9343 1009.627598 943.367204 0.000997074
19.00146 1000.0765 1006.41338 943.39296 0.000999924
19.01027 995.90399 1002.590463 943.418526 0.001004113
19.01908 991.21185 998.667373 943.443932 0.001008866
19.02788 986.99518 995.151875 943.469189 0.001013176
19.03669 984.15045 992.430226 943.494318 0.001016105
19.04550 983.6662 990.755881 943.51933 0.001016605
19.05431 984.55853 990.27001 943.544252 0.001015684
19.06311 987.08441 991.026549 943.569091 0.001013085
19.07192 990.82635 992.997139 943.593869 0.001009259
19.08073 996.65375 996.068159 943.618611 0.001003357
19.08953 1003.5632 1000.00541 943.643317 0.000996449
19.09834 1011.0101 1004.417433 943.668016 0.00098911
19.10715 1019.5544 1008.710183 943.692714 0.000980821
19.11595 1027.1656 1012.113291 943.717438 0.000973553
19.12476 1030.9686 1013.83215 943.742194 0.000969962
19.13357 1029.9722 1013.348512 943.767003 0.0009709
19.14238 1024.5474 1010.666341 943.791871 0.000976041
19.15118 1015.4851 1006.296353 943.816825 0.000984751
19.15999 1005.9604 1000.992947 943.841868 0.000994075
19.16880 998.32208 995.460505 943.867024 0.001001681
19.17760 991.82483 990.216975 943.892299 0.001008243
19.18641 987.13043 985.572294 943.917712 0.001013037
19.19522 983.38538 981.680806 943.943268 0.001016895
19.20403 980.99994 978.579249 943.96899 0.001019368
19.21283 979.00745 976.230548 943.99488 0.001021443
19.22164 977.72003 974.551047 944.020964 0.001022788
19.23045 976.75085 973.44302 944.047237 0.001023803
19.23926 975.39343 972.81009 944.073724 0.001025227
19.24806 974.797 972.553935 944.100424 0.001025855
19.25687 974.64539 972.554068 944.127361 0.001026014
19.26568 974.82239 972.657056 944.154533 0.001025828
19.27448 974.3783 972.695916 944.181964 0.001026295
19.28329 974.17938 972.54387 944.209645 0.001026505
19.29210 974.09662 972.168317 944.237603 0.001026592
19.30091 973.98035 971.637545 944.265831 0.001026715
19.30971 973.38458 971.069931 944.294353 0.001027343
19.31852 973.14532 970.569804 944.323166 0.001027596
19.32733 972.80017 970.183393 944.352284 0.00102796
19.33613 972.41089 969.889161 944.381704 0.001028372
19.34494 972.39526 969.614543 944.411447 0.001028388
19.35375 972.09717 969.278483 944.441506 0.001028704
19.36256 971.24683 968.844915 944.471899 0.001029604
19.37136 970.68097 968.356477 944.502623 0.001030205
19.38017 970.84283 967.922042 944.53369 0.001030033
19.38898 970.92072 967.673112 944.565093 0.00102995
19.39778 969.77594 967.725037 944.596851 0.001031166
19.40659 969.1748 968.159907 944.628953 0.001031806
19.41540 969.97888 969.024828 944.661422 0.00103095
19.42421 971.41309 970.332446 944.694238 0.001029428
19.43301 973.06128 972.059466 944.727422 0.001027685
19.44182 975.12738 974.134738 944.760961 0.001025507
19.45063 977.14752 976.431344 944.794872 0.001023387
19.45943 979.37994 978.767226 944.829145 0.001021054
19.46824 982.13672 980.94748 944.863789 0.001018188
19.47705 984.15424 982.838504 944.898791 0.001016101
19.48586 985.22943 984.439168 944.934169 0.001014992
19.49466 986.03827 985.874797 944.969904 0.001014159
19.50347 987.43945 987.320781 945.006013 0.00101272
19.51228 988.66827 988.900446 945.042482 0.001011462
19.52109 990.53394 990.616074 945.079318 0.001009557
19.52989 992.36078 992.328541 945.116505 0.001007698
19.53870 994.09778 993.774196 945.154057 0.001005937
19.54751 994.73425 994.631249 945.191955 0.001005294
19.55631 994.29962 994.644661 945.230212 0.001005733
19.56512 992.07727 993.751067 945.268812 0.001007986
19.57393 990.40851 992.117803 945.307758 0.001009684
19.58273 988.3736 990.061482 945.347032 0.001011763
19.59154 985.81409 987.90851 945.386648 0.00101439
19.60035 983.72754 985.898952 945.426581 0.001016542
19.60916 982.46973 984.149132 945.466838 0.001017843
19.61796 980.99426 982.667881 945.507415 0.001019374
19.62677 980.30573 981.396272 945.548289 0.00102009
19.63558 979.29144 980.259868 945.589472 0.001021146
19.64438 977.28577 979.22484 945.630937 0.001023242
19.65319 975.27148 978.321259 945.672701 0.001025356
19.66200 973.86102 977.619575 945.714726 0.001026841
19.67081 972.94177 977.178108 945.757027 0.001027811
19.67961 972.21527 977.003823 945.799576 0.001028579
19.68842 971.55322 977.039837 945.842383 0.00102928
19.69723 971.4201 977.183987 945.885417 0.001029421
19.70604 972.18201 977.331145 945.928694 0.001028614
19.71484 972.27551 977.411648 945.972174 0.001028515
19.72365 972.59357 977.408372 946.015869 0.001028179
19.73246 973.18683 977.333612 946.059748 0.001027552
19.74126 974.00574 977.184098 946.103821 0.001026688
19.75007 973.53149 976.907006 946.14806 0.001027188
19.75888 973.73627 976.432215 946.192463 0.001026972
19.76769 973.50018 975.69087 946.237002 0.001027221
19.77649 972.66486 974.683797 946.281684 0.001028103
19.78530 971.19257 973.479951 946.326476 0.001029662
19.79411 969.64978 972.175486 946.371385 0.0010313
19.80291 968.18561 970.854792 946.416382 0.00103286
19.81172 966.83533 969.577591 946.461463 0.001034302
19.82053 966.53339 968.396628 946.506599 0.001034625
19.82934 965.75104 967.370033 946.551795 0.001035464
19.83814 965.00153 966.559913 946.597017 0.001036268
19.84695 965.02374 966.01647 946.642275 0.001036244
19.85576 964.21051 965.766403 946.687523 0.001037118
19.86456 964.67401 965.805609 946.732772 0.00103662
19.87337 965.62061 966.097206 946.777986 0.001035603
19.88218 966.71326 966.568573 946.82317 0.001034433
19.89099 967.65234 967.110087 946.868286 0.001033429
19.89979 968.85211 967.583325 946.913346 0.001032149
19.90860 970.22424 967.848705 946.958302 0.00103069
19.91741 970.17371 967.813016 947.003163 0.001030743
19.92621 969.61566 967.469287 947.047893 0.001031336
19.93502 968.0946 966.898601 947.092496 0.001032957
19.94383 966.95557 966.232028 947.136939 0.001034174
19.95264 966.32947 965.603408 947.181217 0.001034844
19.96144 965.88379 965.11856 947.225298 0.001035321
19.97025 965.62628 964.847345 947.269185 0.001035597
19.97906 965.72668 964.826974 947.312841 0.00103549
19.98786 965.8786 965.065927 947.356269 0.001035327
19.99667 966.34595 965.546007 947.399438 0.001034826
20.00548 967.96143 966.23456 947.442341 0.001033099
20.01429 969.49603 967.079687 947.484946 0.001031464
20.02309 970.00983 968.028605 947.527257 0.001030917
20.03190 970.88995 969.037656 947.569236 0.001029983
20.04071 971.73779 970.078134 947.610892 0.001029084
20.04951 972.49463 971.140096 947.652179 0.001028283
20.05832 973.5921 972.235484 947.693105 0.001027124
20.06713 974.23816 973.393982 947.733634 0.001026443
20.07594 974.22601 974.653528 947.773768 0.001026456
20.08474 975.04724 976.036626 947.813474 0.001025591
20.09355 976.13269 977.525889 947.852757 0.001024451
20.10236 977.63977 979.049472 947.891576 0.001022872
20.11117 978.97614 980.501221 947.929935 0.001021475
20.11997 980.4942 981.775143 947.967804 0.001019894
20.12878 982.55835 982.796884 948.005182 0.001017751
20.13759 984.86694 983.514967 948.042043 0.001015366
20.14639 986.65759 983.863224 948.078372 0.001013523
20.15520 987.4881 983.73523 948.114167 0.00101267
20.16401 986.32227 983.011318 948.149396 0.001013867
20.17281 984.97803 981.62567 948.184061 0.001015251
20.18162 982.27673 979.627332 948.218138 0.001018043
20.19043 979.17444 977.177179 948.251619 0.001021268
20.19924 975.60236 974.493427 948.284481 0.001025008
20.20804 971.29688 971.783775 948.316725 0.001029551
20.21685 967.89374 969.209145 948.348324 0.001033171
20.22566 965.51959 966.870886 948.37928 0.001035712
20.23447 963.77917 964.82472 948.409571 0.001037582
20.24327 961.5257 963.091105 948.439192 0.001040014
20.25208 959.65851 961.668288 948.468121 0.001042037
20.26089 959.14691 960.538095 948.496361 0.001042593
20.26969 959.12372 959.680002 948.523888 0.001042618
20.27850 959.04639 959.063799 948.550709 0.001042702
20.28731 958.37115 958.66093 948.576795 0.001043437
20.29612 957.47095 958.442097 948.602152 0.001044418
20.30492 957.6554 958.377575 948.626759 0.001044217
20.31373 958.31311 958.435035 948.65062 0.0010435
20.32254 958.16833 958.576982 948.673716 0.001043658
20.33134 958.32434 958.75906 948.696052 0.001043488
20.34015 958.93762 958.931105 948.717606 0.001042821
20.34896 959.94598 959.044327 948.738385 0.001041725
20.35777 960.43604 959.063498 948.758373 0.001041194
20.36657 959.99823 958.979338 948.777573 0.001041669
20.37538 959.85822 958.811933 948.795973 0.001041821
20.38419 958.99323 958.603 948.813575 0.00104276
20.39299 958.32635 958.402885 948.830367 0.001043486
20.40180 957.54492 958.259285 948.846354 0.001044337
20.41061 957.51105 958.21223 948.861526 0.001044374
20.41942 957.73102 958.292858 948.875887 0.001044135
20.42822 957.82507 958.524222 948.889431 0.001044032
20.43703 958.7547 958.921633 948.902159 0.00104302
20.44584 959.2038 959.492782 948.914066 0.001042531
20.45464 960.16229 960.236906 948.925158 0.001041491
20.46345 961.20459 961.14149 948.93543 0.001040361
20.47226 962.43121 962.180003 948.944888 0.001039035
20.48107 963.54956 963.304439 948.953528 0.001037829
20.48987 964.99146 964.442703 948.961355 0.001036279
20.49868 966.53503 965.495485 948.96837 0.001034624
20.50749 968.45709 966.350885 948.974579 0.00103257
20.51629 969.92792 966.909736 948.979981 0.001031004
20.52510 970.52216 967.120772 948.984585 0.001030373
20.53391 969.53796 966.999972 948.988392 0.001031419
20.54272 968.33984 966.621714 948.991409 0.001032695
20.55152 967.26312 966.089122 948.99364 0.001033845
20.56033 966.68829 965.498273 948.995093 0.00103446
20.56914 966.4472 964.924231 948.995773 0.001034718
20.57795 965.9743 964.411617 948.995689 0.001035224
20.58675 965.55914 963.977415 948.994847 0.001035669
20.59556 965.13165 963.617825 948.993256 0.001036128
20.60437 965.29022 963.314813 948.990924 0.001035958
20.61317 965.26666 963.043112 948.987861 0.001035983
20.62198 964.62866 962.78212 948.984075 0.001036668
20.63079 963.65863 962.525472 948.979577 0.001037712
20.63959 963.08429 962.281426 948.974378 0.001038331
20.64840 962.76263 962.064669 948.968487 0.001038678
20.65721 962.54572 961.887115 948.961918 0.001038912
20.66602 962.38989 961.754517 948.954677 0.00103908
20.67482 962.51636 961.671311 948.946783 0.001038943
20.68363 962.91248 961.647694 948.938244 0.001038516
20.69244 962.70087 961.704729 948.929071 0.001038744
20.70124 962.61346 961.87401 948.919281 0.001038839
20.71005 963.2204 962.19375 948.908883 0.001038184
20.71886 963.75336 962.70338 948.897894 0.00103761
20.72767 964.26819 963.43928 948.886323 0.001037056
20.73647 965.67712 964.430895 948.87419 0.001035543
20.74528 966.52686 965.699464 948.861503 0.001034632
20.75409 968.08563 967.255081 948.848281 0.001032966
20.76290 969.6925 969.098576 948.834531 0.001031255
20.77170 971.62512 971.218681 948.820277 0.001029204
20.78051 974.13135 973.599794 948.805525 0.001026556
20.78932 977.14032 976.208778 948.790297 0.001023394
20.79812 980.64606 978.990155 948.774599 0.001019736
20.80693 985.15204 981.844948 948.758452 0.001015072
20.81574 990.06378 984.628056 948.741866 0.001010036
20.82455 995.77606 987.159156 948.724861 0.001004242
20.83335 1000.3993 989.269066 948.707444 0.000999601
20.84216 1002.093 990.851098 948.689636 0.000997911
20.85097 1001.8887 991.894216 948.671444 0.000998115
20.85977 1000.8306 992.465326 948.652886 0.00099917
20.86858 999.33936 992.653703 948.633973 0.001000661
20.87739 998.13934 992.511184 948.614724 0.001001864
20.88620 997.11096 992.014323 948.595142 0.001002897
20.89500 996.46075 991.082219 948.57525 0.001003552
20.90381 995.48663 989.638079 948.555046 0.001004534
20.91262 993.93091 987.683493 948.534558 0.001006106
20.92142 991.33514 985.328092 948.513784 0.001008741
20.93023 987.87323 982.768182 948.492743 0.001012276
20.93904 983.34058 980.223842 948.471437 0.001016942
20.94785 979.95087 977.890708 948.449884 0.001020459
20.95665 977.32233 975.916582 948.42808 0.001023204
20.96546 975.02216 974.405834 948.406049 0.001025618
20.97427 972.91455 973.424028 948.383784 0.001027839
20.98307 971.30261 973.011566 948.361302 0.001029545
20.99188 970.25708 973.188905 948.338599 0.001030655
21.00069 969.32745 973.958286 948.315686 0.001031643
21.00950 969.5047 975.303137 948.292562 0.001031455
21.01830 971.4411 977.18339 948.269238 0.001029398
21.02711 974.00531 979.533404 948.245703 0.001026688
21.03592 976.49561 982.25354 948.221971 0.00102407
21.04472 979.49219 985.209056 948.198028 0.001020937
21.05353 982.61505 988.216087 948.173882 0.001017693
21.06234 985.33185 991.040046 948.149524 0.001014887
21.07115 987.73126 993.390854 948.124958 0.001012421
21.07995 989.97729 994.962376 948.100167 0.001010124
21.08876 991.68085 995.503516 948.075156 0.001008389
21.09757 990.85925 994.905253 948.049902 0.001009225
21.10637 989.44238 993.244242 948.024412 0.00101067
21.11518 986.84155 990.747238 947.998661 0.001013334
21.12399 982.34229 987.710779 947.972647 0.001017975
21.13280 978.85907 984.413311 947.946345 0.001021598
21.14160 976.05334 981.075101 947.91975 0.001024534
21.15041 972.94281 977.845491 947.892829 0.00102781
21.15922 969.70746 974.82536 947.865582 0.001031239
21.16803 967.97589 972.079892 947.837972 0.001033084
21.17683 966.66461 969.656494 947.809989 0.001034485
21.18564 964.61218 967.582564 947.781594 0.001036686
21.19445 963.43884 965.869283 947.752773 0.001037949
21.20325 962.74518 964.512644 947.723489 0.001038696
21.21206 961.92902 963.495285 947.693722 0.001039578
21.22087 960.74792 962.78974 947.663433 0.001040856
21.22968 960.49005 962.364647 947.632582 0.001041135
21.23848 961.37 962.183809 947.601143 0.001040182
21.24729 961.84686 962.206356 947.56907 0.001039667
21.25610 962.33228 962.39296 947.536334 0.001039142
21.26490 962.45209 962.709593 947.502878 0.001039013
21.27371 962.46667 963.131297 947.468674 0.001038997
21.28252 962.77014 963.642285 947.433659 0.00103867
21.29133 963.86407 964.228996 947.397797 0.001037491
21.30013 965.12927 964.872824 947.361029 0.001036131
21.30894 965.5119 965.542098 947.323315 0.00103572
21.31775 965.98004 966.195618 947.284584 0.001035218
21.32655 966.67725 966.791065 947.244797 0.001034471
21.33536 967.3609 967.301354 947.203878 0.00103374
21.34417 968.02496 967.726587 947.161778 0.001033031
21.35298 968.41077 968.098971 947.118426 0.00103262
21.36178 968.47467 968.479493 947.073773 0.001032552
21.37059 967.83679 968.946635 947.027731 0.001033232
21.37940 967.43414 969.580331 946.980254 0.001033662
21.38820 967.9151 970.447504 946.931243 0.001033148
21.39701 968.98993 971.587997 946.880659 0.001032002
21.40582 970.43274 973.010527 946.828401 0.001030468
21.41463 971.89966 974.681518 946.774417 0.001028913
21.42343 973.3783 976.523299 946.718604 0.00102735
21.43224 975.0108 978.405425 946.660903 0.00102563
21.44105 976.68042 980.153548 946.601221 0.001023876
21.44985 978.37592 981.563795 946.539497 0.001022102
21.45866 979.55945 982.443783 946.47562 0.001020867
21.46747 980.24365 982.654132 946.409534 0.001020155
21.47628 979.56616 982.139499 946.341126 0.00102086
21.48508 978.16852 980.936767 946.270332 0.001022319
21.49389 976.91339 979.163915 946.197048 0.001023632
21.50270 975.17505 976.989297 946.121215 0.001025457
21.51150 972.28265 974.604515 946.042708 0.001028508
21.52031 969.74377 972.182982 945.961476 0.0010312
21.52912 967.8634 969.862876 945.877394 0.001033204
21.53793 966.29431 967.74419 945.790402 0.001034881
21.54673 965.1275 965.887585 945.700392 0.001036133
21.55554 963.64374 964.326555 945.607308 0.001037728
21.56435 962.70746 963.071069 945.511021 0.001038737
21.57315 962.4317 962.116236 945.411489 0.001039035
21.58196 962.80573 961.446658 945.30857 0.001038631
21.59077 962.13617 961.043873 945.202252 0.001039354
21.59958 961.21381 960.891295 945.092394 0.001040351
21.60838 961.46893 960.980457 944.978966 0.001040075
21.61719 962.53113 961.313474 944.86184 0.001038927
21.62600 963.20209 961.900463 944.740982 0.001038204
21.63481 963.34192 962.75356 944.616292 0.001038053
21.64361 964.32703 963.878317 944.487746 0.001036993
21.65242 966.23083 965.278916 944.355222 0.001034949
21.66123 967.47382 966.936651 944.21872 0.00103362
21.67003 969.29932 968.818634 944.078124 0.001031673
21.67884 971.92804 970.872828 943.933431 0.001028883
21.68765 975.03412 973.036276 943.784563 0.001025605
21.69646 977.52509 975.241551 943.631533 0.001022992
21.70526 979.92828 977.430775 943.474241 0.001020483
21.71407 983.44885 979.555903 943.312732 0.00101683
21.72288 986.65479 981.576831 943.146898 0.001013526
21.73168 988.07318 983.438224 942.976841 0.001012071
21.74049 988.55737 985.052775 942.802466 0.001011575
21.74930 989.35468 986.291527 942.623861 0.00101076
21.75810 989.79572 987.007377 942.441006 0.001010309
21.76691 989.90778 987.079776 942.253888 0.001010195
21.77572 989.57843 986.459075 942.062611 0.001010531
21.78453 988.27313 985.185283 941.867185 0.001011866
21.79333 985.71375 983.374906 941.667744 0.001014493
21.80214 982.78552 981.184011 941.464277 0.001017516
21.81095 980.40649 978.776826 941.256971 0.001019985
21.81976 976.84827 976.295481 941.045818 0.0010237
21.82856 973.90991 973.850657 940.831088 0.001026789
21.83737 971.59601 971.515893 940.612803 0.001029234
21.84618 969.49561 969.342397 940.391224 0.001031464
21.85498 967.35175 967.364137 940.166431 0.00103375
21.86379 965.42645 965.60506 939.938701 0.001035812
21.87260 963.03223 964.072507 939.708205 0.001038387
21.88141 962.22504 962.754682 939.475267 0.001039258
21.89021 961.99506 961.617289 939.240048 0.001039506
21.89902 961.61298 960.612344 939.002948 0.001039919
21.90783 960.59955 959.685697 938.764179 0.001041017
21.91663 960.46191 958.788974 938.524168 0.001041166
21.92544 959.74237 957.886979 938.283235 0.001041946
21.93425 958.94336 956.966966 938.041866 0.001042814
21.94306 957.97821 956.041631 937.800388 0.001043865
21.95186 956.75549 955.148443 937.559379 0.001045199
21.96067 955.44067 954.343193 937.319233 0.001046637
21.96948 954.78088 953.681987 937.08057 0.001047361
21.97828 954.42224 953.216742 936.843912 0.001047754
21.98709 953.85559 952.989552 936.609955 0.001048377
21.99590 953.71808 953.029724 936.37925 0.001048528
22.00471 953.33698 953.355547 936.152598 0.001048947
22.01351 953.16492 953.973884 935.930617 0.001049136
22.02232 954.25439 954.879053 935.714246 0.001047939
22.03113 955.79016 956.05232 935.504201 0.001046255
22.03993 957.23462 957.45657 935.301465 0.001044676
22.04874 959.28766 959.032579 935.106886 0.00104244
22.05755 960.64685 960.691538 934.921528 0.001040965
22.06636 961.96576 962.308165 934.746401 0.001039538
22.07516 963.78668 963.726445 934.582674 0.001037574
22.08397 965.06848 964.78227 934.431446 0.001036196
22.09278 965.65918 965.339196 934.29402 0.001035562
22.10159 965.53497 965.336587 934.171639 0.001035695
22.11039 964.18756 964.812197 934.065718 0.001037143
22.11920 962.46716 963.890003 933.977677 0.001038996
22.12801 961.06116 962.740883 933.90906 0.001040517
22.13681 959.83881 961.532688 933.86143 0.001041842
22.14562 958.90521 960.401017 933.836485 0.001042856
22.15443 957.86023 959.43693 933.835971 0.001043994
22.16324 956.73413 958.682572 933.861736 0.001045222
22.17204 956.10254 958.142297 933.91572 0.001045913
22.18085 956.3678 957.785146 933.999925 0.001045623
22.18966 956.93091 957.551813 934.11651 0.001045008
22.19846 956.31311 957.362607 934.267644 0.001045683
22.20727 955.95544 957.125924 934.455742 0.001046074
22.21608 956.32758 956.754564 934.683105 0.001045667
22.22489 956.17267 956.187415 934.952398 0.001045836
22.23369 956.08929 955.409058 935.266151 0.001045927
22.24250 956.04999 954.453109 935.62728 0
22.25131 956.17377 0 0 0
22.26011 956.755 0 0 0
22.26892 956.90057 0 0 0
22.27773 956.97906 0 0 0
22.28654 957.56018 0 0 0
22.29534 958.8559 0 0 0
22.30415 959.88123 0 0 0
22.31296 961.51752 0 0 0
22.32176 963.09607 0 0 0
22.33057 964.75793 0 0 0
22.33938 966.69012 0 0 0
22.34819 969.23297 0 0 0
22.35699 971.81134 0 0 0
22.36580 974.22998 0 0 0
22.37461 975.72247 0 0 0
22.38341 976.9115 0 0 0
22.39222 979.01367 0 0 0
22.40103 981.0061 0 0 0
22.40984 982.34717 0 0 0
22.41864 982.7865 0 0 0
22.42745 982.651 0 0 0
22.43626 983.5332 0 0 0
22.44506 984.53888 0 0 0
22.45387 983.08057 0 0 0
22.46268 980.3913 0 0 0
22.47149 978.55371 0 0 0
22.48029 976.1698 0 0 0
22.48910 973.10376 0 0 0
22.49791 970.52283 0 0 0
22.50671 969.06189 0 0 0
22.51552 968.52631 0 0 0
22.52433 967.00269 0 0 0
22.53314 966.39063 0 0 0
22.54194 967.14691 0 0 0
22.55075 967.86615 0 0 0
22.55956 967.86713 0 0 0
22.56837 968.1922 0 0 0
22.57717 968.4317 0 0 0
22.58598 968.01575 0 0 0
22.59479 967.75305 0 0 0
22.60359 967.35114 0 0 0
22.61240 966.59589 0 0 0
22.62121 965.53723 0 0 0
22.63001 963.66962 0 0 0
22.63882 962.31232 0 0 0
22.64763 961.43903 0 0 0
22.65644 961.50745 0 0 0
22.66524 961.15399 0 0 0
22.67405 960.55518 0 0 0
22.68286 959.96912 0 0 0
22.69167 959.56342 0 0 0
22.70047 958.36829 0 0 0
22.70928 957.11298 0 0 0
22.71809 955.92822 0 0 0
22.72689 955.12756 0 0 0
22.73570 954.62842 0 0 0
22.74451 953.79932 0 0 0
22.75332 952.91931 0 0 0
22.76212 952.14667 0 0 0
22.77093 952.0694 0 0 0
22.77974 952.02533 0 0 0
22.78854 952.11768 0 0 0
22.79735 952.56189 0 0 0
22.80616 952.68182 0 0 0
22.81497 953.68182 0 0 0
22.82377 954.8078 0 0 0
22.83258 954.6322 0 0 0
22.84139 955.42395 0 0 0
22.85019 957.08612 0 0 0
22.85900 958.6272 0 0 0
22.86781 959.78174 0 0 0
22.87662 960.67999 0 0 0
22.88542 961.30511 0 0 0
22.89423 961.80151 0 0 0
22.90304 961.27045 0 0 0
22.91184 961.30774 0 0 0
22.92065 960.49426 0 0 0
22.92946 959.33508 0 0 0
22.93827 958.74792 0 0 0
22.94707 958.91064 0 0 0
22.95588 958.99744 0 0 0
22.96469 959.04529 0 0 0
22.97349 958.92194 0 0 0
22.98230 958.87128 0 0 0
22.99111 959.04132 0 0 0
22.99992 959.68878 0 0 0
23.00872 960.37408 0 0 0
23.01753 961.00232 0 0 0
23.02634 960.67664 0 0 0
23.03514 959.75665 0 0 0
23.04395 959.39563 0 0 0
23.05276 958.95227 0 0 0
23.06157 958.75354 0 0 0
23.07037 957.47534 0 0 0
23.07918 956.03442 0 0 0
23.08799 955.34283 0 0 0
23.09679 954.95557 0 0 0
23.10560 954.67505 0 0 0
23.11441 954.86816 0 0 0
23.12322 954.68622 0 0 0
23.13202 954.03333 0 0 0
23.14083 953.73004 0 0 0
23.14964 953.64355 0 0 0
23.15845 953.52289 0 0 0
23.16725 953.22534 0 0 0
23.17606 953.76208 0 0 0
23.18487 954.91547 0 0 0
23.19367 955.03705 0 0 0
23.20248 954.58563 0 0 0
23.21129 954.89825 0 0 0
23.22010 955.99762 0 0 0
23.22890 956.948 0 0 0
23.23771 957.5954 0 0 0
23.24652 957.54871 0 0 0
23.25532 956.29626 0 0 0
23.26413 954.46301 0 0 0
23.27294 952.67993 0 0 0
23.28175 951.26196 0 0 0
23.29055 949.78265 0 0 0
23.29936 948.86768 0 0 0
23.30817 948.38721 0 0 0
23.31697 947.66473 0 0 0
23.32578 946.38434 0 0 0
23.33459 945.79895 0 0 0
23.34340 945.71783 0 0 0
23.35220 945.57043 0 0 0
23.36101 944.47144 0 0 0
23.36982 943.48224 0 0 0
23.37862 942.98535 0 0 0
23.38743 942.34271 0 0 0
23.39624 942.07178 0 0 0
23.40505 942.16638 0 0 0
23.41385 942.06403 0 0 0
23.42266 941.67029 0 0 0
23.43147 942.14191 0 0 0
23.44027 943.16675 0 0 0
23.44908 943.16614 0 0 0
23.45789 942.42853 0 0 0
23.46670 942.41052 0 0 0
23.47550 942.96271 0 0 0
23.48431 943.46979 0 0 0
23.49312 944.05109 0 0 0
23.50192 944.14752 0 0 0
23.51073 944.15765 0 0 0
23.51954 945.12549 0 0 0
23.52835 946.24713 0 0 0
23.53715 946.47681 0 0 0
23.54596 946.99432 0 0 0
23.55477 947.5058 0 0 0
23.56357 947.96967 0 0 0
23.57238 948.10455 0 0 0
23.58119 948.15295 0 0 0
23.59000 948.95105 0 0 0
23.59880 950.15393 0 0 0
23.60761 951.48944 0 0 0
23.61642 952.35437 0 0 0
23.62523 952.66119 0 0 0
23.63403 953.55762 0 0 0
23.64284 955.73132 0 0 0
23.65165 957.27625 0 0 0
23.66045 958.76361 0 0 0
23.66926 961.22003 0 0 0
23.67807 963.54724 0 0 0
23.68687 965.87817 0 0 0
23.69568 967.91113 0 0 0
23.70449 968.77637 0 0 0
23.71330 969.25494 0 0 0
23.72210 968.45123 0 0 0
23.73091 966.68372 0 0 0
23.73972 965.33398 0 0 0
23.74853 963.74414 0 0 0
23.75733 961.5639 0 0 0
23.76614 959.16772 0 0 0
23.77495 957.02545 0 0 0
23.78375 955.30481 0 0 0
23.79256 954.44263 0 0 0
23.80137 953.55823 0 0 0
23.81018 952.18463 0 0 0
23.81898 951.9093 0 0 0
23.82779 951.18054 0 0 0
23.83660 950.69196 0 0 0
23.84540 951.75928 0 0 0
23.85421 952.50977 0 0 0
23.86302 952.59662 0 0 0
23.87183 952.64502 0 0 0
23.88063 953.18689 0 0 0
23.88944 953.22211 0 0 0
23.89825 952.47937 0 0 0
23.90705 951.43323 0 0 0
23.91586 951.0368 0 0 0
23.92467 950.53198 0 0 0
23.93348 950.05017 0 0 0
23.94228 949.065 0 0 0
23.95109 947.04321 0 0 0
23.95990 946.1604 0 0 0
23.96870 945.99719 0 0 0
23.97751 945.24078 0 0 0
23.98632 943.68896 0 0 0
23.99513 942.73126 0 0 0
24.00393 942.3288 0 0 0
24.01274 941.77222 0 0 0
24.02155 940.81409 0 0 0
24.03035 940.61108 0 0 0
24.03916 939.7406 0 0 0
24.04797 938.74231 0 0 0
24.05678 938.46356 0 0 0
24.06558 938.33044 0 0 0
24.07439 937.41168 0 0 0
24.08320 937.48743 0 0 0
24.09201 937.84436 0 0 0
24.10081 937.42889 0 0 0
24.10962 937.20648 0 0 0
24.11842 936.50079 0 0 0
24.12723 936.52026 0 0 0
24.13604 937.89197 0 0 0
24.14485 937.85559 0 0 0
24.15365 936.99182 0 0 0
24.16246 937.32159 0 0 0
24.17127 938.23438 0 0 0
24.18008 938.80518 0 0 0
24.18888 938.84149 0 0 0
24.19769 939.82056 0 0 0
24.20650 940.64215 0 0 0
24.21531 941.01807 0 0 0
24.22411 941.78607 0 0 0
24.23292 942.08936 0 0 0
24.24173 942.16449 0 0 0
24.25053 942.46307 0 0 0
24.25934 942.59772 0 0 0
24.26815 942.37958 0 0 0
24.27696 942.46936 0 0 0
24.28576 942.43567 0 0 0
24.29457 942.90753 0 0 0
24.30338 943.79535 0 0 0
24.31218 945.43701 0 0 0
24.32099 946.48102 0 0 0
24.32980 946.39935 0 0 0
24.33861 947.255 0 0 0
24.34741 949.2395 0 0 0
24.35622 950.78363 0 0 0
24.36503 950.83801 0 0 0
24.37383 950.75763 0 0 0
24.38264 951.5119 0 0 0
24.39145 952.25214 0 0 0
24.40026 951.87177 0 0 0
24.40906 952.39941 0 0 0
24.41787 952.42535 0 0 0
24.42668 952.25317 0 0 0
24.43548 952.58246 0 0 0
24.44429 953.27893 0 0 0
24.45310 953.70087 0 0 0
24.46191 953.54346 0 0 0
24.47071 953.76624 0 0 0
24.47952 953.2168 0 0 0
24.48833 952.16479 0 0 0
24.49713 950.85706 0 0 0
24.50594 949.68329 0 0 0
24.51475 947.09216 0 0 0
24.52356 945.39771 0 0 0
24.53236 945.38043 0 0 0
24.54117 945.63318 0 0 0
24.54998 945.55872 0 0 0
24.55878 945.71741 0 0 0
24.56759 945.04675 0 0 0
24.57640 944.50391 0 0 0
24.58520 944.00336 0 0 0
24.59401 943.73438 0 0 0
24.60282 943.61841 0 0 0
24.61163 942.74274 0 0 0
24.62043 941.56445 0 0 0
24.62924 940.16016 0 0 0
24.63805 939.30841 0 0 0
24.64686 939.52417 0 0 0
24.65566 940.25061 0 0 0
24.66447 940.18628 0 0 0
24.67328 940.25458 0 0 0
24.68209 940.88538 0 0 0
24.69089 941.3172 0 0 0
24.69970 941.85767 0 0 0
24.70851 943.37 0 0 0
24.71731 944.94861 0 0 0
24.72612 945.92242 0 0 0
24.73493 947.13733 0 0 0
24.74373 948.91309 0 0 0
24.75254 952.07733 0 0 0
24.76135 955.73352 0 0 0
24.77016 958.96478 0 0 0
24.77896 963.44305 0 0 0
24.78777 968.73547 0 0 0
24.79658 971.22205 0 0 0
24.80539 971.8385 0 0 0
24.81419 972.10187 0 0 0
24.82300 972.1944 0 0 0
24.83181 970.34265 0 0 0
24.84061 966.07483 0 0 0
24.84942 961.6416 0 0 0
24.85823 957.57898 0 0 0
24.86704 954.08008 0 0 0
24.87584 950.98315 0 0 0
24.88465 948.26154 0 0 0
24.89346 945.99402 0 0 0
24.90226 944.46484 0 0 0
24.91107 942.35791 0 0 0
24.91988 940.05261 0 0 0
24.92869 938.8916 0 0 0
24.93749 938.97125 0 0 0
24.94630 938.43951 0 0 0
24.95511 936.59259 0 0 0
24.96392 936.35919 0 0 0
24.97272 936.91937 0 0 0
24.98153 937.34204 0 0 0
24.99034 938.47107 0 0 0
24.99914 939.22797 0 0 0
25.00795 940.46936 0 0 0
25.01676 942.42377 0 0 0
25.02556 943.82611 0 0 0
25.03437 946.03278 0 0 0
25.04318 949.26373 0 0 0
25.05198 953.29413 0 0 0
25.06079 956.05603 0 0 0
25.06960 958.133 0 0 0
25.07841 958.30841 0 0 0
25.08721 956.47607 0 0 0
25.09602 954.54602 0 0 0
25.10483 951.16431 0 0 0
25.11364 947.14905 0 0 0
25.12244 943.99194 0 0 0
25.13125 941.03149 0 0 0
25.14006 937.96515 0 0 0
25.14887 936.94049 0 0 0
25.15767 935.2132 0 0 0
25.16648 932.82526 0 0 0
25.17528 931.51819 0 0 0
25.18409 930.7948 0 0 0
25.19290 930.88477 0 0 0
25.20171 931.1983 0 0 0
25.21051 930.79718 0 0 0
25.21932 930.83954 0 0 0
25.22813 932.03418 0 0 0
25.23694 933.07263 0 0 0
25.24574 933.96002 0 0 0
25.25455 935.31317 0 0 0
25.26336 936.63806 0 0 0
25.27217 937.45746 0 0 0
25.28097 938.36914 0 0 0
25.28978 940.00439 0 0 0
25.29859 941.49023 0 0 0
25.30739 941.76428 0 0 0
25.31620 942.1698 0 0 0
25.32501 943.52136 0 0 0
25.33382 942.97382 0 0 0
25.34262 941.8913 0 0 0
25.35143 940.90826 0 0 0
25.36024 939.65741 0 0 0
25.36904 939.28741 0 0 0
25.37785 939.90295 0 0 0
25.38666 939.98615 0 0 0
25.39547 939.03729 0 0 0
25.40427 937.0708 0 0 0
25.41308 934.72113 0 0 0
25.42189 933.16895 0 0 0
25.43070 931.53943 0 0 0
25.43950 930.47186 0 0 0
25.44831 929.67389 0 0 0
25.45712 928.56378 0 0 0
25.46592 927.48566 0 0 0
25.47473 926.84589 0 0 0
25.48354 926.23309 0 0 0
25.49234 925.40094 0 0 0
25.50115 925.04724 0 0 0
25.50996 926.12079 0 0 0
25.51876 927.16693 0 0 0
25.52757 927.59607 0 0 0
25.53638 927.7276 0 0 0
25.54519 926.54926 0 0 0
25.55399 926.53143 0 0 0
25.56280 926.86096 0 0 0
25.57161 927.54962 0 0 0
25.58042 928.1532 0 0 0
25.58922 928.00952 0 0 0
25.59803 927.33765 0 0 0
25.60684 926.07007 0 0 0
25.61564 926.55579 0 0 0
25.62445 927.33636 0 0 0
25.63326 926.66638 0 0 0
25.64206 925.96869 0 0 0
25.65087 925.95642 0 0 0
25.65968 925.91589 0 0 0
25.66849 925.37268 0 0 0
25.67729 924.45941 0 0 0
25.68610 923.82245 0 0 0
25.69491 923.06683 0 0 0
25.70372 922.82794 0 0 0
25.71252 922.14966 0 0 0
25.72133 921.41962 0 0 0
25.73014 920.9115 0 0 0
25.73895 920.53247 0 0 0
25.74775 920.91351 0 0 0
25.75656 920.94885 0 0 0
25.76537 920.76727 0 0 0
25.77417 920.31903 0 0 0
25.78298 919.53198 0 0 0
25.79179 918.68652 0 0 0
25.80059 918.25604 0 0 0
25.80940 917.02026 0 0 0
25.81821 916.16278 0 0 0
25.82702 916.776 0 0 0
25.83582 916.48895 0 0 0
25.84463 914.9776 0 0 0
25.85344 913.88226 0 0 0
25.86225 913.612 0 0 0
25.87105 913.48999 0 0 0
25.87986 913.30908 0 0 0
25.88867 913.47845 0 0 0
25.89747 913.57764 0 0 0
25.90628 912.94495 0 0 0
25.91509 911.60107 0 0 0
25.92390 911.1051 0 0 0
25.93270 911.0733 0 0 0
25.94151 911.13757 0 0 0
25.95032 911.56458 0 0 0
25.95912 911.41302 0 0 0
25.96793 911.89313 0 0 0
25.97674 913.08026 0 0 0
25.98555 913.49963 0 0 0
25.99435 913.55402 0 0 0
26.00316 913.51007 0 0 0
26.01197 913.06854 0 0 0
26.02078 913.35181 0 0 0
26.02958 913.5863 0 0 0
26.03839 912.88062 0 0 0
26.04719 912.42493 0 0 0
26.05600 912.98651 0 0 0
26.06481 914.25067 0 0 0
26.07362 913.72058 0 0 0
26.08242 912.85413 0 0 0
26.09123 913.01477 0 0 0
26.10004 912.97394 0 0 0
26.10884 913.0451 0 0 0
26.11765 912.80212 0 0 0
26.12646 912.08722 0 0 0
26.13527 911.57941 0 0 0
26.14407 911.64136 0 0 0
26.15288 912.0672 0 0 0
26.16169 912.8064 0 0 0
26.17050 912.65588 0 0 0
26.17930 912.8634 0 0 0
26.18811 913.88904 0 0 0
26.19692 914.37903 0 0 0
26.20573 917.09167 0 0 0
26.21453 918.25159 0 0 0
26.22334 919.37531 0 0 0
26.23214 919.50281 0 0 0
26.24095 920.04694 0 0 0
26.24976 921.08752 0 0 0
26.25857 921.58081 0 0 0
26.26737 922.74884 0 0 0
26.27618 921.4563 0 0 0
26.28499 920.45227 0 0 0
26.29380 920.43414 0 0 0
26.30260 920.35681 0 0 0
26.31141 919.29358 0 0 0
26.32022 919.00433 0 0 0
26.32903 919.07849 0 0 0
26.33783 918.70319 0 0 0
26.34664 918.65808 0 0 0
26.35545 918.7594 0 0 0
26.36425 917.51044 0 0 0
26.37306 915.96698 0 0 0
26.38187 915.06097 0 0 0
26.39068 914.0257 0 0 0
26.39948 913.17657 0 0 0
26.40829 912.97522 0 0 0
26.41710 911.74768 0 0 0
26.42590 910.49078 0 0 0
26.43471 909.61542 0 0 0
26.44352 908.99023 0 0 0
26.45233 909.41779 0 0 0
26.46113 910.37555 0 0 0
26.46994 911.12421 0 0 0
26.47875 912.16644 0 0 0
26.48756 912.89496 0 0 0
26.49636 912.41492 0 0 0
26.50517 911.39758 0 0 0
26.51397 910.75537 0 0 0
26.52278 910.96838 0 0 0
26.53159 911.10724 0 0 0
26.54040 911.77551 0 0 0
26.54920 912.80811 0 0 0
26.55801 913.23151 0 0 0
26.56682 912.89667 0 0 0
26.57563 912.92627 0 0 0
26.58443 912.75269 0 0 0
26.59324 913.2229 0 0 0
26.60205 914.16174 0 0 0
26.61085 913.8963 0 0 0
26.61966 913.76355 0 0 0
26.62847 913.72974 0 0 0
26.63728 915.17529 0 0 0
26.64608 916.16901 0 0 0
26.65489 915.0304 0 0 0
26.66370 914.54248 0 0 0
26.67250 914.84467 0 0 0
26.68131 914.57104 0 0 0
26.69012 914.86438 0 0 0
26.69892 915.59186 0 0 0
26.70773 916.67352 0 0 0
26.71654 917.53595 0 0 0
26.72535 917.61627 0 0 0
26.73415 917.82092 0 0 0
26.74296 918.24219 0 0 0
26.75177 918.8916 0 0 0
26.76058 918.53546 0 0 0
26.76938 917.37445 0 0 0
26.77819 917.12714 0 0 0
26.78700 915.93762 0 0 0
26.79581 913.81775 0 0 0
26.80461 912.8252 0 0 0
26.81342 911.55103 0 0 0
26.82223 910.42645 0 0 0
26.83103 910.17969 0 0 0
26.83984 909.44989 0 0 0
26.84865 908.91449 0 0 0
26.85745 908.63043 0 0 0
26.86626 908.06726 0 0 0
26.87507 908.14752 0 0 0
26.88388 907.2298 0 0 0
26.89268 906.33698 0 0 0
26.90149 906.52802 0 0 0
26.91030 907.0896 0 0 0
26.91911 908.10565 0 0 0
26.92791 908.11487 0 0 0
26.93672 907.80048 0 0 0
26.94553 907.9342 0 0 0
26.95433 907.89417 0 0 0
26.96314 908.28247 0 0 0
26.97195 909.12518 0 0 0
26.98075 909.5658 0 0 0
26.98956 910.97876 0 0 0
26.99837 911.3009 0 0 0
27.00718 910.05481 0 0 0
27.01598 910.66016 0 0 0
27.02479 912.45703 0 0 0
27.03360 912.97552 0 0 0
27.04241 913.4837 0 0 0
27.05121 915.1908 0 0 0
27.06002 915.96619 0 0 0
27.06883 916.47815 0 0 0
27.07764 917.68622 0 0 0
27.08644 917.79034 0 0 0
27.09525 917.21356 0 0 0
27.10405 917.13458 0 0 0
27.11286 916.66071 0 0 0
27.12167 916.37128 0 0 0
27.13048 915.42059 0 0 0
27.13928 913.98169 0 0 0
27.14809 912.6001 0 0 0
27.15690 911.98694 0 0 0
27.16570 911.33307 0 0 0
27.17451 910.47766 0 0 0
27.18332 910.21051 0 0 0
27.19213 910.05426 0 0 0
27.20093 910.47687 0 0 0
27.20974 911.00586 0 0 0
27.21855 911.40515 0 0 0
27.22736 911.32135 0 0 0
27.23616 910.74969 0 0 0
27.24497 911.65338 0 0 0
27.25378 913.01508 0 0 0
27.26259 912.7522 0 0 0
27.27139 913.09143 0 0 0
27.28020 914.27069 0 0 0
27.28900 915.40332 0 0 0
27.29781 915.48511 0 0 0
27.30662 915.64771 0 0 0
27.31543 915.52081 0 0 0
27.32423 914.71021 0 0 0
27.33304 914.27954 0 0 0
27.34185 913.71289 0 0 0
27.35066 914.66461 0 0 0
27.35946 915.41925 0 0 0
27.36827 914.47113 0 0 0
27.37708 913.43738 0 0 0
27.38588 912.63837 0 0 0
27.39469 911.70551 0 0 0
27.40350 911.12238 0 0 0
27.41231 910.90613 0 0 0
27.42111 910.72864 0 0 0
27.42992 910.22852 0 0 0
27.43873 909.35419 0 0 0
27.44753 909.28223 0 0 0
27.45634 908.1842 0 0 0
27.46515 907.3623 0 0 0
27.47396 907.85425 0 0 0
27.48276 907.68945 0 0 0
27.49157 907.74475 0 0 0
27.50038 907.40167 0 0 0
27.50919 907.04834 0 0 0
27.51799 907.11041 0 0 0
27.52680 906.46558 0 0 0
27.53561 904.9057 0 0 0
27.54442 904.22168 0 0 0
27.55322 904.85181 0 0 0
27.56203 905.26178 0 0 0
27.57083 904.40466 0 0 0
27.57964 903.20313 0 0 0
27.58845 902.85681 0 0 0
27.59726 902.51093 0 0 0
27.60606 902.81525 0 0 0
27.61487 902.69476 0 0 0
27.62368 902.60242 0 0 0
27.63249 902.97876 0 0 0
27.64129 902.6286 0 0 0
27.65010 901.71802 0 0 0
27.65891 901.16205 0 0 0
27.66771 902.17334 0 0 0
27.67652 902.7215 0 0 0
27.68533 901.75842 0 0 0
27.69414 901.71161 0 0 0
27.70294 902.49298 0 0 0
27.71175 902.83636 0 0 0
27.72056 902.48059 0 0 0
27.72936 903.39996 0 0 0
27.73817 904.7243 0 0 0
27.74698 903.94427 0 0 0
27.75578 903.72498 0 0 0
27.76459 904.68317 0 0 0
27.77340 904.93445 0 0 0
27.78221 905.83453 0 0 0
27.79101 907.0871 0 0 0
27.79982 907.39136 0 0 0
27.80863 907.65106 0 0 0
27.81744 908.89142 0 0 0
27.82624 909.22241 0 0 0
27.83505 909.18701 0 0 0
27.84386 909.21881 0 0 0
27.85266 909.60443 0 0 0
27.86147 912.40594 0 0 0
27.87028 913.66016 0 0 0
27.87909 912.9939 0 0 0
27.88789 913.42615 0 0 0
27.89670 913.42975 0 0 0
27.90551 913.65601 0 0 0
27.91431 913.51746 0 0 0
27.92312 912.16626 0 0 0
27.93193 911.72552 0 0 0
27.94074 912.2016 0 0 0
27.94954 912.29877 0 0 0
27.95835 911.11597 0 0 0
27.96716 909.64337 0 0 0
27.97596 908.7868 0 0 0
27.98477 908.56671 0 0 0
27.99358 908.23938 0 0 0
28.00239 908.52484 0 0 0
28.01119 909.34875 0 0 0
28.02000 909.26111 0 0 0
28.02881 908.53485 0 0 0
28.03761 908.68274 0 0 0
28.04642 908.16968 0 0 0
28.05523 906.77045 0 0 0
28.06404 907.01752 0 0 0
28.07284 907.25018 0 0 0
28.08165 907.39465 0 0 0
28.09046 907.63422 0 0 0
28.09927 907.04852 0 0 0
28.10807 906.72809 0 0 0
28.11688 906.25702 0 0 0
28.12569 906.27673 0 0 0
28.13450 906.05688 0 0 0
28.14330 905.95416 0 0 0
28.15211 906.55713 0 0 0
28.16091 907.229 0 0 0
28.16972 907.59491 0 0 0
28.17853 906.61725 0 0 0
28.18734 907.15558 0 0 0
28.19614 908.74768 0 0 0
28.20495 908.57794 0 0 0
28.21376 908.84338 0 0 0
28.22256 909.49493 0 0 0
28.23137 910.20941 0 0 0
28.24018 910.70258 0 0 0
28.24899 911.22845 0 0 0
28.25779 912.30878 0 0 0
28.26660 913.06671 0 0 0
28.27541 914.00952 0 0 0
28.28422 915.05548 0 0 0
28.29302 915.29681 0 0 0
28.30183 916.763 0 0 0
28.31064 919.987 0 0 0
28.31945 922.09985 0 0 0
28.32825 921.88397 0 0 0
28.33706 922.2793 0 0 0
28.34586 922.07556 0 0 0
28.35467 905.0899 0 0 0
28.36348 897.64392 0 0 0
28.37229 907.79462 0 0 0
28.38109 911.95575 0 0 0
28.38990 913.51978 0 0 0
28.39871 912.573 0 0 0
28.40752 911.96008 0 0 0
28.41632 912.49164 0 0 0
28.42513 912.3725 0 0 0
28.43394 911.35828 0 0 0
28.44274 910.97504 0 0 0
28.45155 910.27759 0 0 0
28.46036 908.83234 0 0 0
28.46917 909.01385 0 0 0
28.47797 909.06635 0 0 0
28.48678 908.77454 0 0 0
28.49559 909.53882 0 0 0
28.50439 910.17682 0 0 0
28.51320 910.57959 0 0 0
28.52201 911.07617 0 0 0
28.53082 911.28162 0 0 0
28.53962 912.47107 0 0 0
28.54843 912.93585 0 0 0
28.55724 912.26477 0 0 0
28.56605 910.52582 0 0 0
28.57485 908.09125 0 0 0
28.58366 907.59662 0 0 0
28.59247 907.41644 0 0 0
28.60127 907.38684 0 0 0
28.61008 906.48212 0 0 0
28.61889 905.06964 0 0 0
28.62769 904.30524 0 0 0
28.63650 904.34497 0 0 0
28.64531 905.57465 0 0 0
28.65412 904.29541 0 0 0
28.66292 901.68506 0 0 0
28.67173 900.76843 0 0 0
28.68054 900.90582 0 0 0
28.68935 900.84601 0 0 0
28.69815 901.33899 0 0 0
28.70696 901.71802 0 0 0
28.71577 900.71704 0 0 0
28.72458 899.49756 0 0 0
28.73338 899.14923 0 0 0
28.74219 899.42639 0 0 0
28.75100 900.20258 0 0 0
28.75980 901.58282 0 0 0
28.76861 902.46448 0 0 0
28.77742 902.2276 0 0 0
28.78622 902.33441 0 0 0
28.79503 903.31714 0 0 0
28.80384 902.28546 0 0 0
28.81264 900.58746 0 0 0
28.82145 902.11072 0 0 0
28.83026 903.35211 0 0 0
28.83907 902.92023 0 0 0
28.84787 902.64014 0 0 0
28.85668 902.46503 0 0 0
28.86549 902.62994 0 0 0
28.87430 902.70697 0 0 0
28.88310 902.42542 0 0 0
28.89191 901.96771 0 0 0
28.90072 901.76398 0 0 0
28.90952 901.67706 0 0 0
28.91833 902.41174 0 0 0
28.92714 902.90338 0 0 0
28.93595 902.40039 0 0 0
28.94475 900.95465 0 0 0
28.95356 900.30035 0 0 0
28.96237 900.82495 0 0 0
28.97117 900.00488 0 0 0
28.97998 899.3783 0 0 0
28.98879 899.01288 0 0 0
28.99760 897.94928 0 0 0
29.00640 898.23077 0 0 0
29.01521 897.88342 0 0 0
29.02402 897.07147 0 0 0
29.03282 897.29706 0 0 0
29.04163 897.98584 0 0 0
29.05044 897.66919 0 0 0
29.05925 898.01428 0 0 0
29.06805 898.35889 0 0 0
29.07686 897.95593 0 0 0
29.08567 899.26465 0 0 0
29.09447 899.73596 0 0 0
29.10328 898.15167 0 0 0
29.11209 896.45416 0 0 0
29.12090 896.52722 0 0 0
29.12970 896.26294 0 0 0
29.13851 895.66632 0 0 0
29.14732 896.11981 0 0 0
29.15613 895.71771 0 0 0
29.16493 895.51855 0 0 0
29.17374 895.56012 0 0 0
29.18255 895.24786 0 0 0
29.19136 896.08307 0 0 0
29.20016 894.81873 0 0 0
29.20897 893.99878 0 0 0
29.21777 895.57495 0 0 0
29.22658 895.97791 0 0 0
29.23539 895.71545 0 0 0
29.24420 895.81537 0 0 0
29.25300 896.16333 0 0 0
29.26181 895.96069 0 0 0
29.27062 897.48413 0 0 0
29.27942 897.44153 0 0 0
29.28823 895.13898 0 0 0
29.29704 894.52118 0 0 0
29.30585 894.42078 0 0 0
29.31465 893.43848 0 0 0
29.32346 893.72217 0 0 0
29.33227 895.90503 0 0 0
29.34108 896.78937 0 0 0
29.34988 896.28412 0 0 0
29.35869 895.75952 0 0 0
29.36750 894.81329 0 0 0
29.37630 894.92676 0 0 0
29.38511 895.72375 0 0 0
29.39392 896.36615 0 0 0
29.40273 897.8512 0 0 0
29.41153 896.68842 0 0 0
29.42034 894.46082 0 0 0
29.42915 895.23505 0 0 0
29.43795 896.55597 0 0 0
29.44676 894.11377 0 0 0
29.45557 892.62457 0 0 0
29.46438 893.57184 0 0 0
29.47318 894.89825 0 0 0
29.48199 895.57928 0 0 0
29.49080 895.69196 0 0 0
29.49960 895.60217 0 0 0
29.50841 894.90735 0 0 0
29.51722 894.49506 0 0 0
29.52603 893.53918 0 0 0
29.53483 893.96924 0 0 0
29.54364 895.78192 0 0 0
29.55245 896.6261 0 0 0
29.56125 896.52228 0 0 0
29.57006 896.43561 0 0 0
29.57887 895.86243 0 0 0
29.58768 895.9892 0 0 0
29.59648 897.73517 0 0 0
29.60529 899.49188 0 0 0
29.61410 901.45837 0 0 0
29.62291 902.20245 0 0 0
29.63171 902.20056 0 0 0
29.64052 902.48242 0 0 0
29.64933 903.24451 0 0 0
29.65813 904.29102 0 0 0
29.66694 903.39893 0 0 0
29.67575 902.1355 0 0 0
29.68455 901.61749 0 0 0
29.69336 899.90216 0 0 0
29.70217 898.46021 0 0 0
29.71098 897.8681 0 0 0
29.71978 896.91058 0 0 0
29.72859 894.59857 0 0 0
29.73740 893.17578 0 0 0
29.74621 892.72626 0 0 0
29.75501 892.00403 0 0 0
29.76382 893.5191 0 0 0
29.77263 894.65698 0 0 0
29.78143 893.71851 0 0 0
29.79024 892.82373 0 0 0
29.79905 892.21106 0 0 0
29.80786 891.39526 0 0 0
29.81666 891.95593 0 0 0
29.82547 891.05127 0 0 0
29.83428 890.23956 0 0 0
29.84308 890.89252 0 0 0
29.85189 891.4223 0 0 0
29.86070 891.24799 0 0 0
29.86951 890.93835 0 0 0
29.87831 892.48846 0 0 0
29.88712 892.71063 0 0 0
29.89593 892.05615 0 0 0
29.90473 893.26733 0 0 0
29.91354 894.95593 0 0 0
29.92235 894.50214 0 0 0
29.93116 893.99713 0 0 0
29.93996 894.65631 0 0 0
29.94877 893.91943 0 0 0
29.95758 894.63647 0 0 0
29.96638 894.75018 0 0 0
29.97519 894.36151 0 0 0
29.98400 895.95447 0 0 0
29.99281 896.12451 0 0 0
30.00161 897.7334 0 0 0
30.01042 897.638 0 0 0
30.01923 896.38379 0 0 0
30.02803 898.16632 0 0 0
30.03684 899.12085 0 0 0
30.04565 897.86023 0 0 0
30.05446 896.6571 0 0 0
30.06326 897.26544 0 0 0
30.07207 899.75037 0 0 0
30.08088 901.42529 0 0 0
30.08968 903.72278 0 0 0
30.09849 904.24219 0 0 0
30.10730 903.52118 0 0 0
30.11611 903.77252 0 0 0
30.12491 901.53796 0 0 0
30.13372 900.48047 0 0 0
30.14253 902.81812 0 0 0
30.15133 905.90002 0 0 0
30.16014 906.05701 0 0 0
30.16895 904.8045 0 0 0
30.17776 905.16949 0 0 0
30.18656 903.22791 0 0 0
30.19537 903.54309 0 0 0
30.20418 907.36047 0 0 0
30.21299 910.70557 0 0 0
30.22179 911.02478 0 0 0
30.23060 909.73193 0 0 0
30.23941 909.97723 0 0 0
30.24821 911.08026 0 0 0
30.25702 912.12262 0 0 0
30.26583 912.95471 0 0 0
30.27463 913.95715 0 0 0
30.28344 913.09998 0 0 0
30.29225 911.53046 0 0 0
30.30106 912.28107 0 0 0
30.30986 913.41418 0 0 0
30.31867 910.39813 0 0 0
30.32748 907.43213 0 0 0
30.33629 906.54034 0 0 0
30.34509 905.95728 0 0 0
30.35390 906.30377 0 0 0
30.36271 904.8739 0 0 0
30.37151 903.47461 0 0 0
30.38032 904.00507 0 0 0
30.38913 904.71454 0 0 0
30.39794 903.50641 0 0 0
30.40674 903.18011 0 0 0
30.41555 904.07324 0 0 0
30.42436 904.2865 0 0 0
30.43316 902.59021 0 0 0
30.44197 901.76678 0 0 0
30.45078 903.37115 0 0 0
30.45959 904.03314 0 0 0
30.46839 902.71527 0 0 0
30.47720 901.55353 0 0 0
30.48601 899.7973 0 0 0
30.49481 899.07501 0 0 0
30.50362 897.82111 0 0 0
30.51243 897.37292 0 0 0
30.52124 895.47345 0 0 0
30.53004 894.98041 0 0 0
30.53885 895.62329 0 0 0
30.54766 895.24408 0 0 0
30.55646 894.38464 0 0 0
30.56527 893.86383 0 0 0
30.57408 892.70874 0 0 0
30.58289 892.67328 0 0 0
30.59169 895.61877 0 0 0
30.60050 895.59015 0 0 0
30.60931 894.54779 0 0 0
30.61811 893.70239 0 0 0
30.62692 894.64197 0 0 0
30.63573 896.37482 0 0 0
30.64454 895.18634 0 0 0
30.65334 890.55908 0 0 0
30.66215 888.74689 0 0 0
30.67096 889.92242 0 0 0
30.67977 891.08209 0 0 0
30.68857 891.5498 0 0 0
30.69738 890.26831 0 0 0
30.70619 890.4483 0 0 0
30.71499 889.55133 0 0 0
30.72380 888.4455 0 0 0
30.73261 889.06781 0 0 0
30.74141 888.48407 0 0 0
30.75022 886.1687 0 0 0
30.75903 884.20349 0 0 0
30.76784 884.32678 0 0 0
30.77664 886.54401 0 0 0
30.78545 886.62317 0 0 0
30.79426 885.83197 0 0 0
30.80307 886.24133 0 0 0
30.81187 885.04767 0 0 0
30.82068 882.74805 0 0 0
30.82949 881.28046 0 0 0
30.83829 883.2475 0 0 0
30.84710 886.27521 0 0 0
30.85591 886.63702 0 0 0
30.86472 883.66821 0 0 0
30.87352 883.48535 0 0 0
30.88233 884.37476 0 0 0
30.89114 882.65881 0 0 0
30.89994 881.90515 0 0 0
30.90875 882.6687 0 0 0
30.91756 881.44055 0 0 0
30.92637 881.75409 0 0 0
30.93517 880.78302 0 0 0
30.94398 878.83905 0 0 0
30.95279 878.54584 0 0 0
30.96159 878.05933 0 0 0
30.97040 879.07208 0 0 0
30.97921 879.82117 0 0 0
30.98802 878.03815 0 0 0
30.99682 878.52948 0 0 0
31.00563 880.4303 0 0 0
31.01444 882.19403 0 0 0
31.02324 883.30487 0 0 0
31.03205 882.00928 0 0 0
31.04086 880.9953 0 0 0
31.04967 883.32758 0 0 0
31.05847 883.29272 0 0 0
31.06728 881.78693 0 0 0
31.07609 881.29211 0 0 0
31.08489 880.98364 0 0 0
31.09370 882.01642 0 0 0
31.10251 882.37927 0 0 0
31.11132 880.61298 0 0 0
31.12012 877.64142 0 0 0
31.12893 876.77063 0 0 0
31.13774 875.04327 0 0 0
31.14654 877.06866 0 0 0
31.15535 879.24292 0 0 0
31.16416 881.39105 0 0 0
31.17297 881.6817 0 0 0
31.18177 878.82251 0 0 0
31.19058 877.1944 0 0 0
31.19939 875.59711 0 0 0
31.20819 875.54584 0 0 0
31.21700 877.98529 0 0 0
31.22581 879.36652 0 0 0
31.23462 876.27069 0 0 0
31.24342 872.07928 0 0 0
31.25223 872.98206 0 0 0
31.26104 875.88062 0 0 0
31.26985 875.2851 0 0 0
31.27865 875.74921 0 0 0
31.28746 877.06726 0 0 0
31.29627 875.74976 0 0 0
31.30507 874.15222 0 0 0
31.31388 876.59949 0 0 0
31.32269 879.55823 0 0 0
31.33150 881.80994 0 0 0
31.34030 882.56335 0 0 0
31.34911 879.24139 0 0 0
31.35792 878.07861 0 0 0
31.36672 882.00946 0 0 0
31.37553 882.81091 0 0 0
31.38434 880.74023 0 0 0
31.39315 880.74164 0 0 0
31.40195 881.50446 0 0 0
31.41076 881.29419 0 0 0
31.41957 880.57959 0 0 0
31.42837 879.8291 0 0 0
31.43718 877.64648 0 0 0
31.44599 876.29932 0 0 0
31.45480 875.63959 0 0 0
31.46360 873.27197 0 0 0
31.47241 874.43701 0 0 0
31.48122 875.55243 0 0 0
31.49002 876.19623 0 0 0
31.49883 872.29608 0 0 0
31.50764 866.86713 0 0 0
31.51645 865.09998 0 0 0
31.52525 866.43744 0 0 0
31.53406 866.01447 0 0 0
31.54287 868.21869 0 0 0
31.55167 867.91803 0 0 0
31.56048 866.12164 0 0 0
31.56929 867.06757 0 0 0
31.57810 866.44159 0 0 0
31.58690 864.58612 0 0 0
31.59571 862.56195 0 0 0
31.60452 862.03503 0 0 0
31.61332 864.27484 0 0 0
31.62213 867.17993 0 0 0
31.63094 868.49377 0 0 0
31.63975 866.79059 0 0 0
31.64855 862.01111 0 0 0
31.65736 860.94055 0 0 0
31.66617 864.97961 0 0 0
31.67497 866.67517 0 0 0
31.68378 866.05426 0 0 0
31.69259 864.6156 0 0 0
31.70140 864.61316 0 0 0
31.71020 865.02423 0 0 0
31.71901 863.21448 0 0 0
31.72782 861.07007 0 0 0
31.73663 861.14502 0 0 0
31.74543 862.22461 0 0 0
31.75424 861.98743 0 0 0
31.76305 860.31415 0 0 0
31.77185 863.07513 0 0 0
31.78066 860.1225 0 0 0
31.78947 858.88373 0 0 0
31.79828 861.30585 0 0 0
31.80708 863.85858 0 0 0
31.81589 865.66052 0 0 0
31.82470 866.66187 0 0 0
31.83350 863.10565 0 0 0
31.84231 859.98358 0 0 0
31.85112 861.30469 0 0 0
31.85993 863.49084 0 0 0
31.86873 866.505 0 0 0
31.87754 862.5293 0 0 0
31.88635 861.3573 0 0 0
31.89515 861.25287 0 0 0
31.90396 860.65045 0 0 0
31.91277 865.48059 0 0 0
31.92158 865.7951 0 0 0
31.93038 865.16046 0 0 0
31.93919 863.81378 0 0 0
31.94800 857.4472 0 0 0
31.95680 854.3017 0 0 0
31.96561 857.59564 0 0 0
31.97442 862.60388 0 0 0
31.98323 864.74792 0 0 0
31.99203 866.07904 0 0 0
32.00084 864.42639 0 0 0
32.00965 859.78271 0 0 0
32.01846 862.63458 0 0 0
32.02726 862.75586 0 0 0
32.03607 856.93585 0 0 0
32.04488 862.09656 0 0 0
32.05368 862.19299 0 0 0
32.06249 857.3916 0 0 0
32.07130 861.31653 0 0 0
32.08011 860.05341 0 0 0
32.08891 854.81421 0 0 0
32.09772 848.14636 0 0 0
32.10652 849.36951 0 0 0
32.11533 854.6535 0 0 0
32.12414 850.01758 0 0 0
32.13295 852.19196 0 0 0
32.14175 852.84778 0 0 0
32.15056 852.36658 0 0 0
32.15937 851.52252 0 0 0
32.16817 850.48193 0 0 0
32.17698 851.25598 0 0 0
32.18579 846.65155 0 0 0
32.19460 845.62762 0 0 0
32.20340 848.62225 0 0 0
32.21221 849.37653 0 0 0
32.22102 845.80487 0 0 0
32.22983 842.76898 0 0 0
32.23863 843.87665 0 0 0
32.24744 849.21356 0 0 0
32.25625 850.26971 0 0 0
32.26506 846.58466 0 0 0
32.27386 848.10333 0 0 0
32.28267 850.43457 0 0 0
32.29148 843.47998 0 0 0
32.30029 837.1897 0 0 0
32.30909 846.00525 0 0 0
32.31790 849.70184 0 0 0
32.32671 845.62756 0 0 0
32.33551 839.16278 0 0 0
32.34432 837.07129 0 0 0
32.35313 850.79382 0 0 0
32.36194 855.89886 0 0 0
32.37074 850.1333 0 0 0
32.37955 849.4787 0 0 0
32.38835 859.43457 0 0 0
32.39716 862.96375 0 0 0
32.40597 851.66272 0 0 0
32.41478 847.59686 0 0 0
32.42358 850.57135 0 0 0
32.43239 850.4046 0 0 0
32.44120 844.7016 0 0 0
32.45000 844.3385 0 0 0
32.45881 850.29736 0 0 0
32.46762 845.94403 0 0 0
32.47643 837.04895 0 0 0
32.48523 837.10962 0 0 0
32.49404 833.06842 0 0 0
32.50285 829.12067 0 0 0
32.51165 822.19318 0 0 0
32.52046 810.67651 0 0 0
32.52927 807.16864 0 0 0
32.53808 814.88196 0 0 0
32.54688 820.44513 0 0 0
32.55569 821.69867 0 0 0
32.56450 821.53528 0 0 0
32.57331 818.28113 0 0 0
32.58211 820.69995 0 0 0
32.59092 818.8584 0 0 0
32.59973 811.65381 0 0 0
32.60854 813.39496 0 0 0
32.61734 809.68207 0 0 0
32.62615 804.60443 0 0 0
32.63496 803.01794 0 0 0
32.64376 801.85345 0 0 0
32.65257 795.65448 0 0 0
32.66138 788.21759 0 0 0
32.67018 793.58038 0 0 0
32.67899 787.49396 0 0 0
32.68780 770.09106 0 0 0
32.69661 762.41602 0 0 0
32.70541 772.78619 0 0 0
32.71422 771.45941 0 0 0
32.72303 763.08234 0 0 0
32.73183 753.8526 0 0 0
32.74064 747.18903 0 0 0
32.74945 745.60272 0 0 0
32.75825 732.04724 0 0 0
32.76706 705.37775 0 0 0
32.77587 690.12598 0 0 0
32.78468 681.52393 0 0 0
32.79348 681.41187 0 0 0
32.80229 668.14679 0 0 0
32.81110 634.53979 0 0 0
32.81991 588.40826 0 0 0
32.82871 546.63855 0 0 0
32.83752 482.08905 0 0 0
32.84633 402.7551 0 0 0
32.85514 277.92941 0 0 0
32.86394 182.36839 0 0 0
32.87275 176.24689 0 0 0
32.88156 164.52307 0 0 0
32.89037 172.42279 0 0 0
32.89917 179.3002 0 0 0
32.90798 180.84274 0 0 0
32.91679 188.63828 0 0 0
32.92559 197.14328 0 0 0
32.93440 186.67793 0 0 0
32.94321 167.01004 0 0 0
32.95202 167.21692 0 0 0
32.96082 172.97975 0 0 0
32.96963 179.94623 0 0 0
32.97844 178.67249 0 0 0
32.98724 170.72955 0 0 0
32.99605 169.22888 0 0 0
33.00486 178.08517 0 0 0
33.01366 180.56085 0 0 0
33.02247 173.68893 0 0 0
33.03128 173.42024 0 0 0
33.04008 181.12689 0 0 0
33.04889 185.3813 0 0 0
33.05770 185.67993 0 0 0
33.06650 183.74652 0 0 0
33.07531 181.88879 0 0 0
33.08412 183.83791 0 0 0
33.09293 196.55869 0 0 0
33.10173 201.16441 0 0 0
33.11054 192.44562 0 0 0
33.11935 180.61888 0 0 0
33.12816 177.3793 0 0 0
33.13696 172.41141 0 0 0
33.14577 168.48053 0 0 0
33.15458 166.66379 0 0 0
33.16339 167.38307 0 0 0
33.17219 179.48793 0 0 0
33.18100 188.10971 0 0 0
33.18981 181.76407 0 0 0
33.19862 180.04311 0 0 0
33.20742 185.18549 0 0 0
33.21623 190.03964 0 0 0
33.22504 183.17102 0 0 0
33.23385 181.85419 0 0 0
33.24265 179.16019 0 0 0
33.25146 180.21907 0 0 0
33.26026 184.16414 0 0 0
33.26907 186.10368 0 0 0
33.27788 185.56548 0 0 0
33.28669 188.47328 0 0 0
33.29549 190.76395 0 0 0
33.30430 190.83035 0 0 0
33.31311 189.50247 0 0 0
33.32191 192.20555 0 0 0
33.33072 196.36588 0 0 0
33.33953 180.61272 0 0 0
33.34833 165.8566 0 0 0
33.35714 176.60469 0 0 0
33.36595 198.78398 0 0 0
33.37476 206.1384 0 0 0
33.38356 202.12961 0 0 0
33.39237 202.53966 0 0 0
33.40118 195.90746 0 0 0
33.40999 178.87784 0 0 0
33.41879 174.48897 0 0 0
33.42760 179.15633 0 0 0
33.43641 189.0379 0 0 0
33.44522 191.66779 0 0 0
33.45402 185.57704 0 0 0
33.46283 177.37581 0 0 0
33.47164 171.90166 0 0 0
33.48045 180.10725 0 0 0
33.48925 189.57292 0 0 0
33.49806 188.61778 0 0 0
33.50687 193.14191 0 0 0
33.51568 210.2869 0 0 0
33.52448 222.09882 0 0 0
33.53329 211.7265 0 0 0
33.54210 190.68263 0 0 0
33.55090 183.13901 0 0 0
33.55971 188.31702 0 0 0
33.56852 198.78951 0 0 0
33.57732 201.19348 0 0 0
33.58613 191.80487 0 0 0
33.59494 188.61021 0 0 0
33.60375 195.11159 0 0 0
33.61255 198.19452 0 0 0
33.62136 191.45078 0 0 0
33.63016 188.05913 0 0 0
33.63897 191.08345 0 0 0
33.64778 191.50548 0 0 0
33.65659 194.31458 0 0 0
33.66539 195.20941 0 0 0
33.67420 186.41098 0 0 0
33.68301 178.64337 0 0 0
33.69181 173.92268 0 0 0
33.70062 171.5509 0 0 0
33.70943 172.84819 0 0 0
33.71824 181.72954 0 0 0
33.72704 194.13202 0 0 0
33.73585 198.14685 0 0 0
33.74466 197.18205 0 0 0
33.75347 195.54349 0 0 0
33.76227 196.54567 0 0 0
33.77108 197.26761 0 0 0
33.77989 187.73904 0 0 0
33.78870 177.65459 0 0 0
33.79750 184.00726 0 0 0
33.80631 203.60201 0 0 0
33.81512 207.01952 0 0 0
33.82393 207.98473 0 0 0
33.83273 208.43095 0 0 0
33.84154 207.81667 0 0 0
33.85035 203.58797 0 0 0
33.85915 193.02905 0 0 0
33.86796 190.67218 0 0 0
33.87677 198.54739 0 0 0
33.88557 203.16353 0 0 0
33.89438 202.18857 0 0 0
33.90319 198.82352 0 0 0
33.91199 200.20509 0 0 0
33.92080 204.77489 0 0 0
33.92961 205.49138 0 0 0
33.93842 206.69228 0 0 0
33.94722 208.65602 0 0 0
33.95603 207.94334 0 0 0
33.96484 200.52301 0 0 0
33.97364 183.15714 0 0 0
33.98245 177.27589 0 0 0
33.99126 184.68253 0 0 0
34.00007 194.46758 0 0 0
34.00887 195.03947 0 0 0
34.01768 189.92059 0 0 0
34.02649 182.32239 0 0 0
34.03530 190.7318 0 0 0
34.04410 188.99399 0 0 0
34.05291 182.07359 0 0 0
34.06172 183.93521 0 0 0
34.07053 190.92395 0 0 0
34.07933 198.79114 0 0 0
34.08814 213.78545 0 0 0
34.09695 217.93697 0 0 0
34.10575 214.32825 0 0 0
34.11456 214.78822 0 0 0
34.12337 218.23706 0 0 0
34.13217 213.62706 0 0 0
34.14098 201.47604 0 0 0
34.14979 202.76468 0 0 0
34.15860 207.10991 0 0 0
34.16740 204.55 0 0 0
34.17621 205.08301 0 0 0
34.18502 216.66621 0 0 0
34.19382 219.93015 0 0 0
34.20263 219.35591 0 0 0
34.21144 211.38873 0 0 0
34.22024 192.66193 0 0 0
34.22905 193.49976 0 0 0
34.23786 199.12387 0 0 0
34.24667 189.29521 0 0 0
34.25547 188.45323 0 0 0
34.26428 196.21481 0 0 0
34.27309 201.45151 0 0 0
34.28189 198.30441 0 0 0
34.29070 200.46054 0 0 0
34.29951 205.78749 0 0 0
34.30832 211.46931 0 0 0
34.31712 199.0733 0 0 0
34.32593 194.04715 0 0 0
34.33474 190.03035 0 0 0
34.34355 199.25284 0 0 0
34.35235 201.89098 0 0 0
34.36116 202.09003 0 0 0
34.36997 203.75233 0 0 0
34.37878 199.51318 0 0 0
34.38758 199.58084 0 0 0
34.39639 208.48494 0 0 0
34.40520 208.53813 0 0 0
34.41401 208.37715 0 0 0
34.42281 203.52739 0 0 0
34.43162 195.5903 0 0 0
34.44043 195.50319 0 0 0
34.44923 201.72223 0 0 0
34.45804 206.3407 0 0 0
34.46685 202.48946 0 0 0
34.47566 193.19174 0 0 0
34.48446 188.80458 0 0 0
34.49327 184.29088 0 0 0
34.50207 190.08838 0 0 0
34.51088 205.77579 0 0 0
34.51969 213.16624 0 0 0
34.52850 207.04822 0 0 0
34.53730 198.94449 0 0 0
34.54611 199.35751 0 0 0
34.55492 196.597 0 0 0
34.56372 197.20357 0 0 0
34.57253 199.92276 0 0 0
34.58134 198.9335 0 0 0
34.59015 201.00543 0 0 0
34.59895 196.05974 0 0 0
34.60776 195.92818 0 0 0
34.61657 200.86586 0 0 0
34.62538 200.57002 0 0 0
34.63418 195.01907 0 0 0
34.64299 200.32114 0 0 0
34.65180 205.33592 0 0 0
34.66060 212.54164 0 0 0
34.66941 213.98882 0 0 0
34.67822 213.13672 0 0 0
34.68703 212.11871 0 0 0
34.69583 217.36055 0 0 0
34.70464 216.27249 0 0 0
34.71345 193.96979 0 0 0
34.72226 191.03625 0 0 0
34.73106 199.93474 0 0 0
34.73987 207.92387 0 0 0
34.74868 210.56979 0 0 0
34.75748 199.57011 0 0 0
34.76629 184.39293 0 0 0
34.77510 191.48283 0 0 0
34.78390 219.40778 0 0 0
34.79271 232.43886 0 0 0
34.80152 229.63333 0 0 0
34.81033 222.59169 0 0 0
34.81913 217.2393 0 0 0
34.82794 213.94931 0 0 0
34.83675 200.67918 0 0 0
34.84555 186.25526 0 0 0
34.85436 192.06573 0 0 0
34.86317 204.49043 0 0 0
34.87197 210.25182 0 0 0
34.88078 202.04889 0 0 0
34.88959 217.88452 0 0 0
34.89840 225.83876 0 0 0
34.90720 213.13416 0 0 0
34.91601 203.75783 0 0 0
34.92482 218.4384 0 0 0
34.93363 239.34731 0 0 0
34.94243 242.68674 0 0 0
34.95124 224.15596 0 0 0
34.96005 215.29059 0 0 0
34.96886 218.56409 0 0 0
34.97766 212.22882 0 0 0
34.98647 208.59009 0 0 0
34.99528 208.97084 0 0 0
35.00409 208.81303 0 0 0
35.01289 209.1967 0 0 0
35.02170 208.60027 0 0 0
35.03051 206.28796 0 0 0
35.03931 205.29266 0 0 0
35.04812 210.80118 0 0 0
35.05693 209.13496 0 0 0
35.06573 208.85501 0 0 0
35.07454 208.71909 0 0 0
35.08335 216.05731 0 0 0
35.09215 219.55164 0 0 0
35.10096 219.55667 0 0 0
35.10977 208.37512 0 0 0
35.11858 207.1613 0 0 0
35.12738 209.78471 0 0 0
35.13619 212.72334 0 0 0
35.14500 219.63422 0 0 0
35.15380 226.94037 0 0 0
35.16261 226.32632 0 0 0
35.17142 224.26614 0 0 0
35.18023 222.20448 0 0 0
35.18903 213.5089 0 0 0
35.19784 204.08681 0 0 0
35.20665 211.53529 0 0 0
35.21545 207.94527 0 0 0
35.22426 193.67473 0 0 0
loop_
_gsas_i100_meas
0.07
30.01
8.18
7.30
6.35
12.82
87.93
22.96
44.37
48.97
100.00
1.26
19.11
4.25
32.76
58.72
0.00
65.83
14.38
27.83
5.37
2.62
4.10
3.27
6.50
49.96
7.79
19.96
3.58
1.20
0.15
0.74
0.00
8.29
2.89
2.52
0.19
1.27
9.70
17.09
12.08
3.15
1.58
3.20
0.10
0.89
4.62
2.01
35.61
0.96
11.93
3.55
11.98
0.00
10.39
8.52
5.68
8.62
6.88
0.81
0.05
16.26
17.65
0.01
8.39
2.69
5.42
0.85
5.23
4.74
0.02
2.71
18.02
4.67
0.15
3.60
0.97
2.47
1.96
4.23
8.55
2.90
0.01
6.24
0.04
5.63
16.27
0.21
20.95
2.82
2.32
2.09
0.28
0.01
0.10
2.89
0.28
2.76
12.96
4.20
0.00
6.51
4.18
0.26
0.55
6.70
0.24
0.20
1.75
3.50
7.00
14.05
18.54
8.63
2.64
6.93
2.18
0.15
0.06
0.06
3.61
0.27
1.01
2.05
0.02
2.29
4.01
9.93
3.33
11.97
1.59
0.70
0.04
8.90
0.08
4.71
0.16
0.80
0.83
1.41
0.11
1.50
0.00
1.85
3.43
10.47
0.75
8.99
0.05
1.99
13.37
0.03
0.15
0.76
3.23
0.00
2.55
4.75
0.56
7.19
0.72
0.34
2.69
0.04
1.38
1.32
3.06
1.18
0.05
0.06
3.11
0.59
0.93
1.32
3.26
4.17
1.81
0.06
0.01
0.71
0.49
0.03
1.99
1.50
0.11
0.28
0.50
0.65
0.53
0.26
0.02
0.26
0.43
3.51
2.82
1.15
6.95
0.00
0.73
0.46
7.89
1.35
0.77
0.63
1.36
0.49
0.86
0.00
2.75
2.25
1.14
2.17
0.53
1.23
2.17
2.65
4.56
0.20
0.65
1.77
1.40
0.02
1.00
1.73
0.10
0.00
0.12
3.12
3.28
0.29
0.20
1.77
0.70
