#------------------------------------------------------------------------------
#$Date: 2021-02-05 01:04:31 +0200 (Fri, 05 Feb 2021) $
#$Revision: 261628 $
#$URL: file:///home/coder/svn-repositories/cod/cif/7/24/18/7241850.cif $
#------------------------------------------------------------------------------
#
# This file is available in the Crystallography Open Database (COD),
# http://www.crystallography.net/
#
# All data on this site have been placed in the public domain by the
# contributors.
#
data_7241850
loop_
_publ_author_name
'Gu\'nka, Piotr A.'
'Hanfland, Michael'
'Chen, Yu-Sheng'
'Zachara, Janusz'
_publ_section_title
;
 High-pressure and low-temperature structural study of claudetite I, a
 monoclinic layered As2O3 polymorph
;
_journal_issue                   3
_journal_name_full               CrystEngComm
_journal_page_first              638
_journal_page_last               644
_journal_paper_doi               10.1039/D0CE01401J
_journal_volume                  23
_journal_year                    2021
_chemical_formula_moiety         'As2 O3'
_chemical_formula_sum            'As2 O3'
_chemical_formula_weight         197.84
_chemical_name_common            'claudetite I'
_chemical_name_systematic
;
arsenic(III) oxide
;
_space_group_IT_number           14
_space_group_name_Hall           '-P 2yn'
_space_group_name_H-M_alt        'P 1 21/n 1'
_symmetry_cell_setting           monoclinic
_symmetry_space_group_name_H-M   'P 1 21/n 1'
_audit_creation_date             2020-10-21T11:54
_audit_creation_method           'created in GSAS-II'
_audit_update_record
;
2020-10-22 deposited with the CCDC.	2020-12-10 downloaded from the CCDC.
;
_cell_angle_alpha                90
_cell_angle_beta                 94.607(6)
_cell_angle_gamma                90
_cell_formula_units_Z            4
_cell_length_a                   4.8178(6)
_cell_length_b                   11.97404(28)
_cell_length_c                   4.2306(5)
_cell_measurement_pressure       1.189e7(5)
_cell_measurement_temperature    293
_cell_volume                     243.27(4)
_computing_data_reduction        Fit2D
_computing_structure_refinement
'GSAS-II (Toby & Von Dreele, J. Appl. Cryst. 46, 544-549, 2013)'
_diffrn_ambient_pressure         1.189e7(5)
_diffrn_ambient_temperature      293
_diffrn_detector                 'Mar555 flat panel'
_diffrn_detector_type            'Mar555 flat panel'
_diffrn_measurement_device_type  'ESRF ID09A beamline'
_diffrn_radiation_monochromator  Si
_diffrn_radiation_polarisn_ratio 0.9900
_diffrn_radiation_probe          x-ray
_diffrn_radiation_wavelength     0.41421
_diffrn_source                   'ESRF ID09A'
_diffrn_source_type              synchrotron
_exptl_crystal_colour            colourless
_exptl_crystal_density_diffrn    5.4019
_exptl_crystal_description       'white powder'
_pd_block_id                     2020-10-21T11:54|clau1_014rietveld||id09a
_pd_calc_method                  'Rietveld Refinement'
_pd_meas_number_of_points        4000
_pd_phase_name                   claudetiteI
_pd_prep_pressure                100.0(1)
_pd_prep_temperature             293
_pd_proc_info_datetime           2020-10-21T11:54
_pd_proc_ls_background_function
;
Background function: "chebyschev" function with 15 terms:
    721.3(18), 394(8), -7(3)e1, -8.3(6)e2, 4.09(16)e3, 6.84(11)e3, 
    -3.279(21)e4, -23018(26), 1.0125(10)e5, 3.540(10)e4, -1.5180(18)e5, 
    -2.558(8)e4, 1.1104(21)e5, 7.07(11)e3, -3.180(22)e4, 
;
_pd_proc_ls_pref_orient_corr
;
Simple spherical harmonic correction Order = 6
    Coefficients:  0:0:C(6,6) = -0.044(23); 0:0:C(4,4) = 0.701(24); 
    0:0:C(6,-2) = 0.011(28); 0:0:C(2,-2) = 0.067(14); 0:0:C(4,-4) = 0.220(22); 
    0:0:C(2,2) = 0.464(17); 0:0:C(4,0) = 0.158(20); 0:0:C(6,-6) = -0.566(30); 
    0:0:C(6,4) = 0.128(26); 0:0:C(4,2) = -0.059(20); 0:0:C(6,2) = 0.205(26); 
    0:0:C(6,-4) = -0.015(22); 0:0:C(6,0) = -0.008(30); 0:0:C(2,0) = 0.648(16); 
    0:0:C(4,-2) = -0.435(22); 
;
_pd_proc_ls_profile_function
;
Finger-Cox-Jephcoat function parameters U, V, W, X, Y, SH/L:
  peak variance(Gauss) = Utan(Th)^2^+Vtan(Th)+W:
  peak HW(Lorentz) = X/cos(Th)+Ytan(Th); SH/L = S/L+H/L
  U, V, W in (centideg)^2^, X & Y in centideg
    1.45(19)e3, -184(29), 9.5(14), 2.57(27), 20(7), 0.002, 
  Crystallite size in microns with "isotropic" model:
  parameters: Size, G/L mix
    1.000, 1.000, 
  Microstrain, "isotropic" model (10^6^ * delta Q/Q)
    parameters: Mustrain, G/L mix
    1000.000, 1.000, 

;
_pd_proc_ls_prof_R_factor        0.01717
_pd_proc_ls_prof_wR_expected     0.03496
_pd_proc_ls_prof_wR_factor       0.02801
_refine_ls_goodness_of_fit_all   0.812
_refine_ls_matrix_type           full
_refine_ls_number_parameters     57
_refine_ls_R_Fsqd_factor         0.06204
_refine_ls_shift/su_max          0.0044
_refine_ls_wR_factor_obs         0.02802
_reflns_d_resolution_high        1.109
_reflns_d_resolution_low         5.987
_reflns_limit_h_max              4
_reflns_limit_h_min              0
_reflns_limit_k_max              10
_reflns_limit_k_min              0
_reflns_limit_l_max              3
_reflns_limit_l_min              -3
_reflns_number_total             187
_cod_data_source_file            d0ce01401j3.cif
_cod_data_source_block           clau1_014rietveld
_cod_depositor_comments
'Adding full bibliography for 7241824--7241862.cif.'
_cod_original_cell_volume        243.266(15)
_cod_database_code               7241850
_refine_ls_r_f_factor            0.03853
_gsas_proc_ls_prof_r_b_factor    0.03094
_gsas_proc_ls_prof_wr_b_factor   0.05031
loop_
_space_group_symop_id
_space_group_symop_operation_xyz
1 x,y,z
2 1/2-x,1/2+y,1/2-z
3 -x,-y,-z
4 1/2+x,1/2-y,1/2+z
loop_
_atom_site_label
_atom_site_type_symbol
_atom_site_fract_x
_atom_site_fract_y
_atom_site_fract_z
_atom_site_occupancy
_atom_site_adp_type
_atom_site_U_iso_or_equiv
_atom_site_symmetry_multiplicity
As1 As 0.2798(7) 0.08807(24) 0.0634(9) 1.000 Uiso 0.0123(16) 4
As2 As 0.3303(7) 0.35646(28) 0.0264(9) 1.000 Uiso 0.0123 4
O3 O 0.4430(30) 0.2194(5) 0.127(5) 1.000 Uiso 0.0123 4
O4 O 0.6579(22) 0.4148(12) 0.1590(22) 1.000 Uiso 0.0123 4
O5 O -0.0550(26) 0.1355(18) 0.1410(25) 1.000 Uiso 0.0123 4
loop_
_atom_type_symbol
_atom_type_number_in_cell
_atom_type_scat_Cromer_Mann_a1
_atom_type_scat_Cromer_Mann_a2
_atom_type_scat_Cromer_Mann_a3
_atom_type_scat_Cromer_Mann_a4
_atom_type_scat_Cromer_Mann_b1
_atom_type_scat_Cromer_Mann_b2
_atom_type_scat_Cromer_Mann_b3
_atom_type_scat_Cromer_Mann_b4
_atom_type_scat_Cromer_Mann_c
_atom_type_scat_length_neutron
_atom_type_scat_source
_atom_type_scat_dispersion_real
_atom_type_scat_dispersion_imag
_atom_type_scat_dispersion_source
As 8 16.6723 6.0701 3.4313 4.2779 2.6345 0.2647 12.9479 47.7972 2.531 0.658
https://subversion.xray.aps.anl.gov/pyGSAS/trunk/atmdata.py 0.283 0.775
https://subversion.xray.aps.anl.gov/pyGSAS/trunk/atmdata.py
O 12 3.0485 2.2868 1.5463 0.867 13.2771 5.7011 0.3239 32.9089 0.2508 0.5805
https://subversion.xray.aps.anl.gov/pyGSAS/trunk/atmdata.py 0.002 0.002
https://subversion.xray.aps.anl.gov/pyGSAS/trunk/atmdata.py
loop_
_geom_angle_atom_site_label_1
_geom_angle_atom_site_label_2
_geom_angle_atom_site_label_3
_geom_angle
_geom_angle_site_symmetry_1
_geom_angle_site_symmetry_2
_geom_angle_site_symmetry_3
_geom_angle_publ_flag
O3 As1 O4 105.9(8) 1_555 1_555 4_454 yes
O3 As1 O5 95.0(10) 1_555 1_555 1_555 yes
O4 As1 O5 87.1(6) 4_454 1_555 1_555 yes
O3 As2 O4 92.4(6) 1_555 1_555 1_555 yes
O3 As2 O5 99.2(12) 1_555 1_555 4_554 yes
O4 As2 O5 86.2(6) 1_555 1_555 4_554 yes
As1 O3 As2 131.6(7) 1_555 1_555 1_555 yes
As1 O4 As2 121.1(7) 4_555 1_555 1_555 yes
As1 O5 As2 123.2(8) 1_555 1_555 4_455 yes
loop_
_geom_bond_atom_site_label_1
_geom_bond_atom_site_label_2
_geom_bond_distance
_geom_bond_site_symmetry_1
_geom_bond_site_symmetry_2
_geom_bond_publ_flag
As1 O3 1.769(7) 1_555 1_555 yes
As1 O4 1.764(7) 1_555 4_454 yes
As1 O5 1.765(7) 1_555 1_555 yes
As2 O3 1.770(7) 1_555 1_555 yes
As2 O4 1.775(7) 1_555 1_555 yes
As2 O5 1.766(7) 1_555 4_554 yes
loop_
_pd_meas_2theta_scan
_pd_meas_intensity_total
_pd_calc_intensity_total
_pd_proc_intensity_bkg_calc
_pd_proc_ls_weight
0.00440 111.87098 0 0 0
0.01320 116.66986 0 0 0
0.02201 114.56439 0 0 0
0.03081 112.13896 0 0 0
0.03961 111.44142 0 0 0
0.04841 111.35483 0 0 0
0.05721 108.47466 0 0 0
0.06602 106.04519 0 0 0
0.07482 104.82948 0 0 0
0.08362 106.16733 0 0 0
0.09242 107.59122 0 0 0
0.10122 106.99286 0 0 0
0.11003 105.87341 0 0 0
0.11883 103.83606 0 0 0
0.12763 103.33967 0 0 0
0.13643 102.85935 0 0 0
0.14523 102.45564 0 0 0
0.15404 101.97506 0 0 0
0.16284 103.16091 0 0 0
0.17164 104.91061 0 0 0
0.18044 104.89017 0 0 0
0.18925 103.81295 0 0 0
0.19805 102.81161 0 0 0
0.20685 103.35072 0 0 0
0.21565 104.66132 0 0 0
0.22445 104.65447 0 0 0
0.23326 105.36191 0 0 0
0.24206 105.70939 0 0 0
0.25086 106.67249 0 0 0
0.25966 107.18578 0 0 0
0.26846 108.01212 0 0 0
0.27727 108.72563 0 0 0
0.28607 108.40271 0 0 0
0.29487 108.63259 0 0 0
0.30367 109.48369 0 0 0
0.31248 109.5028 0 0 0
0.32128 109.24786 0 0 0
0.33008 109.52557 0 0 0
0.33888 109.97566 0 0 0
0.34768 109.42908 0 0 0
0.35649 108.76833 0 0 0
0.36529 109.49303 0 0 0
0.37409 109.8292 0 0 0
0.38289 110.20181 0 0 0
0.39169 111.02167 0 0 0
0.40050 112.03673 0 0 0
0.40930 112.13624 0 0 0
0.41810 111.18603 0 0 0
0.42690 109.76706 0 0 0
0.43570 108.67653 0 0 0
0.44451 109.67363 0 0 0
0.45331 110.9325 0 0 0
0.46211 111.07751 0 0 0
0.47091 110.49733 0 0 0
0.47972 110.17077 0 0 0
0.48852 108.70759 0 0 0
0.49732 108.14973 0 0 0
0.50612 108.08011 0 0 0
0.51492 109.06481 0 0 0
0.52373 110.28184 0 0 0
0.53253 111.8593 0 0 0
0.54133 111.80779 0 0 0
0.55013 110.18079 0 0 0
0.55893 109.40421 0 0 0
0.56774 109.14165 0 0 0
0.57654 109.76501 0 0 0
0.58534 110.70769 0 0 0
0.59414 111.48348 0 0 0
0.60295 111.35191 0 0 0
0.61175 110.49459 0 0 0
0.62055 110.33662 0 0 0
0.62935 111.11268 0 0 0
0.63815 111.7558 0 0 0
0.64696 112.52962 0 0 0
0.65576 112.71288 0 0 0
0.66456 112.39536 0 0 0
0.67336 111.0897 0 0 0
0.68216 110.95892 0 0 0
0.69097 110.63573 0 0 0
0.69977 111.57742 0 0 0
0.70857 111.3097 0 0 0
0.71737 110.72488 0 0 0
0.72617 110.04904 0 0 0
0.73498 110.16362 0 0 0
0.74378 110.56274 0 0 0
0.75258 110.04193 0 0 0
0.76138 110.05976 0 0 0
0.77019 109.89749 0 0 0
0.77899 110.8939 0 0 0
0.78779 111.68108 0 0 0
0.79659 112.52087 0 0 0
0.80539 112.72587 0 0 0
0.81420 112.96619 0 0 0
0.82300 112.98714 0 0 0
0.83180 113.62091 0 0 0
0.84060 114.22439 0 0 0
0.84940 114.59743 0 0 0
0.85821 114.97523 0 0 0
0.86701 115.10072 0 0 0
0.87581 117.20192 0 0 0
0.88461 118.23132 0 0 0
0.89342 119.24085 0 0 0
0.90222 119.43372 0 0 0
0.91102 119.90825 0 0 0
0.91982 120.71088 0 0 0
0.92862 123.61411 0 0 0
0.93743 124.05938 0 0 0
0.94623 125.34869 0 0 0
0.95503 126.40012 0 0 0
0.96383 129.98935 0 0 0
0.97263 133.16748 0 0 0
0.98144 134.95276 0 0 0
0.99024 135.83333 0 0 0
0.99904 135.58958 0 0 0
1.00784 136.30058 0 0 0
1.01664 140.76622 0 0 0
1.02545 145.02017 0 0 0
1.03425 154.03752 0 0 0
1.04305 161.6214 0 0 0
1.05185 172.89902 0 0 0
1.06066 178.52528 0 0 0
1.06946 187.17651 0 0 0
1.07826 191.2518 0 0 0
1.08706 196.27051 0 0 0
1.09586 201.9653 0 0 0
1.10467 210.41475 0 0 0
1.11347 217.3535 0 0 0
1.12227 222.96523 0 0 0
1.13107 228.90994 0 0 0
1.13987 234.20018 0 0 0
1.14868 238.06728 0 0 0
1.15748 240.74597 0 0 0
1.16628 243.2211 0 0 0
1.17508 245.06425 0 0 0
1.18389 246.75674 0 0 0
1.19269 248.43835 0 0 0
1.20149 250.03358 0 0 0
1.21029 252.02373 0 0 0
1.21909 253.64247 0 0 0
1.22790 256.12698 0 0 0
1.23670 258.64197 0 0 0
1.24550 261.69443 0 0 0
1.25430 263.43671 0 0 0
1.26310 264.92966 0 0 0
1.27191 265.94266 0 0 0
1.28071 268.50052 0 0 0
1.28951 269.32974 0 0 0
1.29831 270.0383 0 0 0
1.30711 270.78693 0 0 0
1.31592 273.04947 0 0 0
1.32472 274.49341 0 0 0
1.33352 276.09567 0 0 0
1.34232 279.24316 0 0 0
1.35113 282.1752 0 0 0
1.35993 283.36447 0 0 0
1.36873 282.87686 0 0 0
1.37753 284.03644 0 0 0
1.38633 285.43033 0 0 0
1.39514 287.14926 0 0 0
1.40394 288.81778 0 0 0
1.41274 290.5676 0 0 0
1.42154 291.11029 0 0 0
1.43034 292.18164 0 0 0
1.43915 293.45013 0 0 0
1.44795 294.86292 0 0 0
1.45675 294.14059 0 0 0
1.46555 294.88855 0 0 0
1.47436 296.61603 0 0 0
1.48316 297.61371 0 0 0
1.49196 298.1553 0 0 0
1.50076 300.20547 0 0 0
1.50956 302.35593 0 0 0
1.51837 302.68652 0 0 0
1.52717 303.06781 0 0 0
1.53597 303.2608 0 0 0
1.54477 303.90591 0 0 0
1.55357 304.68936 0 0 0
1.56238 305.30618 0 0 0
1.57118 305.83505 0 0 0
1.57998 306.48526 0 0 0
1.58878 307.28342 0 0 0
1.59758 308.29889 0 0 0
1.60639 309.47632 0 0 0
1.61519 311.21124 0 0 0
1.62399 311.60596 0 0 0
1.63279 311.89249 0 0 0
1.64160 312.30731 0 0 0
1.65040 313.6767 0 0 0
1.65920 314.57718 0 0 0
1.66800 315.39755 0 0 0
1.67680 316.90814 0 0 0
1.68561 318.21152 0 0 0
1.69441 318.74686 0 0 0
1.70321 319.34534 0 0 0
1.71201 319.68845 0 0 0
1.72081 319.76663 0 0 0
1.72962 319.22635 0 0 0
1.73842 319.1384 0 0 0
1.74722 319.99808 0 0 0
1.75602 321.38217 0 0 0
1.76483 322.3508 0 0 0
1.77363 323.73459 0 0 0
1.78243 324.5231 0 0 0
1.79123 325.32965 0 0 0
1.80003 325.79791 0 0 0
1.80884 326.92215 0 0 0
1.81764 327.27719 0 0 0
1.82644 327.67429 0 0 0
1.83524 328.23596 0 0 0
1.84404 329.43118 0 0 0
1.85285 329.82626 0 0 0
1.86165 330.39627 0 0 0
1.87045 331.79376 0 0 0
1.87925 332.94745 0 0 0
1.88805 332.81415 0 0 0
1.89686 332.75299 0 0 0
1.90566 333.29727 0 0 0
1.91446 334.07315 0 0 0
1.92326 334.68927 0 0 0
1.93207 334.71649 0 0 0
1.94087 335.26465 0 0 0
1.94967 336.13568 0 0 0
1.95847 336.82809 0 0 0
1.96727 337.63922 0 0 0
1.97608 339.27582 0 0 0
1.98488 341.17676 0 0 0
1.99368 341.77997 0 0 0
2.00248 341.87152 0 0 0
2.01128 342.06339 0 0 0
2.02009 342.29282 0 0 0
2.02889 342.202 0 0 0
2.03769 343.13843 0 0 0
2.04649 343.37253 0 0 0
2.05530 343.83572 0 0 0
2.06410 344.90686 0 0 0
2.07290 345.73819 0 0 0
2.08170 346.2598 0 0 0
2.09050 346.76675 0 0 0
2.09931 347.50119 0 0 0
2.10811 348.15237 0 0 0
2.11691 348.87521 0 0 0
2.12571 349.12854 0 0 0
2.13451 348.19983 0 0 0
2.14332 347.97922 0 0 0
2.15212 348.33157 0 0 0
2.16092 349.80423 0 0 0
2.16972 350.66516 0 0 0
2.17852 351.25293 0 0 0
2.18733 352.46988 0 0 0
2.19613 353.33167 0 0 0
2.20493 353.29663 0 0 0
2.21373 353.33002 0 0 0
2.22254 355.13855 0 0 0
2.23134 356.47916 0 0 0
2.24014 356.60641 0 0 0
2.24894 355.69373 0 0 0
2.25774 355.61981 0 0 0
2.26655 355.96152 0 0 0
2.27535 356.84357 0 0 0
2.28415 357.9566 0 0 0
2.29295 358.67722 0 0 0
2.30175 358.87817 0 0 0
2.31056 358.70465 0 0 0
2.31936 359.08829 0 0 0
2.32816 359.80057 0 0 0
2.33696 360.53244 0 0 0
2.34576 361.19241 0 0 0
2.35457 361.56842 0 0 0
2.36337 362.53604 0 0 0
2.37217 362.83664 354.808962 354.766991 0.002756061
2.38097 363.7287 356.092094 356.047438 0.002749302
2.38978 363.00244 357.32336 357.27841 0.002754802
2.39858 363.05991 358.506766 358.46152 0.002754366
2.40738 363.68753 359.643931 359.598385 0.002749613
2.41618 364.68372 360.736398 360.690548 0.002742102
2.42498 364.82944 361.785779 361.739622 0.002741007
2.43379 365.2876 362.793538 362.747072 0.002737569
2.44259 365.88739 363.761129 363.714349 0.002733081
2.45139 366.2312 364.69 364.642902 0.002730516
2.46019 366.25235 365.5815 365.534083 0.002730358
2.46899 365.64642 366.437048 366.389306 0.002734883
2.47780 365.60028 367.257931 367.209861 0.002735228
2.48660 366.46313 368.045437 367.997036 0.002728787
2.49540 367.34766 368.800794 368.752057 0.002722217
2.50420 368.58368 369.525274 369.476198 0.002713088
2.51301 369.23184 370.220038 370.170619 0.002708325
2.52181 369.70474 370.886237 370.83647 0.002704861
2.53061 370.13736 371.524995 371.474877 0.0027017
2.53941 370.21631 372.137425 372.086951 0.002701124
2.54821 370.47864 372.724589 372.673755 0.002699211
2.55702 370.85892 373.287518 373.23632 0.002696443
2.56582 372.49353 373.827202 373.775636 0.00268461
2.57462 372.83813 374.344657 374.292718 0.002682129
2.58342 372.95511 374.840818 374.788501 0.002681288
2.59222 372.74783 375.316609 375.26391 0.002682779
2.60103 372.97357 375.772925 375.719839 0.002681155
2.60983 373.25491 376.21064 376.157163 0.002679134
2.61863 374.0148 376.630613 376.576739 0.002673691
2.62743 374.16663 377.033665 376.979389 0.002672606
2.63624 374.59424 377.420592 377.365909 0.002669555
2.64504 374.82126 377.792156 377.737061 0.002667938
2.65384 375.19812 378.149135 378.093623 0.002665259
2.66264 375.40701 378.492245 378.43631 0.002663776
2.67144 374.7662 378.822193 378.76583 0.00266833
2.68025 374.42517 379.139654 379.082857 0.002670761
2.68905 374.5636 379.445314 379.388078 0.002669774
2.69785 375.68665 379.739804 379.682122 0.002661793
2.70665 376.87173 380.023744 379.965611 0.002653423
2.71545 376.40054 380.297743 380.239152 0.002656744
2.72426 376.62964 380.562371 380.503317 0.002655128
2.73306 376.99652 380.818212 380.758688 0.002652544
2.74186 378.73776 381.0658 381.005799 0.002640349
2.75066 379.11908 381.305662 381.245179 0.002637694
2.75946 379.24112 381.538301 381.477327 0.002636845
2.76827 379.42017 381.764222 381.702751 0.002635601
2.77707 379.40839 381.983893 381.921918 0.002635682
2.78587 380.26248 382.197769 382.135283 0.002629762
2.79467 380.64774 382.40629 382.343286 0.002627101
2.80348 380.3208 382.609889 382.546358 0.002629359
2.81228 380.16882 382.808973 382.744908 0.00263041
2.82108 380.60492 383.003936 382.939329 0.002627396
2.82988 380.66879 383.195151 383.129994 0.002626956
2.83868 381.32959 383.382996 383.317281 0.002622403
2.84749 381.91537 383.567816 383.501534 0.002618381
2.85629 382.98303 383.749948 383.68309 0.002611082
2.86509 383.09695 383.929715 383.862272 0.002610305
2.87389 382.8912 384.107426 384.039389 0.002611708
2.88269 383.16693 384.283384 384.214744 0.002609829
2.89150 383.35464 384.462464 384.388622 0.002608551
2.90030 384.03928 384.635778 384.561293 0.0026039
2.90910 384.40076 384.808152 384.733013 0.002601452
2.91790 384.62054 384.979845 384.904043 0.002599965
2.92670 384.81345 385.151092 385.074616 0.002598662
2.93551 385.60965 385.32212 385.244958 0.002593296
2.94431 386.23962 385.49314 385.415281 0.002589066
2.95311 386.3898 385.664369 385.585801 0.00258806
2.96191 387.24966 385.835997 385.756708 0.002582313
2.97072 387.06717 386.008213 385.928191 0.002583531
2.97952 386.59198 386.181192 386.100425 0.002586707
2.98832 386.85123 386.355096 386.27357 0.002584973
2.99712 387.38626 386.530094 386.447797 0.002581403
3.00592 387.53033 386.706331 386.623248 0.002580443
3.01473 387.10165 386.883948 386.800064 0.002583301
3.02353 387.21799 387.063069 386.978371 0.002582525
3.03233 387.77158 387.243833 387.158305 0.002578838
3.04113 388.52103 387.42635 387.339976 0.002573863
3.04993 388.52228 387.610726 387.523491 0.002573855
3.05874 388.40567 387.797063 387.70895 0.002574628
3.06754 388.78226 387.985459 387.896451 0.002572134
3.07634 389.05457 388.176001 388.086081 0.002570334
3.08514 389.78012 388.368769 388.277918 0.002565549
3.09395 390.09729 388.563828 388.472028 0.002563463
3.10275 390.53601 388.761261 388.668492 0.002560583
3.11155 391.13824 388.961122 388.867364 0.002556641
3.12035 391.82013 389.163466 389.068699 0.002552191
3.12915 392.06396 389.368341 389.272544 0.002550604
3.13796 391.88104 389.575791 389.478941 0.002551795
3.14676 392.84753 389.78586 389.687933 0.002545517
3.15556 393.52838 389.99858 389.899554 0.002541113
3.16436 393.19135 390.215414 390.113828 0.002543291
3.17316 393.12668 390.433514 390.330771 0.002543709
3.18197 394.40283 390.654342 390.550416 0.002535479
3.19077 394.99554 390.877905 390.77277 0.002531674
3.19957 394.97849 391.104215 390.99784 0.002531783
3.20837 395.45129 391.333269 391.225625 0.002528756
3.21717 394.68112 391.565084 391.456141 0.002533691
3.22598 394.06104 391.799649 391.689373 0.002537678
3.23478 394.06476 392.036964 391.925322 0.002537654
3.24358 394.88062 392.277016 392.163973 0.002532411
3.25238 395.60071 392.519785 392.405305 0.002527801
3.26119 396.1788 392.765272 392.649317 0.002524113
3.26999 396.46341 393.01345 392.89598 0.002522301
3.27879 397.18817 393.264297 393.14527 0.002517698
3.28759 396.91144 393.51778 393.397153 0.002519454
3.29639 396.78204 393.773889 393.651617 0.002520275
3.30520 397.20761 394.032583 393.908617 0.002517575
3.31400 397.48904 394.293835 394.168126 0.002515793
3.32280 397.05576 394.557602 394.430098 0.002518538
3.33160 397.08356 394.823856 394.694502 0.002518362
3.34040 398.08087 395.092559 394.961297 0.002512052
3.34921 398.25677 395.363667 395.230437 0.002510943
3.35801 398.79147 395.637138 395.501876 0.002507576
3.36681 398.95508 395.912918 395.775557 0.002506548
3.37561 399.11951 396.190981 396.05145 0.002505515
3.38442 399.13809 396.471266 396.329491 0.002505399
3.39322 398.83487 396.753734 396.609635 0.002507303
3.40202 399.22702 397.068145 396.891818 0.00250484
3.41082 399.42056 397.354946 397.175994 0.002503627
3.41962 399.26294 397.643778 397.462108 0.002504615
3.42843 399.45959 397.934587 397.750098 0.002503382
3.43723 400.2229 398.227308 398.039895 0.002498608
3.44603 400.89783 398.52191 398.331459 0.002494401
3.45483 401.33411 398.818329 398.62472 0.00249169
3.46363 401.37463 399.11651 398.919616 0.002491438
3.47244 400.85049 399.41639 399.216074 0.002494696
3.48124 400.97495 399.717935 399.514053 0.002493921
3.49004 401.32541 400.021078 399.813473 0.002491744
3.49884 402.86929 400.325773 400.114279 0.002482195
3.50764 402.84216 400.631963 400.416401 0.002482362
3.51645 402.90823 400.939586 400.719764 0.002481955
3.52525 402.7442 401.248612 401.024324 0.002482966
3.53405 402.99371 401.558981 401.330004 0.002481428
3.54285 403.14484 401.870644 401.636737 0.002480498
3.55166 403.33035 402.183544 401.944448 0.002479357
3.56046 403.51755 402.497658 402.253091 0.002478207
3.56926 404.02554 402.812929 402.562586 0.002475091
3.57806 403.84695 403.129324 402.872873 0.002476186
3.58686 403.8765 403.446797 403.183875 0.002476004
3.59567 404.45151 403.765326 403.495538 0.002472484
3.60447 405.31461 404.084881 403.807793 0.002467219
3.61327 405.51773 404.405435 404.120574 0.002465983
3.62207 405.72946 404.72697 404.433813 0.002464697
3.63087 406.35336 405.049465 404.747435 0.002460912
3.63968 407.59235 405.388864 405.061397 0.002453432
3.64848 408.39087 405.713369 405.37562 0.002448635
3.65728 408.61606 406.038864 405.690046 0.002447285
3.66608 408.40076 406.365363 406.004602 0.002448575
3.67489 407.81802 406.692918 406.319236 0.002452074
3.68369 408.07919 407.032621 406.633884 0.002450505
3.69249 408.09009 407.362526 406.948482 0.002450439
3.70129 408.69611 407.693708 407.262957 0.002446806
3.71009 408.82446 408.02632 407.57727 0.002446038
3.71890 408.91617 408.360512 407.89135 0.002445489
3.72770 408.86642 408.696485 408.205136 0.002445787
3.73650 409.91342 409.034495 408.518567 0.00243954
3.74530 410.49847 409.374869 408.831598 0.002436063
3.75410 410.67017 409.717989 409.144161 0.002435044
3.76291 411.14813 410.064354 409.456207 0.002432213
3.77171 411.07913 410.414573 409.767676 0.002432622
3.78051 410.56909 410.769398 410.078505 0.002435644
3.78931 411.12628 411.129822 410.388661 0.002432343
3.79811 411.88892 411.497049 410.698081 0.002427839
3.80692 412.13321 411.978414 411.006713 0.0024264
3.81572 411.85239 412.364841 411.314496 0.002428054
3.82452 412.17715 412.764357 411.621402 0.002426141
3.83332 412.10016 413.180663 411.927368 0.002426595
3.84213 412.33942 413.61938 412.232354 0.002425187
3.85093 412.11267 414.089997 412.536302 0.002426521
3.85973 412.54306 414.610509 412.839177 0.002423989
3.86853 412.73697 415.21686 413.140935 0.002422851
3.87733 413.83182 415.979727 413.441529 0.002416441
3.88614 414.44128 417.028354 413.740916 0.002412887
3.89494 415.63565 418.590332 414.039046 0.002405953
3.90374 416.18973 420.926879 414.335898 0.00240275
3.91254 417.37555 424.387393 414.631419 0.002395924
3.92134 419.06461 429.228409 414.92558 0.002386267
3.93015 423.9241 435.459798 415.218332 0.002358913
3.93895 433.87729 442.661196 415.509651 0.002304799
3.94775 450.68393 449.817076 415.799501 0.00221885
3.95655 466.5675 455.251467 416.087846 0.002143313
3.96535 469.49304 457.096014 416.374644 0.002129957
3.97416 457.87219 454.65298 416.659883 0.002184016
3.98296 443.76395 449.104108 416.943524 0.00225345
3.99176 432.27658 442.370138 417.225534 0.002313334
4.00056 426.08368 435.948975 417.505893 0.002346957
4.00937 422.2598 430.671799 417.784565 0.00236821
4.01817 420.48364 426.817819 418.061542 0.002378214
4.02697 420.08926 424.305629 418.336774 0.002380446
4.03577 419.96436 422.805774 418.610251 0.002381154
4.04457 419.28232 422.005659 418.881972 0.002385028
4.05338 419.2338 421.632045 419.151879 0.002385304
4.06218 419.16501 421.499184 419.41997 0.002385695
4.07098 418.95197 421.497149 419.686242 0.002386908
4.07978 419.3414 421.567315 419.950651 0.002384692
4.08858 418.93741 421.680164 420.213205 0.002386991
4.09739 418.94089 421.820771 420.473861 0.002386972
4.10619 418.81281 421.981013 420.732625 0.002387702
4.11499 419.95377 422.155903 420.989492 0.002381214
4.12379 420.8049 422.342001 421.244424 0.002376398
4.13260 420.47375 422.536794 421.497429 0.00237827
4.14140 420.0094 422.738359 421.748505 0.002380899
4.15020 419.20044 422.945159 421.997619 0.002385494
4.15900 419.18219 423.156019 422.244793 0.002385598
4.16780 419.75998 423.369959 422.489993 0.002382314
4.17661 420.69931 423.586209 422.733225 0.002376995
4.18541 421.89075 423.804157 422.974501 0.002370282
4.19421 421.85013 424.02326 423.213794 0.00237051
4.20301 421.85416 424.243115 423.451123 0.002370487
4.21181 422.01065 424.463344 423.686463 0.002369608
4.22062 422.42206 424.683664 423.919829 0.002367301
4.22942 422.61746 424.903846 424.151237 0.002366206
4.23822 423.01202 425.123651 424.380658 0.002363999
4.24702 423.86874 425.342921 424.608113 0.002359221
4.25582 423.79648 425.561521 424.833617 0.002359623
4.26463 423.76498 425.779303 425.057153 0.002359799
4.27343 424.63535 425.996183 425.278748 0.002354962
4.28223 425.40482 426.212049 425.498386 0.002350702
4.29103 425.02036 426.426842 425.716091 0.002352828
4.29984 424.5401 426.640507 425.93188 0.00235549
4.30864 424.82019 426.852969 426.14574 0.002353937
4.31744 425.05292 427.064209 426.357707 0.002352648
4.32624 424.75989 427.27417 426.567771 0.002354271
4.33504 425.24869 427.482832 426.775952 0.002351565
4.34385 425.01852 427.690187 426.982279 0.002352839
4.35265 424.75095 427.896197 427.186744 0.002354321
4.36145 424.63528 428.100857 427.38937 0.002354962
4.37025 425.65488 428.304175 427.590187 0.002349321
4.37905 426.5466 428.506123 427.78919 0.00234441
4.38786 426.80365 428.706728 427.986421 0.002342998
4.39666 427.17618 428.905967 428.181871 0.002340954
4.40546 427.77365 429.103859 428.375575 0.002337685
4.41426 428.09991 429.300426 428.567563 0.002335903
4.42307 428.27356 429.495661 428.757836 0.002334956
4.43187 428.85516 429.689596 428.946434 0.00233179
4.44067 429.29431 429.882228 429.133359 0.002329404
4.44947 429.53925 430.073591 429.318649 0.002328076
4.45827 429.57147 430.263712 429.502332 0.002327901
4.46708 429.19089 430.4528 429.684415 0.002329966
4.47588 428.82672 430.640486 429.864935 0.002331944
4.48468 428.07791 430.827006 430.043924 0.002336023
4.49348 428.45877 431.012371 430.221392 0.002333947
4.50228 429.15005 431.196634 430.397384 0.002330187
4.51109 429.49884 431.379806 430.57191 0.002328295
4.51989 429.80081 431.561931 430.745006 0.002326659
4.52869 430.25516 431.743055 430.916712 0.002324202
4.53749 430.83713 431.923198 431.087039 0.002321063
4.54630 430.97345 432.102416 431.256033 0.002320329
4.55510 431.01889 432.280732 431.423708 0.002320084
4.56390 431.73077 432.458197 431.590104 0.002316258
4.57270 431.44998 432.634869 431.755264 0.002317766
4.58150 431.37372 432.810769 431.919197 0.002318176
4.59031 431.88391 432.985957 432.081949 0.002315437
4.59911 432.63187 433.160494 432.24356 0.002311434
4.60791 432.79416 433.334411 432.404047 0.002310567
4.61671 432.89301 433.507778 432.56346 0.00231004
4.62551 432.80414 433.680633 432.721816 0.002310514
4.63432 433.68216 433.853044 432.87916 0.002305836
4.64312 434.48502 434.025078 433.035534 0.002301575
4.65192 434.80148 434.196777 433.190956 0.0022999
4.66072 433.77328 434.368217 433.345474 0.002305352
4.66952 433.71133 434.53947 433.499128 0.002305681
4.67833 434.10361 434.710588 433.65194 0.002303598
4.68713 434.67972 434.881661 433.803963 0.002300544
4.69593 434.54016 435.052747 433.955219 0.002301283
4.70473 435.46591 435.223929 434.105751 0.002296391
4.71354 435.64124 435.395298 434.255607 0.002295467
4.72234 435.41266 435.566922 434.404807 0.002296672
4.73114 435.09576 435.738908 434.553409 0.002298345
4.73994 435.16684 435.911326 434.701431 0.002297969
4.74874 435.48264 436.084286 434.848921 0.002296303
4.75755 436.23102 436.257895 434.995926 0.002292363
4.76635 436.59018 436.432247 435.142471 0.002290478
4.77515 436.8512 436.607457 435.2886 0.002289109
4.78395 437.29477 436.783657 435.434362 0.002286787
4.79275 438.27933 436.960955 435.579781 0.00228165
4.80156 438.25372 437.139498 435.724911 0.002281783
4.81036 438.0813 437.319411 435.869777 0.002282681
4.81916 438.30688 437.500853 436.014427 0.002281507
4.82796 439.17496 437.683994 436.158908 0.002276997
4.83676 439.38953 437.868983 436.303244 0.002275885
4.84557 439.39926 438.056024 436.447492 0.002275835
4.85437 439.40903 438.245297 436.591678 0.002275784
4.86317 439.53052 438.437016 436.735846 0.002275155
4.87197 439.98859 438.631422 436.880046 0.002272786
4.88078 439.50458 438.828743 437.024305 0.002275289
4.88958 439.44211 439.02925 437.168666 0.002275613
4.89838 440.02377 439.233251 437.313181 0.002272605
4.90718 441.46194 439.441035 437.457873 0.002265201
4.91598 441.78604 439.652975 437.602801 0.002263539
4.92479 441.16531 439.881283 437.747985 0.002266724
4.93359 441.14102 440.168288 437.893474 0.002266849
4.94239 442.03204 440.395396 438.039318 0.002262279
4.95119 442.63748 440.628401 438.185541 0.002259185
4.95999 442.31 440.867894 438.332197 0.002260858
4.96880 442.11295 441.114476 438.47931 0.002261865
4.97760 442.56216 441.368867 438.62693 0.00225957
4.98640 443.87027 441.631869 438.775102 0.002252911
4.99520 443.85397 441.904339 438.92385 0.002252993
5.00401 444.10394 442.187302 439.073223 0.002251725
5.01281 444.08286 442.481896 439.223266 0.002251832
5.02161 444.80817 442.789394 439.374002 0.00224816
5.03041 445.61322 443.111309 439.525488 0.002244099
5.03921 446.30939 443.449299 439.677746 0.002240598
5.04802 446.43365 443.805338 439.83082 0.002239975
5.05682 446.46997 444.181717 439.98476 0.002239792
5.06562 447.29761 444.581028 440.139584 0.002235648
5.07442 447.71942 445.006406 440.295351 0.002233542
5.08322 447.5553 445.461423 440.452077 0.002234361
5.09203 447.88611 445.950396 440.609811 0.00223271
5.10083 448.96466 446.478465 440.768597 0.002227347
5.10963 449.83215 447.051686 440.928457 0.002223051
5.11843 450.01474 447.677428 441.089432 0.002222149
5.12723 450.38077 448.364691 441.251571 0.002220343
5.13604 450.60745 449.124319 441.414893 0.002219227
5.14484 450.54501 449.969898 441.579447 0.002219534
5.15364 451.33316 450.918092 441.745254 0.002215658
5.16244 453.11221 451.990029 441.912359 0.002206959
5.17125 454.8746 453.212547 442.080802 0.002198408
5.18005 456.1918 454.619906 442.250602 0.00219206
5.18885 458.59946 456.257345 442.421802 0.002180552
5.19765 460.17255 458.186414 442.594448 0.002173098
5.20645 463.05521 460.495941 442.768549 0.00215957
5.21526 466.43338 463.329953 442.944161 0.002143929
5.22406 472.69553 466.947203 443.121299 0.002115527
5.23286 482.31238 471.855761 443.300001 0.002073345
5.24166 497.98691 479.054591 443.48031 0.002008085
5.25046 519.69312 490.390958 443.66224 0.001924213
5.25927 549.82251 508.929827 443.845843 0.001818769
5.26807 591.07819 539.043735 444.031126 0.001691824
5.27687 654.53766 585.636071 444.218132 0.001527796
5.28567 734.17316 652.575226 444.406901 0.001362076
5.29448 819.79626 739.913584 444.597445 0.001219815
5.30328 898.14655 840.870552 444.789799 0.001113404
5.31208 973.14294 938.562393 444.984005 0.001027598
5.32088 1028.1233 1004.643726 445.180071 0.000972646
5.32968 1025.5466 1010.639744 445.378045 0.00097509
5.33849 945.47443 953.584209 445.577933 0.00105767
5.34729 813.94495 859.43972 445.779777 0.001228584
5.35609 669.07281 757.928066 445.983609 0.001494606
5.36489 570.70776 667.966303 446.189436 0.00175221
5.37369 520.42798 597.818657 446.397306 0.001921495
5.38250 495.22385 548.377993 446.607225 0.002019289
5.39130 481.14407 516.241826 446.819224 0.00207838
5.40010 472.59857 496.489599 447.033343 0.002115961
5.40890 466.87079 484.598018 447.24958 0.00214192
5.41770 464.49484 477.273789 447.467976 0.002152876
5.42651 463.495 472.483925 447.688559 0.002157521
5.43531 463.409 469.113662 447.911331 0.002157921
5.44411 462.51959 466.591861 448.136339 0.002162071
5.45291 461.84158 464.628941 448.363582 0.002165245
5.46172 460.83005 463.067315 448.593089 0.002169997
5.47052 460.61942 461.831243 448.824896 0.00217099
5.47932 460.77216 460.815845 449.059 0.00217027
5.48812 460.66229 459.993631 449.295442 0.002170788
5.49692 461.0748 459.328831 449.534217 0.002168845
5.50573 461.41818 458.793587 449.775361 0.002167231
5.51453 461.66586 458.366046 450.0189 0.002166069
5.52333 461.74554 458.028962 450.264827 0.002165695
5.53213 461.83786 457.768431 450.513174 0.002165262
5.54093 462.05222 457.573244 450.763974 0.002164258
5.54974 462.11322 457.434314 451.017209 0.002163972
5.55854 461.57764 457.344152 451.272927 0.002166483
5.56734 461.96561 457.296625 451.531118 0.002164663
5.57614 462.41064 457.286615 451.791804 0.00216258
5.58495 462.8183 457.309881 452.055019 0.002160675
5.59375 462.90286 457.362878 452.320745 0.00216028
5.60255 462.50784 457.442639 452.589031 0.002162126
5.61135 461.63974 457.546663 452.859851 0.002166191
5.62015 461.99524 457.672867 453.133237 0.002164524
5.62896 462.92712 457.819512 453.409216 0.002160167
5.63776 463.49213 457.985135 453.687772 0.002157534
5.64656 463.50653 458.168541 453.968924 0.002157467
5.65536 463.21313 458.368773 454.252702 0.002158833
5.66416 463.64758 458.58505 454.539088 0.002156811
5.67297 464.03195 458.816807 454.828116 0.002155024
5.68177 464.0145 459.063625 455.119765 0.002155105
5.69057 463.96085 459.325291 455.414064 0.002155354
5.69937 464.32928 459.601747 455.71103 0.002153644
5.70817 464.56509 459.893094 456.010641 0.002152551
5.71698 465.24792 460.199648 456.312921 0.002149392
5.72578 466.66171 460.521941 456.617895 0.00214288
5.73458 466.64444 460.860675 456.925529 0.002142959
5.74338 465.60809 461.216876 457.235867 0.002147729
5.75219 465.06201 461.591836 457.548877 0.002150251
5.76099 465.88162 461.987265 457.864585 0.002146468
5.76979 466.08655 462.405309 458.183006 0.002145524
5.77859 466.78918 462.848646 458.504111 0.002142295
5.78739 467.52438 463.320747 458.827938 0.002138926
5.79620 468.33551 463.825909 459.154458 0.002135221
5.80500 468.78015 464.369632 459.483683 0.002133196
5.81380 469.36572 464.959013 459.815636 0.002130535
5.82260 469.48743 465.603183 460.150285 0.002129982
5.83140 469.80438 466.314126 460.487642 0.002128546
5.84021 470.14044 467.108172 460.827728 0.002127024
5.84901 470.95856 468.008671 461.17051 0.002123329
5.85781 471.19543 469.0524 461.516017 0.002122262
5.86661 471.96909 470.304162 461.864212 0.002118783
5.87541 473.02847 471.893666 462.215112 0.002114038
5.88422 474.44708 474.055046 462.56874 0.002107717
5.89302 475.55737 477.246307 462.925043 0.002102796
5.90182 477.54623 482.228033 463.284064 0.002094038
5.91062 481.44672 490.096437 463.645762 0.002077073
5.91943 487.98959 502.138087 464.010143 0.002049224
5.92823 499.79892 519.411021 464.377229 0.002000805
5.93703 520.50323 542.071347 464.746973 0.001921218
5.94583 552.55066 568.56662 465.119393 0.001809789
5.95463 596.16296 594.700825 465.494496 0.001677394
5.96344 630.17175 613.071237 465.872239 0.001586869
5.97224 637.19006 615.819089 466.252655 0.00156939
5.98104 611.31305 601.711774 466.635699 0.001635823
5.98984 573.76489 577.567796 467.021376 0.001742874
5.99864 539.02905 551.406451 467.409704 0.001855188
6.00745 516.15613 528.274575 467.800634 0.001937398
6.01625 502.9234 510.32338 468.194193 0.001988374
6.02505 496.62927 497.764242 468.590331 0.002013574
6.03385 492.07544 489.702906 468.989065 0.002032209
6.04266 489.0509 484.861297 469.390397 0.002044777
6.05146 486.49673 482.068858 469.794276 0.002055512
6.06026 483.97034 480.474611 470.200713 0.002066242
6.06906 482.27457 479.553214 470.609725 0.002073508
6.07786 482.30261 479.015894 471.021244 0.002073387
6.08667 481.59579 478.713948 471.435308 0.00207643
6.09547 480.52246 478.571239 471.851858 0.002081068
6.10427 480.15543 478.54602 472.270908 0.002082659
6.11307 480.30914 478.612859 472.69246 0.002081992
6.12187 480.77399 478.754745 473.116456 0.002079979
6.13068 480.79257 478.959636 473.542931 0.002079899
6.13948 481.1189 479.218856 473.971825 0.002078488
6.14828 481.95398 479.526277 474.403138 0.002074887
6.15708 482.79108 479.87929 474.836884 0.002071289
6.16589 482.92184 480.272525 475.273003 0.002070728
6.17469 483.05997 480.706655 475.711494 0.002070136
6.18349 483.52432 481.188177 476.15237 0.002068148
6.19229 484.30444 481.708129 476.595568 0.002064817
6.20109 485.02707 482.276659 477.041113 0.002061741
6.20990 485.7272 482.900274 477.48894 0.002058769
6.21870 485.96271 483.591431 477.939058 0.002057771
6.22750 486.34186 484.368368 478.391479 0.002056167
6.23630 487.7565 485.265151 478.846123 0.002050203
6.24510 489.82944 486.348216 479.303001 0.002041527
6.25391 491.13388 487.747383 479.762126 0.002036105
6.26271 493.04745 489.701982 480.223417 0.002028202
6.27151 496.62445 492.609949 480.68691 0.002013594
6.28031 501.32285 497.066191 481.152533 0.001994723
6.28911 507.47763 503.671443 481.620298 0.00197053
6.29792 514.99585 512.97885 482.090199 0.001941763
6.30672 525.80267 525.037352 482.562169 0.001901854
6.31552 542.69543 539.000777 483.036238 0.001842654
6.32432 562.25189 552.626937 483.512339 0.001778562
6.33313 580.2254 562.003043 483.990464 0.001723468
6.34193 585.61688 563.137203 484.470625 0.001707601
6.35073 572.95325 555.683806 484.95275 0.001745343
6.35953 549.85498 543.346857 485.436834 0.001818661
6.36833 527.20691 530.219097 485.922886 0.001896788
6.37714 512.10059 518.772173 486.410834 0.001952741
6.38594 503.03909 510.020442 486.900699 0.001987917
6.39474 498.77396 504.038026 487.392408 0.002004916
6.40354 497.18289 500.2945 487.885965 0.002011332
6.41234 495.97601 498.159526 488.381379 0.002016227
6.42115 494.93713 497.044989 488.87856 0.002020459
6.42995 493.73779 496.527748 489.377545 0.002025367
6.43875 493.76578 496.348069 489.878253 0.002025252
6.44755 494.03473 496.363088 490.380693 0.002024149
6.45636 495.03915 496.498917 490.884857 0.002020042
6.46516 495.25708 496.721378 491.39067 0.002019153
6.47396 495.20627 497.000568 491.89814 0.002019361
6.48276 495.86453 497.327298 492.407259 0.00201668
6.49156 496.08713 497.692321 492.91795 0.002015775
6.50037 496.62866 498.088922 493.430244 0.002013577
6.50917 496.57364 498.511965 493.944065 0.0020138
6.51797 497.01825 498.957548 494.459402 0.002011999
6.52677 497.78156 499.422659 494.976265 0.002008913
6.53557 498.21744 499.904898 495.494574 0.002007156
6.54438 498.1315 500.402649 496.014351 0.002007502
6.55318 498.16037 500.91407 496.535516 0.002007386
6.56198 499.22467 501.43827 497.058071 0.002003106
6.57078 500.20221 501.974476 497.582025 0.001999191
6.57958 500.94394 502.522033 498.10728 0.001996231
6.58839 501.5625 503.080583 498.633844 0.001993769
6.59719 501.20139 503.649958 499.16172 0.001995206
6.60599 501.12997 504.230078 499.690827 0.00199549
6.61479 501.30847 504.821112 500.221185 0.00199478
6.62360 501.9101 505.423309 500.752713 0.001992389
6.63240 502.04971 506.037185 501.285419 0.001991835
6.64120 502.90384 506.663415 501.819294 0.001988452
6.65000 503.7048 507.302816 502.354255 0.00198529
6.65880 504.86475 507.956577 502.890335 0.001980729
6.66761 505.08249 508.626062 503.427452 0.001979875
6.67641 505.29327 509.313035 503.965595 0.001979049
6.68521 506.1582 510.019733 504.504774 0.001975667
6.69401 506.80844 510.751656 505.044905 0.001973132
6.70281 507.42435 511.506541 505.585978 0.001970737
6.71162 508.17722 512.291503 506.128003 0.001967817
6.72042 508.9332 513.111874 506.670894 0.001964894
6.72922 508.85123 513.974371 507.214675 0.001965211
6.73802 509.07901 514.887655 507.759259 0.001964332
6.74682 509.57883 515.86309 508.304651 0.001962405
6.75563 510.95514 516.915828 508.850859 0.001957119
6.76443 512.56958 518.06676 509.39778 0.001950955
6.77323 513.35809 519.347644 509.945422 0.001947958
6.78203 514.39374 520.811647 510.49379 0.001944036
6.79084 515.88647 522.55638 511.042798 0.001938411
6.79964 517.65717 524.769908 511.592467 0.00193178
6.80844 519.77338 527.803194 512.142713 0.001923915
6.81724 522.75574 532.263805 512.693546 0.001912939
6.82604 526.88623 539.058729 513.244955 0.001897943
6.83485 534.3288 549.343668 513.796856 0.001871507
6.84365 546.21924 564.226553 514.349284 0.001830767
6.85245 564.8371 584.236835 514.902153 0.001770422
6.86125 595.23175 608.627563 515.455454 0.001680018
6.87005 633.76044 634.506408 516.009196 0.001577883
6.87886 674.33429 655.916206 516.563296 0.001482944
6.88766 698.40289 664.812865 517.117743 0.001431838
6.89646 693.31476 656.984563 517.672547 0.001442346
6.90526 661.65576 636.759628 518.227617 0.00151136
6.91407 625.29858 612.183553 518.782995 0.001599236
6.92287 592.00031 589.162791 519.338577 0.001689188
6.93167 571.76654 570.550176 519.894373 0.001748966
6.94047 559.59796 557.067477 520.450387 0.001786997
6.94927 549.90179 548.171916 521.006534 0.001818507
6.95808 544.57043 542.752285 521.562837 0.00183631
6.96688 538.86609 539.659049 522.119212 0.001855749
6.97568 535.55536 537.984362 522.67567 0.001867221
6.98448 533.52954 537.129632 523.232201 0.00187431
6.99328 531.06622 536.748215 523.788722 0.001883004
7.00209 529.77698 536.655555 524.345244 0.001887587
7.01089 529.07318 536.756542 524.901758 0.001890098
7.01969 529.1001 537.000669 525.458181 0.001890002
7.02849 530.09558 537.359012 526.014549 0.001886452
7.03729 531.45819 537.813753 526.570778 0.001881616
7.04610 532.25726 538.353775 527.126861 0.001878791
7.05490 532.84241 538.972874 527.68281 0.001876727
7.06370 533.06006 539.670051 528.23854 0.001875961
7.07250 533.6167 540.446146 528.794077 0.001874004
7.08131 534.86401 541.31187 529.349337 0.001869634
7.09011 537.14136 542.289389 529.904327 0.001861707
7.09891 539.3429 543.424751 530.459057 0.001854108
7.10771 540.91895 544.807067 531.013427 0.001848706
7.11651 543.07837 546.596304 531.56745 0.001841355
7.12532 546.00482 549.039596 532.12113 0.001831486
7.13412 549.72748 552.477681 532.674387 0.001819083
7.14292 552.75159 557.250429 533.227246 0.001809131
7.15172 556.26099 563.597076 533.779624 0.001797717
7.16052 559.42651 571.436602 534.331536 0.001787545
7.16933 562.13239 580.128434 534.882975 0.00177894
7.17813 564.69598 588.185061 535.43386 0.001770864
7.18693 566.50433 593.212558 535.984231 0.001765212
7.19573 569.04895 593.312209 536.534006 0.001757318
7.20453 569.98822 589.004167 537.08318 0.001754422
7.21334 570.36707 582.653748 537.631768 0.001753257
7.22214 568.35712 576.355243 538.179689 0.001759457
7.23094 567.30383 571.273267 538.726939 0.001762724
7.23974 566.68127 567.819108 539.273531 0.00176466
7.24855 565.62775 565.94532 539.819382 0.001767947
7.25735 565.0509 565.370324 540.364537 0.001769752
7.26615 564.27637 565.759912 540.908897 0.001772181
7.27495 563.84491 566.827052 541.45248 0.001773537
7.28375 563.22351 568.389931 541.995292 0.001775494
7.29256 564.43982 570.355273 542.537256 0.001771668
7.30136 566.64453 572.698536 543.07837 0.001764775
7.31016 569.90277 575.447177 543.618649 0.001754685
7.31896 574.41681 578.650484 544.158015 0.001740896
7.32777 580.09479 582.407357 544.696498 0.001723856
7.33657 587.5777 586.858961 545.23402 0.001701903
7.34537 597.32837 592.229037 545.770598 0.001674121
7.35417 609.78113 598.903416 546.30623 0.001639933
7.36297 627.26208 607.5968 546.840841 0.00159423
7.37178 648.68164 619.666707 547.374471 0.001541588
7.38058 675.9693 637.577641 547.907046 0.001479357
7.38938 712.34149 665.420068 548.438564 0.001403821
7.39818 756.14795 709.123302 548.969044 0.001322493
7.40698 817.51147 775.799633 549.49841 0.001223224
7.41579 889.68768 871.782192 550.026662 0.00112399
7.42459 975.67493 999.292465 550.553818 0.001024932
7.43339 1089.3064 1152.062635 551.0798 0.000918015
7.44219 1219.3184 1309.868505 551.604654 0.00082013
7.45099 1351.7657 1433.166838 552.128292 0.000739773
7.45980 1409.3467 1472.62968 552.650731 0.000709549
7.46860 1388.29 1408.569632 553.171984 0.000720311
7.47740 1284.2511 1273.209881 553.69198 0.000778664
7.48620 1194.392 1116.011542 554.210749 0.000837246
7.49501 1088.856 971.134315 554.728222 0.000918395
7.50381 990.62299 854.378404 555.244417 0.001009466
7.51261 892.28015 769.234471 555.759337 0.001120724
7.52141 807.8161 711.980941 556.272911 0.001237906
7.53021 741.73541 675.805392 556.78516 0.00134819
7.53902 693.41687 653.799247 557.296085 0.001442134
7.54782 662.72443 640.532915 557.80562 0.001508923
7.55662 640.50568 632.42056 558.313806 0.001561266
7.56542 626.44641 627.375758 558.820578 0.001596306
7.57422 617.25623 624.286369 559.325937 0.001620073
7.58303 611.80792 622.585587 559.829906 0.0016345
7.59183 609.60083 621.988179 560.332411 0.001640418
7.60063 607.74451 622.354713 560.833502 0.001645428
7.60943 607.38855 623.632152 561.333098 0.001646393
7.61823 607.98981 625.837797 561.83122 0.001644764
7.62704 610.29156 629.074395 562.327883 0.001638561
7.63584 614.51855 633.580127 562.823023 0.00162729
7.64464 620.85266 639.843985 563.316645 0.001610688
7.65344 629.91522 648.798983 563.80877 0.001587515
7.66225 642.698 662.083323 564.299337 0.001555941
7.67105 659.51849 682.278458 564.788378 0.001516258
7.67985 683.06207 712.883846 565.275833 0.001463996
7.68865 716.74805 757.793046 565.761722 0.00139519
7.69745 765.13812 820.077545 566.246053 0.001306954
7.70626 834.04071 900.245746 566.728765 0.001198982
7.71506 928.12537 994.006859 567.209902 0.001077441
7.72386 1050.1498 1089.284855 567.689405 0.000952245
7.73266 1177.9955 1164.771173 568.167282 0.0008489
7.74146 1266.2098 1200.04002 568.643555 0.000789759
7.75027 1259.1556 1196.310421 569.118166 0.000794183
7.75907 1194.97 1175.508999 569.591123 0.000836841
7.76787 1120.2179 1156.782117 570.062449 0.000892683
7.77667 1087.5687 1143.302892 570.532082 0.000919482
7.78548 1091.6401 1123.702321 571.000072 0.000916053
7.79428 1102.6648 1085.094342 571.466349 0.000906894
7.80308 1087.809 1029.393362 571.930936 0.000919279
7.81188 1038.1228 970.582533 572.393853 0.000963277
7.82068 975.19598 921.363279 572.855044 0.001025435
7.82949 930.96429 888.991045 573.31452 0.001074155
7.83829 905.6662 877.516042 573.772304 0.00110416
7.84709 915.03339 890.665121 574.228344 0.001092856
7.85589 957.68707 934.793669 574.682675 0.001044182
7.86469 1055.6995 1021.480499 575.135245 0.000947239
7.87350 1231.0776 1168.677737 575.586079 0.000812296
7.88230 1510.4421 1398.512916 576.035188 0.000662058
7.89110 1903.16 1730.400656 576.48252 0.000525442
7.89990 2286.3679 2170.003494 576.928122 0.000437375
7.90870 2814.4902 2694.603635 577.371944 0.000355304
7.91751 3241.3013 3234.667257 577.813996 0.000308518
7.92631 3696.1472 3656.171359 578.254306 0.000270552
7.93511 3827.541 3792.891739 578.692818 0.000261264
7.94391 3637.4541 3577.976441 579.129561 0.000274918
7.95272 3013.6321 3118.829284 579.564545 0.000331826
7.96152 2443.999 2584.365858 579.997723 0.000409165
7.97032 1922.5267 2094.408288 580.429142 0.000520149
7.97912 1594.9052 1707.955375 580.858756 0.000626997
7.98792 1366.6836 1442.282926 581.286576 0.000731698
7.99673 1225.4424 1289.070929 581.71263 0.000816032
8.00553 1161.4296 1225.990701 582.136898 0.000861008
8.01433 1138.1621 1224.257803 582.55932 0.000878609
8.02313 1166.5392 1251.165366 582.979995 0.000857237
8.03193 1204.889 1270.007908 583.398875 0.000829952
8.04074 1238.5215 1248.946257 583.815918 0.000807414
8.04954 1232.8922 1181.378485 584.231207 0.000811101
8.05834 1159.7366 1087.180936 584.644699 0.000862265
8.06714 1054.8201 990.206508 585.056354 0.000948029
8.07594 945.43384 905.259134 585.466255 0.001057715
8.08475 854.23505 838.588214 585.874361 0.001170638
8.09355 793.84894 791.000108 586.280632 0.001259686
8.10235 751.72406 760.451766 586.685151 0.001330275
8.11115 726.78674 744.22495 587.087878 0.001375919
8.11996 714.38995 740.545321 587.488816 0.001399796
8.12876 712.26563 749.440906 587.887924 0.001403971
8.13756 723.93634 772.71213 588.285286 0.001381337
8.14636 752.3349 812.967509 588.680865 0.001329195
8.15516 802.50513 871.907386 589.074622 0.001246098
8.16397 879.16223 948.120549 589.46664 0.001137446
8.17277 973.68591 1034.297691 589.856883 0.001027025
8.18157 1077.553 1113.91174 590.245313 0.000928029
8.19037 1152.4727 1160.807572 590.632014 0.0008677
8.19917 1163.9232 1152.564056 591.016949 0.000859163
8.20798 1109.5133 1092.203395 591.400078 0.000901296
8.21678 1010.0153 1004.443628 591.781499 0.000990084
8.22558 918.5072 913.541482 592.161161 0.001088723
8.23438 841.99084 833.755687 592.539074 0.001187661
8.24319 787.9552 770.882285 592.915201 0.001269108
8.25199 749.92633 725.221708 593.289635 0.001333464
8.26079 721.05548 694.066808 593.662331 0.001386856
8.26959 699.3186 673.611659 594.033256 0.001429963
8.27839 680.6062 660.278721 594.4025 0.001469278
8.28720 665.48022 651.361046 594.77003 0.001502674
8.29600 653.74683 645.083767 595.135804 0.001529644
8.30480 644.71002 640.398152 595.499913 0.001551085
8.31360 638.66998 636.725184 595.862324 0.001565754
8.32240 634.30157 633.746987 596.223005 0.001576537
8.33121 630.3526 631.280566 596.582038 0.001586414
8.34001 627.89362 629.211241 596.939392 0.001592626
8.34881 625.80634 627.460242 597.295075 0.001597938
8.35761 624.72241 625.96977 597.649057 0.001600711
8.36641 623.12946 624.694983 598.001418 0.001604803
8.37522 622.45172 623.601209 598.352131 0.00160655
8.38402 621.51636 622.660608 598.701167 0.001608968
8.39282 621.15753 621.855902 599.048605 0.001609898
8.40162 621.65283 621.158337 599.394419 0.001608615
8.41043 622.21588 620.558122 599.738581 0.001607159
8.41923 623.0285 620.04276 600.08117 0.001605063
8.42803 623.32568 619.604328 600.422161 0.001604298
8.43683 623.07928 619.229084 600.761527 0.001604932
8.44563 623.14325 618.912041 601.099346 0.001604767
8.45444 623.21942 618.646936 601.435594 0.001604571
8.46324 623.84808 618.42833 601.77028 0.001602954
8.47204 624.88507 618.251559 602.103379 0.001600294
8.48084 625.71216 618.112612 602.434969 0.001598179
8.48964 625.64404 618.007978 602.765026 0.001598353
8.49845 626.18073 617.934648 603.093527 0.001596983
8.50725 626.34821 617.894421 603.420549 0.001596556
8.51605 626.2298 617.876079 603.746068 0.001596858
8.52485 626.39331 617.882325 604.070063 0.001596441
8.53366 626.71014 617.927565 604.39261 0.001595634
8.54246 627.07623 617.977187 604.713687 0.001594702
8.55126 627.38361 618.04653 605.033268 0.001593921
8.56006 627.44604 618.134484 605.35144 0.001593763
8.56886 627.14777 618.240117 605.668173 0.001594521
8.57767 626.15247 618.362685 605.983479 0.001597055
8.58647 625.51013 618.501612 606.297336 0.001598695
8.59527 624.71185 618.656585 606.60983 0.001600738
8.60407 624.59094 618.827469 606.92093 0.001601048
8.61287 624.72833 619.014475 607.230615 0.001600696
8.62168 624.76331 619.218341 607.538969 0.001600606
8.63048 624.75659 619.440651 607.845972 0.001600623
8.63928 625.09015 619.684633 608.151595 0.001599769
8.64808 625.94501 619.956715 608.455922 0.001597584
8.65689 626.36359 620.26858 608.758931 0.001596517
8.66569 627.28851 620.63991 609.060605 0.001594163
8.67449 627.0246 621.10039 609.361017 0.001594834
8.68329 627.92389 621.688175 609.66015 0.00159255
8.69209 629.24237 622.443064 609.958016 0.001589213
8.70090 630.29443 623.392466 610.254599 0.00158656
8.70970 631.60651 624.532242 610.549971 0.001583264
8.71850 632.37756 625.800881 610.844117 0.001581334
8.72730 633.7406 627.046841 611.137018 0.001577933
8.73610 635.82758 628.010431 611.428749 0.001572753
8.74491 637.6687 628.421615 611.719293 0.001568212
8.75371 637.95819 628.225123 612.008633 0.001567501
8.76251 636.32892 627.649798 612.296844 0.001571514
8.77131 633.86981 626.977745 612.583909 0.001577611
8.78011 632.01428 626.397573 612.869812 0.001582243
8.78892 630.83643 625.996059 613.154625 0.001585197
8.79772 630.04681 625.793498 613.438335 0.001587184
8.80652 629.64319 625.772553 613.720954 0.001588201
8.81532 629.10205 625.89159 614.002468 0.001589567
8.82413 629.36603 626.113135 614.282949 0.001588901
8.83293 629.03827 626.405199 614.562382 0.001589728
8.84173 629.20056 626.744071 614.840753 0.001589318
8.85053 629.19836 627.116625 615.118134 0.001589324
8.85933 629.13495 627.515342 615.394509 0.001589484
8.86814 629.09283 627.936523 615.669867 0.001589591
8.87694 629.59113 628.378131 615.944277 0.001588332
8.88574 630.32739 628.839788 616.217726 0.001586477
8.89454 631.19067 629.321469 616.490197 0.001584307
8.90334 631.20148 629.825036 616.761771 0.00158428
8.91215 630.61316 630.34854 617.032424 0.001585758
8.92095 630.9068 630.894283 617.302176 0.00158502
8.92975 632.09149 631.463415 617.571009 0.001582049
8.93855 633.54706 632.059516 617.839003 0.001578415
8.94736 634.05542 632.680289 618.106137 0.001577149
8.95616 634.7179 633.32958 618.372397 0.001575503
8.96496 636.19678 634.009784 618.63786 0.001571841
8.97376 637.62109 634.723386 618.902513 0.00156833
8.98256 638.61353 635.473169 619.166336 0.001565892
8.99137 639.55243 636.262588 619.429405 0.001563593
9.00017 640.53827 637.09527 619.691707 0.001561187
9.00897 640.76508 637.975305 619.953229 0.001560634
9.01777 641.04163 638.907676 620.21404 0.001559961
9.02657 641.73749 639.898146 620.474128 0.00155827
9.03538 642.763 640.952058 620.733509 0.001555783
9.04418 643.17871 642.076796 620.992172 0.001554778
9.05298 643.23688 643.280753 621.250183 0.001554637
9.06178 643.57593 644.574352 621.507533 0.001553818
9.07058 644.2254 645.965969 621.764209 0.001552252
9.07939 645.10681 647.46963 622.020279 0.001550131
9.08819 645.85168 649.099844 622.275733 0.001548343
9.09699 647.03015 650.876047 622.530559 0.001545523
9.10579 648.37903 652.813932 622.784825 0.001542308
9.11460 650.31812 654.939616 623.03852 0.001537709
9.12340 651.65369 657.281258 623.291632 0.001534557
9.13220 652.84967 659.873404 623.544229 0.001531746
9.14100 654.23969 662.756849 623.7963 0.001528492
9.14980 657.38232 665.982941 624.047835 0.001521185
9.15861 660.62122 669.608167 624.298899 0.001513727
9.16741 664.242 673.709479 624.549482 0.001505475
9.17621 668.56512 678.379224 624.799599 0.001495741
9.18501 674.29956 683.733329 625.04924 0.00148302
9.19381 680.72357 689.920141 625.29847 0.001469025
9.20262 689.17133 697.132879 625.547279 0.001451018
9.21142 699.75287 705.632553 625.795656 0.001429076
9.22022 712.60028 715.794109 626.043668 0.001403311
9.22902 729.32544 728.202086 626.291303 0.00137113
9.23782 749.37061 743.828803 626.538548 0.001334453
9.24663 775.74115 764.382365 626.785477 0.00128909
9.25543 810.89343 792.827871 627.032071 0.001233208
9.26423 857.4118 834.130209 627.278319 0.001166301
9.27303 919.13702 895.968445 627.524292 0.001087977
9.28184 1006.0214 988.999773 627.76998 0.000994015
9.29064 1124.1417 1125.98343 628.015391 0.000889568
9.29944 1284.0903 1319.134817 628.260515 0.000778761
9.30824 1496.4036 1575.496613 628.505421 0.000668269
9.31704 1754.5951 1890.299352 628.7501 0.000569932
9.32585 2066.2 2238.775142 628.994532 0.00048398
9.33465 2401.4167 2568.868127 629.238789 0.000416421
9.34345 2740.2107 2802.368897 629.482859 0.000364935
9.35225 2973.5005 2859.193591 629.72673 0.000336304
9.36105 2979.0505 2711.398162 629.970467 0.000335677
9.36986 2714.8044 2414.5017 630.214057 0.000368351
9.37866 2263.3157 2060.814628 630.457492 0.00044183
9.38746 1813.3995 1721.585692 630.700833 0.00055145
9.39626 1445.9462 1434.204526 630.94407 0.000691589
9.40507 1187.392 1211.112811 631.187217 0.000842182
9.41387 1016.9971 1049.545299 631.430263 0.000983287
9.42267 908.01013 938.659035 631.67327 0.001101309
9.43147 834.69055 865.152295 631.916228 0.001198049
9.44027 784.86835 816.892476 632.159126 0.001274099
9.44908 751.19202 784.590358 632.402025 0.001331218
9.45788 726.81763 762.059104 632.644915 0.001375861
9.46668 709.08374 745.516195 632.887784 0.001410271
9.47548 696.43921 732.797982 633.130695 0.001435876
9.48428 687.62042 722.680785 633.373636 0.001454291
9.49309 680.74774 714.463366 633.616594 0.001468973
9.50189 674.96478 707.705132 633.859634 0.001481559
9.51069 670.54584 702.112903 634.102742 0.001491322
9.51949 667.27533 697.471549 634.345931 0.001498632
9.52829 664.46399 693.622387 634.58919 0.001504972
9.53710 662.64258 690.441392 634.832579 0.001509109
9.54590 661.60327 687.833768 635.076087 0.00151148
9.55470 660.05566 685.727429 635.319702 0.001515024
9.56350 658.84729 684.062095 635.563484 0.001517802
9.57231 659.17627 682.796239 635.807422 0.001517045
9.58111 660.49445 681.897019 636.0515 0.001514017
9.58991 660.3905 681.34392 636.295787 0.001514256
9.59871 660.03931 681.125114 636.540263 0.001515061
9.60751 660.64795 681.237661 636.784914 0.001513665
9.61632 662.58942 681.688067 637.029807 0.00150923
9.62512 664.47784 682.493651 637.274929 0.001504941
9.63392 667.00763 683.68474 637.520285 0.001499233
9.64272 669.91516 685.308356 637.765862 0.001492726
9.65152 673.3479 687.434438 638.011726 0.001485116
9.66033 677.65265 690.162128 638.257864 0.001475682
9.66913 683.45935 693.628777 638.504254 0.001463145
9.67793 691.02216 698.028458 638.750963 0.001447132
9.68673 699.21387 703.639451 638.997977 0.001430178
9.69553 709.77209 710.890828 639.245279 0.001408903
9.70434 724.55334 720.488752 639.49293 0.001380161
9.71314 743.60187 733.604061 639.740917 0.001344806
9.72194 768.25885 752.114422 639.989223 0.001301645
9.73074 800.67969 778.851138 640.23791 0.001248939
9.73955 838.47888 817.721596 640.486963 0.001192636
9.74835 887.69458 873.428243 640.73639 0.001126514
9.75715 946.28864 950.281759 640.986177 0.00105676
9.76595 1021.8214 1050.29449 641.236385 0.000978645
9.77475 1122.2598 1170.793366 641.486996 0.000891059
9.78356 1243.1598 1301.61956 641.737996 0.000804402
9.79236 1378.8251 1421.78649 641.989445 0.000725255
9.80116 1495.1998 1499.662677 642.241325 0.000668807
9.80996 1562.4171 1507.977858 642.493621 0.000640034
9.81876 1541.5022 1448.086078 642.746394 0.000648718
9.82757 1461.9816 1350.1037 642.999625 0.000684003
9.83637 1351.3807 1248.61833 643.253298 0.000739984
9.84517 1248.6748 1167.305689 643.507473 0.000800849
9.85397 1170.4363 1117.866281 643.762133 0.000854382
9.86278 1124.3448 1102.465669 644.017286 0.000889407
9.87158 1101.3789 1115.214955 644.272914 0.000907953
9.88038 1098.7732 1142.599238 644.529077 0.000910106
9.88918 1089.9545 1164.383427 644.785758 0.000917469
9.89798 1076.9714 1159.908596 645.042937 0.00092853
9.90679 1042.7043 1121.181751 645.300675 0.000959045
9.91559 999.39648 1057.746679 645.558953 0.001000604
9.92439 949.23553 985.792632 645.817749 0.001053479
9.93319 898.841 917.65255 646.077133 0.001112544
9.94199 855.69684 859.9371 646.337075 0.001168638
9.95080 825.65283 815.0253 646.597557 0.001211163
9.95960 811.87213 782.596504 646.858644 0.001231721
9.96840 811.00885 760.879324 647.120317 0.001233032
9.97720 818.82617 747.629869 647.382576 0.00122126
9.98600 831.64624 740.897694 647.6454 0.001202434
9.99481 858.66681 739.496594 647.908857 0.001164596
10.00361 897.64514 743.250874 648.172933 0.001114026
10.01241 938.93872 753.072371 648.43757 0.001065032
10.02121 970.53174 770.927054 648.702887 0.001030363
10.03002 1000.8444 799.555559 648.9688 0.000999156
10.03882 1030.5424 841.881315 649.235314 0.000970363
10.04762 1069.9069 900.063217 649.502525 0.000934661
10.05642 1106.8831 974.117998 649.770349 0.000903438
10.06522 1152.3984 1060.369128 650.038821 0.000867755
10.07403 1178.1079 1149.314954 650.307946 0.000848819
10.08283 1197.9608 1223.559926 650.577759 0.000834752
10.09163 1211.0146 1260.215428 650.848204 0.000825754
10.10043 1182.6649 1244.23083 651.119286 0.000845548
10.10923 1148.9886 1181.974544 651.391102 0.000870331
10.11804 1088.8899 1095.07311 651.663563 0.000918366
10.12684 1004.1843 1004.14767 651.936705 0.000995833
10.13564 919.11078 921.953881 652.210533 0.001088008
10.14444 846.7439 854.371832 652.48508 0.001180995
10.15325 795.01111 802.722618 652.760258 0.001257844
10.16205 759.50122 765.499443 653.036164 0.001316654
10.17085 733.78503 739.833283 653.312802 0.001362797
10.17965 715.66278 722.587592 653.590081 0.001397306
10.18845 703.08063 710.999622 653.86813 0.001422312
10.19726 693.73065 703.034459 654.146859 0.001441482
10.20606 686.80865 697.324014 654.426333 0.00145601
10.21486 681.86841 693.032033 654.706459 0.001466559
10.22366 678.53082 689.66847 654.987338 0.001473772
10.23246 676.30597 686.952934 655.26897 0.001478621
10.24127 675.03235 684.716883 655.551263 0.00148141
10.25007 674.18915 682.857198 655.834348 0.001483263
10.25887 672.99756 681.294671 656.118131 0.001485889
10.26767 672.40955 679.978799 656.402645 0.001487189
10.27647 672.02301 678.867983 656.687893 0.001488044
10.28528 672.57288 677.930066 656.973877 0.001486828
10.29408 672.67401 677.140198 657.260598 0.001486604
10.30288 672.04401 676.476154 657.548059 0.001487998
10.31168 672.28424 675.919441 657.836293 0.001487466
10.32048 672.38605 675.457506 658.125204 0.001487241
10.32929 671.54169 675.078703 658.414925 0.001489111
10.33809 671.42102 674.773519 658.705357 0.001489378
10.34689 672.24194 674.534072 658.996535 0.00148756
10.35569 672.66022 674.354073 659.28846 0.001486635
10.36450 672.22321 674.227542 659.581132 0.001487601
10.37330 671.82782 674.150304 659.874586 0.001488477
10.38210 671.93243 674.118669 660.168722 0.001488245
10.39090 671.94684 674.129776 660.463674 0.001488213
10.39971 672.36444 674.181296 660.759342 0.001487289
10.40851 672.44061 674.271807 661.055726 0.00148712
10.41731 672.55219 674.399875 661.352927 0.001486873
10.42611 673.26215 674.5651 661.650843 0.001485306
10.43491 674.26703 674.767975 661.94951 0.001483092
10.44371 675.27997 675.00838 662.248925 0.001480867
10.45252 675.90314 675.288132 662.549123 0.001479502
10.46132 676.00104 675.609181 662.850036 0.001479288
10.47012 676.61871 675.974758 663.151661 0.001477937
10.47892 677.651 676.388654 663.454102 0.001475686
10.48773 679.13312 676.856207 663.757254 0.001472465
10.49653 680.64429 677.384596 664.061152 0.001469196
10.50533 682.94568 677.982977 664.365793 0.001464245
10.51413 685.66522 678.66397 664.671176 0.001458438
10.52293 689.95905 679.44503 664.977301 0.001449361
10.53174 694.68298 680.352304 665.284165 0.001439506
10.54054 699.59393 681.429477 665.591803 0.001429401
10.54934 705.36499 682.743621 665.900107 0.001417706
10.55814 711.93542 684.418045 666.209216 0.001404622
10.56695 720.68359 686.655044 666.519023 0.001387571
10.57575 730.60742 689.774853 666.829561 0.001368724
10.58455 742.30353 694.247773 667.140827 0.001347158
10.59335 754.62952 700.689132 667.45282 0.001325154
10.60215 767.78424 709.802629 667.765573 0.001302449
10.61096 777.08118 722.227214 668.078976 0.001286867
10.61976 783.44147 738.32016 668.39317 0.00127642
10.62856 788.06592 757.864868 668.708046 0.001268929
10.63736 791.96826 779.735176 669.023635 0.001262677
10.64616 795.02234 801.414873 669.339935 0.001257826
10.65497 796.88611 818.682682 669.656944 0.001254884
10.66377 795.47064 826.556561 669.974658 0.001257117
10.67257 789.138 822.377271 670.293075 0.001267205
10.68137 778.37427 808.164343 670.612226 0.001284729
10.69017 763.71057 788.765457 670.932037 0.001309397
10.69898 748.64038 768.515444 671.252541 0.001335755
10.70778 735.14069 750.005196 671.573734 0.001360284
10.71658 723.78101 734.361563 671.895611 0.001381633
10.72538 714.91132 721.852633 672.218171 0.001398775
10.73419 707.38959 712.329135 672.541409 0.001413648
10.74299 701.06519 705.393651 672.865357 0.001426401
10.75179 696.46643 700.524736 673.189903 0.001435819
10.76059 694.03204 697.189793 673.515188 0.001440856
10.76939 691.71893 694.943956 673.841099 0.001445674
10.77820 690.15076 693.454667 674.16763 0.001448959
10.78700 689.88647 692.488687 674.49489 0.001449514
10.79580 689.40015 691.889924 674.822762 0.001450536
10.80460 689.0799 691.553316 675.151317 0.001451211
10.81340 688.69702 691.409457 675.480437 0.001452017
10.82221 687.88489 691.412135 675.810231 0.001453732
10.83101 688.10852 691.530823 676.140694 0.001453259
10.83981 688.8551 691.745662 676.471709 0.001451684
10.84861 689.71777 692.043665 676.803421 0.001449868
10.85741 689.27301 692.416318 677.135713 0.001450804
10.86622 689.73438 692.858422 677.468617 0.001449833
10.87502 690.14093 693.368945 677.802129 0.001448979
10.88382 690.61279 693.943083 678.136243 0.001447989
10.89262 690.84656 694.583211 678.470954 0.001447499
10.90142 691.31512 695.29145 678.806257 0.001446518
10.91023 691.75079 696.071485 679.142185 0.001445607
10.91903 693.08612 696.928439 679.478657 0.001442822
10.92783 694.42499 697.86967 679.815705 0.00144004
10.93663 695.34454 698.90468 680.153323 0.001438136
10.94544 696.70764 700.046205 680.491507 0.001435322
10.95424 697.7854 701.311724 680.830251 0.001433105
10.96304 698.93695 702.725042 681.169549 0.001430744
10.97184 700.1347 704.322185 681.509434 0.001428297
10.98064 701.32501 706.157374 681.849784 0.001425872
10.98945 703.11017 708.316579 682.19075 0.001422252
10.99825 705.70392 710.93258 682.532207 0.001417025
11.00705 708.56738 714.207276 682.874191 0.001411298
11.01585 711.90521 718.434176 683.216694 0.001404681
11.02465 716.77832 724.013032 683.559711 0.001395131
11.03346 721.78076 731.457524 683.903274 0.001385462
11.04226 729.02771 741.361975 684.247261 0.00137169
11.05106 738.47028 754.347681 684.591822 0.001354151
11.05986 748.95972 770.916875 684.936833 0.001335185
11.06867 762.53516 791.204111 685.282328 0.001311415
11.07747 780.95135 814.684275 685.6283 0.001280489
11.08627 800.66119 839.939115 685.974743 0.001248968
11.09507 821.83386 864.957876 686.32165 0.001216791
11.10387 840.65125 887.618094 686.669016 0.001189554
11.11268 852.10052 905.277933 687.016874 0.00117357
11.12148 864.27429 914.167507 687.365098 0.00115704
11.13028 869.198 910.977697 687.713802 0.001150486
11.13908 869.01239 896.122342 688.062977 0.001150732
11.14789 866.63837 874.359051 688.41254 0.001153884
11.15669 857.43506 851.850204 688.762523 0.001166269
11.16549 849.26007 833.792978 689.112919 0.001177496
11.17429 845.47021 823.905678 689.463763 0.001182774
11.18309 844.13007 824.722355 689.814927 0.001184652
11.19190 855.55994 838.233298 690.166525 0.001168825
11.20070 881.09552 866.500211 690.51855 0.001134951
11.20950 926.68207 911.833305 690.870876 0.001079119
11.21830 996.19855 976.328627 691.223656 0.001003816
11.22710 1088.6686 1060.810788 691.576764 0.000918553
11.23591 1197.8837 1163.654168 691.930232 0.000834806
11.24471 1308.755 1279.02729 692.284055 0.000764085
11.25351 1425.3372 1394.926155 692.638226 0.000701588
11.26231 1533.573 1491.338163 692.992777 0.000652072
11.27111 1593.522 1543.336241 693.347582 0.000627541
11.27992 1562.3634 1533.912908 693.702796 0.000640056
11.28872 1456.8352 1467.530407 694.058289 0.000686419
11.29752 1300.2687 1366.333327 694.414097 0.000769072
11.30632 1150.6729 1254.62743 694.770212 0.000869057
11.31513 1027.2334 1149.668464 695.126628 0.000973489
11.32393 943.30945 1061.311602 695.483338 0.001060098
11.33273 894.9657 994.115823 695.840335 0.001117361
11.34153 871.51038 949.275899 696.197653 0.001147433
11.35033 867.03406 926.262269 696.555164 0.001153357
11.35914 875.54083 923.949605 696.913023 0.001142151
11.36794 898.0788 941.524825 697.271102 0.001113488
11.37674 936.14709 978.673152 697.629435 0.001068208
11.38554 996.38983 1035.183034 697.988015 0.001003623
11.39434 1081.2505 1109.879629 698.346835 0.000924855
11.40315 1191.5275 1199.305931 698.705929 0.000839259
11.41195 1313.9619 1296.752386 699.065169 0.000761057
11.42075 1439.516 1392.967371 699.424711 0.000694678
11.42955 1554.126 1476.352945 699.784426 0.000643448
11.43835 1627.3721 1531.912393 700.144307 0.000614488
11.44716 1628.9138 1543.004919 700.50447 0.000613906
11.45596 1543.0051 1501.864957 700.864786 0.000648086
11.46476 1415.6099 1418.317932 701.22529 0.000706409
11.47356 1276.5614 1313.473707 701.585975 0.000783354
11.48237 1169.4036 1207.22467 701.946875 0.000855137
11.49117 1083.9186 1112.738226 702.30786 0.000922579
11.49997 1022.0663 1036.704075 702.669048 0.00097841
11.50877 977.914 981.162522 703.030432 0.001022585
11.51757 951.20068 944.919272 703.391923 0.001051303
11.52638 929.44299 924.417557 703.753556 0.001075913
11.53518 916.52948 914.528461 704.115325 0.001091072
11.54398 907.26563 909.074631 704.477265 0.001102213
11.55278 893.04327 901.958072 704.839245 0.001119767
11.56158 883.79938 889.298748 705.201383 0.001131479
11.57039 867.18878 870.979368 705.563672 0.001153151
11.57919 847.35016 849.55148 705.925983 0.00118015
11.58799 826.72607 827.885755 706.288475 0.00120959
11.59679 806.00385 808.017866 706.651018 0.001240689
11.60559 787.55176 791.025719 707.013646 0.001269758
11.61440 774.41888 777.30289 707.376354 0.001291291
11.62320 765.3255 766.758822 707.739136 0.001306634
11.63200 758.5885 759.01271 708.102026 0.001318238
11.64080 752.47839 753.542975 708.464896 0.001328942
11.64961 748.13843 749.804431 708.827904 0.001336651
11.65841 745.34631 747.303974 709.190921 0.001341658
11.66721 743.04413 745.611991 709.553982 0.001345815
11.67601 741.71649 744.355956 709.917081 0.001348224
11.68481 740.56152 743.216575 710.280213 0.001350327
11.69362 739.6214 741.978439 710.643371 0.001352043
11.70242 737.70422 740.594212 711.006551 0.001355557
11.71122 735.77509 739.152668 711.369788 0.001359111
11.72002 734.08917 737.781229 711.732952 0.001362232
11.72883 732.84595 736.573377 712.096203 0.001364543
11.73763 731.90363 735.583606 712.459412 0.0013663
11.74643 731.48669 734.831088 712.822615 0.001367079
11.75523 731.66895 734.320982 713.185807 0.001366738
11.76403 732.34674 734.041131 713.548981 0.001365473
11.77284 732.32721 733.979318 713.912175 0.00136551
11.78164 732.51147 734.131892 714.275258 0.001365166
11.79044 733.58099 734.513341 714.638392 0.001363176
11.79924 734.89014 735.16829 715.001447 0.001360748
11.80804 737.06769 736.185147 715.364418 0.001356727
11.81685 739.99432 737.707785 715.727424 0.001351362
11.82565 743.59833 739.947001 716.090337 0.001344812
11.83445 747.86224 743.174738 716.453193 0.001337145
11.84325 752.91766 747.701811 716.815986 0.001328166
11.85206 759.5838 753.822042 717.178754 0.00131651
11.86086 766.21692 761.7325 717.541409 0.001305113
11.86966 774.48993 771.429262 717.903948 0.001291172
11.87846 783.13916 782.592284 718.266488 0.001276912
11.88726 794.02728 794.427996 718.628902 0.001259403
11.89607 805.41937 805.502293 718.991227 0.001241589
11.90487 816.21539 813.73523 719.353459 0.001225167
11.91367 822.91241 816.999524 719.715633 0.001215196
11.92247 822.75366 814.404817 720.077623 0.001215431
11.93127 815.04297 806.990368 720.439549 0.001226929
11.94008 804.02527 796.900368 720.801405 0.001243742
11.94888 791.27893 786.135038 721.163064 0.001263777
11.95768 778.91821 776.030663 721.524688 0.001283832
11.96648 769.89807 767.340039 721.886148 0.001298873
11.97528 762.66992 760.410548 722.247524 0.001311183
11.98409 756.96259 755.315351 722.608688 0.001321069
11.99289 754.60736 751.954089 722.96976 0.001325192
12.00169 754.04309 750.164193 723.330737 0.001326184
12.01049 754.2605 749.812413 723.691491 0.001325802
12.01929 754.8031 750.864483 724.052183 0.001324849
12.02810 757.64795 753.406557 724.412688 0.001319874
12.03690 761.70209 757.632157 724.773042 0.001312849
12.04570 766.62079 763.777868 725.133243 0.001304426
12.05450 770.50702 772.029598 725.493287 0.001297847
12.06330 776.71515 782.407368 725.853171 0.001287473
12.07211 784.58185 794.621457 726.212893 0.001274564
12.08091 792.39545 807.928342 726.57249 0.001261996
12.08971 801.95917 820.921065 726.931878 0.001246946
12.09851 811.27356 831.449534 727.291095 0.00123263
12.10732 817.63855 836.998185 727.650138 0.001223034
12.11612 818.7962 835.937992 728.009005 0.001221305
12.12492 816.73224 828.710015 728.367693 0.001224391
12.13372 808.44653 817.479821 728.7262 0.00123694
12.14252 801.91455 804.723162 729.084563 0.001247016
12.15133 793.20282 792.316043 729.442659 0.001260712
12.16013 787.82721 781.384844 729.800649 0.001269314
12.16893 780.4646 772.493213 730.158407 0.001281288
12.17773 777.16083 765.81016 730.515932 0.001286735
12.18653 771.96075 761.240796 730.873344 0.001295403
12.19534 770.25476 758.553224 731.23052 0.001298272
12.20414 767.50897 757.449152 731.587538 0.001302916
12.21294 767.23767 757.626421 731.944274 0.001303377
12.22174 766.46246 758.791187 732.300891 0.001304695
12.23055 768.43524 760.645973 732.657264 0.001301346
12.23935 770.61517 762.851944 733.013392 0.001297665
12.24815 774.68121 764.984206 733.369395 0.001290854
12.25695 779.17596 766.53293 733.72515 0.001283407
12.26575 783.05316 767.046578 734.080697 0.001277053
12.27456 783.62476 766.382714 734.436034 0.001276121
12.28336 780.72961 764.796466 734.7912 0.001280853
12.29216 774.9729 762.741983 735.146074 0.001290368
12.30096 770.39465 760.630076 735.500776 0.001298036
12.30977 766.4931 758.737125 735.855304 0.001304643
12.31857 763.62842 757.215011 736.209577 0.001309537
12.32737 760.51929 756.125355 736.563635 0.001314891
12.33617 758.66071 755.46687 736.917478 0.001318112
12.34497 757.82629 755.200691 737.271144 0.001319564
12.35378 757.78821 755.269609 737.624513 0.00131963
12.36258 758.30322 755.615896 737.977706 0.001318734
12.37138 759.59479 756.193273 738.330721 0.001316491
12.38018 760.71667 756.973547 738.683438 0.00131455
12.38898 761.64648 757.952043 739.036017 0.001312945
12.39779 763.49945 759.148262 739.388339 0.001309759
12.40659 765.54443 760.608776 739.740442 0.00130626
12.41539 767.61542 762.406482 740.092328 0.001302736
12.42419 770.38672 764.638128 740.443996 0.001298049
12.43299 773.32751 767.414768 740.795447 0.001293113
12.44180 775.75464 770.845769 741.146681 0.001289067
12.45060 778.9267 775.015436 741.497738 0.001283818
12.45940 783.33344 779.956288 741.848539 0.001276596
12.46820 787.82806 785.622841 742.199124 0.001269312
12.47701 792.25757 791.85784 742.549494 0.001262216
12.48581 797.84332 798.358201 742.89965 0.001253379
12.49461 805.17773 804.667597 743.249592 0.001241962
12.50341 813.47998 810.31654 743.599322 0.001229287
12.51221 821.52887 815.174931 743.94888 0.001217243
12.52102 828.78564 819.769477 744.298147 0.001206585
12.52982 837.09552 825.19933 744.647284 0.001194607
12.53862 845.85107 832.735256 744.996173 0.001182241
12.54742 857.26544 843.50968 745.344815 0.0011665
12.55622 872.92041 858.379382 745.693331 0.00114558
12.56503 890.07758 877.801949 746.041602 0.001123498
12.57383 911.98175 901.723467 746.38971 0.001096513
12.58263 938.36792 929.476198 746.737536 0.00106568
12.59143 965.19604 959.923554 747.085242 0.001036059
12.60023 992.77185 991.682878 747.43271 0.001007281
12.60904 1021.6661 1023.132204 747.779941 0.000978793
12.61784 1048.0654 1052.241799 748.127057 0.000954139
12.62664 1077.3601 1077.21842 748.47394 0.000928195
12.63544 1104.2979 1098.344489 748.820632 0.000905553
12.64424 1124.3907 1118.70719 749.167135 0.000889371
12.65305 1143.8875 1142.47832 749.513491 0.000874212
12.66185 1168.4341 1172.388151 749.859582 0.000855846
12.67065 1191.519 1208.211831 750.205531 0.000839265
12.67945 1226.9194 1246.220252 750.551338 0.000815049
12.68826 1264.9701 1279.538239 750.896928 0.000790533
12.69706 1294.0757 1300.867341 751.242342 0.000772752
12.70586 1313.4226 1306.914775 751.587582 0.00076137
12.71466 1318.813 1300.611568 751.932692 0.000758258
12.72346 1307.3367 1288.04964 752.277554 0.000764914
12.73227 1296.5691 1273.714633 752.622291 0.000771266
12.74107 1287.087 1258.041363 752.966903 0.000776948
12.74987 1274.6729 1237.886544 753.311278 0.000784515
12.75867 1252.5551 1209.403057 753.655573 0.000798368
12.76747 1213.505 1171.893906 753.999675 0.000824059
12.77628 1159.2168 1128.978781 754.343625 0.000862651
12.78508 1099.9427 1086.097231 754.687427 0.000909138
12.79388 1048.5221 1047.716212 755.031084 0.000953723
12.80268 1009.2601 1016.218162 755.374637 0.000990825
12.81148 981.06909 992.133757 755.717974 0.001019296
12.82029 961.05988 974.48831 756.061252 0.001040518
12.82909 944.14801 961.473529 756.404359 0.001059156
12.83789 930.90009 951.451397 756.747336 0.001074229
12.84669 918.26733 943.842237 757.090188 0.001089007
12.85550 907.06372 939.056762 757.432917 0.001102458
12.86430 896.0694 937.5848 757.775527 0.001115985
12.87310 889.8576 939.236514 758.118022 0.001123775
12.88190 888.45313 942.819553 758.460443 0.001125552
12.89070 892.77472 946.039727 758.802678 0.001120103
12.89951 900.21729 945.897272 759.144887 0.001110843
12.90831 908.48389 939.833896 759.486955 0.001100735
12.91711 909.18915 927.236058 759.828927 0.001099881
12.92591 900.61127 909.71537 760.170805 0.001110357
12.93472 884.75378 889.883709 760.512593 0.001130258
12.94352 865.64948 870.05127 760.854335 0.001155202
12.95232 846.72229 851.782354 761.195917 0.001181025
12.96112 830.6427 835.916877 761.537498 0.001203887
12.96992 818.08459 822.800324 761.878967 0.001222367
12.97873 808.4751 812.395674 762.220328 0.001236896
12.98753 801.44604 804.427439 762.5617 0.001247745
12.99633 795.63837 798.496889 762.902972 0.001256852
13.00513 791.19556 794.163792 763.244187 0.00126391
13.01393 788.16943 791.024009 763.585348 0.001268763
13.02274 786.43799 788.741313 763.926499 0.001271556
13.03154 785.14026 787.062615 764.267566 0.001273658
13.04034 784.81641 785.807774 764.608553 0.001274183
13.04914 784.03424 784.857208 764.949582 0.001275455
13.05795 783.02197 784.136147 765.29054 0.001277103
13.06675 782.05286 783.600226 765.631471 0.001278686
13.07555 782.04663 783.227575 765.972378 0.001278696
13.08435 783.10822 783.013233 766.313305 0.001276963
13.09315 784.06403 782.967209 766.65414 0.001275406
13.10196 784.93152 783.116318 766.995004 0.001273996
13.11076 785.61902 783.499963 767.3359 0.001272882
13.11956 787.23065 784.170602 767.676719 0.001270276
13.12836 789.29431 785.187441 768.017618 0.001266955
13.13716 790.58679 786.60605 768.358487 0.001264883
13.14597 792.64111 788.463671 768.699407 0.001261605
13.15477 795.72589 790.760851 769.040266 0.001256714
13.16357 798.49103 793.442014 769.381186 0.001252362
13.17237 802.31146 796.371131 769.722171 0.001246399
13.18117 806.98035 799.308992 770.063109 0.001239188
13.18998 810.36908 801.900637 770.404161 0.001234006
13.19878 814.52496 803.703905 770.745213 0.001227709
13.20758 817.77972 804.32459 771.086311 0.001222823
13.21638 819.40918 803.627557 771.427458 0.001220392
13.22518 819.90881 801.834346 771.768658 0.001219648
13.23399 818.71161 799.385823 772.109918 0.001221431
13.24279 813.78656 796.72317 772.451241 0.001228823
13.25159 810.60333 794.175375 772.792671 0.001233649
13.26039 807.526 791.947384 773.134134 0.00123835
13.26920 805.53668 790.146156 773.475675 0.001241408
13.27800 804.19904 788.806855 773.817299 0.001243473
13.28680 803.01538 787.913222 774.159008 0.001245306
13.29560 799.7359 787.417848 774.50081 0.001250413
13.30440 796.5799 787.255619 774.842707 0.001255367
13.31321 795.4621 787.354913 775.184744 0.001257131
13.32201 794.45227 787.641044 775.526808 0.001258729
13.33081 794.01617 788.036478 775.86906 0.00125942
13.33961 793.6994 788.458705 776.211389 0.001259923
13.34841 794.07477 788.82492 776.553797 0.001259327
13.35722 793.84363 789.072026 776.896407 0.001259694
13.36602 793.69104 789.181654 777.239107 0.001259936
13.37482 793.00696 789.184719 777.581979 0.001261023
13.38362 792.42682 789.136426 777.92491 0.001261946
13.39243 792.08051 789.089265 778.268062 0.001262498
13.40123 792.25183 789.08112 778.611322 0.001262225
13.41003 790.97968 789.121549 778.954694 0.001264255
13.41883 789.90192 789.250883 779.2983 0.00126598
13.42763 789.81836 789.460109 779.642027 0.001266114
13.43644 790.29138 789.750058 779.985919 0.001265356
13.44524 790.44519 790.120178 780.329981 0.00126511
13.45404 790.53882 790.571698 780.674255 0.00126496
13.46284 791.17804 791.109665 781.018629 0.001263938
13.47164 792.24896 791.744756 781.363225 0.001262229
13.48045 792.98798 792.493105 781.708047 0.001261053
13.48925 793.66052 793.374124 782.052981 0.001259985
13.49805 794.47748 794.408354 782.39819 0.001258689
13.50685 794.78735 795.611327 782.743559 0.001258198
13.51566 795.21826 796.988296 783.089171 0.001257516
13.52446 796.81647 798.527055 783.434913 0.001254994
13.53326 798.56189 800.191414 783.780907 0.001252251
13.54206 800.76147 801.91212 784.127156 0.001248811
13.55086 802.41852 803.577305 784.473548 0.001246232
13.55967 803.776 805.039452 784.820242 0.001244128
13.56847 805.20215 806.151227 785.167126 0.001241924
13.57727 807.00586 806.839978 785.514243 0.001239148
13.58607 807.70166 807.157834 785.861596 0.001238081
13.59487 807.82983 807.252842 786.20919 0.001237884
13.60368 807.53546 807.295068 786.557028 0.001238336
13.61248 807.40741 807.426804 786.905114 0.001238532
13.62128 807.47528 807.751956 787.253491 0.001238428
13.63008 808.52228 808.345045 787.602085 0.001236824
13.63889 808.82404 809.264982 787.950938 0.001236363
13.64769 809.83038 810.570582 788.300054 0.001234826
13.65649 811.34027 812.338777 788.649436 0.001232528
13.66529 813.4892 814.689054 788.999089 0.001229273
13.67409 816.67206 817.810598 789.349015 0.001224482
13.68290 821.1651 821.993063 789.699257 0.001217782
13.69170 826.5321 827.651848 790.049701 0.001209874
13.70050 833.01465 835.344824 790.400507 0.001200459
13.70930 842.29291 845.754222 790.751561 0.001187235
13.71810 854.53937 859.635355 791.102865 0.001170221
13.72691 870.70068 877.723276 791.454541 0.0011485
13.73571 892.75739 900.573955 791.806475 0.001120125
13.74451 919.59137 928.380776 792.158747 0.00108744
13.75331 955.22913 960.791806 792.511242 0.001046869
13.76211 996.36639 996.655646 792.864121 0.001003647
13.77092 1031.6694 1033.75354 793.217269 0.000969303
13.77972 1074.3542 1068.528089 793.570687 0.000930792
13.78852 1094.6906 1096.105726 793.9245 0.0009135
13.79732 1106.293 1111.225955 794.278588 0.00090392
13.80612 1106.2063 1110.461562 794.632994 0.000903991
13.81493 1083.5074 1094.258657 794.987722 0.000922929
13.82373 1050.0829 1066.636181 795.342814 0.000952306
13.83253 1014.4835 1032.9546 795.698151 0.000985723
13.84133 977.62 997.891384 796.053856 0.001022892
13.85014 946.32922 964.759254 796.409933 0.001056715
13.85894 920.89813 935.582939 796.766301 0.001085896
13.86774 900.38098 911.397403 797.123005 0.001110641
13.87654 886.77087 892.500609 797.480045 0.001127687
13.88534 877.59143 878.708076 797.837464 0.001139482
13.89415 872.3089 869.549715 798.195142 0.001146383
13.90295 870.17859 864.463425 798.553204 0.001149189
13.91175 871.67163 862.950549 798.91165 0.001147221
13.92055 876.63696 864.675784 799.27036 0.001140723
13.92935 886.87842 869.533943 799.629498 0.00112755
13.93816 901.11908 877.654338 799.988944 0.001109731
13.94696 919.49817 889.347908 800.34874 0.00108755
13.95576 939.52753 904.938099 800.708888 0.001064365
13.96456 960.57825 924.57911 801.069387 0.00104104
13.97337 981.22412 948.042388 801.430281 0.001019135
13.98217 1000.9627 974.475768 801.791448 0.000999038
13.99097 1018.7419 1002.421564 802.153052 0.000981603
13.99977 1035.8212 1029.33379 802.514972 0.000965418
14.00857 1050.5771 1051.927216 802.877248 0.000951858
14.01738 1061.8583 1066.659784 803.239882 0.000941745
14.02618 1066.5563 1070.787001 803.602875 0.000937597
14.03498 1062.8055 1063.390655 803.966227 0.000940906
14.04378 1049.0934 1045.867197 804.329938 0.000953204
14.05259 1024.1783 1021.381606 804.69405 0.000976392
14.06139 993.85071 993.64837 805.058439 0.001006187
14.07019 961.70117 965.797915 805.423271 0.001039824
14.07899 933.42291 940.063659 805.788422 0.001071326
14.08779 908.99701 917.776953 806.153933 0.001100114
14.09660 891.07874 899.618999 806.519803 0.001122235
14.10540 878.41614 885.801144 806.886034 0.001138413
14.11420 871.39227 876.223489 807.252665 0.001147589
14.12300 867.49432 870.666121 807.619573 0.001152745
14.13180 865.30328 868.824323 807.986922 0.001155664
14.14061 864.99066 870.42603 808.354587 0.001156082
14.14941 866.66168 875.21459 808.722568 0.001153853
14.15821 870.63208 882.935458 809.090989 0.001148591
14.16701 876.40009 893.249785 809.459723 0.001141031
14.17581 883.35388 905.665788 809.828812 0.001132049
14.18462 891.64307 919.420576 810.198254 0.001121525
14.19342 901.42474 933.368552 810.568091 0.001109355
14.20222 909.95435 945.90442 810.938236 0.001098956
14.21102 919.16193 955.094978 811.308689 0.001087948
14.21983 928.45636 959.229726 811.679574 0.001077057
14.22863 935.57562 957.601364 812.050763 0.001068861
14.23743 939.39313 950.893062 812.422298 0.001064517
14.24623 940.13477 940.750771 812.794175 0.001063677
14.25503 934.8493 929.052171 813.166393 0.001069691
14.26384 927.68713 917.448521 813.53895 0.00107795
14.27264 921.59808 907.245155 813.911844 0.001085072
14.28144 916.66302 899.372212 814.285116 0.001090913
14.29024 913.84045 894.421965 814.658635 0.001094283
14.29904 914.41986 892.666856 815.032568 0.00109359
14.30785 918.1308 894.101477 815.406787 0.001089169
14.31665 924.97864 898.507031 815.781331 0.001081106
14.32545 933.45325 905.401072 816.156197 0.001071291
14.33425 942.28949 914.0587 816.531383 0.001061245
14.34305 950.89551 923.50225 816.906927 0.00105164
14.35186 957.68127 932.622627 817.2827 0.001044189
14.36066 960.84161 940.489446 817.658868 0.001040754
14.36946 958.89032 946.626178 818.0353 0.001042872
14.37826 953.45569 950.954202 818.412037 0.001048816
14.38706 946.23309 953.404589 818.789073 0.001056822
14.39587 938.92834 953.569924 819.166406 0.001065044
14.40467 932.46082 950.793141 819.544032 0.001072431
14.41347 926.20935 944.644887 819.921947 0.00107967
14.42227 919.75598 935.414837 820.300191 0.001087245
14.43108 911.96198 924.120612 820.678672 0.001096537
14.43988 904.633 912.046498 821.057432 0.001105421
14.44868 896.5578 900.305055 821.436464 0.001115377
14.45748 889.56329 889.669368 821.815765 0.001124147
14.46628 883.23596 880.586008 822.195331 0.0011322
14.47509 878.4566 873.25587 822.575156 0.00113836
14.48389 873.34369 867.693727 822.95528 0.001145025
14.49269 868.17804 863.780609 823.335568 0.001151837
14.50149 864.13147 861.299895 823.716188 0.001157231
14.51029 861.28937 859.973398 824.097006 0.00116105
14.51910 859.22632 859.481125 824.478017 0.001163838
14.52790 858.10352 859.479606 824.859344 0.001165361
14.53670 857.8891 859.627746 825.240854 0.001165652
14.54550 856.29108 859.640406 825.622584 0.001167827
14.55430 855.14722 859.359939 826.004529 0.001169389
14.56311 854.59595 858.789374 826.386683 0.001170144
14.57191 853.42615 858.049003 826.769084 0.001171748
14.58071 852.93994 857.298466 827.151595 0.001172415
14.58951 852.98505 856.681235 827.534386 0.001172353
14.59832 853.33881 856.309708 827.917319 0.001171867
14.60712 853.51593 856.271016 828.300431 0.001171624
14.61592 853.83484 856.639125 828.683718 0.001171187
14.62472 854.4516 857.48968 829.067172 0.001170341
14.63352 855.95587 858.915029 829.450787 0.001168285
14.64233 858.26471 861.042268 829.834557 0.001165142
14.65113 860.78601 864.047056 830.218519 0.001161729
14.65993 863.28931 868.163466 830.602535 0.00115836
14.66873 866.82507 873.686833 830.986773 0.001153635
14.67754 872.06885 880.955829 831.371095 0.001146698
14.68634 879.0058 890.323082 831.755538 0.001137649
14.69514 885.96478 902.10467 832.140095 0.001128713
14.70394 894.81494 916.522317 832.524759 0.00111755
14.71274 905.59174 933.622771 832.909566 0.00110425
14.72155 918.87646 953.198267 833.294378 0.001088286
14.73035 934.44659 974.701821 833.679362 0.001070152
14.73915 954.46326 997.11491 834.064379 0.001047709
14.74795 974.86511 1018.85544 834.449466 0.001025783
14.75675 1000.6389 1037.830685 834.834615 0.000999362
14.76556 1026.7521 1051.883833 835.219818 0.000973945
14.77436 1049.0444 1059.63082 835.605068 0.000953248
14.78316 1058.3309 1061.140521 835.990355 0.000944884
14.79196 1057.5978 1057.73583 836.375717 0.000945539
14.80077 1048.7814 1051.100647 836.761057 0.000953488
14.80957 1041.0901 1042.468987 837.146366 0.000960532
14.81837 1032.3564 1032.377304 837.531769 0.000968658
14.82717 1024.9133 1020.965425 837.917125 0.000975692
14.83597 1016.4387 1008.51995 838.30247 0.000983827
14.84478 1008.6349 995.819942 838.687794 0.000991439
14.85358 998.98029 984.061441 839.073134 0.001001021
14.86238 991.7995 974.521145 839.458348 0.001008268
14.87118 989.09924 968.329211 839.84356 0.001011021
14.87998 991.28143 966.454395 840.228761 0.001008795
14.88879 1000.4009 969.758889 840.613809 0.000999599
14.89759 1016.5189 979.068782 840.998872 0.00098375
14.90639 1041.1023 995.179619 841.383808 0.00096052
14.91519 1071.775 1018.813167 841.768696 0.000933032
14.92399 1106.8367 1050.508034 842.153396 0.000903476
14.93280 1143.7017 1090.465578 842.538029 0.000874354
14.94160 1182.7722 1138.310678 842.922585 0.000845471
14.95040 1227.7256 1192.791468 843.306925 0.000814514
14.95920 1277.0156 1251.666483 843.691213 0.000783076
14.96800 1330.6129 1311.724485 844.075308 0.000751533
14.97681 1381.4436 1369.208029 844.459245 0.00072388
14.98561 1427.39 1420.161346 844.843013 0.000700579
14.99441 1469.1967 1460.183177 845.226603 0.000680644
15.00321 1508.5245 1484.219144 845.610004 0.000662899
15.01201 1543.7013 1487.364306 845.993207 0.000647794
15.02082 1543.0442 1467.188991 846.376246 0.00064807
15.02962 1495.0469 1425.652518 846.759022 0.000668875
15.03842 1407.2317 1368.627455 847.141569 0.000710615
15.04722 1320.101 1303.413123 847.523877 0.000757518
15.05603 1241.6556 1236.530604 847.905935 0.000805376
15.06483 1174.9873 1172.717784 848.287733 0.000851073
15.07363 1122.1547 1114.993678 848.669261 0.000891143
15.08243 1078.5151 1064.96766 849.050552 0.000927201
15.09123 1042.6794 1023.187307 849.431464 0.000959068
15.10004 1012.3358 989.407773 849.812161 0.000987815
15.10884 986.19745 962.880801 850.192501 0.001013996
15.11764 964.55536 942.560059 850.572475 0.001036747
15.12644 947.1944 927.289359 850.9522 0.001055749
15.13524 933.73767 915.963873 851.331538 0.001070965
15.14405 921.31207 907.610517 851.710562 0.001085409
15.15285 910.71851 901.434826 852.089132 0.001098034
15.16165 902.10205 896.823218 852.467411 0.001108522
15.17045 896.09418 893.328791 852.845258 0.001115954
15.17925 890.78522 890.637642 853.222661 0.001122605
15.18806 886.35211 888.535837 853.599739 0.00112822
15.19686 883.37659 886.8827 853.976352 0.00113202
15.20566 881.67609 885.587217 854.352531 0.001134203
15.21446 879.97479 884.591571 854.728265 0.001136396
15.22327 878.68103 883.862644 855.103586 0.001138069
15.23207 877.51117 883.385703 855.478354 0.001139587
15.24087 876.52686 883.162955 855.852685 0.001140866
15.24967 876.83459 883.214794 856.226569 0.001140466
15.25848 878.35168 883.581892 856.599909 0.001138496
15.26728 878.98724 884.328727 856.972736 0.001137673
15.27608 880.0575 885.546158 857.345039 0.001136289
15.28488 882.1272 887.352008 857.716848 0.001133623
15.29368 884.42133 889.885401 858.088024 0.001130683
15.30249 886.98993 893.302217 858.458685 0.001127409
15.31129 890.25427 897.754323 858.828816 0.001123275
15.32009 893.67828 903.369032 859.198282 0.001118971
15.32889 898.86444 910.224652 859.567238 0.001112515
15.33769 904.70178 918.313937 859.935547 0.001105337
15.34650 909.42303 927.51261 860.303239 0.001099598
15.35530 914.57654 937.537255 860.670302 0.001093402
15.36410 920.58429 947.908076 861.036725 0.001086267
15.37290 926.22986 957.914342 861.402538 0.001079646
15.38170 932.05109 966.662701 861.767605 0.001072903
15.39051 938.87415 973.266582 862.13208 0.001065105
15.39931 945.68793 977.137822 862.495826 0.001057431
15.40811 953.80579 978.214067 862.858874 0.001048431
15.41691 960.03717 976.914768 863.221212 0.001041626
15.42572 963.72418 973.934571 863.582828 0.001037641
15.43452 964.04108 970.086737 863.94371 0.0010373
15.44332 964.19122 966.211498 864.303848 0.001037139
15.45212 963.70093 963.083869 864.66327 0.001037666
15.46092 964.93414 961.277264 865.021841 0.00103634
15.46973 967.72656 961.064283 865.379714 0.00103335
15.47853 972.56232 962.361868 865.736755 0.001028212
15.48733 978.00873 964.708525 866.092992 0.001022486
15.49613 985.36841 967.31495 866.448414 0.001014849
15.50493 992.23993 969.235956 866.80301 0.001007821
15.51374 998.65247 969.680722 867.156808 0.001001349
15.52254 1001.9444 968.299857 867.509676 0.000998059
15.53134 1001.1303 965.237635 867.861763 0.000998871
15.54014 996.76605 960.9408 868.212937 0.001003244
15.54894 989.03174 955.914532 868.563187 0.00101109
15.55775 980.45575 950.631913 868.912621 0.001019934
15.56655 972.27209 945.544123 869.261108 0.001028519
15.57535 964.41522 941.068382 869.608676 0.001036898
15.58415 957.92554 937.548443 869.955314 0.001043922
15.59296 953.28528 935.197917 870.301051 0.001049004
15.60176 950.56067 934.100182 870.645756 0.001052011
15.61056 950.09515 934.236896 870.989536 0.001052526
15.61936 950.71014 935.543222 871.332381 0.001051845
15.62816 953.04889 937.937633 871.674199 0.001049264
15.63697 955.58649 941.302633 872.015021 0.001046478
15.64577 959.97174 945.439931 872.354833 0.001041697
15.65457 963.95734 950.028648 872.693664 0.00103739
15.66337 969.04944 954.648666 873.031388 0.001031939
15.67217 974.0722 958.887322 873.368108 0.001026618
15.68098 975.16583 962.491726 873.703813 0.001025467
15.68978 973.49243 965.439663 874.038379 0.001027229
15.69858 971.45929 967.855547 874.371946 0.001029379
15.70738 968.85327 969.814145 874.704389 0.001032148
15.71618 967.39899 971.185012 875.035737 0.0010337
15.72499 968.22449 971.598642 875.365978 0.001032818
15.73379 970.32007 970.550631 875.695102 0.001030588
15.74259 973.67285 967.652368 876.023135 0.001027039
15.75139 975.52417 962.872184 876.349955 0.00102509
15.76020 974.29181 956.594943 876.6757 0.001026387
15.76900 969.50446 949.45896 877.00025 0.001031455
15.77780 961.82037 942.123623 877.32363 0.001039695
15.78660 951.2113 935.124925 877.64583 0.001051291
15.79540 941.36108 928.847096 877.96684 0.001062292
15.80421 932.48267 923.537358 878.286651 0.001072406
15.81301 926.34296 919.341363 878.605251 0.001079514
15.82181 922.65228 916.320836 878.922668 0.001083832
15.83061 920.92761 914.496865 879.238783 0.001085862
15.83942 919.99567 913.803009 879.55373 0.001086962
15.84822 921.24243 914.244819 879.867393 0.001085491
15.85702 922.80951 915.720789 880.179796 0.001083647
15.86582 925.98407 918.149519 880.490931 0.001079932
15.87462 930.22522 921.436799 880.800788 0.001075008
15.88343 934.50116 925.469309 881.109394 0.00107009
15.89223 939.88684 930.111492 881.416633 0.001063958
15.90103 945.58966 935.222281 881.722635 0.001057541
15.90983 951.42102 940.683047 882.027289 0.001051059
15.91863 955.82135 946.429337 882.330584 0.001046221
15.92744 959.5238 952.435322 882.632616 0.001042184
15.93624 961.40601 958.647902 882.933272 0.001040143
15.94504 963.9696 964.934668 883.232578 0.001037377
15.95384 965.38934 971.097387 883.530525 0.001035852
15.96265 965.93945 976.96887 883.827139 0.001035262
15.97145 964.19739 982.501813 884.122343 0.001037132
15.98025 962.09747 987.775687 884.416131 0.001039396
15.98905 958.46387 992.865754 884.708592 0.001043336
15.99785 955.63 997.690468 884.999621 0.00104643
16.00665 952.81134 1001.931897 885.289241 0.001049526
16.01546 950.36566 1005.08149 885.577446 0.001052227
16.02426 948.99298 1006.648571 885.864259 0.001053749
16.03306 949.96985 1006.442433 886.149608 0.001052665
16.04186 951.69727 1004.753134 886.433518 0.001050754
16.05066 953.93683 1002.256478 886.715951 0.001048287
16.05947 954.76617 999.739084 886.996961 0.001047377
16.06827 955.25726 997.829924 887.276543 0.001046838
16.07707 955.41168 996.880412 887.554625 0.001046669
16.08588 956.08661 996.912064 887.831264 0.00104593
16.09468 956.46307 997.637143 888.106389 0.001045519
16.10348 956.84784 998.473448 888.379965 0.001045098
16.11228 958.83527 998.652577 888.652138 0.001042932
16.12108 960.45526 997.42716 888.92278 0.001041173
16.12989 961.67786 994.351701 889.191944 0.001039849
16.13869 960.21686 989.479988 889.459565 0.001041431
16.14749 955.95624 983.305448 889.725695 0.001046073
16.15629 949.79504 976.528094 889.99027 0.001052859
16.16509 944.25037 969.817725 890.253253 0.001059041
16.17390 939.16406 963.685953 890.514789 0.001064777
16.18270 936.28827 958.469428 890.774753 0.001068047
16.19150 935.71167 954.333916 891.033198 0.001068705
16.20030 936.00873 951.294409 891.29006 0.001068366
16.20911 935.93658 949.230362 891.545393 0.001068448
16.21790 937.15875 947.907826 891.799076 0.001067055
16.22671 938.61188 947.024098 892.051248 0.001065403
16.23551 939.7428 946.291076 892.301876 0.001064121
16.24431 939.49664 945.525966 892.550898 0.0010644
16.25312 938.26923 944.70342 892.798367 0.001065792
16.26192 936.19501 943.921097 893.044221 0.001068154
16.27072 934.26465 943.322331 893.288513 0.001070361
16.27952 933.00989 943.019348 893.531127 0.0010718
16.28832 932.34137 943.057415 893.772199 0.001072569
16.29713 932.81519 943.402284 894.011697 0.001072024
16.30593 934.61371 943.935654 894.249562 0.001069961
16.31473 938.31256 944.474073 894.485846 0.001065743
16.32353 943.32764 944.805796 894.720491 0.001060077
16.33233 949.46509 944.771085 894.953494 0.001053225
16.34114 955.96228 944.337471 895.184907 0.001046066
16.34994 960.78619 943.628757 895.414699 0.001040814
16.35874 963.92084 942.878666 895.642894 0.00103743
16.36754 966.0188 942.354374 895.869437 0.001035177
16.37635 966.2912 942.296714 896.094378 0.001034885
16.38515 966.1651 942.893191 896.317663 0.00103502
16.39395 965.53131 944.268644 896.539291 0.001035699
16.40275 966.45581 946.483278 896.759311 0.001034708
16.41155 969.09406 949.529175 896.977695 0.001031892
16.42036 973.3811 953.328377 897.194467 0.001027347
16.42916 977.97913 957.724666 897.409575 0.001022517
16.43796 984.95142 962.486438 897.623069 0.001015278
16.44676 992.47076 967.302005 897.834849 0.001007586
16.45556 1001.7497 971.822952 898.04506 0.000998253
16.46437 1010.9402 975.735792 898.253605 0.000989178
16.47317 1017.5135 978.885611 898.460507 0.000982788
16.48197 1018.677 981.43353 898.665789 0.000981665
16.49077 1018.7716 983.783589 898.869404 0.000981574
16.49958 1017.9221 986.534002 899.071399 0.000982393
16.50838 1017.6221 990.338393 899.271682 0.000982683
16.51718 1017.563 995.829732 899.47039 0.00098274
16.52598 1019.2307 1003.582577 899.667433 0.000981132
16.53478 1023.7584 1014.120248 899.862833 0.000976793
16.54359 1030.2629 1027.905205 900.056614 0.000970626
16.55239 1040.486 1045.315283 900.248733 0.000961089
16.56119 1052.4153 1066.610674 900.43919 0.000950195
16.56999 1070.7677 1091.88183 900.628031 0.000933909
16.57879 1089.8248 1121.00744 900.815257 0.000917579
16.58760 1117.4077 1153.691139 901.000826 0.000894929
16.59640 1145.4701 1189.576446 901.184761 0.000873004
16.60520 1180.9413 1228.350255 901.367086 0.000846782
16.61400 1211.0566 1269.637656 901.54776 0.000825725
16.62280 1247.6489 1312.732701 901.726786 0.000801508
16.63161 1282.5862 1356.211632 901.904208 0.000779675
16.64041 1325.972 1397.620636 902.080028 0.000754164
16.64921 1365.6411 1433.496508 902.254207 0.000732257
16.65801 1416.5187 1459.836401 902.42677 0.000705956
16.66681 1455.2373 1473.219452 902.597739 0.000687173
16.67562 1485.1099 1472.076781 902.767039 0.000673351
16.68442 1484.3892 1457.307505 902.934789 0.000673678
16.69322 1461.0104 1431.666055 903.100917 0.000684458
16.70202 1419.5443 1398.483846 903.265463 0.000704451
16.71082 1379.9536 1360.677422 903.428395 0.000724662
16.71963 1333.6119 1320.476159 903.589734 0.000749843
16.72843 1297.483 1279.640809 903.749503 0.000770723
16.73723 1260.7567 1239.816285 903.907635 0.000793174
16.74603 1228.7706 1202.46371 904.064241 0.000813822
16.75483 1199.5253 1168.774348 904.219255 0.000833663
16.76364 1172.6705 1139.448182 904.372717 0.000852754
16.77244 1148.8577 1114.688451 904.524596 0.00087043
16.78124 1129.3163 1094.333183 904.674916 0.000885492
16.79004 1111.9558 1078.052737 904.823665 0.000899316
16.79885 1095.7972 1065.508821 904.970882 0.000912578
16.80765 1081.3287 1056.427646 905.116572 0.000924788
16.81645 1066.9935 1050.544911 905.260708 0.000937213
16.82525 1055.3597 1047.532719 905.403329 0.000947544
16.83405 1044.9338 1046.940933 905.544408 0.000956998
16.84286 1037.88 1048.152128 905.683967 0.000963503
16.85166 1032.9618 1050.375511 905.821998 0.00096809
16.86046 1031.7682 1052.665125 905.958539 0.00096921
16.86926 1031.1729 1054.017884 906.093595 0.000969769
16.87806 1033.1312 1053.543235 906.227142 0.000967931
16.88687 1034.8457 1050.638331 906.359219 0.000966328
16.89567 1035.1718 1045.135257 906.489802 0.000966023
16.90447 1030.2412 1037.241117 906.618884 0.000970646
16.91327 1020.4509 1027.47534 906.746546 0.000979959
16.92207 1006.8023 1016.536071 906.872737 0.000993244
16.93088 994.02582 1005.145358 906.997493 0.00100601
16.93968 981.95496 993.937409 907.120794 0.001018377
16.94848 971.25378 983.400296 907.242676 0.001029597
16.95728 961.25494 973.86724 907.363118 0.001040307
16.96608 953.38702 965.535273 907.482118 0.001048892
16.97489 946.74445 958.480987 907.59975 0.001056251
16.98369 940.97815 952.698859 907.715968 0.001062724
16.99249 936.76984 948.115437 907.830809 0.001067498
17.00129 933.38153 944.611592 907.944254 0.001071373
17.01010 930.48041 942.041561 908.056339 0.001074714
17.01890 928.46698 940.246178 908.167022 0.001077044
17.02770 927.71088 939.061586 908.276375 0.001077922
17.03650 927.58997 938.328124 908.384395 0.001078063
17.04530 927.86731 937.891265 908.491066 0.00107774
17.05411 928.1087 937.61006 908.596422 0.00107746
17.06291 928.6864 937.365698 908.70045 0.00107679
17.07171 928.01953 937.073888 908.803171 0.001077564
17.08051 926.52063 936.687932 908.904583 0.001079307
17.08931 925.56683 936.194591 909.00472 0.001080419
17.09812 925.49414 935.606346 909.103591 0.001080504
17.10692 924.97644 934.957626 909.201185 0.001081109
17.11572 923.6369 934.301661 909.297533 0.001082677
17.12452 921.8028 933.705521 909.392625 0.001084831
17.13333 920.36182 933.240373 909.486471 0.001086529
17.14213 918.80634 932.974832 909.579104 0.001088369
17.15093 917.34369 932.971905 909.670523 0.001090104
17.15973 916.62799 933.287073 909.760751 0.001090955
17.16853 917.4743 933.968864 909.849776 0.001089949
17.17734 918.22119 935.057087 909.937632 0.001089062
17.18614 919.40723 936.58158 910.024309 0.001087657
17.19494 920.84692 938.559295 910.109819 0.001085957
17.20374 922.84253 940.99287 910.194192 0.001083608
17.21254 925.08112 943.868076 910.277431 0.001080986
17.22135 927.8739 947.151364 910.359557 0.001077733
17.23015 931.82019 950.787726 910.440562 0.001073168
17.23895 936.33905 954.699465 910.520477 0.001067989
17.24775 940.7265 958.784264 910.599278 0.001063008
17.25656 946.02667 962.934313 910.67703 0.001057053
17.26536 950.96558 967.063684 910.75371 0.001051563
17.27416 956.68481 971.173497 910.829339 0.001045276
17.28296 962.20599 975.403663 910.903937 0.001039279
17.29177 968.37463 980.03152 910.9775 0.001032658
17.30057 974.9873 985.419068 911.050041 0.001025654
17.30937 982.34149 991.918696 911.121589 0.001017976
17.31817 992.58508 999.789225 911.192155 0.00100747
17.32697 1004.3079 1009.147396 911.261737 0.000995711
17.33578 1018.0367 1019.926459 911.330354 0.000982283
17.34458 1033.4369 1031.858523 911.398028 0.000967645
17.35338 1049.2686 1044.428804 911.464756 0.000953045
17.36218 1065.8611 1056.879886 911.53055 0.000938209
17.37098 1083.7909 1068.226327 911.595439 0.000922687
17.37979 1100.0947 1077.35763 911.659435 0.000909013
17.38859 1112.9702 1083.253225 911.722537 0.000898497
17.39739 1121.5265 1085.224442 911.784765 0.000891642
17.40619 1123.7133 1083.078377 911.84614 0.000889907
17.41499 1119.1029 1077.136094 911.906645 0.000893573
17.42380 1110.0607 1068.119509 911.966337 0.000900852
17.43260 1095.4125 1056.997861 912.0252 0.000912898
17.44140 1077.906 1044.799588 912.083262 0.000927725
17.45020 1059.291 1032.455967 912.140521 0.000944028
17.45901 1043.4956 1020.70615 912.197 0.000958317
17.46781 1031.8702 1010.056536 912.252716 0.000969114
17.47661 1022.7295 1000.807042 912.307658 0.000977776
17.48541 1014.6328 993.052792 912.361877 0.000985578
17.49421 1008.6597 986.734983 912.415361 0.000991415
17.50302 1004.2111 981.658359 912.468136 0.000995807
17.51182 1000.7792 977.528872 912.520204 0.000999221
17.52062 997.2019 974.006531 912.571583 0.001002806
17.52942 993.3103 970.774788 912.622282 0.001006735
17.53822 988.75525 967.609041 912.672325 0.001011373
17.54703 984.34985 964.412702 912.721725 0.001015899
17.55583 979.65656 961.206646 912.770485 0.001020766
17.56463 974.67297 958.08416 912.81863 0.001025985
17.57343 969.08051 955.169312 912.866161 0.001031906
17.58224 964.16034 952.585518 912.913098 0.001037172
17.59104 960.23016 950.448774 912.959448 0.001041417
17.59984 957.49908 948.865661 913.005236 0.001044387
17.60864 955.14117 947.939959 913.050475 0.001046966
17.61744 953.35828 947.776603 913.095168 0.001048924
17.62625 952.58405 948.482524 913.139333 0.001049776
17.63505 952.6571 950.170074 913.182989 0.001049696
17.64385 953.74487 952.94943 913.226129 0.001048498
17.65265 955.25659 956.928353 913.268795 0.001046839
17.66145 959.25421 962.194743 913.310982 0.001042477
17.67026 964.07373 968.804062 913.352713 0.001037265
17.67906 970.56451 976.75971 913.39399 0.001030328
17.68786 976.5238 985.990686 913.434831 0.001024041
17.69666 985.72595 996.335973 913.475255 0.001014481
17.70546 995.16547 1007.506595 913.515256 0.001004858
17.71427 1008.2613 1019.088786 913.554874 0.000991806
17.72307 1019.9658 1030.51192 913.594104 0.000980425
17.73187 1036.3922 1041.046032 913.632968 0.000964886
17.74067 1049.6316 1049.838746 913.671469 0.000952715
17.74948 1067.0918 1056.012162 913.709626 0.000937126
17.75828 1076.0956 1058.85511 913.747445 0.000929285
17.76708 1082.0952 1058.048699 913.784949 0.000924133
17.77588 1076.9333 1053.806673 913.822149 0.000928563
17.78468 1067.3695 1046.817578 913.85905 0.000936883
17.79349 1049.2638 1038.028875 913.895673 0.000953049
17.80229 1033.7498 1028.41639 913.932021 0.000967352
17.81109 1017.6309 1018.841821 913.968111 0.000982675
17.81989 1007.3251 1009.998626 914.00395 0.000992728
17.82869 998.31091 1002.419261 914.03956 0.001001692
17.83750 993.51996 996.49872 914.074952 0.001006522
17.84630 991.28131 992.510344 914.110129 0.001008795
17.85510 991.12897 990.627543 914.145112 0.00100895
17.86390 992.13965 990.935073 914.179904 0.001007923
17.87270 995.92883 993.445215 914.214516 0.001004088
17.88151 1001.6213 998.107864 914.248969 0.000998381
17.89031 1008.7883 1004.815983 914.28327 0.000991288
17.89911 1018.1368 1013.418336 914.317433 0.000982186
17.90791 1029.075 1023.714897 914.351462 0.000971746
17.91672 1041.9987 1035.469926 914.385376 0.000959694
17.92552 1059.1548 1048.40021 914.419178 0.000944149
17.93432 1078.8479 1062.191968 914.452879 0.000926915
17.94312 1098.4927 1076.516467 914.486497 0.000910338
17.95192 1117.7297 1091.029195 914.520039 0.000894671
17.96073 1135.2173 1105.393306 914.553519 0.000880889
17.96953 1152.0601 1119.295112 914.58694 0.00086801
17.97833 1167.8872 1132.503044 914.62032 0.000856247
17.98713 1183.2197 1144.891949 914.653653 0.000845152
17.99593 1197.4244 1156.406532 914.686972 0.000835126
18.00474 1211.6721 1166.898975 914.720272 0.000825306
18.01354 1217.45 1175.98424 914.753567 0.000821389
18.02234 1218.2043 1182.966123 914.786869 0.00082088
18.03114 1213.2052 1186.939271 914.82018 0.000824263
18.03995 1204.418 1187.058302 914.853517 0.000830277
18.04875 1194.2638 1182.931277 914.886874 0.000837336
18.05755 1182.85 1174.876355 914.920283 0.000845416
18.06635 1167.995 1163.906338 914.953737 0.000856168
18.07515 1155.915 1151.430806 914.987248 0.000865116
18.08396 1147.575 1138.885664 915.02083 0.000871403
18.09276 1141.9874 1127.477828 915.054482 0.000875666
18.10156 1137.5488 1118.075844 915.088212 0.000879083
18.11036 1132.1481 1111.176276 915.122037 0.000883277
18.11916 1128.1539 1106.950103 915.155964 0.000886404
18.12797 1124.9746 1105.236224 915.189993 0.000888909
18.13677 1122.7257 1105.593619 915.224135 0.00089069
18.14557 1119.0925 1107.335369 915.258402 0.000893581
18.15437 1114.9735 1109.616311 915.292793 0.000896882
18.16317 1108.4154 1111.553178 915.327315 0.000902189
18.17198 1102.4225 1112.370272 915.361982 0.000907093
18.18078 1096.4481 1111.566646 915.396801 0.000912036
18.18958 1091.6947 1109.019157 915.431771 0.000916007
18.19838 1089.3439 1104.997945 915.466901 0.000917984
18.20719 1086.0414 1100.023034 915.502203 0.000920775
18.21599 1080.4233 1094.671043 915.537665 0.000925563
18.22479 1074.4241 1089.388287 915.573318 0.000930731
18.23359 1068.5533 1084.403034 915.609151 0.000935845
18.24239 1063.1617 1079.689854 915.645174 0.000940591
18.25120 1059.9642 1074.99959 915.681395 0.000943428
18.26000 1059.1978 1069.941266 915.717811 0.000944111
18.26880 1057.2793 1064.101275 915.754436 0.000945824
18.27760 1054.6371 1057.186325 915.791257 0.000948193
18.28640 1049.3785 1049.110307 915.828303 0.000952945
18.29521 1040.8193 1040.035356 915.865563 0.000960782
18.30401 1028.9767 1030.296258 915.903045 0.000971839
18.31281 1017.0958 1020.310457 915.940756 0.000983192
18.32161 1005.3632 1010.477068 915.978691 0.000994665
18.33041 994.69885 1001.119051 916.016855 0.001005329
18.33922 985.34045 992.459303 916.055258 0.001014878
18.34802 977.8371 984.626891 916.093904 0.001022665
18.35682 970.52014 977.678121 916.132787 0.001030375
18.36562 965.01782 971.606802 916.171914 0.00103625
18.37443 960.86743 966.374562 916.211291 0.001040726
18.38323 958.26001 961.931768 916.250913 0.001043558
18.39203 955.24792 958.229281 916.290781 0.001046849
18.40083 952.03137 955.222204 916.330906 0.001050386
18.40963 948.99951 952.863444 916.371289 0.001053741
18.41844 947.63452 951.11224 916.411924 0.001055259
18.42724 946.81818 949.911804 916.452815 0.001056169
18.43604 946.04175 949.203551 916.493968 0.001057036
18.44484 945.09381 948.922038 916.535366 0.001058096
18.45364 945.27209 948.994634 916.577038 0.001057896
18.46245 945.15344 949.342754 916.618964 0.001058029
18.47125 944.95728 949.883343 916.661154 0.001058249
18.48005 945.48376 950.535723 916.7036 0.00105766
18.48885 946.3819 951.228814 916.746306 0.001056656
18.49766 946.69574 951.904194 916.789275 0.001056306
18.50646 947.81396 952.50988 916.832489 0.001055059
18.51526 948.94812 952.996486 916.875975 0.001053798
18.52406 949.40814 953.31664 916.919713 0.001053288
18.53286 949.57367 953.435706 916.963712 0.001053104
18.54167 950.34607 953.348096 917.00796 0.001052248
18.55047 950.92157 953.082524 917.052462 0.001051611
18.55927 950.24866 952.695279 917.097209 0.001052356
18.56807 949.68225 952.253747 917.14221 0.001052984
18.57687 950.05682 951.824138 917.187464 0.001052569
18.58568 949.63043 951.469719 917.232957 0.001053041
18.59448 949.02808 951.258305 917.278698 0.00105371
18.60328 948.90778 951.270635 917.324673 0.001053843
18.61208 949.66656 951.60389 917.370884 0.001053001
18.62088 949.87018 952.363963 917.417324 0.001052775
18.62969 950.56232 953.644092 917.463999 0.001052009
18.63849 951.91113 955.565411 917.510906 0.001050518
18.64729 954.03522 958.191429 917.558031 0.001048179
18.65609 957.44922 961.579137 917.605381 0.001044442
18.66490 961.91724 965.757454 917.652941 0.00103959
18.67370 967.18964 970.729417 917.700707 0.001033923
18.68250 974.36694 976.4655 917.748685 0.001026307
18.69130 982.53015 982.897997 917.796865 0.00101778
18.70010 991.74628 989.918022 917.845249 0.001008322
18.70891 1001.7396 997.368813 917.893821 0.000998263
18.71771 1010.5086 1005.063912 917.942585 0.000989601
18.72651 1019.4201 1012.812953 917.991527 0.00098095
18.73531 1027.6719 1020.481232 918.040641 0.000973073
18.74411 1033.2509 1028.042156 918.089933 0.000967819
18.75292 1037.4177 1035.592327 918.139391 0.000963932
18.76172 1040.0863 1043.304822 918.189015 0.000961459
18.77052 1043.3928 1051.360759 918.238789 0.000958412
18.77932 1049.9331 1059.879166 918.288716 0.000952442
18.78812 1056.3269 1068.895787 918.338769 0.000946677
18.79693 1063.3685 1078.370627 918.38897 0.000940408
18.80573 1070.8278 1088.168948 918.439306 0.000933857
18.81453 1076.959 1098.043663 918.48976 0.00092854
18.82333 1082.5984 1107.571971 918.540335 0.000923704
18.83214 1089.0532 1116.122141 918.591015 0.000918229
18.84094 1096.8937 1122.861468 918.641803 0.000911665
18.84974 1103.7985 1126.882529 918.692668 0.000905962
18.85854 1110.1003 1127.405807 918.743634 0.00090082
18.86734 1111.9052 1124.033992 918.794686 0.000899357
18.87615 1105.8041 1116.912978 918.845806 0.000904319
18.88495 1096.5887 1106.692023 918.896998 0.000911919
18.89375 1082.9136 1094.312787 918.948242 0.000923435
18.90255 1068.162 1080.81589 918.999531 0.000936188
18.91135 1054.0587 1067.098569 919.050869 0.000948714
18.92016 1041.5941 1053.887722 919.102242 0.000960067
18.92896 1031.3802 1041.723965 919.153647 0.000969575
18.93776 1024.0481 1030.974282 919.205066 0.000976517
18.94656 1018.9882 1021.854837 919.256501 0.000981366
18.95537 1015.2212 1014.445461 919.307933 0.000985007
18.96417 1012.2331 1008.698699 919.359353 0.000987915
18.97297 1010.865 1004.446128 919.410766 0.000989252
18.98177 1010.4276 1001.413082 919.462156 0.00098968
18.99057 1009.5219 999.23964 919.513521 0.000990568
18.99938 1008.4491 997.515494 919.564842 0.000991622
19.00818 1007.564 995.83593 919.61612 0.000992493
19.01698 1004.8886 993.871772 919.667325 0.000995135
19.02578 1001.2265 991.423775 919.718482 0.000998775
19.03458 997.73364 988.445728 919.769561 0.001002272
19.04339 993.06488 985.008436 919.820558 0.001006984
19.05219 986.72516 981.247007 919.871469 0.001013453
19.06099 980.84058 977.315092 919.922277 0.001019534
19.06979 975.92572 973.341097 919.972982 0.001024668
19.07859 970.90631 969.42577 920.023553 0.001029965
19.08740 966.86365 965.63677 920.074017 0.001034272
19.09620 963.20447 962.026614 920.124342 0.001038201
19.10500 959.13 958.632963 920.174525 0.001042612
19.11380 955.30817 955.489365 920.224563 0.001046783
19.12261 952.16168 952.622213 920.274436 0.001050242
19.13141 950.38104 950.047993 920.324137 0.00105221
19.14021 948.7641 947.770834 920.373667 0.001054003
19.14901 946.61414 945.786872 920.423018 0.001056397
19.15781 945.34882 944.089333 920.472172 0.001057811
19.16662 943.81757 942.670733 920.521125 0.001059527
19.17542 942.86218 941.527216 920.569874 0.0010606
19.18422 942.26038 940.658748 920.618401 0.001061278
19.19302 941.98877 940.07052 920.666698 0.001061584
19.20182 942.17566 939.773211 920.714767 0.001061373
19.21063 941.9588 939.784777 920.762601 0.001061618
19.21943 942.21509 940.130579 920.810182 0.001061329
19.22823 942.8009 940.84291 920.857506 0.001060669
19.23703 944.17065 941.960372 920.904573 0.001059131
19.24583 946.01624 943.523612 920.951352 0.001057064
19.25464 947.27991 945.574625 920.99787 0.001055654
19.26344 948.60425 948.147835 921.044098 0.00105418
19.27224 950.80023 951.267299 921.090039 0.001051746
19.28104 953.08167 954.937007 921.135675 0.001049228
19.28985 955.86035 959.136035 921.181007 0.001046178
19.29865 958.04315 963.811888 921.226032 0.001043794
19.30745 961.6217 968.869972 921.270723 0.00103991
19.31625 966.21808 974.178253 921.315105 0.001034963
19.32505 970.24188 979.550607 921.359153 0.001030671
19.33386 974.80365 984.751531 921.402869 0.001025848
19.34266 980.42432 989.490084 921.446239 0.001019967
19.35146 984.95135 993.435371 921.489262 0.001015279
19.36026 990.70691 996.250528 921.531928 0.00100938
19.36906 995.28925 997.65757 921.574242 0.001004733
19.37787 999.19672 997.511581 921.6162 0.001000804
19.38667 1000.1757 995.850348 921.657787 0.000999824
19.39547 997.41071 992.886204 921.699008 0.001002596
19.40427 992.55273 988.947194 921.739851 0.001007503
19.41307 986.77954 984.400304 921.780306 0.001013398
19.42188 980.91168 979.587737 921.820394 0.00101946
19.43068 976.42535 974.803711 921.860093 0.001024144
19.43948 973.02026 970.278371 921.899409 0.001027728
19.44828 970.29376 966.184376 921.938331 0.001030616
19.45709 968.71411 962.639891 921.976864 0.001032296
19.46589 967.77429 959.717555 922.014999 0.001033299
19.47469 966.94012 957.449134 922.052729 0.00103419
19.48349 967.18512 955.830519 922.090075 0.001033928
19.49229 968.60675 954.83098 922.127017 0.001032411
19.50110 969.2395 954.39665 922.163564 0.001031737
19.50990 969.30701 954.456699 922.199707 0.001031665
19.51870 970.72046 954.93064 922.235453 0.001030163
19.52750 972.80774 955.735252 922.270788 0.001027952
19.53630 973.63947 956.797497 922.305731 0.001027074
19.54511 974.50073 958.065937 922.340279 0.001026166
19.55391 975.31793 959.520789 922.374426 0.001025307
19.56271 974.55304 961.181392 922.408181 0.001026111
19.57151 973.54883 963.103514 922.441539 0.00102717
19.58032 974.03784 965.377965 922.474509 0.001026654
19.58912 974.6214 968.119553 922.507079 0.001026039
19.59792 975.79773 971.462045 922.53927 0.001024803
19.60672 977.79254 975.540506 922.571084 0.001022712
19.61552 981.11969 980.480033 922.602515 0.001019244
19.62433 984.98169 986.381553 922.633576 0.001015247
19.63313 990.15942 993.305457 922.664264 0.001009938
19.64193 995.88855 1001.272283 922.694584 0.001004128
19.65073 1003.3528 1010.255419 922.724549 0.000996658
19.65953 1011.7861 1020.177457 922.754162 0.000988351
19.66834 1022.0167 1030.922816 922.783431 0.000978458
19.67714 1032.8567 1042.31945 922.812358 0.000968189
19.68594 1045.5021 1054.152555 922.840955 0.000956478
19.69474 1057.342 1066.123499 922.869225 0.000945768
19.70354 1068.7661 1077.855514 922.897174 0.000935658
19.71235 1078.7443 1088.878014 922.924819 0.000927004
19.72115 1087.0789 1098.657198 922.952165 0.000919896
19.72995 1092.255 1106.69656 922.979224 0.000915537
19.73875 1094.923 1112.65283 923.006 0.000913306
19.74756 1094.1885 1116.471851 923.03251 0.000913919
19.75636 1092.3805 1118.410256 923.058752 0.000915432
19.76516 1089.2448 1118.969343 923.084756 0.000918067
19.77396 1086.2223 1118.742432 923.110521 0.000920622
19.78276 1082.7686 1118.27148 923.136062 0.000923558
19.79157 1080.8875 1117.945734 923.161396 0.000925166
19.80037 1080.972 1117.954788 923.186529 0.000925093
19.80917 1084.0006 1118.276612 923.21148 0.000922509
19.81797 1087.8834 1118.704189 923.236253 0.000919216
19.82678 1092.1825 1118.906926 923.260879 0.000915598
19.83558 1098.8942 1118.53571 923.28536 0.000910006
19.84438 1106.644 1117.347632 923.309717 0.000903633
19.85318 1111.5188 1115.291793 923.333967 0.00089967
19.86198 1115.2419 1112.527113 923.358121 0.000896666
19.87079 1113.4135 1109.334143 923.382196 0.000898139
19.87959 1108.4377 1106.017134 923.406215 0.000902171
19.88839 1102.9362 1102.801807 923.430195 0.000906671
19.89719 1098.589 1099.780776 923.454149 0.000910259
19.90599 1095.5879 1096.892269 923.478099 0.000912752
19.91480 1095.3301 1093.917635 923.502066 0.000912967
19.92360 1096.25 1090.534135 923.526064 0.000912201
19.93240 1097.318 1086.358154 923.550114 0.000911313
19.94120 1095.9822 1081.055447 923.574241 0.000912424
19.95001 1090.1261 1074.426781 923.598465 0.000917325
19.95881 1078.4794 1066.459507 923.622804 0.000927231
19.96761 1064.4777 1057.322181 923.647281 0.000939428
19.97641 1049.7822 1047.310809 923.671921 0.000952579
19.98521 1035.5367 1036.792239 923.696735 0.000965683
19.99402 1022.1596 1026.126584 923.721763 0.000978321
20.00282 1010.6957 1015.646572 923.747017 0.000989417
20.01162 1000.6638 1005.62257 923.772527 0.000999337
20.02042 991.89374 996.258036 923.79831 0.001008173
20.02922 984.20117 987.692278 923.824394 0.001016052
20.03803 977.36902 980.004831 923.850807 0.001023155
20.04683 971.45715 973.230115 923.877562 0.001029381
20.05563 966.90997 967.354387 923.904701 0.001034222
20.06443 962.69586 962.338193 923.93224 0.00103875
20.07324 959.32599 958.117531 923.960209 0.001042399
20.08204 955.7998 954.61463 923.98863 0.001046244
20.09084 953.49481 951.746568 924.017531 0.001048773
20.09964 952.34503 949.431179 924.046937 0.00105004
20.10844 951.10583 947.590986 924.076881 0.001051408
20.11725 949.28918 946.15835 924.10739 0.00105342
20.12605 947.9823 945.074814 924.138485 0.001054872
20.13485 947.51868 944.292948 924.170202 0.001055388
20.14365 947.28027 943.775678 924.20256 0.001055654
20.15245 947.63171 943.496227 924.235591 0.001055262
20.16126 948.60693 943.437587 924.269321 0.001054177
20.17006 949.065 943.590045 924.303784 0.001053669
20.17886 948.51361 943.951467 924.339009 0.001054281
20.18766 948.71484 944.524884 924.375018 0.001054058
20.19646 949.97504 945.319043 924.411846 0.001052659
20.20527 951.20575 946.345839 924.449514 0.001051297
20.21407 952.62616 947.621097 924.488046 0.00104973
20.22287 954.94012 949.164139 924.527493 0.001047186
20.23167 957.92407 950.99474 924.567865 0.001043924
20.24047 960.138 953.136231 924.609201 0.001041517
20.24928 963.25854 955.612119 924.651518 0.001038143
20.25808 966.78961 958.450941 924.694856 0.001034351
20.26688 970.8136 961.682705 924.739232 0.001030064
20.27568 974.44397 965.342086 924.784669 0.001026226
20.28449 979.02258 969.465869 924.83122 0.001021427
20.29329 984.57617 974.079582 924.878892 0.001015665
20.30209 990.83807 979.200344 924.927723 0.001009247
20.31089 996.89795 984.822927 924.977728 0.001003112
20.31969 1003.8376 990.929162 925.028947 0.000996177
20.32850 1011.3522 997.474322 925.08138 0.000988775
20.33730 1018.8799 1004.397067 925.135083 0.00098147
20.34610 1025.7362 1011.598828 925.190076 0.00097491
20.35490 1032.9438 1018.92715 925.24637 0.000968107
20.36370 1039.6506 1026.17885 925.304004 0.000961862
20.37251 1046.0831 1033.084486 925.362987 0.000955947
20.38131 1051.8048 1039.343077 925.423355 0.000950747
20.39011 1057.2618 1044.646316 925.485102 0.00094584
20.39891 1060.2443 1048.750341 925.548286 0.000943179
20.40771 1062.6388 1051.522111 925.612919 0.000941054
20.41652 1063.0659 1052.981933 925.679007 0.000940675
20.42532 1061.0695 1053.309378 925.746584 0.000942445
20.43412 1057.3497 1052.805114 925.815653 0.000945761
20.44292 1053.1346 1051.825071 925.886229 0.000949546
20.45172 1048.0953 1050.711011 925.958345 0.000954112
20.46053 1043.3318 1049.73639 926.032007 0.000958468
20.46933 1040.3312 1049.070831 926.107238 0.000961232
20.47813 1039.1667 1048.773845 926.184033 0.00096231
20.48693 1039.7169 1048.794964 926.262421 0.0009618
20.49574 1041.9014 1048.990368 926.342393 0.000959784
20.50454 1044.6676 1049.151974 926.423958 0.000957242
20.51334 1047.8536 1049.031246 926.507139 0.000954332
20.52214 1051.6981 1048.37821 926.591935 0.000950843
20.53094 1055.3536 1046.980799 926.678357 0.00094755
20.53975 1055.8599 1044.711123 926.766389 0.000947095
20.54855 1055.181 1041.553534 926.856051 0.000947705
20.55735 1052.2339 1037.607835 926.947299 0.000950359
20.56615 1046.7766 1033.054843 927.040193 0.000955314
20.57495 1039.9169 1028.117988 927.134685 0.000961615
20.58376 1032.2578 1023.008623 927.230778 0.00096875
20.59256 1025.9094 1017.901181 927.328474 0.000974745
20.60136 1020.3826 1012.928946 927.427738 0.000980025
20.61016 1014.247 1008.175505 927.528578 0.000985953
20.61896 1008.6879 1003.70234 927.630931 0.000991387
20.62777 1003.7248 999.547933 927.734848 0.000996289
20.63657 998.69452 995.761669 927.840261 0.001001307
20.64537 994.38776 992.39497 927.947156 0.001005644
20.65417 989.8866 989.509121 928.055518 0.001010217
20.66298 984.8761 987.156015 928.165293 0.001015356
20.67178 980.55682 985.371009 928.276448 0.001019829
20.68058 977.03857 984.159968 928.38897 0.001023501
20.68938 973.94843 983.493537 928.502821 0.001026748
20.69818 971.05768 983.307913 928.617933 0.001029805
20.70699 969.63086 983.504726 928.734272 0.00103132
20.71579 968.36395 983.956761 928.851802 0.00103267
20.72459 967.28223 984.507257 928.970443 0.001033824
20.73339 966.64417 984.998485 929.090138 0.001034507
20.74219 965.74469 985.268466 929.210852 0.00103547
20.75100 964.81445 985.18896 929.332522 0.001036469
20.75980 965.64746 984.685266 929.455051 0.001035575
20.76860 966.44843 983.750482 929.578378 0.001034716
20.77741 966.80988 982.44056 929.702442 0.00103433
20.78620 966.34375 980.85942 929.827103 0.001034828
20.79501 966.23773 979.125697 929.952359 0.001034942
20.80381 966.29895 977.355219 930.078062 0.001034876
20.81261 966.10358 975.641142 930.204145 0.001035086
20.82141 965.1178 974.048489 930.330478 0.001036143
20.83022 965.08191 972.611606 930.456967 0.001036181
20.83902 966.39752 971.330632 930.583516 0.001034771
20.84782 967.89624 970.203949 930.70995 0.001033169
20.85662 968.86615 969.200348 930.836232 0.001032134
20.86542 969.56049 968.297323 930.962175 0.001031395
20.87423 969.97913 967.487442 931.087674 0.00103095
20.88303 970.71857 966.783065 931.212559 0.001030165
20.89183 971.49591 966.21292 931.336696 0.00102934
20.90063 971.25348 965.813537 931.459919 0.001029597
20.90943 970.72827 965.616884 931.582095 0.001030154
20.91824 970.4848 965.642577 931.703057 0.001030413
20.92704 971.73358 965.89247 931.822602 0.001029089
20.93584 973.31171 966.344936 931.940578 0.00102742
20.94465 974.54779 966.973501 932.056768 0.001026117
20.95345 975.7121 967.725107 932.17099 0.001024892
20.96225 977.12042 968.54421 932.283028 0.001023415
20.97105 978.81976 969.377923 932.392695 0.001021639
20.97985 980.52032 970.178942 932.49977 0.001019867
20.98866 981.5722 970.908725 932.604002 0.001018774
20.99746 982.72797 971.528999 932.705176 0.001017576
21.00626 984.20612 971.997396 932.803024 0.001016047
21.01506 985.09296 972.262992 932.897283 0.001015133
21.02386 985.1806 972.272152 932.987742 0.001015042
21.03267 984.77496 971.979385 933.074085 0.00101546
21.04147 983.01843 971.36152 933.15605 0.001017275
21.05027 980.49176 970.427153 933.233325 0.001019896
21.05907 977.53436 969.221549 933.305617 0.001022982
21.06788 973.48633 967.813252 933.37262 0.001027236
21.07668 969.87805 966.287869 933.433983 0.001031057
21.08548 967.25494 964.733904 933.489413 0.001033854
21.09428 963.96179 963.233609 933.538538 0.001037386
21.10308 960.61652 961.858143 933.581011 0.001040998
21.11189 957.93817 960.660103 933.616456 0.001043909
21.12069 956.13214 959.675351 933.644497 0.001045881
21.12949 954.12665 958.919493 933.664739 0.001048079
21.13829 953.14899 958.389562 933.676784 0.001049154
21.14709 952.48224 958.063343 933.680211 0.001049888
21.15590 951.84546 957.90145 933.674589 0.001050591
21.16470 951.52155 957.844799 933.659473 0.001050948
21.17350 951.51538 957.827319 933.634409 0.001050955
21.18230 951.83142 957.767521 933.598927 0.001050606
21.19110 951.8399 957.586187 933.552546 0.001050597
21.19991 951.79614 957.215542 933.494757 0.001050645
21.20871 952.20117 956.610787 933.425043 0.001050198
21.21751 951.68726 955.757293 933.342889 0.001050765
21.22631 950.81506 954.670556 933.247732 0.001051729
21.23512 949.56531 953.389955 933.139035 0.001053113
21.24392 947.59454 951.968065 933.016225 0.001055304
21.25272 945.0661 950.46075 932.878682 0.001058127
21.26152 943.25867 948.920571 932.72581 0.001060155
21.27032 941.80273 947.392872 932.556962 0.001061793
21.27913 940.10614 945.915488 932.371534 0.00106371
21.28793 938.32727 944.517074 932.168821 0.001065726
21.29673 937.02881 943.219773 931.94819 0.001067203
21.30553 936.31171 942.03823 931.708948 0.00106802
21.31433 936.05542 940.981226 931.450325 0.001068313
21.32314 935.1297 940.052496 931.17161 0.00106937
21.33194 934.09058 939.251393 930.872012 0.00107056
21.34074 933.83685 938.573682 930.550823 0.001070851
21.34954 933.33228 938.012324 930.207174 0.00107143
21.35834 932.41205 937.558231 929.84041 0.001072487
21.36715 932.31415 937.200274 929.449444 0.0010726
21.37595 933.17828 936.926498 929.033584 0.001071607
21.38475 934.11194 936.723172 928.591906 0.001070536
21.39355 934.18622 936.575067 928.123448 0.00107045
21.40236 934.25848 936.465697 927.62739 0.001070368
21.41116 934.62256 936.376715 927.102668 0.001069951
21.41996 935.39172 936.289325 926.548554 0.001069071
21.42876 936.26996 936.184752 925.963671 0.001068068
21.43756 936.72961 936.046034 925.34725 0.001067544
21.44637 936.96246 935.858296 924.698176 0.001067279
21.45517 937.49414 935.608839 924.015295 0.001066673
21.46397 937.28857 935.284937 923.297659 0.001066907
21.47277 937.36945 934.872353 922.544152 0.001066815
21.48157 937.95007 934.353097 921.753447 0.001066155
21.49038 937.86322 933.705618 920.924348 0.001066254
21.49918 938.72522 932.907235 920.05583 0.001065274
21.50798 939.54248 931.936849 919.146562 0.001064348
21.51678 939.38519 930.780229 918.195163 0.001064526
21.52558 939.72424 929.434474 917.20078 0.001064142
21.53439 940.46429 927.907638 916.161404 0
21.54319 940.47778 0 0 0
21.55199 940.45251 0 0 0
21.56079 940.75946 0 0 0
21.56959 941.31818 0 0 0
21.57840 941.66443 0 0 0
21.58720 941.77203 0 0 0
21.59600 941.79535 0 0 0
21.60480 942.90643 0 0 0
21.61360 944.46399 0 0 0
21.62241 946.17377 0 0 0
21.63121 947.42957 0 0 0
21.64001 948.95319 0 0 0
21.64881 950.8606 0 0 0
21.65762 952.53442 0 0 0
21.66642 954.31598 0 0 0
21.67522 955.7403 0 0 0
21.68402 958.33868 0 0 0
21.69282 960.76013 0 0 0
21.70163 962.63104 0 0 0
21.71043 964.9082 0 0 0
21.71923 967.53156 0 0 0
21.72803 970.60492 0 0 0
21.73683 974.55176 0 0 0
21.74564 978.40094 0 0 0
21.75444 981.98529 0 0 0
21.76324 986.02728 0 0 0
21.77204 991.552 0 0 0
21.78085 997.33276 0 0 0
21.78965 1002.1688 0 0 0
21.79845 1008.0254 0 0 0
21.80725 1013.4518 0 0 0
21.81605 1019.3729 0 0 0
21.82486 1025.688 0 0 0
21.83366 1031.9506 0 0 0
21.84246 1037.6991 0 0 0
21.85126 1043.9722 0 0 0
21.86006 1049.9691 0 0 0
21.86887 1056.2695 0 0 0
21.87767 1059.1631 0 0 0
21.88647 1060.5961 0 0 0
21.89527 1059.1656 0 0 0
21.90408 1056.0957 0 0 0
21.91288 1052.9412 0 0 0
21.92168 1048.8862 0 0 0
21.93048 1044.0376 0 0 0
21.93928 1038.8861 0 0 0
21.94809 1035.3086 0 0 0
21.95689 1033.3478 0 0 0
21.96569 1032.2899 0 0 0
21.97449 1030.6401 0 0 0
21.98329 1030.0786 0 0 0
21.99210 1027.2133 0 0 0
22.00090 1021.4674 0 0 0
22.00970 1014.5234 0 0 0
22.01850 1006.976 0 0 0
22.02731 998.08441 0 0 0
22.03611 989.58453 0 0 0
22.04491 981.05835 0 0 0
22.05371 973.88678 0 0 0
22.06251 967.57404 0 0 0
22.07132 962.297 0 0 0
22.08012 957.40277 0 0 0
22.08892 953.55469 0 0 0
22.09772 950.69031 0 0 0
22.10652 948.89819 0 0 0
22.11533 946.57428 0 0 0
22.12413 944.3587 0 0 0
22.13293 943.23132 0 0 0
22.14173 942.20129 0 0 0
22.15054 942.11053 0 0 0
22.15934 943.18298 0 0 0
22.16814 943.3587 0 0 0
22.17694 942.93085 0 0 0
22.18574 942.73792 0 0 0
22.19455 942.84973 0 0 0
22.20335 943.72125 0 0 0
22.21215 944.71387 0 0 0
22.22095 945.81207 0 0 0
22.22975 946.66486 0 0 0
22.23856 948.10455 0 0 0
22.24736 949.30756 0 0 0
22.25616 950.07056 0 0 0
22.26496 950.34747 0 0 0
22.27376 950.35345 0 0 0
22.28257 949.862 0 0 0
22.29137 949.14484 0 0 0
22.30017 948.36096 0 0 0
22.30897 947.14337 0 0 0
22.31778 945.98669 0 0 0
22.32658 945.25146 0 0 0
22.33538 944.84753 0 0 0
22.34418 944.53571 0 0 0
22.35298 944.69116 0 0 0
22.36179 944.75409 0 0 0
22.37059 944.82214 0 0 0
22.37939 945.42273 0 0 0
22.38819 946.51349 0 0 0
22.39699 947.51953 0 0 0
22.40580 949.69098 0 0 0
22.41460 951.89905 0 0 0
22.42340 954.41302 0 0 0
22.43220 956.30243 0 0 0
22.44100 958.36224 0 0 0
22.44981 961.47302 0 0 0
22.45861 964.28644 0 0 0
22.46741 965.99323 0 0 0
22.47621 967.6687 0 0 0
22.48502 970.14569 0 0 0
22.49382 972.15387 0 0 0
22.50262 975.14575 0 0 0
22.51142 977.27814 0 0 0
22.52022 979.20581 0 0 0
22.52903 981.52008 0 0 0
22.53783 982.94122 0 0 0
22.54663 984.44342 0 0 0
22.55543 987.02557 0 0 0
22.56423 989.30756 0 0 0
22.57304 991.75586 0 0 0
22.58184 994.73267 0 0 0
22.59064 997.26837 0 0 0
22.59944 998.83807 0 0 0
22.60825 1000.7516 0 0 0
22.61705 1001.8883 0 0 0
22.62585 1003.478 0 0 0
22.63465 1004.7364 0 0 0
22.64345 1007.4437 0 0 0
22.65226 1008.9054 0 0 0
22.66106 1012.4618 0 0 0
22.66986 1014.2975 0 0 0
22.67866 1016.7991 0 0 0
22.68746 1016.4684 0 0 0
22.69627 1017.6531 0 0 0
22.70507 1015.1751 0 0 0
22.71387 1014.8802 0 0 0
22.72267 1013.7899 0 0 0
22.73147 1013.2056 0 0 0
22.74028 1011.881 0 0 0
22.74908 1009.1912 0 0 0
22.75788 1006.9831 0 0 0
22.76668 1003.0159 0 0 0
22.77549 998.69031 0 0 0
22.78429 993.48364 0 0 0
22.79309 989.67493 0 0 0
22.80189 985.14764 0 0 0
22.81069 981.65143 0 0 0
22.81950 977.44727 0 0 0
22.82830 974.3385 0 0 0
22.83710 971.69824 0 0 0
22.84590 970.17999 0 0 0
22.85470 968.23718 0 0 0
22.86351 967.07111 0 0 0
22.87231 966.63812 0 0 0
22.88111 965.68201 0 0 0
22.88991 964.49402 0 0 0
22.89871 963.4967 0 0 0
22.90752 961.87506 0 0 0
22.91632 959.4104 0 0 0
22.92512 956.90002 0 0 0
22.93392 954.85437 0 0 0
22.94273 953.04694 0 0 0
22.95153 951.08527 0 0 0
22.96033 949.07813 0 0 0
22.96913 947.6084 0 0 0
22.97793 946.89288 0 0 0
22.98674 946.26422 0 0 0
22.99554 945.354 0 0 0
23.00434 944.71576 0 0 0
23.01314 946.2005 0 0 0
23.02194 947.51477 0 0 0
23.03075 948.27844 0 0 0
23.03955 950.03156 0 0 0
23.04835 952.6283 0 0 0
23.05715 954.35626 0 0 0
23.06596 956.37231 0 0 0
23.07476 957.84766 0 0 0
23.08356 959.09583 0 0 0
23.09236 960.00549 0 0 0
23.10116 961.37122 0 0 0
23.10997 963.31512 0 0 0
23.11877 965.4574 0 0 0
23.12757 966.61523 0 0 0
23.13637 968.26349 0 0 0
23.14517 970.57404 0 0 0
23.15398 972.50073 0 0 0
23.16278 974.23938 0 0 0
23.17158 975.8938 0 0 0
23.18038 977.54547 0 0 0
23.18918 979.20367 0 0 0
23.19799 983.05908 0 0 0
23.20679 987.02094 0 0 0
23.21559 990.38239 0 0 0
23.22439 994.16827 0 0 0
23.23320 999.78741 0 0 0
23.24200 1004.7416 0 0 0
23.25080 1008.2436 0 0 0
23.25960 1010.9612 0 0 0
23.26840 1013.6179 0 0 0
23.27721 1016.6364 0 0 0
23.28601 1020.0867 0 0 0
23.29481 1024.5912 0 0 0
23.30361 1028.0608 0 0 0
23.31241 1030.5311 0 0 0
23.32122 1030.8085 0 0 0
23.33002 1030.3616 0 0 0
23.33882 1028.0353 0 0 0
23.34762 1024.8914 0 0 0
23.35642 1022.7556 0 0 0
23.36523 1022.1951 0 0 0
23.37403 1022.1053 0 0 0
23.38283 1023.2883 0 0 0
23.39163 1024.1957 0 0 0
23.40044 1026.3341 0 0 0
23.40924 1029.0818 0 0 0
23.41804 1030.5771 0 0 0
23.42684 1030.436 0 0 0
23.43564 1029.6807 0 0 0
23.44445 1026.5786 0 0 0
23.45325 1021.2979 0 0 0
23.46205 1015.5101 0 0 0
23.47085 1010.426 0 0 0
23.47965 1005.1458 0 0 0
23.48846 1000.6517 0 0 0
23.49726 997.02094 0 0 0
23.50606 994.38202 0 0 0
23.51486 992.93622 0 0 0
23.52367 991.95227 0 0 0
23.53247 992.29791 0 0 0
23.54127 992.77686 0 0 0
23.55007 993.66461 0 0 0
23.55887 994.30853 0 0 0
23.56768 995.271 0 0 0
23.57648 995.32678 0 0 0
23.58528 994.95447 0 0 0
23.59408 993.56702 0 0 0
23.60288 991.34064 0 0 0
23.61169 988.55273 0 0 0
23.62049 984.72369 0 0 0
23.62929 981.57526 0 0 0
23.63809 979.42828 0 0 0
23.64689 976.43707 0 0 0
23.65570 973.40558 0 0 0
23.66450 971.47382 0 0 0
23.67330 969.90918 0 0 0
23.68210 968.43445 0 0 0
23.69091 965.19189 0 0 0
23.69971 962.23523 0 0 0
23.70851 960.36536 0 0 0
23.71731 958.66455 0 0 0
23.72611 955.94397 0 0 0
23.73492 953.56451 0 0 0
23.74372 952.22644 0 0 0
23.75252 950.1366 0 0 0
23.76132 948.14709 0 0 0
23.77012 947.24048 0 0 0
23.77893 945.83875 0 0 0
23.78773 944.22717 0 0 0
23.79653 943.39429 0 0 0
23.80533 942.98334 0 0 0
23.81414 942.46686 0 0 0
23.82294 941.51843 0 0 0
23.83174 941.4986 0 0 0
23.84054 941.80353 0 0 0
23.84934 942.59387 0 0 0
23.85815 943.78796 0 0 0
23.86695 945.4624 0 0 0
23.87575 947.47559 0 0 0
23.88455 949.38287 0 0 0
23.89335 951.67035 0 0 0
23.90216 954.41455 0 0 0
23.91096 958.40063 0 0 0
23.91976 963.09814 0 0 0
23.92856 966.98712 0 0 0
23.93736 970.56494 0 0 0
23.94617 975.46887 0 0 0
23.95497 980.46576 0 0 0
23.96377 984.87885 0 0 0
23.97257 988.20099 0 0 0
23.98137 991.09271 0 0 0
23.99018 993.33209 0 0 0
23.99898 995.05542 0 0 0
24.00778 994.27673 0 0 0
24.01658 991.66772 0 0 0
24.02539 988.17896 0 0 0
24.03419 984.58667 0 0 0
24.04299 980.62469 0 0 0
24.05179 975.90283 0 0 0
24.06059 971.0293 0 0 0
24.06940 966.59338 0 0 0
24.07820 962.84448 0 0 0
24.08700 959.01654 0 0 0
24.09580 954.56635 0 0 0
24.10460 950.96948 0 0 0
24.11341 948.62476 0 0 0
24.12221 946.41504 0 0 0
24.13101 944.84735 0 0 0
24.13981 943.14551 0 0 0
24.14862 941.37311 0 0 0
24.15742 939.08948 0 0 0
24.16622 937.76044 0 0 0
24.17502 937.32147 0 0 0
24.18382 937.32153 0 0 0
24.19263 936.31342 0 0 0
24.20143 934.96179 0 0 0
24.21023 934.33118 0 0 0
24.21903 933.35693 0 0 0
24.22783 933.026 0 0 0
24.23664 933.36273 0 0 0
24.24544 933.922 0 0 0
24.25424 934.69403 0 0 0
24.26304 934.46954 0 0 0
24.27184 932.93555 0 0 0
24.28065 933.85193 0 0 0
24.28945 934.69824 0 0 0
24.29825 934.04578 0 0 0
24.30705 934.67072 0 0 0
24.31586 936.03436 0 0 0
24.32466 936.47369 0 0 0
24.33346 937.23438 0 0 0
24.34226 937.52759 0 0 0
24.35106 937.46661 0 0 0
24.35987 938.55994 0 0 0
24.36867 938.32031 0 0 0
24.37747 938.23193 0 0 0
24.38627 937.31622 0 0 0
24.39507 935.29193 0 0 0
24.40388 934.01782 0 0 0
24.41268 934.39777 0 0 0
24.42148 934.76624 0 0 0
24.43029 935.77277 0 0 0
24.43908 936.43481 0 0 0
24.44789 936.16425 0 0 0
24.45669 935.8562 0 0 0
24.46549 936.50616 0 0 0
24.47430 937.83539 0 0 0
24.48310 939.11481 0 0 0
24.49190 940.66302 0 0 0
24.50070 940.42694 0 0 0
24.50950 939.72034 0 0 0
24.51831 939.0766 0 0 0
24.52711 937.76184 0 0 0
24.53591 936.64648 0 0 0
24.54471 936.37982 0 0 0
24.55351 935.98401 0 0 0
24.56232 936.52271 0 0 0
24.57112 937.32129 0 0 0
24.57992 937.23712 0 0 0
24.58872 938.38409 0 0 0
24.59753 939.71796 0 0 0
24.60633 940.78918 0 0 0
24.61513 940.88501 0 0 0
24.62393 940.0965 0 0 0
24.63273 938.76538 0 0 0
24.64154 937.33746 0 0 0
24.65034 936.26306 0 0 0
24.65914 935.81555 0 0 0
24.66794 935.05426 0 0 0
24.67674 934.16809 0 0 0
24.68555 934.4621 0 0 0
24.69435 935.06567 0 0 0
24.70315 935.3186 0 0 0
24.71195 935.57562 0 0 0
24.72076 935.948 0 0 0
24.72956 936.98499 0 0 0
24.73836 938.36591 0 0 0
24.74716 939.86322 0 0 0
24.75596 941.63159 0 0 0
24.76477 942.70642 0 0 0
24.77357 944.23676 0 0 0
24.78237 946.71893 0 0 0
24.79117 949.18884 0 0 0
24.79997 950.94379 0 0 0
24.80878 952.97583 0 0 0
24.81758 955.56299 0 0 0
24.82638 957.89838 0 0 0
24.83518 959.85669 0 0 0
24.84398 962.65167 0 0 0
24.85279 965.91425 0 0 0
24.86159 967.86249 0 0 0
24.87039 968.84619 0 0 0
24.87919 969.26971 0 0 0
24.88800 968.46069 0 0 0
24.89680 967.995 0 0 0
24.90560 968.32208 0 0 0
24.91440 966.77106 0 0 0
24.92320 965.13892 0 0 0
24.93201 964.15375 0 0 0
24.94081 962.21564 0 0 0
24.94961 959.45233 0 0 0
24.95841 957.42749 0 0 0
24.96721 956.47424 0 0 0
24.97602 955.21399 0 0 0
24.98482 953.37811 0 0 0
24.99362 951.04633 0 0 0
25.00242 948.1817 0 0 0
25.01122 946.04187 0 0 0
25.02003 944.3515 0 0 0
25.02883 942.2226 0 0 0
25.03763 939.41113 0 0 0
25.04643 936.78931 0 0 0
25.05523 935.43042 0 0 0
25.06404 934.35376 0 0 0
25.07284 932.52795 0 0 0
25.08164 931.81708 0 0 0
25.09044 930.758 0 0 0
25.09924 928.90607 0 0 0
25.10805 927.14465 0 0 0
25.11685 927.55908 0 0 0
25.12565 927.77539 0 0 0
25.13445 926.63458 0 0 0
25.14325 925.72473 0 0 0
25.15206 924.52087 0 0 0
25.16086 923.45898 0 0 0
25.16966 923.24023 0 0 0
25.17846 923.58588 0 0 0
25.18727 922.88239 0 0 0
25.19607 922.72198 0 0 0
25.20487 922.83215 0 0 0
25.21367 923.84277 0 0 0
25.22247 924.47644 0 0 0
25.23128 924.29016 0 0 0
25.24008 925.25684 0 0 0
25.24888 925.76117 0 0 0
25.25768 926.96124 0 0 0
25.26648 928.65631 0 0 0
25.27529 929.04974 0 0 0
25.28409 929.16418 0 0 0
25.29289 930.51184 0 0 0
25.30169 932.2674 0 0 0
25.31049 933.31238 0 0 0
25.31930 934.08093 0 0 0
25.32810 935.06476 0 0 0
25.33690 936.49133 0 0 0
25.34570 938.28223 0 0 0
25.35451 939.55414 0 0 0
25.36331 939.86224 0 0 0
25.37211 941.6228 0 0 0
25.38091 943.69647 0 0 0
25.38971 944.32971 0 0 0
25.39852 946.05988 0 0 0
25.40732 949.30756 0 0 0
25.41612 953.6236 0 0 0
25.42492 957.76691 0 0 0
25.43372 960.90839 0 0 0
25.44253 962.65674 0 0 0
25.45133 963.25952 0 0 0
25.46013 961.67914 0 0 0
25.46893 960.87384 0 0 0
25.47774 961.38837 0 0 0
25.48654 961.17151 0 0 0
25.49534 962.66583 0 0 0
25.50414 964.41772 0 0 0
25.51294 967.64624 0 0 0
25.52175 970.18365 0 0 0
25.53055 973.62463 0 0 0
25.53935 976.08472 0 0 0
25.54815 978.44116 0 0 0
25.55695 981.01862 0 0 0
25.56576 982.49463 0 0 0
25.57456 985.25928 0 0 0
25.58336 987.28412 0 0 0
25.59216 990.40802 0 0 0
25.60096 990.95538 0 0 0
25.60977 992.17932 0 0 0
25.61857 990.68811 0 0 0
25.62737 989.3028 0 0 0
25.63618 988.03754 0 0 0
25.64498 986.01874 0 0 0
25.65378 983.50043 0 0 0
25.66258 980.61926 0 0 0
25.67138 978.35968 0 0 0
25.68019 975.91571 0 0 0
25.68899 974.80414 0 0 0
25.69779 972.84833 0 0 0
25.70659 970.72046 0 0 0
25.71539 968.91669 0 0 0
25.72420 966.06177 0 0 0
25.73300 961.72327 0 0 0
25.74180 958.41736 0 0 0
25.75060 956.30255 0 0 0
25.75940 954.56708 0 0 0
25.76821 953.45587 0 0 0
25.77701 953.4212 0 0 0
25.78581 953.98743 0 0 0
25.79461 955.33154 0 0 0
25.80342 957.75574 0 0 0
25.81222 959.93445 0 0 0
25.82102 962.47089 0 0 0
25.82982 964.90375 0 0 0
25.83862 966.59058 0 0 0
25.84743 968.28503 0 0 0
25.85623 971.07281 0 0 0
25.86503 972.56055 0 0 0
25.87383 973.13013 0 0 0
25.88263 973.70483 0 0 0
25.89144 973.90491 0 0 0
25.90024 973.86713 0 0 0
25.90904 973.4101 0 0 0
25.91784 972.89209 0 0 0
25.92664 972.83002 0 0 0
25.93545 973.32922 0 0 0
25.94425 973.31635 0 0 0
25.95305 972.80719 0 0 0
25.96185 971.44641 0 0 0
25.97066 968.72119 0 0 0
25.97946 964.66211 0 0 0
25.98826 960.11139 0 0 0
25.99706 955.50104 0 0 0
26.00586 951.7597 0 0 0
26.01467 948.78107 0 0 0
26.02347 945.24628 0 0 0
26.03227 941.74689 0 0 0
26.04107 938.38599 0 0 0
26.04987 935.36249 0 0 0
26.05868 932.98065 0 0 0
26.06748 931.03143 0 0 0
26.07628 930.5495 0 0 0
26.08508 930.37 0 0 0
26.09388 929.71545 0 0 0
26.10269 930.4411 0 0 0
26.11149 931.68689 0 0 0
26.12029 932.55286 0 0 0
26.12909 934.17157 0 0 0
26.13790 936.31958 0 0 0
26.14670 938.94727 0 0 0
26.15550 942.2215 0 0 0
26.16430 944.61658 0 0 0
26.17310 948.2085 0 0 0
26.18191 952.12555 0 0 0
26.19071 955.52155 0 0 0
26.19951 959.03571 0 0 0
26.20831 963.35864 0 0 0
26.21711 967.43793 0 0 0
26.22592 971.89276 0 0 0
26.23472 976.12482 0 0 0
26.24352 978.27826 0 0 0
26.25232 979.3645 0 0 0
26.26113 975.96893 0 0 0
26.26993 970.54388 0 0 0
26.27873 963.76318 0 0 0
26.28753 957.00177 0 0 0
26.29633 951.62372 0 0 0
26.30514 946.47797 0 0 0
26.31394 940.92145 0 0 0
26.32274 936.55157 0 0 0
26.33154 933.70593 0 0 0
26.34034 928.99756 0 0 0
26.34915 925.49933 0 0 0
26.35795 923.34521 0 0 0
26.36675 921.75873 0 0 0
26.37555 920.46814 0 0 0
26.38435 919.18909 0 0 0
26.39316 918.49323 0 0 0
26.40196 918.29565 0 0 0
26.41076 918.98193 0 0 0
26.41956 919.07758 0 0 0
26.42837 919.52557 0 0 0
26.43717 920.99585 0 0 0
26.44597 921.56311 0 0 0
26.45477 921.67505 0 0 0
26.46357 922.26477 0 0 0
26.47238 923.52576 0 0 0
26.48118 926.01166 0 0 0
26.48998 927.85083 0 0 0
26.49878 928.52014 0 0 0
26.50758 929.75 0 0 0
26.51639 930.85419 0 0 0
26.52519 931.72827 0 0 0
26.53399 933.81543 0 0 0
26.54279 935.40894 0 0 0
26.55159 936.93011 0 0 0
26.56040 938.90967 0 0 0
26.56920 940.40118 0 0 0
26.57800 942.02533 0 0 0
26.58680 942.48456 0 0 0
26.59561 941.60394 0 0 0
26.60441 941.34406 0 0 0
26.61321 940.76001 0 0 0
26.62201 939.42517 0 0 0
26.63081 939.31378 0 0 0
26.63962 939.24097 0 0 0
26.64842 938.53094 0 0 0
26.65722 937.81885 0 0 0
26.66602 937.0025 0 0 0
26.67482 934.86078 0 0 0
26.68363 933.79364 0 0 0
26.69243 933.68488 0 0 0
26.70123 931.38641 0 0 0
26.71003 928.81628 0 0 0
26.71884 926.59265 0 0 0
26.72764 924.89862 0 0 0
26.73644 924.96057 0 0 0
26.74524 924.36017 0 0 0
26.75404 922.71179 0 0 0
26.76285 922.88568 0 0 0
26.77165 924.02985 0 0 0
26.78045 924.95184 0 0 0
26.78925 925.59973 0 0 0
26.79805 924.73755 0 0 0
26.80686 924.5047 0 0 0
26.81566 925.00262 0 0 0
26.82446 924.99023 0 0 0
26.83326 925.83063 0 0 0
26.84206 926.30444 0 0 0
26.85087 925.34253 0 0 0
26.85967 925.19098 0 0 0
26.86847 925.61047 0 0 0
26.87727 924.2865 0 0 0
26.88608 922.17554 0 0 0
26.89488 921.41614 0 0 0
26.90368 920.26355 0 0 0
26.91248 918.99292 0 0 0
26.92128 918.27283 0 0 0
26.93009 916.25995 0 0 0
26.93889 914.91223 0 0 0
26.94769 914.26141 0 0 0
26.95649 913.23822 0 0 0
26.96529 912.5741 0 0 0
26.97410 911.63647 0 0 0
26.98290 911.26825 0 0 0
26.99170 910.15247 0 0 0
27.00050 908.93127 0 0 0
27.00930 909.00342 0 0 0
27.01811 908.55414 0 0 0
27.02691 907.77905 0 0 0
27.03571 906.90613 0 0 0
27.04451 906.21686 0 0 0
27.05332 905.60699 0 0 0
27.06212 905.69269 0 0 0
27.07092 905.31366 0 0 0
27.07972 904.94391 0 0 0
27.08852 905.10992 0 0 0
27.09733 904.43396 0 0 0
27.10613 903.51086 0 0 0
27.11493 902.76282 0 0 0
27.12373 902.23358 0 0 0
27.13253 900.85474 0 0 0
27.14134 900.14996 0 0 0
27.15014 900.09283 0 0 0
27.15894 899.1792 0 0 0
27.16774 898.47565 0 0 0
27.17655 898.57849 0 0 0
27.18535 899.63568 0 0 0
27.19415 899.62909 0 0 0
27.20295 899.00208 0 0 0
27.21175 900.1308 0 0 0
27.22056 900.91125 0 0 0
27.22936 900.8161 0 0 0
27.23816 899.05627 0 0 0
27.24696 896.85474 0 0 0
27.25576 896.69324 0 0 0
27.26457 896.85596 0 0 0
27.27337 897.33978 0 0 0
27.28217 897.15662 0 0 0
27.29097 895.91644 0 0 0
27.29977 894.95691 0 0 0
27.30858 894.57922 0 0 0
27.31738 896.04669 0 0 0
27.32618 896.80994 0 0 0
27.33498 896.75562 0 0 0
27.34379 897.46252 0 0 0
27.35259 898.13751 0 0 0
27.36139 898.22717 0 0 0
27.37019 897.78577 0 0 0
27.37899 899.1181 0 0 0
27.38780 900.52167 0 0 0
27.39660 901.70911 0 0 0
27.40540 904.31683 0 0 0
27.41420 906.89642 0 0 0
27.42300 908.75159 0 0 0
27.43181 911.18561 0 0 0
27.44061 913.61139 0 0 0
27.44941 914.76654 0 0 0
27.45821 916.96198 0 0 0
27.46701 919.93652 0 0 0
27.47582 921.30298 0 0 0
27.48462 922.10352 0 0 0
27.49342 922.78625 0 0 0
27.50222 922.83252 0 0 0
27.51103 922.75012 0 0 0
27.51983 922.67627 0 0 0
27.52863 922.28796 0 0 0
27.53743 920.67859 0 0 0
27.54623 917.7157 0 0 0
27.55504 916.16296 0 0 0
27.56384 914.71448 0 0 0
27.57264 912.47894 0 0 0
27.58144 911.24677 0 0 0
27.59024 909.5202 0 0 0
27.59905 908.2384 0 0 0
27.60785 907.10107 0 0 0
27.61665 905.35529 0 0 0
27.62545 904.45941 0 0 0
27.63426 903.52203 0 0 0
27.64306 903.16193 0 0 0
27.65186 903.76563 0 0 0
27.66066 903.6488 0 0 0
27.66946 903.09692 0 0 0
27.67827 902.8382 0 0 0
27.68707 903.37341 0 0 0
27.69587 904.52319 0 0 0
27.70467 905.96063 0 0 0
27.71347 906.1142 0 0 0
27.72228 906.38293 0 0 0
27.73108 907.28937 0 0 0
27.73988 907.26642 0 0 0
27.74868 907.38 0 0 0
27.75748 908.93713 0 0 0
27.76629 911.19055 0 0 0
27.77509 912.32916 0 0 0
27.78389 913.65851 0 0 0
27.79269 914.89642 0 0 0
27.80150 916.33496 0 0 0
27.81030 918.24463 0 0 0
27.81910 919.90942 0 0 0
27.82790 921.43164 0 0 0
27.83670 922.71326 0 0 0
27.84551 923.97424 0 0 0
27.85431 924.58765 0 0 0
27.86311 924.51373 0 0 0
27.87191 924.86517 0 0 0
27.88071 925.23676 0 0 0
27.88952 925.24884 0 0 0
27.89832 925.06567 0 0 0
27.90712 923.69409 0 0 0
27.91592 924.05438 0 0 0
27.92472 924.51617 0 0 0
27.93353 922.27112 0 0 0
27.94233 919.88782 0 0 0
27.95113 917.1228 0 0 0
27.95993 915.17889 0 0 0
27.96874 914.00641 0 0 0
27.97754 911.45453 0 0 0
27.98634 908.8028 0 0 0
27.99514 907.61066 0 0 0
28.00394 906.2738 0 0 0
28.01275 904.53998 0 0 0
28.02155 903.2569 0 0 0
28.03035 901.4303 0 0 0
28.03915 899.52832 0 0 0
28.04796 898.57507 0 0 0
28.05676 898.11133 0 0 0
28.06556 898.65979 0 0 0
28.07436 898.49377 0 0 0
28.08316 897.29547 0 0 0
28.09196 896.92889 0 0 0
28.10077 895.84802 0 0 0
28.10957 894.86877 0 0 0
28.11837 893.96527 0 0 0
28.12717 893.32538 0 0 0
28.13598 893.40564 0 0 0
28.14478 893.82147 0 0 0
28.15358 894.82141 0 0 0
28.16238 895.46838 0 0 0
28.17119 895.68677 0 0 0
28.17999 895.17371 0 0 0
28.18879 894.97589 0 0 0
28.19759 894.42761 0 0 0
28.20639 895.41809 0 0 0
28.21520 897.66968 0 0 0
28.22400 896.82892 0 0 0
28.23280 896.60211 0 0 0
28.24160 897.48431 0 0 0
28.25040 898.4621 0 0 0
28.25921 898.83368 0 0 0
28.26801 898.17426 0 0 0
28.27681 898.76385 0 0 0
28.28561 899.6424 0 0 0
28.29442 899.2804 0 0 0
28.30322 898.48328 0 0 0
28.31202 898.84674 0 0 0
28.32082 899.85687 0 0 0
28.32962 894.69611 0 0 0
28.33843 878.10486 0 0 0
28.34723 876.05914 0 0 0
28.35603 885.75415 0 0 0
28.36483 889.21912 0 0 0
28.37363 892.50623 0 0 0
28.38244 894.68561 0 0 0
28.39124 896.33124 0 0 0
28.40004 897.48334 0 0 0
28.40884 899.25275 0 0 0
28.41765 903.67828 0 0 0
28.42645 908.06171 0 0 0
28.43525 909.34436 0 0 0
28.44405 910.98865 0 0 0
28.45285 913.91077 0 0 0
28.46166 916.02191 0 0 0
28.47046 919.17554 0 0 0
28.47926 923.53857 0 0 0
28.48806 925.82428 0 0 0
28.49686 926.08136 0 0 0
28.50567 926.87317 0 0 0
28.51447 927.07123 0 0 0
28.52327 927.33008 0 0 0
28.53207 929.01257 0 0 0
28.54087 929.74518 0 0 0
28.54968 930.57635 0 0 0
28.55848 931.43835 0 0 0
28.56728 930.12738 0 0 0
28.57608 930.00128 0 0 0
28.58488 929.2041 0 0 0
28.59369 927.76288 0 0 0
28.60249 928.99078 0 0 0
28.61129 927.70508 0 0 0
28.62009 926.25482 0 0 0
28.62889 924.9588 0 0 0
28.63770 922.65509 0 0 0
28.64650 921.60138 0 0 0
28.65530 920.1283 0 0 0
28.66410 918.00739 0 0 0
28.67291 916.14868 0 0 0
28.68171 914.88477 0 0 0
28.69051 912.42157 0 0 0
28.69931 909.24237 0 0 0
28.70811 905.36627 0 0 0
28.71692 901.5849 0 0 0
28.72572 899.97113 0 0 0
28.73452 898.06958 0 0 0
28.74332 896.11169 0 0 0
28.75212 894.76086 0 0 0
28.76093 892.64569 0 0 0
28.76973 891.57562 0 0 0
28.77853 890.74768 0 0 0
28.78733 888.67584 0 0 0
28.79613 888.01038 0 0 0
28.80494 888.45184 0 0 0
28.81374 887.23328 0 0 0
28.82254 885.84851 0 0 0
28.83134 885.89185 0 0 0
28.84014 884.96844 0 0 0
28.84895 883.63306 0 0 0
28.85775 883.78479 0 0 0
28.86655 884.8313 0 0 0
28.87535 885.54657 0 0 0
28.88416 885.78833 0 0 0
28.89296 886.11682 0 0 0
28.90176 884.97601 0 0 0
28.91056 884.56116 0 0 0
28.91936 885.41516 0 0 0
28.92817 885.90698 0 0 0
28.93697 885.57446 0 0 0
28.94577 885.68671 0 0 0
28.95457 886.34967 0 0 0
28.96337 886.6333 0 0 0
28.97218 884.62793 0 0 0
28.98098 882.45959 0 0 0
28.98978 883.7323 0 0 0
28.99858 884.50525 0 0 0
29.00738 884.81097 0 0 0
29.01619 885.83075 0 0 0
29.02499 887.86371 0 0 0
29.03379 889.73877 0 0 0
29.04259 890.76508 0 0 0
29.05140 890.41705 0 0 0
29.06020 889.8017 0 0 0
29.06900 889.96436 0 0 0
29.07780 890.13367 0 0 0
29.08660 890.73676 0 0 0
29.09541 891.18909 0 0 0
29.10421 892.65637 0 0 0
29.11301 893.86591 0 0 0
29.12181 895.01495 0 0 0
29.13061 896.66895 0 0 0
29.13942 898.66992 0 0 0
29.14822 901.26154 0 0 0
29.15702 901.34503 0 0 0
29.16583 901.62714 0 0 0
29.17463 903.66071 0 0 0
29.18343 904.17505 0 0 0
29.19223 902.01825 0 0 0
29.20103 900.16852 0 0 0
29.20984 899.44244 0 0 0
29.21864 899.15137 0 0 0
29.22744 899.97333 0 0 0
29.23624 902.18744 0 0 0
29.24504 903.55359 0 0 0
29.25384 901.72144 0 0 0
29.26265 901.63556 0 0 0
29.27145 904.38196 0 0 0
29.28025 906.7392 0 0 0
29.28906 906.68756 0 0 0
29.29785 905.32825 0 0 0
29.30666 904.00098 0 0 0
29.31546 901.44043 0 0 0
29.32426 899.91193 0 0 0
29.33307 900.80811 0 0 0
29.34187 901.79895 0 0 0
29.35067 901.81714 0 0 0
29.35947 901.86652 0 0 0
29.36827 902.18243 0 0 0
29.37708 902.9021 0 0 0
29.38588 903.95276 0 0 0
29.39468 906.01758 0 0 0
29.40348 908.44775 0 0 0
29.41228 910.31934 0 0 0
29.42109 911.18048 0 0 0
29.42989 912.57635 0 0 0
29.43869 914.6413 0 0 0
29.44749 916.30652 0 0 0
29.45630 918.90393 0 0 0
29.46510 922.27832 0 0 0
29.47390 925.39044 0 0 0
29.48270 928.56567 0 0 0
29.49150 930.12183 0 0 0
29.50031 929.5838 0 0 0
29.50911 931.76105 0 0 0
29.51791 933.99432 0 0 0
29.52671 933.97589 0 0 0
29.53551 934.44769 0 0 0
29.54432 934.98962 0 0 0
29.55312 934.20679 0 0 0
29.56192 933.19727 0 0 0
29.57072 934.07013 0 0 0
29.57952 932.78339 0 0 0
29.58833 930.4068 0 0 0
29.59713 928.99414 0 0 0
29.60593 927.73511 0 0 0
29.61473 927.19391 0 0 0
29.62354 927.76727 0 0 0
29.63234 927.7851 0 0 0
29.64114 928.10577 0 0 0
29.64994 928.7074 0 0 0
29.65874 927.29657 0 0 0
29.66755 926.50562 0 0 0
29.67635 925.27844 0 0 0
29.68515 923.17706 0 0 0
29.69395 921.59473 0 0 0
29.70275 921.04181 0 0 0
29.71156 919.86542 0 0 0
29.72036 917.95807 0 0 0
29.72916 916.75848 0 0 0
29.73796 914.20374 0 0 0
29.74676 912.06348 0 0 0
29.75557 910.79498 0 0 0
29.76437 908.10071 0 0 0
29.77317 906.43005 0 0 0
29.78197 906.73077 0 0 0
29.79078 904.53345 0 0 0
29.79958 902.23871 0 0 0
29.80838 902.45984 0 0 0
29.81718 903.09644 0 0 0
29.82598 901.87494 0 0 0
29.83479 899.55286 0 0 0
29.84359 899.4942 0 0 0
29.85239 899.60779 0 0 0
29.86119 896.97339 0 0 0
29.86999 896.67957 0 0 0
29.87880 897.67249 0 0 0
29.88760 896.39459 0 0 0
29.89640 895.98303 0 0 0
29.90520 897.30194 0 0 0
29.91400 897.32428 0 0 0
29.92281 897.68634 0 0 0
29.93161 898.88495 0 0 0
29.94041 898.5415 0 0 0
29.94921 898.59882 0 0 0
29.95801 900.42615 0 0 0
29.96682 899.96893 0 0 0
29.97562 898.42047 0 0 0
29.98442 899.33234 0 0 0
29.99322 901.54449 0 0 0
30.00203 902.54626 0 0 0
30.01083 902.25714 0 0 0
30.01963 902.18842 0 0 0
30.02843 902.69873 0 0 0
30.03723 902.77148 0 0 0
30.04604 902.58862 0 0 0
30.05484 902.20123 0 0 0
30.06364 901.86395 0 0 0
30.07244 903.00146 0 0 0
30.08124 904.50812 0 0 0
30.09005 906.01416 0 0 0
30.09885 907.29791 0 0 0
30.10765 909.92786 0 0 0
30.11645 914.72321 0 0 0
30.12526 917.6731 0 0 0
30.13406 918.49286 0 0 0
30.14286 919.40411 0 0 0
30.15166 920.83606 0 0 0
30.16046 920.75513 0 0 0
30.16927 919.47375 0 0 0
30.17807 918.47357 0 0 0
30.18687 919.33868 0 0 0
30.19567 922.08405 0 0 0
30.20447 923.38501 0 0 0
30.21328 922.19415 0 0 0
30.22208 919.52386 0 0 0
30.23088 917.94543 0 0 0
30.23968 918.33539 0 0 0
30.24849 916.70667 0 0 0
30.25729 914.12567 0 0 0
30.26609 914.52222 0 0 0
30.27489 913.07458 0 0 0
30.28369 912.43658 0 0 0
30.29250 912.47656 0 0 0
30.30130 910.94312 0 0 0
30.31010 911.90637 0 0 0
30.31890 912.37628 0 0 0
30.32770 912.32367 0 0 0
30.33651 915.31958 0 0 0
30.34531 920.10107 0 0 0
30.35411 921.69354 0 0 0
30.36291 920.28552 0 0 0
30.37172 918.78278 0 0 0
30.38052 917.79669 0 0 0
30.38932 916.54572 0 0 0
30.39812 915.87781 0 0 0
30.40692 915.1626 0 0 0
30.41573 912.34216 0 0 0
30.42453 910.00922 0 0 0
30.43333 908.33447 0 0 0
30.44213 907.43079 0 0 0
30.45093 903.65985 0 0 0
30.45974 901.11005 0 0 0
30.46854 900.76215 0 0 0
30.47734 900.61298 0 0 0
30.48614 898.01147 0 0 0
30.49494 895.47479 0 0 0
30.50375 894.14795 0 0 0
30.51255 894.01654 0 0 0
30.52135 892.49982 0 0 0
30.53015 889.64471 0 0 0
30.53896 886.93219 0 0 0
30.54776 886.50464 0 0 0
30.55656 887.63348 0 0 0
30.56536 887.38538 0 0 0
30.57416 885.7865 0 0 0
30.58297 886.50647 0 0 0
30.59177 887.32343 0 0 0
30.60057 886.98779 0 0 0
30.60937 886.5882 0 0 0
30.61817 886.24738 0 0 0
30.62698 886.99896 0 0 0
30.63578 885.73267 0 0 0
30.64458 885.17572 0 0 0
30.65338 887.71185 0 0 0
30.66218 890.12262 0 0 0
30.67099 887.29535 0 0 0
30.67979 885.6319 0 0 0
30.68859 884.63458 0 0 0
30.69739 883.27911 0 0 0
30.70620 884.47766 0 0 0
30.71500 884.01068 0 0 0
30.72380 883.99152 0 0 0
30.73260 885.44452 0 0 0
30.74140 886.50189 0 0 0
30.75021 886.10901 0 0 0
30.75901 885.94366 0 0 0
30.76781 886.41479 0 0 0
30.77661 886.70923 0 0 0
30.78541 886.01495 0 0 0
30.79422 884.72534 0 0 0
30.80302 883.78259 0 0 0
30.81182 885.08307 0 0 0
30.82062 883.914 0 0 0
30.82943 883.06427 0 0 0
30.83823 883.11981 0 0 0
30.84703 882.59479 0 0 0
30.85583 883.71655 0 0 0
30.86463 882.67737 0 0 0
30.87344 880.79663 0 0 0
30.88224 883.23523 0 0 0
30.89104 886.92822 0 0 0
30.89984 887.15698 0 0 0
30.90864 884.65863 0 0 0
30.91745 881.93646 0 0 0
30.92625 884.89124 0 0 0
30.93505 885.68225 0 0 0
30.94385 883.31531 0 0 0
30.95265 884.53345 0 0 0
30.96146 886.76215 0 0 0
30.97026 886.94611 0 0 0
30.97906 886.58905 0 0 0
30.98786 883.19464 0 0 0
30.99667 880.3963 0 0 0
31.00547 879.31226 0 0 0
31.01427 880.92944 0 0 0
31.02307 881.97473 0 0 0
31.03187 880.20453 0 0 0
31.04068 879.81757 0 0 0
31.04948 878.34442 0 0 0
31.05828 876.38489 0 0 0
31.06708 877.41626 0 0 0
31.07588 880.90283 0 0 0
31.08469 881.97253 0 0 0
31.09349 879.60413 0 0 0
31.10229 876.10242 0 0 0
31.11109 876.07758 0 0 0
31.11989 880.01276 0 0 0
31.12870 880.40076 0 0 0
31.13750 877.97266 0 0 0
31.14630 879.20532 0 0 0
31.15510 881.85547 0 0 0
31.16391 877.76422 0 0 0
31.17271 876.07214 0 0 0
31.18151 876.62524 0 0 0
31.19031 875.32562 0 0 0
31.19911 875.84552 0 0 0
31.20792 875.57928 0 0 0
31.21672 876.76794 0 0 0
31.22552 879.6377 0 0 0
31.23432 880.008 0 0 0
31.24312 877.59229 0 0 0
31.25193 878.43286 0 0 0
31.26073 879.54364 0 0 0
31.26953 879.57056 0 0 0
31.27833 879.93689 0 0 0
31.28714 879.31195 0 0 0
31.29594 879.19592 0 0 0
31.30474 878.07715 0 0 0
31.31354 878.93573 0 0 0
31.32234 881.70148 0 0 0
31.33115 881.28827 0 0 0
31.33995 879.76166 0 0 0
31.34875 878.75726 0 0 0
31.35755 878.68073 0 0 0
31.36635 879.29718 0 0 0
31.37516 881.66449 0 0 0
31.38396 883.33264 0 0 0
31.39276 882.66107 0 0 0
31.40156 882.0354 0 0 0
31.41036 880.31836 0 0 0
31.41917 879.39404 0 0 0
31.42797 884.02667 0 0 0
31.43677 888.36908 0 0 0
31.44557 888.02777 0 0 0
31.45438 888.3031 0 0 0
31.46318 888.36133 0 0 0
31.47198 889.43817 0 0 0
31.48078 889.87756 0 0 0
31.48958 891.34454 0 0 0
31.49839 895.09717 0 0 0
31.50719 897.93878 0 0 0
31.51599 899.24371 0 0 0
31.52479 901.0387 0 0 0
31.53359 902.23773 0 0 0
31.54240 903.31097 0 0 0
31.55120 906.97351 0 0 0
31.56000 908.32446 0 0 0
31.56880 908.23334 0 0 0
31.57760 907.953 0 0 0
31.58641 909.62061 0 0 0
31.59521 910.62244 0 0 0
31.60401 910.40613 0 0 0
31.61281 910.25122 0 0 0
31.62162 906.72168 0 0 0
31.63042 905.04144 0 0 0
31.63922 905.47205 0 0 0
31.64802 903.26056 0 0 0
31.65682 904.28888 0 0 0
31.66563 905.14935 0 0 0
31.67443 900.94061 0 0 0
31.68323 896.6239 0 0 0
31.69203 895.46051 0 0 0
31.70083 899.70868 0 0 0
31.70964 900.70752 0 0 0
31.71844 896.80829 0 0 0
31.72724 892.20532 0 0 0
31.73604 891.43927 0 0 0
31.74485 894.29895 0 0 0
31.75365 896.47595 0 0 0
31.76245 892.72845 0 0 0
31.77125 889.4032 0 0 0
31.78005 888.91461 0 0 0
31.78886 888.66083 0 0 0
31.79766 890.3797 0 0 0
31.80646 888.82806 0 0 0
31.81526 887.53003 0 0 0
31.82406 888.73346 0 0 0
31.83287 887.29749 0 0 0
31.84167 884.71301 0 0 0
31.85047 881.66461 0 0 0
31.85927 882.67981 0 0 0
31.86807 887.79504 0 0 0
31.87688 887.62482 0 0 0
31.88568 882.63843 0 0 0
31.89448 879.1272 0 0 0
31.90328 879.0592 0 0 0
31.91209 871.37817 0 0 0
31.92089 863.91278 0 0 0
31.92969 863.44861 0 0 0
31.93849 866.44293 0 0 0
31.94729 863.89685 0 0 0
31.95610 859.05188 0 0 0
31.96490 857.54303 0 0 0
31.97370 856.336 0 0 0
31.98250 856.34534 0 0 0
31.99130 853.90045 0 0 0
32.00011 856.66815 0 0 0
32.00891 859.56311 0 0 0
32.01771 853.73315 0 0 0
32.02651 847.35437 0 0 0
32.03532 848.32806 0 0 0
32.04412 853.34247 0 0 0
32.05292 853.99127 0 0 0
32.06172 854.81641 0 0 0
32.07052 852.3988 0 0 0
32.07933 847.75653 0 0 0
32.08813 849.21979 0 0 0
32.09693 849.64008 0 0 0
32.10573 849.88171 0 0 0
32.11454 852.29456 0 0 0
32.12334 859.32324 0 0 0
32.13214 857.55499 0 0 0
32.14094 849.66223 0 0 0
32.14974 853.23767 0 0 0
32.15855 850.78088 0 0 0
32.16735 852.25134 0 0 0
32.17615 857.96436 0 0 0
32.18495 852.72644 0 0 0
32.19375 843.43372 0 0 0
32.20256 843.2182 0 0 0
32.21136 846.74255 0 0 0
32.22016 846.40814 0 0 0
32.22896 841.93304 0 0 0
32.23776 837.69257 0 0 0
32.24657 833.94116 0 0 0
32.25537 841.44598 0 0 0
32.26417 839.23053 0 0 0
32.27297 837.85809 0 0 0
32.28178 842.61646 0 0 0
32.29058 840.60388 0 0 0
32.29938 836.04248 0 0 0
32.30818 832.38831 0 0 0
32.31698 830.45575 0 0 0
32.32579 832.44 0 0 0
32.33459 832.91351 0 0 0
32.34339 828.38214 0 0 0
32.35219 828.784 0 0 0
32.36099 824.54053 0 0 0
32.36980 820.02979 0 0 0
32.37860 821.98352 0 0 0
32.38740 831.8288 0 0 0
32.39620 838.95837 0 0 0
32.40500 838.30981 0 0 0
32.41381 838.25623 0 0 0
32.42261 840.88904 0 0 0
32.43141 843.02545 0 0 0
32.44021 840.09241 0 0 0
32.44902 839.38611 0 0 0
32.45782 846.66113 0 0 0
32.46662 838.02228 0 0 0
32.47542 833.87042 0 0 0
32.48422 834.93738 0 0 0
32.49303 834.33002 0 0 0
32.50183 838.05914 0 0 0
32.51063 836.31976 0 0 0
32.51943 833.60571 0 0 0
32.52823 825.70825 0 0 0
32.53704 824.39514 0 0 0
32.54584 827.30023 0 0 0
32.55464 826.5802 0 0 0
32.56344 824.01172 0 0 0
32.57225 829.4007 0 0 0
32.58105 828.20795 0 0 0
32.58985 815.32666 0 0 0
32.59865 805.11377 0 0 0
32.60745 809.07971 0 0 0
32.61626 806.33539 0 0 0
32.62506 802.97821 0 0 0
32.63386 813.34344 0 0 0
32.64266 803.76349 0 0 0
32.65146 788.21527 0 0 0
32.66027 784.48163 0 0 0
32.66907 786.81659 0 0 0
32.67787 778.88257 0 0 0
32.68667 767.48029 0 0 0
32.69547 763.87335 0 0 0
32.70428 767.2196 0 0 0
32.71308 754.75446 0 0 0
32.72188 740.71381 0 0 0
32.73068 738.37225 0 0 0
32.73949 736.22131 0 0 0
32.74829 727.23407 0 0 0
32.75709 713.67529 0 0 0
32.76589 700.97833 0 0 0
32.77469 683.46515 0 0 0
32.78350 653.78717 0 0 0
32.79230 625.78961 0 0 0
32.80110 589.45392 0 0 0
32.80990 537.3382 0 0 0
32.81870 482.29135 0 0 0
32.82751 406.92581 0 0 0
32.83631 272.17709 0 0 0
32.84511 181.58066 0 0 0
32.85391 183.22665 0 0 0
32.86271 198.72586 0 0 0
32.87152 200.55928 0 0 0
32.88032 188.20184 0 0 0
32.88912 188.59911 0 0 0
32.89792 191.8139 0 0 0
32.90673 197.62073 0 0 0
32.91553 207.90439 0 0 0
32.92433 209.66342 0 0 0
32.93313 193.1436 0 0 0
32.94193 175.72501 0 0 0
32.95074 171.92509 0 0 0
32.95954 170.21461 0 0 0
32.96834 165.98074 0 0 0
32.97714 165.57442 0 0 0
32.98594 175.5032 0 0 0
32.99475 188.4593 0 0 0
33.00355 193.37025 0 0 0
33.01235 192.30919 0 0 0
33.02115 191.01703 0 0 0
33.02996 190.4608 0 0 0
33.03876 187.37611 0 0 0
33.04756 185.52675 0 0 0
33.05636 178.60115 0 0 0
33.06516 184.70137 0 0 0
33.07397 190.64894 0 0 0
33.08277 196.78577 0 0 0
33.09157 189.57347 0 0 0
33.10037 180.06375 0 0 0
33.10917 183.46246 0 0 0
33.11798 185.06973 0 0 0
33.12678 179.40584 0 0 0
33.13558 178.75986 0 0 0
33.14438 191.6075 0 0 0
33.15318 196.21692 0 0 0
33.16199 184.72398 0 0 0
33.17079 176.05321 0 0 0
33.17959 181.12328 0 0 0
33.18839 190.63512 0 0 0
33.19720 197.57033 0 0 0
33.20600 190.68185 0 0 0
33.21480 185.55612 0 0 0
33.22360 191.64043 0 0 0
33.23240 198.90131 0 0 0
33.24121 190.72433 0 0 0
33.25001 180.99857 0 0 0
33.25881 177.36824 0 0 0
33.26761 174.27478 0 0 0
33.27641 181.63535 0 0 0
33.28522 184.46599 0 0 0
33.29402 177.76167 0 0 0
33.30282 169.50322 0 0 0
33.31162 175.95918 0 0 0
33.32042 187.84758 0 0 0
33.32923 183.12541 0 0 0
33.33803 172.82822 0 0 0
33.34683 170.94067 0 0 0
33.35563 170.97462 0 0 0
33.36444 168.47757 0 0 0
33.37324 170.69519 0 0 0
33.38204 173.65643 0 0 0
33.39084 179.8732 0 0 0
33.39964 183.37083 0 0 0
33.40845 185.70949 0 0 0
33.41725 193.9579 0 0 0
33.42605 200.70134 0 0 0
33.43485 195.20776 0 0 0
33.44365 189.50473 0 0 0
33.45246 190.41557 0 0 0
33.46126 193.93143 0 0 0
33.47006 199.05647 0 0 0
33.47886 197.2812 0 0 0
33.48766 192.0488 0 0 0
33.49647 190.10144 0 0 0
33.50527 183.67519 0 0 0
33.51407 181.41133 0 0 0
33.52287 182.15921 0 0 0
33.53168 190.55844 0 0 0
33.54048 206.2989 0 0 0
33.54928 210.87094 0 0 0
33.55808 201.505 0 0 0
33.56688 187.3259 0 0 0
33.57569 186.32919 0 0 0
33.58449 194.01845 0 0 0
33.59329 197.14505 0 0 0
33.60209 208.62047 0 0 0
33.61089 215.10661 0 0 0
33.61970 201.02766 0 0 0
33.62850 182.99004 0 0 0
33.63730 184.14293 0 0 0
33.64610 192.7352 0 0 0
33.65491 198.62917 0 0 0
33.66371 197.94778 0 0 0
33.67251 186.29863 0 0 0
33.68131 175.67502 0 0 0
33.69011 174.32684 0 0 0
33.69892 184.90279 0 0 0
33.70772 187.05186 0 0 0
33.71652 179.69032 0 0 0
33.72532 178.30785 0 0 0
33.73412 185.71495 0 0 0
33.74293 195.86116 0 0 0
33.75173 203.97705 0 0 0
33.76053 195.26573 0 0 0
33.76933 192.59555 0 0 0
33.77813 198.48738 0 0 0
33.78694 207.18753 0 0 0
33.79574 203.54205 0 0 0
33.80454 190.93903 0 0 0
33.81334 183.66946 0 0 0
33.82215 175.99696 0 0 0
33.83095 171.85623 0 0 0
33.83975 181.50012 0 0 0
33.84855 193.68008 0 0 0
33.85735 197.02554 0 0 0
33.86616 192.35858 0 0 0
33.87496 196.45294 0 0 0
33.88376 195.24899 0 0 0
33.89256 190.04921 0 0 0
33.90136 188.12509 0 0 0
33.91017 186.98357 0 0 0
33.91897 189.81149 0 0 0
33.92777 187.97623 0 0 0
33.93657 184.01508 0 0 0
33.94537 191.78914 0 0 0
33.95418 201.57433 0 0 0
33.96298 205.72458 0 0 0
33.97178 206.49825 0 0 0
33.98058 211.54759 0 0 0
33.98939 213.06415 0 0 0
33.99819 208.18114 0 0 0
34.00699 201.04181 0 0 0
34.01579 202.72902 0 0 0
34.02459 201.77145 0 0 0
34.03340 195.53371 0 0 0
34.04220 206.5099 0 0 0
34.05100 211.28557 0 0 0
34.05980 215.54768 0 0 0
34.06860 212.49036 0 0 0
34.07741 198.27574 0 0 0
34.08621 193.69469 0 0 0
34.09501 201.8791 0 0 0
34.10381 213.30797 0 0 0
34.11262 215.98759 0 0 0
34.12142 203.45253 0 0 0
34.13022 196.58803 0 0 0
34.13902 209.75473 0 0 0
34.14782 209.49225 0 0 0
34.15663 203.82352 0 0 0
34.16543 199.10907 0 0 0
34.17423 196.74547 0 0 0
34.18303 196.4063 0 0 0
34.19183 202.64314 0 0 0
34.20064 197.26797 0 0 0
34.20944 193.04381 0 0 0
34.21824 201.43539 0 0 0
34.22704 207.79861 0 0 0
34.23584 201.6059 0 0 0
34.24465 193.06345 0 0 0
34.25345 189.32172 0 0 0
34.26225 201.58414 0 0 0
34.27105 208.31808 0 0 0
34.27986 206.1701 0 0 0
34.28866 197.29944 0 0 0
34.29746 198.44447 0 0 0
34.30626 196.34952 0 0 0
34.31506 204.59158 0 0 0
34.32387 212.47292 0 0 0
34.33267 211.8239 0 0 0
34.34147 209.24538 0 0 0
34.35027 200.17848 0 0 0
34.35907 196.96585 0 0 0
34.36788 205.58127 0 0 0
34.37668 215.83636 0 0 0
34.38548 210.49596 0 0 0
34.39428 203.31781 0 0 0
34.40308 195.05205 0 0 0
34.41189 193.6781 0 0 0
34.42069 194.93715 0 0 0
34.42949 201.42264 0 0 0
34.43829 201.77943 0 0 0
34.44710 197.31137 0 0 0
34.45590 197.23734 0 0 0
34.46470 198.25288 0 0 0
34.47350 205.52522 0 0 0
34.48230 204.87984 0 0 0
34.49111 198.33247 0 0 0
34.49991 192.65665 0 0 0
34.50871 192.95699 0 0 0
34.51751 189.00203 0 0 0
34.52631 185.22813 0 0 0
34.53512 196.15671 0 0 0
34.54392 211.02417 0 0 0
34.55272 219.01633 0 0 0
34.56152 221.05661 0 0 0
34.57033 216.68471 0 0 0
34.57913 206.86118 0 0 0
34.58793 198.72162 0 0 0
34.59673 197.44421 0 0 0
34.60553 202.20905 0 0 0
34.61434 206.54663 0 0 0
34.62314 203.4561 0 0 0
34.63194 207.90439 0 0 0
34.64074 208.39856 0 0 0
34.64954 215.56844 0 0 0
34.65835 214.33316 0 0 0
34.66715 208.06947 0 0 0
34.67595 213.25626 0 0 0
34.68475 221.55865 0 0 0
34.69355 203.34705 0 0 0
34.70236 201.08205 0 0 0
34.71116 240.13716 0 0 0
34.71996 265.79089 0 0 0
34.72876 247.96597 0 0 0
34.73757 206.31096 0 0 0
34.74637 188.54831 0 0 0
34.75517 186.68265 0 0 0
34.76397 191.31535 0 0 0
34.77277 197.25154 0 0 0
34.78158 213.01167 0 0 0
34.79038 217.95419 0 0 0
34.79918 220.37578 0 0 0
34.80798 211.80872 0 0 0
34.81678 203.28757 0 0 0
34.82559 199.91808 0 0 0
34.83439 201.25748 0 0 0
34.84319 199.41107 0 0 0
34.85199 201.81699 0 0 0
34.86079 208.08536 0 0 0
34.86960 215.02585 0 0 0
34.87840 207.01266 0 0 0
34.88720 204.42834 0 0 0
34.89600 206.44704 0 0 0
34.90481 194.78485 0 0 0
34.91361 176.54922 0 0 0
34.92241 167.02582 0 0 0
34.93121 178.88805 0 0 0
34.94001 185.37756 0 0 0
34.94882 195.95886 0 0 0
34.95762 208.29417 0 0 0
34.96642 208.67332 0 0 0
34.97522 208.38579 0 0 0
34.98402 207.7141 0 0 0
34.99283 208.42418 0 0 0
35.00163 213.13284 0 0 0
35.01043 220.17468 0 0 0
35.01923 222.57817 0 0 0
35.02804 218.80154 0 0 0
35.03684 208.54326 0 0 0
35.04564 205.48523 0 0 0
35.05444 209.2747 0 0 0
35.06324 209.89842 0 0 0
35.07205 207.05733 0 0 0
35.08085 209.34377 0 0 0
35.08965 216.10895 0 0 0
35.09845 210.51408 0 0 0
35.10725 204.09679 0 0 0
35.11606 204.36232 0 0 0
35.12486 209.68532 0 0 0
35.13366 215.90865 0 0 0
35.14246 219.53937 0 0 0
35.15126 220.74225 0 0 0
35.16007 221.07834 0 0 0
35.16887 224.70413 0 0 0
35.17767 225.05157 0 0 0
35.18647 224.27203 0 0 0
35.19528 223.16963 0 0 0
35.20408 223.26843 0 0 0
loop_
_gsas_i100_meas
1.12
17.77
4.50
2.52
4.24
0.95
29.15
14.45
10.62
100.00
15.65
16.31
0.22
0.29
11.50
64.79
0.25
29.39
15.26
23.64
5.75
0.21
1.36
5.63
-0.69
30.24
5.28
27.79
4.80
0.21
3.56
-0.01
0.09
3.88
1.03
-0.00
1.36
1.62
7.97
16.75
12.98
3.24
5.21
0.06
1.41
0.01
0.19
0.39
13.69
0.29
4.71
7.59
5.16
0.49
3.08
4.03
0.56
7.33
4.01
0.00
7.58
0.47
27.89
0.01
3.07
1.41
-0.28
4.01
1.10
0.08
0.06
0.51
2.45
3.65
0.78
1.75
0.02
3.01
0.16
2.81
1.11
1.41
0.00
0.02
2.85
4.10
24.88
6.43
2.07
0.13
2.82
1.20
1.76
0.22
0.14
1.25
5.91
0.43
1.51
2.42
0.12
0.12
1.07
0.89
0.30
0.11
7.38
0.32
1.91
4.89
13.02
-0.12
2.12
6.30
2.73
2.69
0.42
0.01
0.00
0.36
0.69
0.37
2.82
0.07
0.02
1.74
10.30
0.32
2.85
0.18
0.11
0.48
0.12
0.12
2.68
1.56
-0.06
0.56
0.16
0.37
0.49
0.33
0.27
8.32
-0.06
7.19
0.06
0.36
0.04
5.44
0.74
1.18
0.07
0.06
0.31
0.67
0.08
2.91
4.16
0.00
1.48
4.43
0.19
0.23
0.49
1.12
0.01
0.38
1.68
0.11
1.04
0.93
0.01
1.47
0.43
0.05
0.42
0.21
0.30
0.00
0.02
0.00
0.17
0.00
0.04
0.26
0.17
