#------------------------------------------------------------------------------
#$Date: 2021-02-05 01:04:31 +0200 (Fri, 05 Feb 2021) $
#$Revision: 261628 $
#$URL: file:///home/coder/svn-repositories/cod/cif/7/24/18/7241830.cif $
#------------------------------------------------------------------------------
#
# This file is available in the Crystallography Open Database (COD),
# http://www.crystallography.net/
#
# All data on this site have been placed in the public domain by the
# contributors.
#
data_7241830
loop_
_publ_author_name
'Gu\'nka, Piotr A.'
'Hanfland, Michael'
'Chen, Yu-Sheng'
'Zachara, Janusz'
_publ_section_title
;
 High-pressure and low-temperature structural study of claudetite I, a
 monoclinic layered As2O3 polymorph
;
_journal_issue                   3
_journal_name_full               CrystEngComm
_journal_page_first              638
_journal_page_last               644
_journal_paper_doi               10.1039/D0CE01401J
_journal_volume                  23
_journal_year                    2021
_chemical_formula_moiety         'As2 O3'
_chemical_formula_sum            'As2 O3'
_chemical_formula_weight         197.84
_chemical_name_common            'claudetite I'
_chemical_name_systematic
;
arsenic(III) oxide
;
_space_group_IT_number           14
_space_group_name_Hall           '-P 2yn'
_space_group_name_H-M_alt        'P 1 21/n 1'
_symmetry_cell_setting           monoclinic
_symmetry_space_group_name_H-M   'P 1 21/n 1'
_audit_creation_date             2020-10-21T11:14
_audit_creation_method           'created in GSAS-II'
_audit_update_record
;
2020-10-22 deposited with the CCDC.	2020-12-10 downloaded from the CCDC.
;
_cell_angle_alpha                90
_cell_angle_beta                 94.593(6)
_cell_angle_gamma                90
_cell_formula_units_Z            4
_cell_length_a                   5.0087(6)
_cell_length_b                   12.31139(20)
_cell_length_c                   4.3629(4)
_cell_measurement_pressure       5.17e6(5)
_cell_measurement_temperature    293
_cell_volume                     268.17(4)
_computing_data_reduction        Fit2D
_computing_structure_refinement
'GSAS-II (Toby & Von Dreele, J. Appl. Cryst. 46, 544-549, 2013)'
_diffrn_ambient_pressure         5.17e6(5)
_diffrn_ambient_temperature      293
_diffrn_detector                 'Mar555 flat panel'
_diffrn_detector_type            'Mar555 flat panel'
_diffrn_measurement_device_type  'ESRF ID09A beamline'
_diffrn_radiation_monochromator  Si
_diffrn_radiation_polarisn_ratio 0.9900
_diffrn_radiation_probe          x-ray
_diffrn_radiation_wavelength     0.41421
_diffrn_source                   'ESRF ID09A'
_diffrn_source_type              synchrotron
_exptl_crystal_colour            colourless
_exptl_crystal_density_diffrn    4.9002
_exptl_crystal_description       'white powder'
_pd_block_id                     2020-10-21T11:14|clau1_009rietveld||id09a
_pd_calc_method                  'Rietveld Refinement'
_pd_meas_number_of_points        4000
_pd_phase_name                   claudetiteI
_pd_prep_pressure                100.0(1)
_pd_prep_temperature             293
_pd_proc_info_datetime           2020-10-21T11:14
_pd_proc_ls_background_function
;
Background function: "chebyschev" function with 15 terms:
    785.8(18), 487(8), -1.9(3)e2, -1.70(6)e3, 1.72(17)e3, 5.70(12)e3, 
    -1.391(23)e4, -5414(29), 4.657(10)e4, -7.15(11)e3, -7.709(20)e4, 
    1.585(9)e4, 6.280(23)e4, -7.57(12)e3, -2.011(24)e4, 
;
_pd_proc_ls_pref_orient_corr
;
Simple spherical harmonic correction Order = 6
    Coefficients:  0:0:C(6,6) = 0.183(25); 0:0:C(4,4) = 0.839(29); 
    0:0:C(6,-2) = 0.074(31); 0:0:C(2,-2) = 0.408(17); 0:0:C(4,-4) = 0.222(23); 
    0:0:C(2,2) = 0.763(18); 0:0:C(4,0) = 0.366(25); 0:0:C(6,-6) = -0.33(3); 
    0:0:C(6,4) = 0.247(31); 0:0:C(4,2) = -0.047(22); 0:0:C(6,2) = 0.129(27); 
    0:0:C(6,-4) = 0.020(26); 0:0:C(6,0) = 0.19(3); 0:0:C(2,0) = 0.855(19); 
    0:0:C(4,-2) = -0.059(20); 
;
_pd_proc_ls_profile_function
;
Finger-Cox-Jephcoat function parameters U, V, W, X, Y, SH/L:
  peak variance(Gauss) = Utan(Th)^2^+Vtan(Th)+W:
  peak HW(Lorentz) = X/cos(Th)+Ytan(Th); SH/L = S/L+H/L
  U, V, W in (centideg)^2^, X & Y in centideg
    4.3(6)e2, -83(11), 5.2(5), 54.90(12), 18.7(30), 0.002, 
  Crystallite size in microns with "isotropic" model:
  parameters: Size, G/L mix
    1.000, 1.000, 
  Microstrain, "isotropic" model (10^6^ * delta Q/Q)
    parameters: Mustrain, G/L mix
    1000.000, 1.000, 

;
_pd_proc_ls_prof_R_factor        0.01887
_pd_proc_ls_prof_wR_expected     0.03422
_pd_proc_ls_prof_wR_factor       0.03256
_refine_ls_goodness_of_fit_all   0.969
_refine_ls_matrix_type           full
_refine_ls_number_parameters     57
_refine_ls_R_Fsqd_factor         0.26562
_refine_ls_shift/su_max          0.0005
_refine_ls_wR_factor_obs         0.03274
_reflns_d_resolution_high        1.002
_reflns_d_resolution_low         6.156
_reflns_limit_h_max              4
_reflns_limit_h_min              0
_reflns_limit_k_max              12
_reflns_limit_k_min              0
_reflns_limit_l_max              4
_reflns_limit_l_min              -4
_reflns_number_total             276
_cod_data_source_file            d0ce01401j3.cif
_cod_data_source_block           clau1_009rietveld
_cod_depositor_comments
'Adding full bibliography for 7241824--7241862.cif.'
_cod_original_cell_volume        268.169(18)
_cod_database_code               7241830
_refine_ls_r_f_factor            0.10430
_gsas_proc_ls_prof_r_b_factor    0.04018
_gsas_proc_ls_prof_wr_b_factor   0.06293
loop_
_space_group_symop_id
_space_group_symop_operation_xyz
1 x,y,z
2 1/2-x,1/2+y,1/2-z
3 -x,-y,-z
4 1/2+x,1/2-y,1/2+z
loop_
_atom_site_label
_atom_site_type_symbol
_atom_site_fract_x
_atom_site_fract_y
_atom_site_fract_z
_atom_site_occupancy
_atom_site_adp_type
_atom_site_U_iso_or_equiv
_atom_site_symmetry_multiplicity
As1 As 0.2645(14) 0.09326(23) 0.0464(7) 1.000 Uiso 0.0025(10) 4
As2 As 0.3387(10) 0.35418(26) 0.0156(9) 1.000 Uiso 0.0025 4
O3 O 0.424(4) 0.2191(6) 0.126(5) 1.000 Uiso 0.0025 4
O4 O 0.6423(29) 0.4145(15) 0.1541(23) 1.000 Uiso 0.0025 4
O5 O -0.0438(29) 0.1378(20) 0.1510(28) 1.000 Uiso 0.0025 4
loop_
_atom_type_symbol
_atom_type_number_in_cell
_atom_type_scat_Cromer_Mann_a1
_atom_type_scat_Cromer_Mann_a2
_atom_type_scat_Cromer_Mann_a3
_atom_type_scat_Cromer_Mann_a4
_atom_type_scat_Cromer_Mann_b1
_atom_type_scat_Cromer_Mann_b2
_atom_type_scat_Cromer_Mann_b3
_atom_type_scat_Cromer_Mann_b4
_atom_type_scat_Cromer_Mann_c
_atom_type_scat_length_neutron
_atom_type_scat_source
_atom_type_scat_dispersion_real
_atom_type_scat_dispersion_imag
_atom_type_scat_dispersion_source
As 8 16.6723 6.0701 3.4313 4.2779 2.6345 0.2647 12.9479 47.7972 2.531 0.658
https://subversion.xray.aps.anl.gov/pyGSAS/trunk/atmdata.py 0.283 0.775
https://subversion.xray.aps.anl.gov/pyGSAS/trunk/atmdata.py
O 12 3.0485 2.2868 1.5463 0.867 13.2771 5.7011 0.3239 32.9089 0.2508 0.5805
https://subversion.xray.aps.anl.gov/pyGSAS/trunk/atmdata.py 0.002 0.002
https://subversion.xray.aps.anl.gov/pyGSAS/trunk/atmdata.py
loop_
_geom_angle_atom_site_label_1
_geom_angle_atom_site_label_2
_geom_angle_atom_site_label_3
_geom_angle
_geom_angle_site_symmetry_1
_geom_angle_site_symmetry_2
_geom_angle_site_symmetry_3
_geom_angle_publ_flag
O3 As1 O4 110.7(10) 1_555 1_555 4_454 yes
O3 As1 O5 94.0(11) 1_555 1_555 1_555 yes
O4 As1 O5 91.5(7) 4_454 1_555 1_555 yes
O3 As2 O4 96.8(8) 1_555 1_555 1_555 yes
O3 As2 O5 102.1(14) 1_555 1_555 4_554 yes
O4 As2 O5 86.8(7) 1_555 1_555 4_554 yes
As1 O3 As2 132.3(9) 1_555 1_555 1_555 yes
As1 O4 As2 122.1(8) 4_555 1_555 1_555 yes
As1 O5 As2 129.1(9) 1_555 1_555 4_455 yes
loop_
_geom_bond_atom_site_label_1
_geom_bond_atom_site_label_2
_geom_bond_distance
_geom_bond_site_symmetry_1
_geom_bond_site_symmetry_2
_geom_bond_publ_flag
As1 O3 1.766(9) 1_555 1_555 yes
As1 O4 1.773(8) 1_555 4_454 yes
As1 O5 1.734(9) 1_555 1_555 yes
As2 O3 1.774(9) 1_555 1_555 yes
As2 O4 1.756(9) 1_555 1_555 yes
As2 O5 1.743(8) 1_555 4_554 yes
loop_
_pd_meas_2theta_scan
_pd_meas_intensity_total
_pd_calc_intensity_total
_pd_proc_intensity_bkg_calc
_pd_proc_ls_weight
0.00440 101.96779 0 0 0
0.01320 103.2094 0 0 0
0.02201 103.15934 0 0 0
0.03081 103.89492 0 0 0
0.03961 107.76778 0 0 0
0.04841 108.02039 0 0 0
0.05721 107.09109 0 0 0
0.06602 103.20508 0 0 0
0.07482 103.08594 0 0 0
0.08362 104.26283 0 0 0
0.09242 106.02371 0 0 0
0.10122 106.59052 0 0 0
0.11003 107.58009 0 0 0
0.11883 109.50938 0 0 0
0.12763 109.1133 0 0 0
0.13643 108.0558 0 0 0
0.14523 106.11562 0 0 0
0.15404 105.00819 0 0 0
0.16284 106.52422 0 0 0
0.17164 107.27776 0 0 0
0.18044 108.30508 0 0 0
0.18925 108.13286 0 0 0
0.19805 109.26132 0 0 0
0.20685 109.33853 0 0 0
0.21565 108.8606 0 0 0
0.22445 107.27562 0 0 0
0.23326 106.8908 0 0 0
0.24206 106.5947 0 0 0
0.25086 107.6922 0 0 0
0.25966 108.99576 0 0 0
0.26846 108.76656 0 0 0
0.27727 107.28078 0 0 0
0.28607 106.66967 0 0 0
0.29487 107.66994 0 0 0
0.30367 108.04945 0 0 0
0.31248 109.64555 0 0 0
0.32128 111.64771 0 0 0
0.33008 112.37835 0 0 0
0.33888 112.49126 0 0 0
0.34768 112.52763 0 0 0
0.35649 111.20336 0 0 0
0.36529 109.69016 0 0 0
0.37409 109.10336 0 0 0
0.38289 109.51525 0 0 0
0.39169 109.45005 0 0 0
0.40050 109.96912 0 0 0
0.40930 110.61887 0 0 0
0.41810 110.94144 0 0 0
0.42690 110.40607 0 0 0
0.43570 111.28844 0 0 0
0.44451 111.6206 0 0 0
0.45331 112.10887 0 0 0
0.46211 111.04123 0 0 0
0.47091 110.7681 0 0 0
0.47972 110.76339 0 0 0
0.48852 110.99457 0 0 0
0.49732 111.56732 0 0 0
0.50612 111.79297 0 0 0
0.51492 111.17152 0 0 0
0.52373 109.86125 0 0 0
0.53253 109.41673 0 0 0
0.54133 109.31521 0 0 0
0.55013 109.50679 0 0 0
0.55893 109.88685 0 0 0
0.56774 110.47197 0 0 0
0.57654 110.81369 0 0 0
0.58534 111.1884 0 0 0
0.59414 111.25317 0 0 0
0.60295 112.2943 0 0 0
0.61175 112.54176 0 0 0
0.62055 112.54774 0 0 0
0.62935 112.6379 0 0 0
0.63815 112.4983 0 0 0
0.64696 111.45451 0 0 0
0.65576 110.4605 0 0 0
0.66456 109.54501 0 0 0
0.67336 108.94782 0 0 0
0.68216 108.94092 0 0 0
0.69097 109.37196 0 0 0
0.69977 109.87595 0 0 0
0.70857 110.10729 0 0 0
0.71737 109.90191 0 0 0
0.72617 109.66831 0 0 0
0.73498 109.22251 0 0 0
0.74378 109.07408 0 0 0
0.75258 110.04635 0 0 0
0.76138 112.32545 0 0 0
0.77019 113.73949 0 0 0
0.77899 114.103 0 0 0
0.78779 113.42011 0 0 0
0.79659 113.83018 0 0 0
0.80539 113.59641 0 0 0
0.81420 112.39915 0 0 0
0.82300 112.6929 0 0 0
0.83180 113.11629 0 0 0
0.84060 113.81612 0 0 0
0.84940 113.7803 0 0 0
0.85821 113.9057 0 0 0
0.86701 113.19244 0 0 0
0.87581 113.76401 0 0 0
0.88461 115.98639 0 0 0
0.89342 117.76283 0 0 0
0.90222 118.86081 0 0 0
0.91102 117.78085 0 0 0
0.91982 121.04022 0 0 0
0.92862 124.05293 0 0 0
0.93743 126.75634 0 0 0
0.94623 125.2317 0 0 0
0.95503 126.97208 0 0 0
0.96383 130.29276 0 0 0
0.97263 132.78917 0 0 0
0.98144 133.96408 0 0 0
0.99024 134.32977 0 0 0
0.99904 136.81177 0 0 0
1.00784 143.55115 0 0 0
1.01664 149.46054 0 0 0
1.02545 156.19478 0 0 0
1.03425 163.2606 0 0 0
1.04305 169.47488 0 0 0
1.05185 175.13896 0 0 0
1.06066 178.41501 0 0 0
1.06946 186.50024 0 0 0
1.07826 190.60065 0 0 0
1.08706 197.28627 0 0 0
1.09586 203.32254 0 0 0
1.10467 209.55055 0 0 0
1.11347 214.11972 0 0 0
1.12227 219.70726 0 0 0
1.13107 225.33594 0 0 0
1.13987 230.60239 0 0 0
1.14868 235.01459 0 0 0
1.15748 237.49411 0 0 0
1.16628 240.15741 0 0 0
1.17508 241.70837 0 0 0
1.18389 243.82358 0 0 0
1.19269 245.69191 0 0 0
1.20149 248.47272 0 0 0
1.21029 252.98941 0 0 0
1.21909 255.96233 0 0 0
1.22790 256.99405 0 0 0
1.23670 259.33087 0 0 0
1.24550 260.9173 0 0 0
1.25430 263.06201 0 0 0
1.26310 263.82471 0 0 0
1.27191 266.99667 0 0 0
1.28071 267.99872 0 0 0
1.28951 269.12885 0 0 0
1.29831 270.84445 0 0 0
1.30711 273.86356 0 0 0
1.31592 275.78574 0 0 0
1.32472 276.23587 0 0 0
1.33352 277.24261 0 0 0
1.34232 278.63449 0 0 0
1.35113 280.0293 0 0 0
1.35993 281.66025 0 0 0
1.36873 283.78598 0 0 0
1.37753 286.09836 0 0 0
1.38633 288.18723 0 0 0
1.39514 289.96991 0 0 0
1.40394 290.91989 0 0 0
1.41274 291.91577 0 0 0
1.42154 291.70197 0 0 0
1.43034 292.25604 0 0 0
1.43915 293.87302 0 0 0
1.44795 294.77301 0 0 0
1.45675 296.31509 0 0 0
1.46555 298.53076 0 0 0
1.47436 299.83102 0 0 0
1.48316 298.97665 0 0 0
1.49196 298.9704 0 0 0
1.50076 299.74905 0 0 0
1.50956 301.89246 0 0 0
1.51837 303.37411 0 0 0
1.52717 303.86911 0 0 0
1.53597 304.36063 0 0 0
1.54477 305.49738 0 0 0
1.55357 307.26675 0 0 0
1.56238 308.95114 0 0 0
1.57118 309.38599 0 0 0
1.57998 309.51581 0 0 0
1.58878 309.78424 0 0 0
1.59758 310.68817 0 0 0
1.60639 311.72122 0 0 0
1.61519 312.12689 0 0 0
1.62399 312.49869 0 0 0
1.63279 313.86823 0 0 0
1.64160 316.38504 0 0 0
1.65040 318.52579 0 0 0
1.65920 319.13101 0 0 0
1.66800 318.67432 0 0 0
1.67680 318.45013 0 0 0
1.68561 319.64383 0 0 0
1.69441 320.47272 0 0 0
1.70321 321.12833 0 0 0
1.71201 321.64771 0 0 0
1.72081 323.46194 0 0 0
1.72962 324.91403 0 0 0
1.73842 325.48227 0 0 0
1.74722 325.74957 0 0 0
1.75602 326.17203 0 0 0
1.76483 327.85745 0 0 0
1.77363 329.65237 0 0 0
1.78243 330.52359 0 0 0
1.79123 330.7561 0 0 0
1.80003 330.284 0 0 0
1.80884 329.66702 0 0 0
1.81764 330.50052 0 0 0
1.82644 331.68399 0 0 0
1.83524 331.88217 0 0 0
1.84404 333.2561 0 0 0
1.85285 334.75745 0 0 0
1.86165 335.79599 0 0 0
1.87045 335.52917 0 0 0
1.87925 335.73709 0 0 0
1.88805 336.33118 0 0 0
1.89686 337.16119 0 0 0
1.90566 337.63379 0 0 0
1.91446 339.16882 0 0 0
1.92326 339.267 0 0 0
1.93207 339.03989 0 0 0
1.94087 340.29684 0 0 0
1.94967 341.85181 0 0 0
1.95847 343.67188 0 0 0
1.96727 343.93246 0 0 0
1.97608 344.94315 0 0 0
1.98488 345.56821 0 0 0
1.99368 346.58371 0 0 0
2.00248 346.14841 0 0 0
2.01128 346.03674 0 0 0
2.02009 346.41888 0 0 0
2.02889 347.58981 0 0 0
2.03769 348.25378 0 0 0
2.04649 348.43735 0 0 0
2.05530 349.28015 0 0 0
2.06410 350.54077 0 0 0
2.07290 350.80176 0 0 0
2.08170 351.64276 0 0 0
2.09050 352.07037 0 0 0
2.09931 352.99109 0 0 0
2.10811 353.06464 0 0 0
2.11691 354.37366 0 0 0
2.12571 354.89447 0 0 0
2.13451 355.13739 0 0 0
2.14332 355.2605 0 0 0
2.15212 355.25055 0 0 0
2.16092 355.32922 0 0 0
2.16972 356.63989 0 0 0
2.17852 357.71951 0 0 0
2.18733 358.06689 0 0 0
2.19613 357.46478 0 0 0
2.20493 357.72693 0 0 0
2.21373 358.07718 0 0 0
2.22254 359.23505 0 0 0
2.23134 359.94928 0 0 0
2.24014 361.32806 0 0 0
2.24894 361.82953 0 0 0
2.25774 361.93445 0 0 0
2.26655 362.0636 0 0 0
2.27535 362.58942 0 0 0
2.28415 363.09741 0 0 0
2.29295 363.31931 0 0 0
2.30175 363.83215 0 0 0
2.31056 364.31177 0 0 0
2.31936 365.33292 0 0 0
2.32816 365.93069 0 0 0
2.33696 366.28009 0 0 0
2.34576 366.28577 0 0 0
2.35457 365.69659 0 0 0
2.36337 366.69736 0 0 0
2.37217 367.46582 0 0 0
2.38097 367.71896 0 0 0
2.38978 368.45633 0 0 0
2.39858 369.00833 0 0 0
2.40738 369.66779 0 0 0
2.41618 369.59628 0 0 0
2.42498 369.77988 0 0 0
2.43379 370.33765 0 0 0
2.44259 371.94159 0 0 0
2.45139 372.53818 0 0 0
2.46019 372.65265 0 0 0
2.46899 373.17596 0 0 0
2.47780 373.24734 0 0 0
2.48660 374.51877 0 0 0
2.49540 375.79111 0 0 0
2.50420 375.81592 0 0 0
2.51301 375.21521 0 0 0
2.52181 375.16428 0 0 0
2.53061 376.08188 0 0 0
2.53941 376.34348 0 0 0
2.54821 376.37473 0 0 0
2.55702 376.90085 0 0 0
2.56582 377.17062 0 0 0
2.57462 377.39328 0 0 0
2.58342 377.41663 0 0 0
2.59222 377.40387 0 0 0
2.60103 377.74109 0 0 0
2.60983 378.2373 0 0 0
2.61863 378.86713 0 0 0
2.62743 379.14578 0 0 0
2.63624 378.62518 0 0 0
2.64504 378.32437 0 0 0
2.65384 379.72125 0 0 0
2.66264 382.00757 0 0 0
2.67144 382.70703 0 0 0
2.68025 383.0054 0 0 0
2.68905 383.3541 0 0 0
2.69785 383.90106 0 0 0
2.70665 384.26035 0 0 0
2.71545 384.35397 0 0 0
2.72426 383.83798 0 0 0
2.73306 383.84131 0 0 0
2.74186 384.72223 0 0 0
2.75066 384.80847 0 0 0
2.75946 385.2171 0 0 0
2.76827 385.95822 0 0 0
2.77707 386.6377 0 0 0
2.78587 386.70834 0 0 0
2.79467 387.55362 0 0 0
2.80348 387.34277 0 0 0
2.81228 387.47815 0 0 0
2.82108 387.33936 385.372841 385.354723 0.002581715
2.82988 387.54828 385.946673 385.928413 0.002580324
2.83868 387.72095 386.506498 386.488096 0.002579175
2.84749 388.76782 387.052744 387.034197 0.002572229
2.85629 389.90207 387.585847 387.567154 0.002564747
2.86509 389.73575 388.106228 388.087387 0.002565841
2.87389 390.16516 388.614303 388.595311 0.002563017
2.88269 390.26636 389.110489 389.091345 0.002562353
2.89150 390.62775 389.595182 389.575884 0.002559982
2.90030 391.14157 390.068762 390.049309 0.002556619
2.90910 391.80429 390.531591 390.511981 0.002552295
2.91790 391.48462 390.984069 390.964299 0.002554379
2.92670 391.22284 391.426538 391.406606 0.002556088
2.93551 391.01007 391.859347 391.839252 0.002557479
2.94431 391.36267 392.282824 392.262562 0.002555175
2.95311 391.81152 392.697329 392.6769 0.002552248
2.96191 392.93997 393.103167 393.082568 0.002544918
2.97072 393.12292 393.500663 393.479892 0.002543734
2.97952 393.40317 393.89012 393.869174 0.002541922
2.98832 392.9783 394.271825 394.250702 0.00254467
2.99712 393.08878 394.646094 394.624792 0.002543955
3.00592 393.77759 395.013199 394.991716 0.002539505
3.01473 394.49026 395.373417 395.35175 0.002534917
3.02353 395.19061 395.727004 395.70515 0.002530424
3.03233 394.85275 396.074246 396.052204 0.00253259
3.04113 395.38931 396.415387 396.393153 0.002529153
3.04993 395.61734 396.750669 396.728241 0.002527695
3.05874 396.64807 397.080335 397.057711 0.002521127
3.06754 397.67862 397.404626 397.381802 0.002514593
3.07634 398.31277 397.723769 397.700743 0.00251059
3.08514 397.70944 398.037983 398.014752 0.002514398
3.09395 397.57367 398.347472 398.324033 0.002515257
3.10275 397.68826 398.652465 398.628816 0.002514532
3.11155 397.36722 398.953156 398.929293 0.002516564
3.12035 397.59399 399.249741 399.225661 0.002515129
3.12915 398.21371 399.542408 399.518108 0.002511214
3.13796 399.09149 399.831343 399.806819 0.002505691
3.14676 399.59317 400.116732 400.091982 0.002502545
3.15556 399.57813 400.398751 400.37377 0.002502639
3.16436 398.97516 400.677563 400.65235 0.002506422
3.17316 399.37112 400.953326 400.927876 0.002503937
3.18197 400.62195 401.226216 401.200525 0.002496119
3.19077 400.95737 401.496377 401.470442 0.002494031
3.19957 400.99634 401.770565 401.737777 0.002493788
3.20837 401.67676 402.035749 402.002664 0.002489564
3.21717 401.88559 402.298648 402.265262 0.00248827
3.22598 401.436 402.559385 402.525692 0.002491057
3.23478 402.12131 402.818095 402.784093 0.002486812
3.24358 403.03745 403.074904 403.040586 0.002481159
3.25238 404.10587 403.329923 403.295285 0.002474599
3.26119 403.65134 403.58329 403.548326 0.002477386
3.26999 402.66083 403.835107 403.799813 0.00248348
3.27879 402.63577 404.085486 404.049857 0.002483634
3.28759 403.12411 404.334524 404.298554 0.002480626
3.29639 403.7688 404.582341 404.546024 0.002476665
3.30520 404.39954 404.829022 404.792353 0.002472802
3.31400 405.06146 405.07467 405.037643 0.002468761
3.32280 405.66855 405.319367 405.281975 0.002465067
3.33160 405.94223 405.563208 405.525446 0.002463405
3.34040 405.80942 405.80628 405.76814 0.002464211
3.34921 405.60812 406.048659 406.010137 0.002465434
3.35801 405.93155 406.290426 406.251512 0.00246347
3.36681 406.15845 406.531645 406.492334 0.002462093
3.37561 406.38147 406.772406 406.732689 0.002460742
3.38442 406.61319 407.012766 406.972637 0.00245934
3.39322 407.39139 407.252798 407.212248 0.002454642
3.40202 407.90765 407.492556 407.451577 0.002451535
3.41082 407.93036 407.732109 407.690693 0.002451399
3.41962 407.77258 407.971515 407.929653 0.002452347
3.42843 408.4379 408.210827 408.168509 0.002448353
3.43723 409.30219 408.450089 408.407306 0.002443183
3.44603 409.25519 408.689368 408.646109 0.002443463
3.45483 409.00186 408.928704 408.884959 0.002444977
3.46363 408.78506 409.168143 409.1239 0.002446273
3.47244 409.09885 409.40772 409.362968 0.002444397
3.48124 409.77817 409.647492 409.602219 0.002440345
3.49004 410.07056 409.887488 409.84168 0.002438605
3.49884 410.20578 410.127751 410.081395 0.002437801
3.50764 410.05197 410.368313 410.321393 0.002438715
3.51645 410.54486 410.609199 410.561701 0.002435787
3.52525 411.2507 410.850457 410.802363 0.002431607
3.53405 412.09744 411.09211 411.043402 0.002426611
3.54285 412.96649 411.337718 411.284844 0.002421504
3.55166 412.92102 411.580257 411.526705 0.002421771
3.56046 412.91299 411.823278 411.769026 0.002421818
3.56926 413.21945 412.066795 412.011816 0.002420022
3.57806 412.94974 412.310834 412.255103 0.002421602
3.58686 412.9386 412.555409 412.498896 0.002421668
3.59567 413.61563 412.800548 412.74322 0.002417704
3.60447 414.2728 413.04627 412.988091 0.002413868
3.61327 414.6756 413.292591 413.23352 0.002411524
3.62207 414.56628 413.539529 413.479521 0.00241216
3.63087 414.91559 413.787093 413.726096 0.002410129
3.63968 414.55441 414.035316 413.973273 0.002412229
3.64848 414.64383 414.284205 414.221049 0.002411708
3.65728 414.8277 414.533784 414.469437 0.002410639
3.66608 415.84958 414.784063 414.718437 0.002404716
3.67489 416.08411 415.035072 414.968061 0.00240336
3.68369 416.12772 415.286836 415.218315 0.002403108
3.69249 416.02304 415.539378 415.4692 0.002403713
3.70129 416.31723 415.792726 415.720708 0.002402014
3.71009 416.77475 416.046938 415.972859 0.002399378
3.71890 417.09229 416.302061 416.225646 0.002397551
3.72770 416.84637 416.558162 416.479064 0.002398965
3.73650 417.08603 416.815337 416.733113 0.002397587
3.74530 417.74234 417.073728 416.987799 0.00239382
3.75410 418.06372 417.333514 417.243112 0.00239198
3.76291 417.97253 417.594991 417.499054 0.002392502
3.77171 418.73438 417.858685 417.755618 0.002388149
3.78051 418.93008 418.12591 418.01279 0.002387033
3.78931 418.80447 418.400693 418.270583 0.002387749
3.79811 418.65988 418.69479 418.528981 0.002388574
3.80692 419.62701 419.036674 418.787978 0.002383069
3.81572 420.84595 419.477673 419.047559 0.002376166
3.82452 420.69556 420.076626 419.307733 0.002377016
3.83332 420.06277 420.847454 419.56848 0.002380597
3.84213 420.056 421.692114 419.829798 0.002380635
3.85093 421.02618 422.377023 420.091668 0.002375149
3.85973 421.98764 422.643292 420.35409 0.002369738
3.86853 422.33954 422.488821 420.617055 0.002367763
3.87733 422.21161 422.171174 420.880548 0.002368481
3.88614 422.24686 421.925274 421.14456 0.002368283
3.89494 422.34775 421.850783 421.40907 0.002367717
3.90374 422.3671 421.934729 421.674085 0.002367609
3.91254 422.99387 422.118431 421.939582 0.0023641
3.92134 423.5675 422.350278 422.205555 0.002360899
3.93015 424.06235 422.601519 422.471983 0.002358144
3.93895 423.83704 422.860239 422.738863 0.002359397
3.94775 424.33994 423.122356 423.006182 0.002356601
3.95655 423.94598 423.386512 423.273924 0.002358791
3.96535 423.79004 423.652148 423.542069 0.002359659
3.97416 423.40472 423.918976 423.810621 0.002361806
3.98296 424.29474 424.186783 424.079557 0.002356852
3.99176 425.23407 424.455419 424.348863 0.002351646
4.00056 425.70898 424.72478 424.618531 0.002349023
4.00937 425.7363 424.994774 424.888538 0.002348872
4.01817 425.53394 425.265353 425.158889 0.002349989
4.02697 425.50696 425.536436 425.429544 0.002350138
4.03577 426.36505 425.807996 425.700504 0.002345408
4.04457 426.36551 426.080013 425.971775 0.002345405
4.05338 425.79086 426.35242 426.243306 0.002348571
4.06218 426.07724 426.625206 426.515102 0.002346992
4.07098 426.9046 426.898363 426.787166 0.002342444
4.07978 427.67514 427.171841 427.059456 0.002338223
4.08858 427.64212 427.445645 427.331983 0.002338404
4.09739 427.99158 427.719727 427.604707 0.002336495
4.10619 428.13553 427.994089 427.877633 0.002335709
4.11499 428.11813 428.276064 428.150758 0.002335804
4.12379 428.49017 428.550979 428.42404 0.002333776
4.13260 428.89401 428.826129 428.697486 0.002331578
4.14140 428.40906 429.101508 428.971092 0.002334218
4.15020 428.11832 429.377075 429.244817 0.002335803
4.15900 428.63019 429.652849 429.51868 0.002333013
4.16780 429.33264 429.928789 429.792642 0.002329196
4.17661 429.26935 430.204893 430.066698 0.00232954
4.18541 429.49359 430.481169 430.340856 0.002328323
4.19421 429.74997 430.757576 430.615077 0.002326934
4.20301 430.18579 431.034131 430.889373 0.002324577
4.21181 430.82309 431.310795 431.163704 0.002321138
4.22062 431.04364 431.587573 431.438076 0.002319951
4.22942 430.9874 431.864476 431.712497 0.002320253
4.23822 430.7616 432.141457 431.986917 0.00232147
4.24702 431.48022 432.418527 432.261344 0.002317603
4.25582 432.10519 432.695693 432.535786 0.002314251
4.26463 432.09039 432.972919 432.810202 0.002314331
4.27343 431.91306 433.250224 433.084608 0.002315281
4.28223 431.94733 433.527573 433.358967 0.002315097
4.29103 432.21564 433.804978 433.633287 0.00231366
4.29984 432.37433 434.082443 433.907569 0.002312811
4.30864 432.01514 434.359935 434.181776 0.002314734
4.31744 433.02774 434.637479 434.45593 0.002309321
4.32624 433.53189 434.915045 434.729995 0.002306635
4.33504 433.82635 435.192637 435.003973 0.00230507
4.34385 433.18658 435.470271 435.277873 0.002308474
4.35265 433.68018 435.747916 435.55166 0.002305847
4.36145 434.40295 436.02558 435.825337 0.00230201
4.37025 435.0303 436.30328 436.098914 0.00229869
4.37905 435.92435 436.581628 436.372355 0.002293976
4.38786 436.03998 436.859374 436.645686 0.002293368
4.39666 436.01587 437.137121 436.918864 0.002293495
4.40546 436.48752 437.414889 437.191903 0.002291016
4.41426 437.38336 437.692695 437.46481 0.002286324
4.42307 437.84073 437.970515 437.737554 0.002283936
4.43187 437.51993 438.248377 438.010154 0.00228561
4.44067 437.20798 438.526256 438.282578 0.002287241
4.44947 437.36661 438.804177 438.554839 0.002286411
4.45827 437.64728 439.082155 438.826942 0.002284945
4.46708 437.38705 439.36017 439.098856 0.002286305
4.47588 437.11734 439.638247 439.370596 0.002287715
4.48468 437.90884 439.916407 439.642167 0.00228358
4.49348 439.39111 440.194631 439.913539 0.002275877
4.50228 439.65048 440.472963 440.184739 0.002274534
4.51109 439.38458 440.751386 440.455738 0.002275911
4.51989 439.18158 441.029925 440.726542 0.002276963
4.52869 438.66965 441.308615 440.997168 0.00227962
4.53749 438.20731 441.587444 441.267587 0.002282025
4.54630 437.94049 441.866458 441.537821 0.002283415
4.55510 438.53748 442.145649 441.807843 0.002280307
4.56390 439.48315 442.425055 442.077667 0.0022754
4.57270 440.42322 442.704721 442.34731 0.002270543
4.58150 441.0423 442.984637 442.616736 0.002267356
4.59031 441.89166 443.264852 442.885963 0.002262998
4.59911 441.39542 443.545415 443.155006 0.002265542
4.60791 441.62921 443.826333 443.42384 0.002264343
4.61671 441.77927 444.10767 443.692488 0.002263574
4.62551 442.61499 444.389441 443.960926 0.0022593
4.63432 443.12506 444.683483 444.229172 0.002256699
4.64312 443.82068 444.966396 444.497237 0.002253162
4.65192 444.19653 445.249897 444.765096 0.002251256
4.66072 444.1933 445.534067 445.03277 0.002251272
4.66952 443.93423 445.818984 445.30027 0.002252586
4.67833 444.24469 446.104691 445.567571 0.002251012
4.68713 444.73718 446.391304 445.834707 0.002248519
4.69593 445.01373 446.67888 446.101654 0.002247122
4.70473 444.95535 446.967529 446.368424 0.002247417
4.71354 444.71014 447.25738 446.63504 0.002248656
4.72234 444.27725 447.548519 446.901474 0.002250847
4.73114 445.05246 447.841117 447.167765 0.002246926
4.73994 445.80862 448.135281 447.433881 0.002243115
4.74874 446.15976 448.431197 447.699844 0.00224135
4.75755 446.22672 448.729066 447.965675 0.002241013
4.76635 446.14917 449.029063 448.231352 0.002241403
4.77515 446.83768 449.33143 448.496889 0.002237949
4.78395 447.53934 449.636448 448.762309 0.00223444
4.79275 447.36166 449.944381 449.027593 0.002235328
4.80156 447.20786 450.255585 449.292769 0.002236097
4.81036 447.97684 450.57041 449.557816 0.002232258
4.81916 448.42346 450.889308 449.822761 0.002230035
4.82796 448.60638 451.212778 450.087617 0.002229126
4.83676 448.75076 451.54136 450.352365 0.002228408
4.84557 449.65308 451.875736 450.617043 0.002223937
4.85437 450.08569 452.216633 450.88163 0.002221799
4.86317 450.09207 452.564938 451.146142 0.002221768
4.87197 449.09824 452.9217 451.410606 0.002226684
4.88078 449.36462 453.2881 451.675003 0.002225364
4.88958 450.68356 453.665568 451.939349 0.002218852
4.89838 452.04919 454.055831 452.20367 0.002212149
4.90718 452.05377 454.46087 452.467945 0.002212126
4.91598 452.31589 454.898779 452.732216 0.002210844
4.92479 452.95566 455.341374 452.996455 0.002207722
4.93359 453.91278 455.807796 453.260689 0.002203066
4.94239 455.09866 456.310935 453.524941 0.002197326
4.95119 455.44632 456.839552 453.789195 0.002195648
4.95999 455.59766 457.408999 454.053484 0.002194919
4.96880 455.91095 458.028056 454.317789 0.002193411
4.97760 456.72647 458.708115 454.582139 0.002189494
4.98640 458.21423 459.463983 454.846552 0.002182385
4.99520 459.62561 460.315036 455.111011 0.002175684
5.00401 461.05847 461.287404 455.375544 0.002168922
5.01281 462.62115 462.416695 455.640171 0.002161596
5.02161 464.68494 463.752144 455.904873 0.002151996
5.03041 467.83414 465.364199 456.169693 0.00213751
5.03921 472.95279 467.356672 456.434613 0.002114376
5.04802 481.35123 469.899912 456.699652 0.002077485
5.05682 496.18979 473.345951 456.96484 0.002015358
5.06562 525.67371 478.65694 457.230156 0.001902321
5.07442 579.45209 488.708065 457.495646 0.001725768
5.08322 690.66907 510.986697 457.761284 0.001447871
5.09203 820.8205 560.261453 458.027099 0.001218293
5.10083 981.49121 655.377004 458.293116 0.001018858
5.10963 1076.0669 803.638291 458.559321 0.00092931
5.11843 1114.2784 977.439314 458.825734 0.000897442
5.12723 1059.5519 1100.185365 459.092383 0.000943795
5.13604 959.38666 1084.272761 459.359253 0.001042333
5.14484 816.50983 942.987508 459.62638 0.001224725
5.15364 687.60181 770.388072 459.893748 0.00145433
5.16244 585.16113 633.030139 460.161387 0.001708931
5.17125 529.9599 549.402562 460.429318 0.001886935
5.18005 500.27921 507.899143 460.697524 0.001998884
5.18885 485.14597 489.715221 460.966033 0.002061235
5.19765 476.86395 481.617059 461.234874 0.002097034
5.20645 472.12231 477.384581 461.504024 0.002118095
5.21526 468.78082 474.719978 461.773527 0.002133193
5.22406 466.93161 472.856663 462.043367 0.002141641
5.23286 466.43796 471.49997 462.313566 0.002143908
5.24166 466.62054 470.498496 462.584154 0.002143069
5.25046 466.46786 469.757112 462.855112 0.00214377
5.25927 465.60541 469.210654 463.126486 0.002147741
5.26807 465.36356 468.813232 463.39825 0.002148858
5.27687 465.34348 468.531594 463.670436 0.00214895
5.28567 465.53464 468.341276 463.943071 0.002148068
5.29448 464.89038 468.224013 464.216138 0.002151045
5.30328 464.31158 468.165869 464.489658 0.002153726
5.31208 464.47964 468.156134 464.763663 0.002152947
5.32088 465.53464 468.186469 465.038136 0.002148068
5.32968 465.8941 468.250284 465.313115 0.002146411
5.33849 466.35806 468.34234 465.588581 0.002144275
5.34729 466.92532 468.458435 465.864568 0.00214167
5.35609 466.77438 468.595165 466.141094 0.002142363
5.36489 466.64114 468.749937 466.418145 0.002142974
5.37369 465.96255 468.944842 466.695763 0.002146095
5.38250 466.13095 469.128886 466.973931 0.00214532
5.39130 466.9668 469.325085 467.25267 0.00214148
5.40010 467.05115 469.532167 467.532012 0.002141093
5.40890 466.75659 469.749041 467.811936 0.002142444
5.41770 466.40503 469.974835 468.092472 0.002144059
5.42651 467.08035 470.208822 468.373642 0.002140959
5.43531 467.2525 470.450377 468.655428 0.00214017
5.44411 467.42844 470.699035 468.937873 0.002139365
5.45291 467.84845 470.954383 469.22096 0.002137444
5.46172 468.61298 471.216125 469.50471 0.002133957
5.47052 468.47964 471.484059 469.789153 0.002134564
5.47932 468.04749 471.758013 470.074272 0.002136535
5.48812 468.30161 472.03794 470.360102 0.002135376
5.49692 469.46945 472.323812 470.646626 0.002130064
5.50573 470.0224 472.615723 470.933873 0.002127558
5.51453 469.81677 472.913834 471.221866 0.002128489
5.52333 469.58856 473.218349 471.510584 0.002129524
5.53213 469.17239 473.529613 471.800055 0.002131413
5.54093 469.90677 473.84808 472.090308 0.002128082
5.54974 471.13458 474.17426 472.381316 0.002122536
5.55854 471.83319 474.508891 472.673123 0.002119393
5.56734 472.25104 474.852807 472.965711 0.002117518
5.57614 473.11227 475.207102 473.2591 0.002113663
5.58495 473.61725 475.573141 473.55332 0.00211141
5.59375 473.56308 475.952551 473.848347 0.002111651
5.60255 473.11588 476.347461 474.144227 0.002113647
5.61135 473.05423 476.760434 474.44093 0.002113923
5.62015 473.61871 477.19481 474.738486 0.002111403
5.62896 474.05591 477.654846 475.036921 0.002109456
5.63776 474.17947 478.145951 475.336214 0.002108906
5.64656 474.8688 478.675279 475.636385 0.002105845
5.65536 475.32211 479.252317 475.937461 0.002103836
5.66416 475.47342 479.889701 476.239423 0.002103167
5.67297 475.71347 480.604887 476.542306 0.002102106
5.68177 475.97733 481.422039 476.846088 0.00210094
5.69057 476.5878 482.375833 477.150797 0.002098249
5.69937 477.65271 483.517602 477.456454 0.002093571
5.70817 479.01611 484.929745 477.763034 0.002087612
5.71698 480.41025 486.77547 478.070564 0.002081554
5.72578 480.90839 489.482261 478.379072 0.002079398
5.73458 482.21539 494.308474 478.688524 0.002073762
5.74338 485.61389 504.547784 478.998967 0.002059249
5.75219 493.39172 526.717955 479.310373 0.002026787
5.76099 515.6778 569.066242 479.62277 0.001939195
5.76979 578.66101 634.414512 479.936176 0.001728127
5.77859 683.25073 709.375119 480.250568 0.001463592
5.78739 753.70947 757.36024 480.565986 0.001326771
5.79620 725.97064 740.543001 480.882407 0.001377466
5.80500 630.79474 674.024275 481.199846 0.001585302
5.81380 561.0368 601.37799 481.518333 0.001782414
5.82260 525.60907 547.639498 481.837842 0.001902555
5.83140 509.07767 516.849415 482.158389 0.001964337
5.84021 499.42621 502.249159 482.480002 0.002002298
5.84901 494.04205 495.942039 482.802655 0.002024119
5.85781 490.04462 493.073218 483.126382 0.002040631
5.86661 487.18567 491.538505 483.451156 0.002052606
5.87541 485.57559 490.599914 483.777001 0.002059412
5.88422 484.1246 490.000393 484.103945 0.002065584
5.89302 483.71942 489.62785 484.431947 0.002067314
5.90182 484.55591 489.41863 484.761054 0.002063745
5.91062 485.08789 489.331334 485.091237 0.002061482
5.91943 485.33197 489.337869 485.422512 0.002060445
5.92823 485.57233 489.418637 485.754906 0.002059425
5.93703 485.5629 489.559944 486.088385 0.002059465
5.94583 484.79132 489.752289 486.422976 0.002062743
5.95463 485.7355 489.989293 486.758695 0.002058734
5.96344 486.76718 490.267014 487.095511 0.00205437
5.97224 487.30115 490.583673 487.433466 0.002052119
5.98104 487.69547 490.939405 487.772528 0.00205046
5.98984 488.81952 491.336466 488.112714 0.002045745
5.99864 489.79025 491.77955 488.454048 0.00204169
6.00745 490.42953 492.276351 488.796499 0.002039029
6.01625 490.51306 492.838875 489.140101 0.002038682
6.02505 491.3812 493.485144 489.484821 0.00203508
6.03385 492.39624 494.242903 489.830686 0.002030885
6.04266 494.09824 495.157783 490.177708 0.002023889
6.05146 496.54684 496.320707 490.525855 0.002013909
6.06026 500.73444 497.970124 490.875149 0.001997067
6.06906 506.87515 500.803052 491.225615 0.001972872
6.07786 519.14557 506.616003 491.577206 0.001926242
6.08667 540.97388 518.884925 491.929969 0.001848518
6.09547 574.51208 541.800348 492.283863 0.001740607
6.10427 619.08881 576.332866 492.638915 0.001615277
6.11307 661.0354 614.498421 492.995138 0.001512778
6.12187 684.75543 635.940168 493.352494 0.001460375
6.13068 669.68542 622.798912 493.711027 0.001493238
6.13948 619.11914 587.097671 494.070698 0.001615198
6.14828 565.43848 551.196403 494.431522 0.001768539
6.15708 529.26526 526.014406 494.793521 0.001889412
6.16589 511.64917 512.21928 495.15666 0.001954464
6.17469 504.08374 505.920695 495.520949 0.001983797
6.18349 500.05621 503.281485 495.886414 0.001999775
6.19229 498.49844 502.126549 496.253016 0.002006024
6.20109 497.80618 501.562556 496.620788 0.002008814
6.20990 497.27673 501.280129 496.989691 0.002010953
6.21870 496.78125 501.166208 497.359745 0.002012958
6.22750 497.41211 501.167333 497.730974 0.002010405
6.23630 497.97031 501.251553 498.103324 0.002008152
6.24510 498.35486 501.397654 498.476821 0.002006602
6.25391 498.60315 501.590954 498.851488 0.002005603
6.26271 499.42981 501.820981 499.22727 0.002002283
6.27151 499.2182 502.080229 499.604215 0.002003132
6.28031 498.96555 502.363066 499.982275 0.002004146
6.28911 498.62463 502.665343 500.361474 0.002005517
6.29792 499.30414 502.983919 500.741822 0.002002787
6.30672 500.06702 503.316325 501.123278 0.001999732
6.31552 500.92813 503.660745 501.505882 0.001996294
6.32432 501.03735 504.015683 501.889591 0.001995859
6.33313 500.90219 504.380032 502.274415 0.001996398
6.34193 501.55405 504.752945 502.660377 0.001993803
6.35073 502.3873 505.133717 503.047434 0.001990496
6.35953 502.95657 505.521862 503.435594 0.001988243
6.36833 502.86508 505.917052 503.824881 0.001988605
6.37714 503.32907 506.31901 504.215249 0.001986772
6.38594 503.90482 506.727644 504.606732 0.001984502
6.39474 504.47794 507.142888 504.999283 0.001982247
6.40354 504.04514 507.56484 505.39292 0.001983949
6.41234 504.19351 508.010466 505.787666 0.001983365
6.42115 504.57141 508.446555 506.183461 0.00198188
6.42995 505.43091 508.890206 506.58035 0.00197851
6.43875 506.41776 509.404863 506.978283 0.001974654
6.44755 506.87805 509.865653 507.377281 0.001972861
6.45636 507.03064 510.335981 507.777352 0.001972267
6.46516 506.8403 510.816817 508.17845 0.001973008
6.47396 507.82098 511.309457 508.580596 0.001969198
6.48276 508.42816 511.815488 508.983797 0.001966846
6.49156 508.68042 512.33681 509.388007 0.001965871
6.50037 508.7037 512.87592 509.793264 0.001965781
6.50917 509.72229 513.435827 510.199521 0.001961853
6.51797 510.73209 514.02044 510.606786 0.001957974
6.52677 511.64856 514.634782 511.015078 0.001954467
6.53557 512.49786 515.285233 511.424351 0.001951228
6.54438 513.47345 515.980312 511.834632 0.00194752
6.55318 514.12506 516.731186 512.245875 0.001945052
6.56198 514.30768 517.553083 512.658094 0.001944361
6.57078 514.45282 518.466975 513.07131 0.001943813
6.57958 515.17218 519.502088 513.485459 0.001941099
6.58839 516.56989 520.700693 513.900562 0.001935846
6.59719 517.79376 522.125783 514.316635 0.001931271
6.60599 519.03027 523.878451 514.733627 0.00192667
6.61479 520.7395 526.155801 515.151568 0.001920346
6.62360 523.21277 529.458025 515.570407 0.001911268
6.63240 526.73596 535.219481 515.990164 0.001898484
6.64120 531.82245 547.088405 516.410845 0.001880327
6.65000 545.91467 571.989369 516.832399 0.001831788
6.65880 587.36401 617.974386 517.254864 0.001702522
6.66761 668.01489 686.121844 517.678189 0.001496973
6.67641 792.8175 758.759306 518.102378 0.001261324
6.68521 831.53442 792.74778 518.527453 0.001202596
6.69401 784.37762 757.468749 518.95336 0.001274896
6.70281 673.67444 685.30984 519.380105 0.001484397
6.71162 603.08917 618.716697 519.807707 0.00165813
6.72042 567.83997 574.505672 520.236113 0.00176106
6.72922 550.68811 551.14304 520.665352 0.00181591
6.73802 541.20636 540.521177 521.095371 0.001847724
6.74682 535.8761 535.82259 521.526185 0.001866103
6.75563 533.70789 533.504868 521.957812 0.001873684
6.76443 531.67279 532.186014 522.390184 0.001880856
6.77323 530.11499 531.383812 522.823321 0.001886383
6.78203 529.01288 530.907359 523.257237 0.001890313
6.79084 528.69202 530.65798 523.691876 0.00189146
6.79964 528.45538 530.574549 524.127269 0.001892307
6.80844 529.35229 530.616024 524.56336 0.001889101
6.81724 530.02319 530.754741 525.000168 0.00188671
6.82604 530.39618 530.971592 525.437698 0.001885383
6.83485 530.91864 531.285199 525.875894 0.001883528
6.84365 531.10986 531.624394 526.314795 0.00188285
6.85245 531.72217 532.021217 526.754346 0.001880681
6.86125 533.02319 532.465385 527.194549 0.001876091
6.87005 534.72974 532.966603 527.635425 0.001870104
6.87886 535.86407 533.539703 528.076916 0.001866145
6.88766 536.89258 534.229029 528.519027 0.00186257
6.89646 539.15289 535.166097 528.961777 0.001854761
6.90526 540.86652 536.68165 529.405103 0.001848885
6.91407 543.13513 539.385873 529.84905 0.001841162
6.92287 545.44958 543.945301 530.293546 0.00183335
6.93167 549.76093 550.351772 530.738609 0.001818972
6.94047 554.41943 556.881319 531.184254 0.001803689
6.94927 558.16498 559.638005 531.630422 0.001791585
6.95808 559.46161 556.512413 532.077143 0.001787433
6.96688 559.15808 550.795736 532.524358 0.001788403
6.97568 556.71136 545.906344 532.972087 0.001796263
6.98448 555.53461 542.994147 533.420334 0.001800068
6.99328 553.47791 541.786744 533.869039 0.001806757
7.00209 552.22186 541.582611 534.318221 0.001810866
7.01089 550.65784 541.846531 534.767885 0.00181601
7.01969 549.56958 542.316688 535.217971 0.001819606
7.02849 548.8241 542.896572 535.668518 0.001822077
7.03729 548.30286 543.566302 536.119469 0.00182381
7.04610 547.78894 544.296838 536.570826 0.001825521
7.05490 547.59808 545.099204 537.022607 0.001826157
7.06370 548.38232 545.979398 537.474755 0.001823545
7.07250 549.92798 546.948809 537.927297 0.00181842
7.08131 551.26605 548.024554 538.380175 0.001814006
7.09011 553.44922 549.231606 538.833403 0.001806851
7.09891 555.16083 550.60555 539.286998 0.00180128
7.10771 556.82422 552.197057 539.740886 0.001795899
7.11651 558.74719 554.080355 540.195085 0.001789718
7.12532 562.12335 556.367324 540.649609 0.001778969
7.13412 566.97559 559.240163 541.104399 0.001763744
7.14292 574.05292 563.060284 541.559483 0.001742
7.15172 584.64099 568.748996 542.014802 0.001710451
7.16052 601.01959 578.89148 542.470374 0.001663839
7.16933 623.63245 599.787992 542.926203 0.001603509
7.17813 656.34302 642.650578 543.382227 0.001523594
7.18693 703.88373 719.00741 543.838488 0.001420689
7.19573 768.95398 826.933931 544.294925 0.001300468
7.20453 844.11377 931.80632 544.751541 0.001184674
7.21334 898.48029 960.973524 545.208354 0.00111299
7.22214 922.94501 886.513404 545.665305 0.001083488
7.23094 889.69958 774.476409 546.122397 0.001123975
7.23974 819.58856 681.738088 546.579647 0.001220124
7.24855 745.19843 624.364498 547.036992 0.001341924
7.25735 688.61133 595.457411 547.494475 0.001452198
7.26615 648.54272 582.50053 547.952021 0.001541918
7.27495 621.85681 576.622036 548.409649 0.001608087
7.28375 604.94043 573.639455 548.867371 0.001653055
7.29256 593.65942 571.995445 549.325128 0.001684468
7.30136 586.88177 571.131235 549.782924 0.001703921
7.31016 582.87756 570.805797 550.240775 0.001715626
7.31896 580.63452 570.888966 550.698623 0.001722254
7.32777 578.83228 571.303164 551.156497 0.001727616
7.33657 578.59235 572.003314 551.614336 0.001728333
7.34537 579.29224 572.967485 552.07216 0.001726244
7.35417 580.18134 574.192084 552.529971 0.001723599
7.36297 581.539 575.690278 552.987709 0.001719575
7.37178 582.91309 577.492999 553.445414 0.001715522
7.38058 585.73743 579.652174 553.903027 0.00170725
7.38938 588.30219 582.247934 554.36055 0.001699807
7.39818 592.04718 585.401081 554.818001 0.001689055
7.40698 596.86945 589.295532 555.275323 0.001675408
7.41579 604.0744 594.234462 555.732516 0.001655425
7.42459 613.07123 600.820459 556.189601 0.001631132
7.43339 626.83771 610.567388 556.646512 0.001595309
7.44219 648.42926 627.558825 557.103294 0.001542188
7.45099 684.87866 661.187199 557.559873 0.001460113
7.45980 747.06641 727.003568 558.016267 0.001338569
7.46860 861.23395 839.217974 558.47249 0.001161125
7.47740 1027.7677 992.255544 558.928482 0.000972983
7.48620 1203.8187 1136.342972 559.384273 0.00083069
7.49501 1276.5803 1183.833152 559.839804 0.000783343
7.50381 1215.5322 1133.830459 560.295093 0.000822685
7.51261 1096.104 1071.513859 560.750145 0.000912322
7.52141 990.1178 1018.979458 561.2049 0.001009981
7.53021 908.61011 939.897367 561.659377 0.001100582
7.53902 830.08734 839.999767 562.11358 0.001204693
7.54782 757.87256 755.259941 562.56745 0.001319483
7.55662 704.93317 700.312685 563.021027 0.001418574
7.56542 673.07123 672.300415 563.474253 0.001485727
7.57422 658.76294 661.908703 563.927131 0.001517997
7.58303 652.59167 661.103783 564.37968 0.001532352
7.59183 655.35315 665.628732 564.831838 0.001525895
7.60063 661.10608 674.020111 565.283648 0.001512617
7.60943 671.9787 686.206075 565.735038 0.001488142
7.61823 687.74335 702.831686 566.186027 0.001454031
7.62704 706.0321 725.152282 566.636629 0.001416366
7.63584 740.61566 755.277781 567.086787 0.001350228
7.64464 778.86841 797.062821 567.536505 0.001283914
7.65344 854.86102 859.239786 567.985801 0.001169781
7.66225 944.82697 965.487226 568.434619 0.001058395
7.67105 1149.1592 1177.78989 568.882989 0.000870201
7.67985 1489.5547 1623.941712 569.330853 0.000671342
7.68865 2327.8337 2477.822615 569.778231 0.000429584
7.69745 3830.7214 3823.256021 570.225127 0.000261047
7.70626 5452.6479 5402.687619 570.671485 0.000183397
7.71506 6745.9678 6354.826776 571.117345 0.000148237
7.72386 6061.3794 5814.676793 571.56265 0.000164979
7.73266 4240.397 4368.82619 572.007405 0.000235827
7.74146 2820.3037 3042.432387 572.451629 0.000354572
7.75027 2311.0806 2244.842605 572.895267 0.000432698
7.75907 1960.8353 1911.248594 573.338323 0.000509987
7.76787 1763.469 1747.932491 573.780818 0.000567064
7.77667 1495.0757 1517.978342 574.22269 0.000668862
7.78548 1245.0385 1245.932612 574.663985 0.000803188
7.79428 1013.3826 1021.275821 575.104633 0.000986794
7.80308 865.08777 872.818127 575.544653 0.001155952
7.81188 772.26678 787.634103 575.984061 0.001294889
7.82068 716.21893 740.682668 576.422801 0.001396221
7.82949 685.82343 712.909648 576.86088 0.001458101
7.83829 664.53186 694.556361 577.298317 0.001504819
7.84709 654.16199 681.57295 577.735057 0.001528673
7.85589 645.84546 672.305391 578.171132 0.001548358
7.86469 641.75433 666.00531 578.606488 0.001558229
7.87350 638.28754 662.352385 579.041144 0.001566692
7.88230 637.72632 661.376775 579.475106 0.001568071
7.89110 640.28253 663.659332 579.908321 0.001561811
7.89990 648.15546 671.184207 580.340829 0.00154284
7.90870 662.55695 689.733486 580.772576 0.001509304
7.91751 694.50787 732.861647 581.20357 0.001439868
7.92631 764.1239 823.063762 581.63383 0.001308688
7.93511 899.99347 980.324745 582.063299 0.001111119
7.94391 1127.569 1193.107099 582.491997 0.000886864
7.95272 1310.2109 1376.964203 582.919932 0.000763236
7.96152 1316.6467 1382.728845 583.34705 0.000759505
7.97032 1160.9482 1202.659402 583.773392 0.000861365
7.97912 967.00836 985.068386 584.198907 0.001034117
7.98792 837.63971 820.328794 584.623601 0.001193831
7.99673 761.99078 723.063754 585.047495 0.001312352
8.00553 710.59052 674.100522 585.470561 0.00140728
8.01433 680.34485 650.427607 585.892735 0.001469843
8.02313 659.58948 637.748236 586.31411 0.001516095
8.03193 643.31946 629.767019 586.73463 0.001554438
8.04074 632.37524 624.140659 587.154245 0.00158134
8.04954 624.19409 619.949366 587.573033 0.001602066
8.05834 618.93195 616.73816 587.990945 0.001615687
8.06714 615.51788 614.232143 588.407931 0.001624648
8.07594 612.41504 612.24831 588.824068 0.00163288
8.08475 610.42468 610.661195 589.239308 0.001638204
8.09355 608.94562 609.381616 589.653602 0.001642183
8.10235 608.60083 608.344404 590.067028 0.001643113
8.11115 608.05347 607.501614 590.479536 0.001644592
8.11996 607.9671 606.816975 590.89112 0.001644826
8.12876 606.7616 606.335248 591.301733 0.001648094
8.13756 606.67395 605.889945 591.711451 0.001648332
8.14636 605.95758 605.536114 592.120228 0.001650281
8.15516 606.20032 605.260092 592.528014 0.00164962
8.16397 606.63977 605.050758 592.934889 0.001648425
8.17277 606.76025 604.899091 593.340803 0.001648097
8.18157 606.94055 604.797681 593.745711 0.001647608
8.19037 606.46698 604.740347 594.14969 0.001648894
8.19917 606.12219 604.721914 594.552693 0.001649832
8.20798 605.70068 604.738058 594.954669 0.00165098
8.21678 605.73889 604.785131 595.355708 0.001650876
8.22558 605.76636 604.860035 595.755752 0.001650801
8.23438 605.8219 604.960115 596.154799 0.00165065
8.24319 605.95636 605.083147 596.552799 0.001650284
8.25199 606.29175 605.227293 596.949844 0.001649371
8.26079 606.85736 605.390947 597.345874 0.001647834
8.26959 606.89758 605.588838 597.740844 0.001647724
8.27839 606.2395 605.827013 598.134839 0.001649513
8.28720 606.10034 606.042971 598.527816 0.001649892
8.29600 606.42273 606.27492 598.919716 0.001649015
8.30480 606.6344 606.522767 599.31063 0.001648439
8.31360 606.93396 606.787709 599.700508 0.001647626
8.32240 606.8501 607.068308 600.089308 0.001647853
8.33121 606.25153 607.366864 600.477105 0.00164948
8.34001 605.80023 607.685344 600.863855 0.001650709
8.34881 606.31641 608.026821 601.249557 0.001649304
8.35761 607.62756 608.395989 601.634166 0.001645745
8.36641 607.97107 608.800114 602.017759 0.001644815
8.37522 608.72937 609.250471 602.400293 0.001642766
8.38402 609.5506 609.766489 602.781726 0.001640553
8.39282 609.87164 610.389105 603.162134 0.001639689
8.40162 610.45435 611.223056 603.541474 0.001638124
8.41043 612.1134 612.541683 603.919707 0.001633684
8.41923 614.40833 614.933793 604.296906 0.001627582
8.42803 617.53119 619.276909 604.67303 0.001619351
8.43683 621.96606 626.177804 605.048039 0.001607805
8.44563 627.09448 634.767405 605.422009 0.001594656
8.45444 631.34863 641.016548 605.794897 0.001583911
8.46324 632.90393 639.536705 606.166703 0.001580019
8.47204 629.73779 632.228139 606.537388 0.001587963
8.48084 624.33435 624.756757 606.907024 0.001601706
8.48964 619.23535 619.627321 607.275573 0.001614895
8.49845 615.27448 616.894775 607.642996 0.001625291
8.50725 612.67151 615.723664 608.009367 0.001632196
8.51605 611.43475 615.329875 608.374647 0.001635497
8.52485 611.16101 615.273278 608.738798 0.00163623
8.53366 610.57922 615.369343 609.101894 0.001637789
8.54246 610.06561 615.548821 609.463896 0.001639168
8.55126 610.39423 615.782529 609.824763 0.001638285
8.56006 610.91791 616.055085 610.18458 0.001636881
8.56886 610.7702 616.356939 610.543298 0.001637277
8.57767 610.72009 616.681846 610.900921 0.001637411
8.58647 611.42651 617.025538 611.257407 0.00163552
8.59527 612.35858 617.385217 611.612843 0.00163303
8.60407 612.89606 617.758869 611.967179 0.001631598
8.61287 613.3056 618.145139 612.320379 0.001630509
8.62168 612.85663 618.543246 612.672525 0.001631703
8.63048 613.31494 618.952668 613.023579 0.001630484
8.63928 613.40576 619.37288 613.373496 0.001630242
8.64808 613.4057 619.804468 613.722359 0.001630242
8.65689 612.89008 620.247332 614.070129 0.001631614
8.66569 613.52515 620.701816 614.416772 0.001629925
8.67449 614.28107 621.168531 614.762359 0.001627919
8.68329 614.48199 621.648116 615.106856 0.001627387
8.69209 614.96863 622.145107 615.450264 0.001626099
8.70090 615.4057 622.65326 615.79255 0.001624944
8.70970 616.03485 623.177321 616.133785 0.001623285
8.71850 615.67346 623.718729 616.473936 0.001624238
8.72730 615.74554 624.279084 616.812969 0.001624047
8.73610 616.76202 624.860361 617.150955 0.001621371
8.74491 617.97504 625.464662 617.487862 0.001618188
8.75371 618.37677 626.094466 617.823657 0.001617137
8.76251 618.44269 626.752776 618.158412 0.001616965
8.77131 618.81195 627.442895 618.492093 0.001616
8.78011 619.52954 628.168634 618.82467 0.001614128
8.78892 620.34106 628.934724 619.156212 0.001612016
8.79772 620.81342 629.746407 619.486688 0.00161079
8.80652 621.59113 630.609921 619.816101 0.001608775
8.81532 621.94159 631.537383 620.14442 0.001607868
8.82413 622.45184 632.528249 620.471714 0.00160655
8.83293 622.76514 633.597657 620.797954 0.001605742
8.84173 623.70209 634.758069 621.123109 0.00160333
8.85053 624.84521 636.025051 621.447248 0.001600396
8.85933 625.94086 637.417075 621.770341 0.001597595
8.86814 626.66962 638.956834 622.09236 0.001595737
8.87694 628.33496 640.673018 622.413372 0.001591508
8.88574 630.1062 642.601016 622.73335 0.001587034
8.89454 632.06805 644.785401 623.052259 0.001582108
8.90334 634.23822 647.277524 623.370181 0.001576695
8.91215 637.07184 650.164975 623.687075 0.001569682
8.92095 640.15002 653.538861 624.002948 0.001562134
8.92975 644.34161 657.52916 624.31777 0.001551972
8.93855 650.36316 662.314254 624.631619 0.001537602
8.94736 657.19427 668.139218 624.944457 0.00152162
8.95616 666.5473 675.35377 625.256256 0.001500269
8.96496 678.77582 684.463797 625.567091 0.00147324
8.97376 695.75494 696.263437 625.876935 0.001437288
8.98256 719.21558 712.145193 626.18575 0.001390404
8.99137 754.0907 735.022377 626.493616 0.0013261
9.00017 811.69067 771.553753 626.8005 0.001231996
9.00897 905.15503 836.02333 627.106378 0.001104783
9.01777 1063.2354 954.142121 627.411316 0.000940525
9.02657 1293.3398 1161.988963 627.715288 0.000773192
9.03538 1598.4047 1490.358827 628.0183 0.000625624
9.04418 1927.3673 1917.522138 628.320325 0.000518842
9.05298 2242.4353 2351.862492 628.621432 0.000445944
9.06178 2477.405 2674.004507 628.921593 0.000403648
9.07058 2479.543 2624.934611 629.220785 0.0004033
9.07939 2217.3955 2161.293451 629.519074 0.00045098
9.08819 1795.7178 1621.367999 629.816434 0.00055688
9.09699 1401.5319 1215.880954 630.112842 0.000713505
9.10579 1109.0325 972.226013 630.408364 0.000901687
9.11460 925.94971 844.71643 630.702975 0.001079972
9.12340 815.79938 780.172709 630.996652 0.001225792
9.13220 750.66321 744.51395 631.289459 0.001332155
9.14100 712.22437 721.925521 631.581375 0.001404052
9.14980 688.73071 706.122389 631.872374 0.001451946
9.15861 673.04907 694.479477 632.162523 0.001485776
9.16741 661.88702 685.66184 632.451798 0.001510832
9.17621 654.70978 678.857703 632.740206 0.001527394
9.18501 649.24121 673.531592 633.027724 0.00154026
9.19381 644.8031 669.314271 633.314417 0.001550861
9.20262 642.05804 665.947385 633.600263 0.001557492
9.21142 640.20575 663.246137 633.885238 0.001561998
9.22022 639.20502 661.071338 634.169409 0.001564443
9.22902 638.30914 659.323426 634.452753 0.001566639
9.23782 637.48407 657.926733 634.735244 0.001568667
9.24663 636.86072 656.836582 635.016957 0.001570202
9.25543 636.36053 655.983737 635.297861 0.001571436
9.26423 636.48914 655.362881 635.577934 0.001571119
9.27303 636.94446 654.920783 635.857247 0.001569996
9.28184 637.28638 654.654422 636.135778 0.001569153
9.29064 637.53845 654.552219 636.413529 0.001568533
9.29944 638.19226 654.607871 636.690479 0.001566926
9.30824 639.02167 654.820088 636.966698 0.001564892
9.31704 640.34412 655.192711 637.242165 0.00156166
9.32585 641.0238 655.735029 637.51685 0.001560004
9.33465 641.8667 656.462992 637.790827 0.001557956
9.34345 643.05682 657.400203 638.064071 0.001555073
9.35225 645.06262 658.59641 638.336564 0.001550237
9.36105 647.30609 660.066669 638.608367 0.001544864
9.36986 650.04083 661.892322 638.879463 0.001538365
9.37866 654.45001 664.164581 639.149829 0.001528001
9.38746 659.1051 667.01324 639.419531 0.001517209
9.39626 664.5481 670.630186 639.688547 0.001504782
9.40507 670.89996 675.297097 639.956887 0.001490535
9.41387 680.60815 681.473581 640.224531 0.001469274
9.42267 691.78027 689.929498 640.491542 0.001445546
9.43147 711.67462 702.101174 640.7579 0.001405137
9.44027 737.34039 721.142079 641.023588 0.001356226
9.44908 778.26404 754.485087 641.288666 0.001284911
9.45788 842.12415 817.518045 641.553118 0.001187473
9.46668 945.52655 934.294763 641.816923 0.001057612
9.47548 1087.1152 1125.612371 642.080145 0.000919866
9.48428 1273.92 1376.315002 642.342765 0.000784979
9.49309 1435.5969 1581.501938 642.604765 0.000696574
9.50189 1495.7758 1577.740433 642.866206 0.000668549
9.51069 1440.4152 1396.405645 643.127071 0.000694244
9.51949 1285.7401 1180.385273 643.387368 0.000777762
9.52829 1130.9469 992.987187 643.647079 0.000884215
9.53710 999.01959 860.905244 643.906267 0.001000981
9.54590 892.896 781.517402 644.164913 0.001119951
9.55470 817.58765 737.338603 644.423 0.00122311
9.56350 768.16437 712.987183 644.680589 0.001301805
9.57231 732.90466 698.883849 644.937664 0.001364434
9.58111 715.35437 690.022988 645.194202 0.001397909
9.58991 706.38385 684.074281 645.450275 0.001415661
9.59871 704.77393 679.984369 645.705857 0.001418895
9.60751 710.22321 677.242985 645.960931 0.001408008
9.61632 720.35376 675.586551 646.215563 0.001388207
9.62512 737.13275 674.899913 646.469736 0.001356608
9.63392 753.8598 675.193636 646.723454 0.001326507
9.64272 771.3587 676.649101 646.9767 0.001296414
9.65152 785.71527 679.823335 647.229541 0.001272726
9.66033 793.13916 686.233341 647.481959 0.001260813
9.66913 796.68335 699.467815 647.73393 0.001255204
9.67793 798.04431 726.036966 647.985523 0.001253063
9.68673 802.70984 773.502409 648.236718 0.00124578
9.69553 804.6015 843.502223 648.487499 0.001242851
9.70434 813.63275 918.084012 648.737926 0.001229056
9.71314 818.289 946.344474 648.987983 0.001222062
9.72194 824.07153 898.572273 649.237654 0.001213487
9.73074 809.83813 821.014316 649.487 0.001234815
9.73955 782.37885 756.136233 649.736003 0.001278153
9.74835 744.38556 714.509999 649.984673 0.00134339
9.75715 716.9278 691.76025 650.232994 0.001394841
9.76595 696.00732 680.126658 650.481026 0.001436766
9.77475 682.67566 673.870012 650.728754 0.001464824
9.78356 672.67169 670.05956 650.97616 0.001486609
9.79236 666.55701 667.473579 651.223305 0.001500247
9.80116 661.77484 665.612038 651.470174 0.001511088
9.80996 658.65137 664.23437 651.71675 0.001518254
9.81876 656.54474 663.196561 651.963093 0.001523125
9.82757 654.71051 662.408337 652.209187 0.001527393
9.83637 653.07214 661.807241 652.455016 0.001531224
9.84517 651.88306 661.349362 652.700641 0.001534017
9.85397 651.34607 661.001462 652.946045 0.001535282
9.86278 650.36725 660.743862 653.191238 0.001537593
9.87158 649.35071 660.55763 653.436203 0.00154
9.88038 649.48022 660.429589 653.681002 0.001539693
9.88918 649.7027 660.349683 653.925617 0.001539166
9.89798 649.61914 660.310028 654.170033 0.001539364
9.90679 649.80219 660.304413 654.41431 0.00153893
9.91559 650.20538 660.327846 654.658431 0.001537976
9.92439 650.70343 660.376342 654.90238 0.001536798
9.93319 651.08459 660.44666 655.146222 0.001535899
9.94199 650.78912 660.536148 655.389935 0.001536596
9.95080 650.9718 660.643097 655.633502 0.001536165
9.95960 652.02948 660.764802 655.876989 0.001533673
9.96840 652.01031 660.900243 656.120379 0.001533718
9.97720 651.69263 661.048211 656.363677 0.001534466
9.98600 651.92133 661.207706 656.606867 0.001533927
9.99481 652.58588 661.377963 656.850013 0.001532365
10.00361 653.02887 661.558348 657.093108 0.001531326
10.01241 653.70715 661.748344 657.336101 0.001529737
10.02121 653.93939 661.947693 657.579106 0.001529194
10.03002 654.40875 662.156135 657.822049 0.001528097
10.03882 654.32166 662.373604 658.06494 0.0015283
10.04762 654.48975 662.600261 658.30787 0.001527908
10.05642 654.026 662.836254 658.550766 0.001528991
10.06522 653.90936 663.082017 658.793664 0.001529264
10.07403 654.44873 663.338146 659.036574 0.001528004
10.08283 655.4483 663.605507 659.279532 0.001525673
10.09163 656.71155 663.885161 659.522493 0.001522739
10.10043 656.88104 664.17859 659.765464 0.001522346
10.10923 657.25262 664.487851 660.008539 0.001521485
10.11804 658.14221 664.815398 660.251643 0.001519428
10.12684 659.03546 665.164654 660.494814 0.001517369
10.13564 659.73395 665.54011 660.738059 0.001515763
10.14444 661.09149 665.947871 660.981415 0.00151265
10.15325 663.30078 666.396045 661.224809 0.001507612
10.16205 666.34686 666.89622 661.468333 0.00150072
10.17085 669.46545 667.504183 661.711994 0.001493729
10.17965 673.284 668.164437 661.955719 0.001485257
10.18845 679.75787 668.952196 662.199628 0.001471112
10.19726 687.85938 669.925237 662.443646 0.001453786
10.20606 696.97546 671.194489 662.687837 0.001434771
10.21486 706.6142 673.011646 662.932127 0.001415199
10.22366 715.758 675.981309 663.176607 0.00139712
10.23246 722.21265 681.368565 663.421287 0.001384634
10.24127 723.28253 691.146156 663.666091 0.001382586
10.25007 722.61896 707.118023 663.911139 0.001383855
10.25887 720.48804 728.567345 664.156357 0.001387948
10.26767 719.28076 747.792298 664.40178 0.001390278
10.27647 717.21503 749.489702 664.647418 0.001394282
10.28528 712.73956 732.240368 664.893278 0.001403037
10.29408 705.20435 711.202025 665.139368 0.001418029
10.30288 696.28607 695.239818 665.385698 0.001436191
10.31168 688.21521 685.641425 665.632303 0.001453034
10.32048 682.17291 680.751487 665.879108 0.001465904
10.32929 678.01257 678.621039 666.126232 0.001474899
10.33809 675.97424 678.045084 666.373601 0.001479346
10.34689 676.13062 678.69493 666.621249 0.001479004
10.35569 678.23871 680.891738 666.869186 0.001474407
10.36450 682.22162 685.237697 667.117419 0.001465799
10.37330 688.40723 691.931217 667.365984 0.001452629
10.38210 694.43945 699.50959 667.614805 0.00144001
10.39090 696.99884 703.292048 667.864002 0.001434723
10.39971 693.94702 699.536476 668.113498 0.001441032
10.40851 687.65295 692.111738 668.363302 0.001454222
10.41731 681.42041 685.592801 668.613506 0.001467523
10.42611 677.40405 681.325989 668.864032 0.001476224
10.43491 675.36633 679.022355 669.114917 0.001480678
10.44371 673.98041 677.956384 669.366168 0.001483723
10.45252 673.12317 677.52864 669.617821 0.001485612
10.46132 672.87225 677.409993 669.869827 0.001486166
10.47012 672.89813 677.453318 670.122192 0.001486109
10.47892 673.38647 677.596897 670.375011 0.001485031
10.48773 673.96625 677.811497 670.628205 0.001483754
10.49653 674.40863 678.080924 670.881809 0.001482781
10.50533 674.76404 678.395043 671.13583 0.001482
10.51413 675.45825 678.747434 671.390277 0.001480476
10.52293 675.79248 679.13411 671.645155 0.001479744
10.53174 676.03302 679.552691 671.900473 0.001479218
10.54054 676.35498 680.00218 672.156266 0.001478514
10.54934 677.55292 680.482285 672.412453 0.001475899
10.55814 678.45111 680.993938 672.669159 0.001473946
10.56695 678.88184 681.538503 672.926301 0.00147301
10.57575 679.12665 682.118229 673.183918 0.001472479
10.58455 679.40173 682.743401 673.442014 0.001471883
10.59335 679.84271 683.403584 673.700597 0.001470928
10.60215 680.80701 684.11104 673.959703 0.001468845
10.61096 681.57605 684.871768 674.21925 0.001467188
10.61976 682.33716 685.693946 674.479362 0.001465551
10.62856 683.49957 686.587365 674.739957 0.001463059
10.63736 684.43195 687.564705 675.001071 0.001461066
10.64616 685.10095 688.642539 675.26271 0.001459639
10.65497 685.97028 689.842432 675.524881 0.001457789
10.66377 687.12518 691.193479 675.787589 0.001455339
10.67257 688.99225 692.735558 676.050841 0.001451395
10.68137 691.42389 694.52733 676.314673 0.001446291
10.69017 693.55536 696.657642 676.57903 0.001441846
10.69898 696.13574 699.287752 676.843949 0.001436501
10.70778 700.29309 702.746272 677.109435 0.001427974
10.71658 706.88544 707.711509 677.375494 0.001414656
10.72538 716.12384 715.418874 677.642132 0.001396407
10.73419 728.8786 727.68823 677.909355 0.001371971
10.74299 748.86993 746.492176 678.177198 0.001335345
10.75179 776.43579 772.405991 678.445575 0.001287937
10.76059 808.10425 801.198666 678.714614 0.001237464
10.76939 837.72211 827.767917 678.984229 0.001193713
10.77820 858.97565 851.845238 679.254425 0.001164177
10.78700 866.13873 857.751718 679.525299 0.001154549
10.79580 854.7019 834.694799 679.796764 0.001169999
10.80460 828.26593 802.410707 680.068887 0.001207342
10.81340 800.12543 777.978428 680.34158 0.001249804
10.82221 775.94714 765.333489 680.614941 0.001288748
10.83101 760.40857 762.848781 680.888975 0.001315082
10.83981 751.92816 767.880186 681.163594 0.001329914
10.84861 750.62292 778.901963 681.438926 0.001332227
10.85741 756.18298 796.201756 681.714882 0.001322431
10.86622 770.65741 822.480656 681.9915 0.001297593
10.87502 800.65118 865.086246 682.268782 0.001248983
10.88382 860.80164 940.95377 682.546734 0.001161708
10.89262 987.41748 1082.0141 682.825361 0.001012743
10.90142 1268.531 1331.402769 683.104665 0.000788313
10.91023 1796.0305 1718.016877 683.384683 0.000556783
10.91903 2408.5085 2198.290708 683.665357 0.000415195
10.92783 2637.9521 2552.17103 683.946721 0.000379082
10.93663 2377.6963 2466.269661 684.22878 0.000420575
10.94544 1897.2985 2031.563679 684.511538 0.000527065
10.95424 1477.4213 1574.400767 684.794999 0.000676855
10.96304 1174.6204 1240.64205 685.079165 0.000851339
10.97184 988.86768 1038.604468 685.364075 0.001011258
10.98064 885.52386 929.829141 685.649633 0.001129275
10.98945 827.01691 873.762044 685.935974 0.001209165
10.99825 792.86456 844.38282 686.223003 0.001261249
11.00705 773.78479 829.191674 686.510756 0.001292349
11.01585 764.9043 823.303646 686.799237 0.001307353
11.02465 764.86609 825.478505 687.08845 0.001307418
11.03346 773.04169 837.013679 687.378429 0.001293591
11.04226 795.03119 862.950992 687.669079 0.001257812
11.05106 842.16089 915.6082 687.960537 0.001187422
11.05986 942.57391 1017.721002 688.252704 0.001060925
11.06867 1140.1887 1199.332887 688.545618 0.000877048
11.07747 1489.739 1479.181802 688.839281 0.000671259
11.08627 1887.8201 1821.86665 689.133696 0.000529711
11.09507 2159.533 2074.315597 689.428866 0.000463063
11.10387 2130.0266 2032.8076 689.724792 0.000469478
11.11268 1827.5195 1732.830849 690.021513 0.00054719
11.12148 1486.296 1396.689745 690.318928 0.000672813
11.13028 1226.7069 1144.506815 690.617142 0.000815191
11.13908 1068.4603 988.241648 690.916156 0.000935926
11.14789 968.13983 898.181865 691.215906 0.001032909
11.15669 902.38208 843.274987 691.516428 0.001108178
11.16549 854.99213 807.381148 691.817723 0.001169601
11.17429 819.23822 783.001501 692.119828 0.001220646
11.18309 791.84216 766.07542 692.422641 0.001262878
11.19190 770.91278 754.105036 692.726269 0.001297164
11.20070 756.29468 745.413985 693.030712 0.001322236
11.20950 745.2038 738.915318 693.335869 0.001341915
11.21830 736.83398 733.954717 693.64188 0.001357158
11.22710 731.33319 730.224277 693.948642 0.001367366
11.23591 727.75763 727.615163 694.256192 0.001374084
11.24471 725.10742 726.16978 694.564532 0.001379106
11.25351 724.15753 725.921658 694.873661 0.001380915
11.26231 724.24469 726.598626 695.183618 0.001380749
11.27111 724.43976 727.078799 695.494297 0.001380377
11.27992 725.05377 725.590259 695.805841 0.001379208
11.28872 724.69336 722.267591 696.118144 0.001379894
11.29752 722.73572 718.818871 696.431244 0.001383632
11.30632 721.09723 716.121 696.745141 0.001386776
11.31513 719.29852 714.259445 697.059836 0.001390243
11.32393 717.45068 713.036421 697.375329 0.001393824
11.33273 716.08545 712.219246 697.691622 0.001396481
11.34153 715.30652 711.63981 698.008751 0.001398002
11.35033 714.76312 711.211022 698.326608 0.001399065
11.35914 714.85602 710.889166 698.645339 0.001398883
11.36794 714.36218 710.651641 698.964834 0.00139985
11.37674 713.75836 710.484751 699.285132 0.001401034
11.38554 713.49841 710.37897 699.606231 0.001401545
11.39434 713.70538 710.327385 699.928133 0.001401138
11.40315 714.32556 710.328155 700.250874 0.001399922
11.41195 714.6203 710.369996 700.574343 0.001399345
11.42075 714.12299 710.454467 700.898689 0.001400319
11.42955 714.1344 710.578413 701.2238 0.001400297
11.43835 714.91632 710.739339 701.549676 0.001398765
11.44716 716.1853 710.849745 701.876427 0.001396287
11.45596 716.35681 711.068038 702.203943 0.001395952
11.46476 716.97217 711.275534 702.532261 0.001394754
11.47356 718.03271 711.411693 702.861379 0.001392694
11.48237 719.25537 711.376259 703.191334 0.001390327
11.49117 719.88892 711.074666 703.522014 0.001389103
11.49997 720.70129 710.528914 703.85353 0.001387537
11.50877 722.37915 710.180733 704.185883 0.001384315
11.51757 724.4068 711.10523 704.518994 0.00138044
11.52638 727.93909 714.180584 704.852903 0.001373741
11.53518 733.67273 719.240504 705.187606 0.001363006
11.54398 742.42041 726.719916 705.523143 0.001346946
11.55278 758.7644 738.252042 705.859396 0.001317932
11.56158 788.30316 755.62552 706.19648 0.001268547
11.57039 831.84583 778.642808 706.534393 0.001202146
11.57919 865.75006 800.912962 706.873019 0.001155068
11.58799 858.21973 807.485881 707.212511 0.001165203
11.59679 816.47882 792.587591 707.552751 0.001224772
11.60559 787.4234 769.930538 707.893776 0.001269965
11.61440 765.95483 750.860394 708.235586 0.00130556
11.62320 755.23523 738.311283 708.578177 0.001324091
11.63200 747.6936 731.342344 708.921589 0.001337446
11.64080 743.18231 728.054076 709.265701 0.001345565
11.64961 738.99677 726.905002 709.610669 0.001353186
11.65841 738.04742 727.083505 709.956372 0.001354926
11.66721 737.82587 728.4106 710.302849 0.001355333
11.67601 740.1441 731.291814 710.650097 0.001351088
11.68481 744.03174 736.878069 710.998114 0.001344029
11.69362 753.77216 747.184306 711.346899 0.001326661
11.70242 766.31433 764.565975 711.696448 0.001304948
11.71122 784.08423 790.050729 712.046799 0.001275373
11.72002 799.23932 819.442371 712.397831 0.00125119
11.72883 802.86523 837.628279 712.749701 0.001245539
11.73763 798.33978 828.310652 713.102287 0.001252599
11.74643 788.21832 800.87695 713.455625 0.001268684
11.75523 773.77338 773.668151 713.809714 0.001292368
11.76403 765.11932 753.969157 714.16455 0.001306986
11.77284 754.58826 741.924687 714.520172 0.001325226
11.78164 748.53973 735.343301 714.876455 0.001335934
11.79044 743.34338 731.939853 715.233559 0.001345273
11.79924 739.92822 730.208574 715.591359 0.001351482
11.80804 737.25391 729.384591 715.949852 0.001356385
11.81685 736.07831 729.145356 716.309157 0.001358551
11.82565 735.52686 729.386374 716.669149 0.00135957
11.83445 735.3703 730.143693 717.029865 0.001359859
11.84325 736.38354 731.636121 717.391303 0.001357988
11.85206 738.70386 734.406068 717.7535 0.001353722
11.86086 741.8905 739.458594 718.116371 0.001347908
11.86966 746.93646 748.126798 718.479913 0.001338802
11.87846 756.10468 761.386953 718.844245 0.001322568
11.88726 766.16083 778.203274 719.209241 0.001305209
11.89607 772.60675 792.336032 719.574938 0.00129432
11.90487 771.88202 792.909038 719.941333 0.001295535
11.91367 765.08734 779.575923 720.308463 0.00130704
11.92247 756.41681 763.132422 720.676201 0.001322022
11.93127 749.63855 750.03081 721.044667 0.001333976
11.94008 745.85864 741.362335 721.413858 0.001340737
11.94888 744.2998 736.038274 721.783645 0.001343545
11.95768 743.0636 732.461952 722.154191 0.00134578
11.96648 743.19226 729.332712 722.525366 0.001345547
11.97528 743.5788 725.968703 722.897251 0.001344847
11.98409 744.21832 722.598374 723.269716 0.001343692
11.99289 745.77686 720.815816 723.642881 0.001340884
12.00169 748.31647 722.306216 724.016745 0.001336333
12.01049 748.29742 725.955249 724.391175 0.001336367
12.01929 747.45703 729.787872 724.766337 0.00133787
12.02810 746.48285 733.094611 725.142099 0.001339616
12.03690 745.85248 736.020803 725.518499 0.001340748
12.04570 746.14014 739.018053 725.895533 0.001340231
12.05450 747.12756 742.48037 726.273197 0.00133846
12.06330 749.24915 746.382662 726.651486 0.00133467
12.07211 751.67572 749.766848 727.030396 0.001330361
12.08091 753.61542 750.999078 727.409966 0.001326937
12.08971 754.45288 750.223898 727.790103 0.001325464
12.09851 754.81396 749.203026 728.170848 0.00132483
12.10732 755.75897 748.960928 728.552195 0.001323173
12.11612 756.70837 749.726957 728.93414 0.001321513
12.12492 758.74817 751.433991 729.316677 0.00131796
12.13372 761.00671 754.009338 729.699803 0.001314049
12.14252 763.9035 757.521042 730.083555 0.001309066
12.15133 768.78772 762.273464 730.467798 0.001300749
12.16013 776.15594 768.863199 730.852703 0.001288401
12.16893 786.82361 778.147307 731.238132 0.001270933
12.17773 801.96008 791.09666 731.62408 0.001246945
12.18653 820.50122 808.533307 732.010675 0.001218767
12.19534 845.80334 830.647566 732.397779 0.001182308
12.20414 881.77155 858.536488 732.785476 0.001134081
12.21294 926.58649 900.544067 733.173627 0.00107923
12.22174 998.55353 970.70794 733.562405 0.001001449
12.23055 1086.0674 1077.490511 733.951671 0.000920753
12.23935 1169.4681 1209.405754 734.34142 0.00085509
12.24815 1236.869 1319.393958 734.73178 0.000808493
12.25695 1255.1179 1357.191608 735.122613 0.000796738
12.26575 1240.0413 1308.502035 735.513957 0.000806425
12.27456 1189.0461 1189.719128 735.905807 0.00084101
12.28336 1109.4312 1059.20805 736.298202 0.000901363
12.29216 1019.1575 958.220959 736.691003 0.000981203
12.30096 946.82135 893.714227 737.084338 0.001056165
12.30977 894.47345 858.825411 737.478202 0.001117976
12.31857 865.09668 845.325376 737.8725 0.00115594
12.32737 852.7099 849.030994 738.267271 0.001172732
12.33617 861.36926 871.262289 738.662509 0.001160942
12.34497 892.53131 916.995507 739.058254 0.001120409
12.35378 947.875 989.732931 739.454365 0.001054991
12.36258 1021.1956 1081.833327 739.85097 0.000979244
12.37138 1073.5051 1157.023202 740.248066 0.000931528
12.38018 1075.6925 1157.536758 740.64551 0.000929634
12.38898 1027.1466 1085.81554 741.043477 0.000973571
12.39779 964.96527 1001.468791 741.441827 0.001036307
12.40659 921.5224 939.505348 741.840597 0.001085161
12.41539 894.88916 903.101021 742.239783 0.001117457
12.42419 878.92645 878.596128 742.639378 0.001137752
12.43299 861.58344 853.095319 743.039377 0.001160654
12.44180 843.33905 827.979588 743.439773 0.001185763
12.45060 825.47998 808.019587 743.840607 0.001211416
12.45940 811.81165 794.327132 744.241781 0.001231813
12.46820 800.00848 786.113651 744.643334 0.001249987
12.47701 791.59766 782.319321 745.04526 0.001263268
12.48581 785.31232 782.442847 745.447555 0.001273379
12.49461 784.65845 786.7855 745.85021 0.00127444
12.50341 788.65778 795.966748 746.253221 0.001267977
12.51221 795.5802 809.712879 746.656627 0.001256944
12.52102 802.1156 824.434617 747.060284 0.001246703
12.52982 803.68494 830.837302 747.464369 0.001244269
12.53862 799.74292 822.251768 747.86874 0.001250402
12.54742 793.20569 805.697754 748.273388 0.001260707
12.55622 786.64374 790.148038 748.678447 0.001271223
12.56503 781.22546 778.816125 749.083772 0.00128004
12.57383 777.03156 771.614614 749.489449 0.001286949
12.58263 773.70538 767.397409 749.895333 0.001292482
12.59143 770.83502 764.976978 750.301602 0.001297294
12.60023 768.06946 763.535761 750.708112 0.001301966
12.60904 766.10919 762.626141 751.114856 0.001305297
12.61784 764.88959 762.030704 751.521966 0.001307378
12.62664 764.67529 761.644341 751.929298 0.001307745
12.63544 764.91241 761.409361 752.336892 0.001307339
12.64424 764.72736 761.290288 752.744741 0.001307656
12.65305 764.18561 761.264084 753.152884 0.001308583
12.66185 764.40204 761.313198 753.561178 0.001308212
12.67065 765.02234 761.42811 753.969753 0.001307151
12.67945 765.39264 761.602494 754.378604 0.001306519
12.68826 766.35809 761.838904 754.787632 0.001304873
12.69706 767.17529 762.145918 755.196876 0.001303483
12.70586 768.41595 762.55035 755.606331 0.001301379
12.71466 770.26831 763.092258 756.016035 0.001298249
12.72346 772.70001 763.811906 756.425844 0.001294163
12.73227 776.05835 764.723508 756.835889 0.001288563
12.74107 781.35205 765.70702 757.246166 0.001279833
12.74987 783.73932 766.463009 757.656527 0.001275934
12.75867 786.58112 766.708111 758.067152 0.001271325
12.76747 786.70367 766.657558 758.477896 0.001271127
12.77628 783.72144 766.682992 758.888797 0.001275964
12.78508 780.22076 766.961275 759.29985 0.001281689
12.79388 776.8374 767.539562 759.711049 0.001287271
12.80268 774.92462 768.423717 760.122432 0.001290448
12.81148 773.98206 769.613146 760.533855 0.00129202
12.82029 773.58698 771.193392 760.945496 0.001292679
12.82909 773.31519 773.508563 761.357209 0.001293134
12.83789 773.42578 777.060721 761.769035 0.001292949
12.84669 773.70764 782.104393 762.180967 0.001292478
12.85550 774.9939 788.093731 762.592998 0.001290333
12.86430 776.72681 792.807218 763.005122 0.001287454
12.87310 778.19141 793.115575 763.417332 0.001285031
12.88190 777.89008 789.503666 763.829669 0.001285529
12.89070 778.54767 785.478025 764.241985 0.001284443
12.89951 780.25281 783.210938 764.654461 0.001281636
12.90831 783.84802 783.524453 765.066951 0.001275758
12.91711 789.7912 786.599973 765.479494 0.001266157
12.92591 795.14734 792.075032 765.892084 0.001257629
12.93472 800.68628 798.438433 766.304715 0.001248929
12.94352 802.62744 802.098434 766.717426 0.001245908
12.95232 798.97784 799.903779 767.130072 0.001251599
12.96112 794.82288 793.933952 767.542831 0.001258142
12.96992 789.37677 787.922756 767.955558 0.001266822
12.97873 785.03552 783.478137 768.368246 0.001273828
12.98753 782.97571 780.721266 768.78103 0.001277179
12.99633 781.10925 779.267553 769.19376 0.001280231
13.00513 779.68048 778.645105 769.60648 0.001282577
13.01393 778.76361 778.499719 770.019181 0.001284087
13.02274 778.42535 778.626175 770.431904 0.001284645
13.03154 778.36237 778.925722 770.844549 0.001284749
13.04034 779.47626 779.359608 771.25711 0.001282913
13.04914 779.49475 779.925547 771.66972 0.001282882
13.05795 780.01886 780.657384 772.082233 0.00128202
13.06675 780.83154 781.639282 772.494688 0.001280686
13.07555 782.34753 783.015897 772.90708 0.001278204
13.08435 784.98596 784.967568 773.31945 0.001273908
13.09315 786.94684 787.615748 773.731649 0.001270734
13.10196 789.68048 790.827152 774.143812 0.001266335
13.11076 792.37708 793.810033 774.555932 0.001262025
13.11956 795.10803 795.045676 774.967864 0.001257691
13.12836 795.04498 794.068346 775.379787 0.00125779
13.13716 794.70038 792.258036 775.791555 0.001258336
13.14597 792.48944 790.784961 776.203255 0.001261846
13.15477 790.94116 790.020247 776.614741 0.001264317
13.16357 789.40607 789.934582 777.026146 0.001266775
13.17237 788.38452 790.338869 777.437464 0.001268417
13.18117 787.86151 791.084897 777.848548 0.001269259
13.18998 787.64355 792.068057 778.25958 0.00126961
13.19878 787.49176 793.238993 778.670412 0.001269855
13.20758 787.89111 794.587533 779.081086 0.001269211
13.21638 788.27582 796.118252 779.491594 0.001268591
13.22518 789.42999 797.856141 779.901931 0.001266737
13.23399 791.75037 799.835545 780.312091 0.001263024
13.24279 793.7442 802.111003 780.722067 0.001259852
13.25159 798.46466 804.733549 781.131899 0.001252404
13.26039 801.65833 807.795426 781.541489 0.001247414
13.26920 810.70209 811.412197 781.950876 0.001233499
13.27800 815.98724 815.743411 782.360055 0.001225509
13.28680 815.72125 821.009959 782.76902 0.001225909
13.29560 810.98792 827.529011 783.177764 0.001233064
13.30440 815.05774 835.786544 783.586281 0.001226907
13.31321 820.85522 846.59869 783.994612 0.001218242
13.32201 831.43799 861.505019 784.402611 0.001202736
13.33081 848.57245 883.644386 784.810458 0.00117845
13.33961 876.62195 919.131777 785.218008 0.001140743
13.34841 926.94836 978.292927 785.625255 0.001078809
13.35722 1015.6794 1075.100672 786.032331 0.000984563
13.36602 1184.7087 1222.031115 786.439092 0.000844089
13.37482 1447.1587 1418.615476 786.845625 0.000691009
13.38362 1702.1833 1627.107144 787.251785 0.000587481
13.39243 1815.6239 1744.07612 787.65775 0.000550775
13.40123 1700.1123 1675.522031 788.063377 0.000588196
13.41003 1467.8131 1481.100933 788.46866 0.000681286
13.41883 1256.3158 1276.995059 788.873731 0.000795978
13.42763 1101.5299 1117.508963 789.278446 0.000907828
13.43644 1000.7765 1010.179466 789.682845 0.000999224
13.44524 934.70856 944.58947 790.086923 0.001069852
13.45404 893.24683 906.611391 790.490719 0.001119511
13.46284 869.07074 884.882485 790.894091 0.001150654
13.47164 855.20966 872.511424 791.29717 0.001169304
13.48045 848.51184 866.16586 791.69995 0.001178534
13.48925 847.2525 864.573786 792.10229 0.001180286
13.49805 850.55298 867.456477 792.504365 0.001175706
13.50685 859.33984 874.87728 792.906033 0.001163684
13.51566 873.45361 886.708579 793.30738 0.00114488
13.52446 890.84778 902.920608 793.708264 0.001122526
13.53326 916.24481 926.871144 794.108816 0.001091411
13.54206 951.10834 965.311394 794.50903 0.001051405
13.55086 993.69373 1021.368563 794.908764 0.001006346
13.55967 1047.4576 1086.521552 795.308195 0.000954693
13.56847 1086.9102 1132.098101 795.707181 0.000920039
13.57727 1095.4543 1124.27541 796.105762 0.000912863
13.58607 1069.8773 1067.68917 796.503932 0.000934687
13.59487 1014.8198 997.288599 796.901687 0.000985397
13.60368 958.20416 937.371997 797.299021 0.001043619
13.61248 912.7746 894.621218 797.695929 0.001095561
13.62128 878.31897 867.165666 798.092449 0.001138539
13.63008 856.12445 850.575136 798.488488 0.001168054
13.63889 840.76758 840.667751 798.884085 0.001189389
13.64769 830.83594 834.572085 799.279235 0.001203607
13.65649 824.81195 830.66165 799.673933 0.001212398
13.66529 821.91602 828.150353 800.068172 0.001216669
13.67409 820.88989 826.720235 800.46195 0.00121819
13.68290 821.45795 826.355673 800.855304 0.001217348
13.69170 824.02094 827.302769 801.248096 0.001213561
13.70050 828.06805 830.040001 801.640499 0.00120763
13.70930 834.86035 835.136259 802.032376 0.001197805
13.71810 845.08685 842.848966 802.42372 0.00118331
13.72691 857.5282 852.420194 802.81466 0.001166142
13.73571 868.79681 860.634202 803.205058 0.001151017
13.74451 876.78485 862.047277 803.594998 0.001140531
13.75331 878.18097 855.416358 803.984343 0.001138717
13.76211 870.67499 845.681909 804.373263 0.001148534
13.77092 858.73853 837.046653 804.761623 0.001164499
13.77972 846.08636 830.876942 805.149417 0.001181912
13.78852 835.38513 827.088602 805.536772 0.001197053
13.79732 828.78809 825.118571 805.923553 0.001206581
13.80612 824.55188 824.373436 806.309797 0.00121278
13.81493 822.55762 824.445066 806.695502 0.00121572
13.82373 821.35889 825.10462 807.080705 0.001217495
13.83253 821.22485 826.312857 807.465271 0.001217693
13.84133 822.2663 828.159959 807.849326 0.001216151
13.85014 824.83936 830.923464 808.232866 0.001212357
13.85894 829.73035 835.203111 808.6158 0.001205211
13.86774 837.37836 842.136759 808.998166 0.001194203
13.87654 848.82904 853.545194 809.37996 0.001178094
13.88534 866.61505 871.722421 809.761221 0.001153915
13.89415 892.36279 898.50553 810.141815 0.00112062
13.90295 921.35254 933.389089 810.521866 0.001085361
13.91175 943.96692 969.494413 810.901371 0.001059359
13.92055 954.36212 989.466554 811.280197 0.00104782
13.92935 946.41541 978.170183 811.65851 0.001056618
13.93816 927.50208 945.078401 812.036178 0.001078165
13.94696 905.60187 909.397303 812.41324 0.001104238
13.95576 884.0144 880.776003 812.789692 0.001131203
13.96456 867.565 860.976413 813.165528 0.001152651
13.97337 854.45435 848.556824 813.540789 0.001170338
13.98217 844.39899 841.232709 813.915341 0.001184274
13.99097 837.20148 837.019078 814.289352 0.001194456
13.99977 832.11792 834.632166 814.662689 0.001201753
14.00857 828.89343 833.407159 815.035392 0.001206428
14.01738 826.68121 833.076028 815.407456 0.001209656
14.02618 825.79102 833.550611 815.778877 0.00121096
14.03498 826.33154 834.746631 816.149651 0.001210168
14.04378 827.30664 836.365719 816.519776 0.001208742
14.05259 828.12921 837.638601 816.889288 0.001207541
14.06139 829.00323 837.577814 817.258058 0.001206268
14.07019 829.91174 836.217899 817.62625 0.001204947
14.07899 829.84857 834.526554 817.993736 0.001205039
14.08779 829.11188 833.168733 818.360552 0.00120611
14.09660 828.69495 832.330476 818.726695 0.001206717
14.10540 827.70209 831.972161 819.092162 0.001208164
14.11420 826.88184 831.980655 819.45699 0.001209363
14.12300 826.77985 832.244134 819.821052 0.001209512
14.13180 825.67261 832.682678 820.18451 0.001211134
14.14061 825.22797 833.251107 820.547236 0.001211786
14.14941 824.82831 833.929943 820.909227 0.001212374
14.15821 825.47351 834.712293 821.270603 0.001211426
14.16701 826.21558 835.601876 821.631236 0.001210338
14.17581 826.93445 836.607887 821.991166 0.001209286
14.18462 827.11481 837.744976 822.350388 0.001209022
14.19342 827.88885 839.035337 822.70894 0.001207892
14.20222 828.60907 840.504764 823.066737 0.001206842
14.21102 830.34247 842.1924 823.423777 0.001204322
14.21983 832.70532 844.15066 823.780176 0.001200905
14.22863 834.97778 846.448044 824.135812 0.001197637
14.23743 837.05182 849.186444 824.490721 0.001194669
14.24623 840.60443 852.508608 824.8449 0.00118962
14.25503 845.25085 856.638677 825.198345 0.001183081
14.26384 851.87299 861.972749 825.551055 0.001173884
14.27264 859.70428 869.251308 825.903026 0.001163191
14.28144 870.15344 879.910796 826.254294 0.001149223
14.29024 886.15295 896.48814 826.604737 0.001128473
14.29904 909.55469 922.876786 826.954512 0.001099439
14.30785 945.7135 963.693773 827.303497 0.001057403
14.31665 998.96344 1022.516509 827.651728 0.001001038
14.32545 1062.9816 1097.964978 827.999202 0.00094075
14.33425 1119.4341 1175.926888 828.345916 0.000893309
14.34305 1145.9269 1221.797516 828.691908 0.000872656
14.35186 1134.0365 1203.778028 829.037056 0.000881806
14.36066 1100.0861 1137.321914 829.381516 0.00090902
14.36946 1055.2166 1061.787158 829.725165 0.000947673
14.37826 1013.8767 999.653546 830.068042 0.000986313
14.38706 977.60901 956.513653 830.410143 0.001022904
14.39587 951.43359 930.457947 830.751466 0.001051046
14.40467 930.66486 917.147735 831.092008 0.001074501
14.41347 917.01282 912.227397 831.431767 0.001090497
14.42227 908.53827 912.076936 831.770779 0.001100669
14.43108 907.48004 914.039612 832.108964 0.001101953
14.43988 914.22839 917.667953 832.446358 0.001093819
14.44868 931.18231 925.175121 832.78296 0.001073904
14.45748 958.12915 940.038082 833.118766 0.001043701
14.46628 1000.1355 966.556199 833.453774 0.000999865
14.47509 1067.1216 1009.463573 833.787982 0.0009371
14.48389 1165.9415 1072.23853 834.121425 0.000857676
14.49269 1292.9375 1153.377569 834.453989 0.000773433
14.50149 1419.6348 1238.80373 834.78582 0.000704407
14.51029 1489.3022 1294.030382 835.116806 0.000671455
14.51910 1461.2024 1287.695654 835.446942 0.000684368
14.52790 1369.5481 1237.596596 835.77634 0.000730168
14.53670 1272.8533 1188.612656 836.104885 0.000785636
14.54550 1222.2681 1171.664128 836.432612 0.000818151
14.55430 1244.181 1202.657291 836.75952 0.000803742
14.56311 1360.8495 1289.051374 837.085607 0.000734835
14.57191 1573.8927 1428.363578 837.410906 0.000635367
14.58071 1798.053 1597.515503 837.735306 0.000556157
14.58951 1877.1653 1732.580128 838.058953 0.000532718
14.59832 1761.3073 1743.332174 838.381733 0.00056776
14.60712 1547.3939 1616.207265 838.703682 0.000646248
14.61592 1343.0625 1432.959017 839.024797 0.000744567
14.62472 1199.9375 1263.934227 839.345078 0.000833377
14.63352 1111.9015 1134.618275 839.664522 0.00089936
14.64233 1055.1683 1045.77216 839.983127 0.000947716
14.65113 1016.4686 988.751328 840.300929 0.000983798
14.65993 988.04584 953.213977 840.617816 0.001012099
14.66873 965.98248 930.683532 840.933931 0.001035215
14.67754 948.34283 915.66783 841.249165 0.001054471
14.68634 934.65887 905.051553 841.563552 0.001069909
14.69514 922.99414 897.211106 841.877091 0.00108343
14.70394 913.37 891.286163 842.18978 0.001094847
14.71274 904.56195 886.795587 842.501652 0.001105507
14.72155 896.75073 883.460166 842.8126 0.001115137
14.73035 890.44843 881.130384 843.122765 0.00112303
14.73915 885.0097 879.798251 843.432038 0.001129931
14.74795 880.83881 879.613542 843.740453 0.001135281
14.75675 878.15674 880.983129 844.048009 0.001138749
14.76556 876.91467 884.582292 844.354705 0.001140362
14.77436 875.42816 891.26293 844.66054 0.001142298
14.78316 875.59363 901.725537 844.965511 0.001142082
14.79196 876.33917 915.877476 845.269653 0.001141111
14.80077 878.23151 931.518309 845.572894 0.001138652
14.80957 880.21686 942.579534 845.875234 0.001136084
14.81837 883.07727 941.581453 846.176775 0.001132404
14.82717 885.90192 928.815324 846.477412 0.001128793
14.83597 887.15857 911.796315 846.777179 0.001127194
14.84478 884.93384 896.141689 847.076074 0.001130028
14.85358 882.44818 883.652413 847.37413 0.001133211
14.86238 880.65967 874.280068 847.671244 0.001135512
14.87118 880.71381 867.523732 847.967518 0.001135443
14.87998 882.41669 863.350012 848.262949 0.001133251
14.88879 887.22363 862.930542 848.557436 0.001127112
14.89759 894.15765 868.548651 848.851112 0.001118371
14.90639 902.35388 880.454159 849.143876 0.001108213
14.91519 910.05731 893.511694 849.435793 0.001098832
14.92399 915.64197 900.533207 849.726763 0.00109213
14.93280 915.85266 899.545193 850.016884 0.001091879
14.94160 911.50409 894.571637 850.306156 0.001097088
14.95040 905.16425 889.81545 850.594479 0.001104772
14.95920 901.08813 887.523097 850.881982 0.001109769
14.96800 899.7146 888.789718 851.168568 0.001111464
14.97681 902.6236 894.172698 851.454269 0.001107882
14.98561 910.48737 903.757234 851.739082 0.001098313
14.99441 923.099 916.73859 852.023008 0.001083307
15.00321 939.65332 930.438033 852.306047 0.001064222
15.01201 952.32843 938.93244 852.588196 0.001050058
15.02082 956.70319 937.104697 852.869488 0.001045256
15.02962 950.45972 928.271923 853.149859 0.001052122
15.03842 936.42133 920.086591 853.429338 0.001067895
15.04722 923.95331 916.972273 853.707927 0.001082306
15.05603 917.49664 920.111959 853.985623 0.001089922
15.06483 916.62988 928.541717 854.262427 0.001090953
15.07363 918.52997 938.686415 854.538339 0.001088696
15.08243 919.27002 944.129728 854.813388 0.00108782
15.09123 914.77411 939.989295 855.087481 0.001093166
15.10004 906.62848 928.482202 855.360743 0.001102988
15.10884 898.17487 915.512956 855.633078 0.001113369
15.11764 891.49689 904.924977 855.904487 0.001121709
15.12644 887.45392 898.006487 856.175063 0.001126819
15.13524 886.27856 894.880748 856.444712 0.001128313
15.14405 887.35791 895.457576 856.713495 0.001126941
15.15285 891.34943 899.974965 856.981321 0.001121894
15.16165 898.97229 909.289951 857.24831 0.001112381
15.17045 911.48798 924.731468 857.514372 0.001097107
15.17925 930.91449 947.546554 857.779507 0.001074213
15.18806 961.47595 977.6101 858.043804 0.001040068
15.19686 999.34607 1011.113865 858.307174 0.001000654
15.20566 1032.6293 1038.941788 858.569645 0.000968402
15.21446 1043.7551 1050.322403 858.831218 0.000958079
15.22327 1029.4456 1039.572027 859.091923 0.000971397
15.23207 999.27539 1010.879322 859.351669 0.001000725
15.24087 968.6922 976.517921 859.610547 0.00103232
15.24967 941.80328 946.118532 859.868556 0.001061793
15.25848 921.22632 923.09047 860.125636 0.00108551
15.26728 906.43671 907.21927 860.381817 0.001103221
15.27608 895.86096 896.972216 860.6371 0.001116245
15.28488 887.83392 890.602217 860.891513 0.001126337
15.29368 882.49396 886.692224 861.144969 0.001133152
15.30249 878.84961 884.283588 861.397555 0.001137851
15.31129 876.04279 882.815904 861.649271 0.001141497
15.32009 874.28522 881.993293 861.900032 0.001143791
15.32889 874.28955 881.669332 862.14995 0.001143786
15.33769 875.36707 881.785636 862.398942 0.001142378
15.34650 875.79034 882.344464 862.647036 0.001141826
15.35530 877.17175 883.415146 862.894231 0.001140028
15.36410 878.6095 885.16415 863.140528 0.001138162
15.37290 881.12988 887.903291 863.385955 0.001134906
15.38170 883.92419 892.131022 863.630429 0.001131319
15.39051 888.43274 898.531179 863.874061 0.001125578
15.39931 892.31891 907.867053 864.116768 0.001120676
15.40811 899.33881 920.753684 864.358579 0.001111928
15.41691 908.85229 937.124124 864.599493 0.001100289
15.42572 924.9472 955.15707 864.83951 0.001081143
15.43452 950.49182 970.756455 865.078631 0.001052087
15.44332 985.82947 981.214857 865.316857 0.001014374
15.45212 1027.1954 989.18378 865.554215 0.000973525
15.46092 1056.3213 997.620958 865.790624 0.000946682
15.46973 1070.2141 1004.908758 866.026191 0.000934392
15.47853 1069.6862 1008.452373 866.260838 0.000934854
15.48733 1065.1384 1007.035597 866.494592 0.000938845
15.49613 1044.9285 997.550556 866.727452 0.000957003
15.50493 1011.6087 979.165305 866.95942 0.000988525
15.51374 976.79407 957.48548 867.190521 0.001023757
15.52254 948.8374 938.458766 867.420678 0.001053921
15.53134 929.06525 924.579909 867.649997 0.001076351
15.54014 915.58923 916.037911 867.878398 0.001092193
15.54894 908.03979 912.047573 868.105884 0.001101273
15.55775 903.31769 911.412611 868.332532 0.00110703
15.56655 903.12341 912.690831 868.558265 0.001107268
15.57535 906.21661 914.682277 868.78311 0.001103489
15.58415 912.95233 917.64292 869.007067 0.001095347
15.59296 923.40741 923.269023 869.230163 0.001082946
15.60176 937.6842 933.087909 869.452321 0.001066457
15.61056 958.19946 947.380482 869.67362 0.001043624
15.61936 981.1131 964.243187 869.894058 0.00101925
15.62816 1000.3467 978.080228 870.113587 0.000999653
15.63697 1004.9815 980.923199 870.332233 0.000995043
15.64577 992.27478 970.54752 870.549995 0.001007785
15.65457 969.3819 953.528956 870.766901 0.001031585
15.66337 946.91046 937.135052 870.982876 0.001056066
15.67217 929.57623 924.940921 871.197995 0.001075759
15.68098 919.72467 917.959511 871.41226 0.001087282
15.68978 916.10547 915.966243 871.625597 0.001091577
15.69858 917.23413 918.005633 871.838104 0.001090234
15.70738 921.63196 922.363933 872.049711 0.001085032
15.71618 926.25336 926.110895 872.260441 0.001079618
15.72499 930.34363 925.784925 872.470296 0.001074872
15.73379 929.60223 920.555391 872.679278 0.001075729
15.74259 923.66345 912.97275 872.887409 0.001082645
15.75139 913.87219 905.664324 873.094621 0.001094245
15.76020 905.35535 899.810683 873.301009 0.001104539
15.76900 896.85797 895.611676 873.506503 0.001115004
15.77780 891.22076 892.859201 873.711128 0.001122056
15.78660 886.72412 891.19326 873.914885 0.001127746
15.79540 884.03229 890.278339 874.117775 0.00113118
15.80421 882.49518 889.858016 874.319798 0.001133151
15.81301 882.12653 889.772454 874.520957 0.001133624
15.82181 882.23969 889.93735 874.721274 0.001133479
15.83061 883.19818 890.319063 874.920683 0.001132249
15.83942 883.95984 890.91869 875.119276 0.001131273
15.84822 884.81348 891.767904 875.316986 0.001130182
15.85702 886.90643 892.936433 875.513837 0.001127515
15.86582 889.99915 894.557015 875.709829 0.001123597
15.87462 894.81293 896.857854 875.904965 0.001117552
15.88343 900.38501 900.177939 876.099267 0.001110636
15.89223 906.67621 904.930619 876.29267 0.00110293
15.90103 914.70123 911.508772 876.485264 0.001093253
15.90983 924.4433 920.076889 876.676985 0.001081732
15.91863 934.05328 930.215229 876.867833 0.001070603
15.92744 943.24359 940.273466 877.057876 0.001060172
15.93624 949.75757 947.294983 877.247048 0.0010529
15.94504 953.28448 949.680968 877.435375 0.001049005
15.95384 953.0824 949.771387 877.622856 0.001049227
15.96265 951.9267 951.204207 877.809514 0.001050501
15.97145 950.19238 955.70704 877.995309 0.001052418
15.98025 952.10089 962.281708 878.180242 0.001050309
15.98905 953.5639 967.101947 878.364377 0.001048697
15.99785 957.71881 965.732794 878.547653 0.001044148
16.00665 957.41174 958.084466 878.730093 0.001044483
16.01546 954.72339 948.180202 878.911697 0.001047424
16.02426 948.76147 939.472004 879.092488 0.001054006
16.03306 943.61108 933.414096 879.272427 0.001059759
16.04186 938.47284 930.251178 879.451535 0.001065561
16.05066 935.67267 929.737165 879.629794 0.00106875
16.05947 933.28076 931.498514 879.807246 0.001071489
16.06827 934.60181 935.263995 879.983892 0.001069974
16.07707 939.38477 940.995209 880.159693 0.001064527
16.08588 946.20715 948.9841 880.334692 0.001056851
16.09468 956.159 959.975177 880.50885 0.001045851
16.10348 970.56683 975.373829 880.682149 0.001030326
16.11228 991.33167 997.61322 880.85469 0.001008744
16.12108 1019.2607 1030.50436 881.026396 0.000981103
16.12989 1061.6692 1079.522079 881.197306 0.000941913
16.13869 1121.4111 1151.376765 881.367385 0.000891734
16.14749 1217.1556 1252.208722 881.536672 0.000821588
16.15629 1355.1724 1383.73512 881.705131 0.000737913
16.16509 1550.4254 1539.029519 881.872745 0.000644984
16.17390 1728.5198 1700.76386 882.039611 0.00057853
16.18270 1840.1144 1832.511246 882.205654 0.000543444
16.19150 1815.6053 1875.125855 882.370915 0.000550781
16.20030 1693.7021 1796.884878 882.535357 0.000590423
16.20911 1532.4592 1640.188799 882.699019 0.000652546
16.21790 1402.8337 1471.310865 882.86183 0.000712843
16.22671 1299.6658 1328.474586 883.023884 0.000769429
16.23551 1228.0863 1222.778268 883.185165 0.000814275
16.24431 1170.7338 1150.688652 883.345636 0.000854165
16.25312 1126.7111 1102.379386 883.505338 0.000887539
16.26192 1088.2668 1067.533203 883.664236 0.000918892
16.27072 1056.1628 1038.615632 883.822367 0.000946824
16.27952 1026.3033 1012.562553 883.979662 0.000974371
16.28832 999.68878 989.841088 884.136213 0.001000311
16.29713 976.76355 971.336574 884.292004 0.001023789
16.30593 957.15472 957.086663 884.447001 0.001044763
16.31473 942.06384 946.594071 884.601242 0.001061499
16.32353 930.93616 939.224959 884.754694 0.001074188
16.33233 923.39746 934.442194 884.907359 0.001082957
16.34114 918.56628 931.938124 885.059274 0.001088653
16.34994 916.87958 931.682739 885.210423 0.001090656
16.35874 918.37604 933.857171 885.360827 0.001088879
16.36754 924.61896 938.677929 885.510453 0.001081527
16.37635 934.19037 946.109113 885.659338 0.001070446
16.38515 945.73328 955.343375 885.807449 0.001057381
16.39395 954.03986 964.066025 885.954789 0.001048174
16.40275 956.25452 968.506835 886.101395 0.001045747
16.41155 950.94788 965.986709 886.247252 0.001051582
16.42036 939.87158 957.367369 886.392377 0.001063975
16.42916 926.54919 945.883537 886.536742 0.001079274
16.43796 914.30524 934.611907 886.680381 0.001093727
16.44676 906.20844 925.203293 886.823231 0.001103499
16.45556 902.3465 918.059818 886.965393 0.001108222
16.46437 899.77173 912.963732 887.106803 0.001111393
16.47317 897.02838 909.459701 887.247481 0.001114792
16.48197 894.87598 907.0788 887.387445 0.001117473
16.49077 894.50476 905.443602 887.526665 0.001117937
16.49958 894.5437 904.292808 887.665176 0.001117888
16.50838 894.07147 903.463704 887.802917 0.001118479
16.51718 893.95917 902.858938 887.939986 0.001118619
16.52598 895.93597 902.415944 888.076321 0.001116151
16.53478 897.2041 902.084041 888.211942 0.001114574
16.54359 896.90216 901.818576 888.346867 0.001114949
16.55239 896.89148 901.59549 888.481066 0.001114962
16.56119 896.32843 901.421671 888.614544 0.001115662
16.56999 896.01831 901.310806 888.747332 0.001116049
16.57879 895.56073 901.272007 888.879434 0.001116619
16.58760 894.21021 901.308582 889.010823 0.001118305
16.59640 893.09009 901.421024 889.141516 0.001119708
16.60520 893.185 901.612625 889.27153 0.001119589
16.61400 893.31012 901.873881 889.400839 0.001119432
16.62280 894.09064 902.22428 889.529446 0.001118455
16.63161 894.95349 902.660014 889.657384 0.001117377
16.64041 895.8222 903.211979 889.784653 0.001116293
16.64921 895.64923 903.897825 889.911229 0.001116509
16.65801 896.14819 904.765802 890.03713 0.001115887
16.66681 897.30743 905.883924 890.162371 0.001114445
16.67562 898.51758 907.362395 890.2869 0.001112944
16.68442 899.59052 909.350568 890.410803 0.001111617
16.69322 902.01624 912.024754 890.534029 0.001108627
16.70202 905.07074 915.562336 890.656607 0.001104886
16.71082 908.1438 920.076504 890.778513 0.001101147
16.71963 910.30292 925.500985 890.899764 0.001098535
16.72843 913.17297 931.392025 891.020376 0.001095083
16.73723 916.94525 936.944817 891.140298 0.001090578
16.74603 920.50116 941.745543 891.259616 0.001086365
16.75483 925.13232 946.351267 891.378277 0.001080926
16.76364 931.0097 951.592632 891.496311 0.001074103
16.77244 939.11285 958.12284 891.613696 0.001064835
16.78124 948.75073 966.728402 891.730448 0.001054018
16.79004 962.0744 977.852124 891.846556 0.001039421
16.79885 977.58417 991.46855 891.962051 0.00102293
16.80765 997.09155 1008.475785 892.076936 0.001002917
16.81645 1017.7768 1031.158956 892.191187 0.000982534
16.82525 1042.9961 1060.837953 892.304834 0.000958776
16.83405 1073.8766 1094.848242 892.417854 0.000931206
16.84286 1113.4592 1124.478813 892.530264 0.000898102
16.85166 1171.1469 1137.505121 892.642055 0.000853864
16.86046 1229.6969 1129.296518 892.753255 0.000813209
16.86926 1267.1331 1107.046691 892.863867 0.000789183
16.87806 1263.269 1079.07862 892.973871 0.000791597
16.88687 1222.4321 1049.409623 893.083293 0.000818041
16.89567 1154.6222 1021.564707 893.192113 0.000866084
16.90447 1098.2599 999.352631 893.300323 0.000910531
16.91327 1058.3988 984.892184 893.407987 0.000944823
16.92207 1033.8085 978.510406 893.515059 0.000967297
16.93088 1019.2253 979.448441 893.621568 0.000981137
16.93968 1012.8166 986.106604 893.727493 0.000987346
16.94848 1011.8912 995.51063 893.832861 0.000988249
16.95728 1011.6815 1002.707498 893.937653 0.000988453
16.96608 1008.1654 1002.280074 894.04186 0.000991901
16.97489 1000.208 992.755507 894.145545 0.000999792
16.98369 987.0896 977.785711 894.248665 0.001013079
16.99249 972.36749 962.054405 894.351246 0.001028418
17.00129 958.72369 948.348966 894.45327 0.001043053
17.01010 946.73804 937.623221 894.554762 0.001056258
17.01890 936.65265 929.833188 894.655682 0.001067632
17.02770 929.28357 924.483896 894.75609 0.001076098
17.03650 923.93793 920.967374 894.855977 0.001082324
17.04530 919.46179 918.728104 894.955327 0.001087593
17.05411 916.1076 917.355201 895.054164 0.001091575
17.06291 913.52209 916.581078 895.152471 0.001094664
17.07171 911.94531 916.252605 895.250262 0.001096557
17.08051 911.8551 916.296278 895.34753 0.001096665
17.08931 911.74823 916.692724 895.444302 0.001096794
17.09812 912.58234 917.466599 895.540581 0.001095792
17.10692 912.98254 918.694526 895.63635 0.001095311
17.11572 914.73376 920.527291 895.731634 0.001093214
17.12452 917.02679 923.22944 895.826415 0.001090481
17.13333 921.10291 927.233769 895.920699 0.001085655
17.14213 924.7337 933.185146 896.014509 0.001081392
17.15093 930.55194 941.925802 896.107841 0.001074631
17.15973 937.88391 954.371781 896.200707 0.00106623
17.16853 949.32629 971.210311 896.293092 0.001053379
17.17734 962.26855 992.427652 896.385021 0.001039211
17.18614 982.60742 1016.753195 896.476476 0.0010177
17.19494 1001.891 1040.778938 896.567463 0.000998113
17.20374 1020.1129 1057.832864 896.658005 0.000980284
17.21254 1023.581 1060.212864 896.748098 0.000976962
17.22135 1014.7756 1046.567158 896.837755 0.00098544
17.23015 993.30121 1023.621898 896.92696 0.001006744
17.23895 976.01318 999.234214 897.015739 0.001024576
17.24775 958.03296 977.996217 897.104054 0.001043805
17.25656 947.1842 961.527191 897.191971 0.001055761
17.26536 938.43506 949.834716 897.279453 0.001065604
17.27416 933.49182 942.159951 897.366516 0.001071247
17.28296 930.37231 937.535032 897.453173 0.001074839
17.29177 928.38245 935.093196 897.53941 0.001077142
17.30057 927.68988 934.208265 897.62523 0.001077946
17.30937 927.93732 934.501088 897.710658 0.001077659
17.31817 928.92395 935.802089 897.795698 0.001076514
17.32697 930.9527 938.119141 897.880336 0.001074168
17.33578 934.79926 941.646964 897.964584 0.001069748
17.34458 940.21295 946.790436 898.048459 0.001063589
? 947.27582 0 0 0
? 958.08893 0 0 0
? 977.43665 0 0 0
? 1010.6781 0 0 0
? 1063.3495 0 0 0
? 1142.7096 0 0 0
? 1238.5212 0 0 0
? 1335.0902 0 0 0
? 1408.1249 0 0 0
? 1446.9727 0 0 0
? 1497.2284 0 0 0
? 1593.0216 0 0 0
? 1800.5396 0 0 0
? 2183.1116 0 0 0
? 2623.4434 0 0 0
? 2497.0654 0 0 0
? 1875.3788 0 0 0
? 1612.043 0 0 0
? 1433.5459 0 0 0
? 1300.1631 0 0 0
? 1226.5131 0 0 0
? 1187.009 0 0 0
? 1170.6261 0 0 0
? 1167.1389 0 0 0
? 1166.4268 0 0 0
? 1170.8198 0 0 0
? 1175.5405 0 0 0
? 1164.7117 0 0 0
? 1155.9497 0 0 0
? 1127.707 0 0 0
? 1079.0577 0 0 0
? 1032.8917 0 0 0
? 1005.3322 0 0 0
? 987.50024 0 0 0
? 978.52783 0 0 0
? 978.29041 0 0 0
? 983.23596 0 0 0
? 994.34985 0 0 0
? 1008.6378 0 0 0
? 1022.7202 0 0 0
? 1032.1517 0 0 0
? 1033.7416 0 0 0
? 1027.6827 0 0 0
? 1015.6374 0 0 0
? 1000.8397 0 0 0
? 985.29059 0 0 0
? 970.87836 0 0 0
? 958.85962 0 0 0
? 949.45721 0 0 0
? 942.05078 0 0 0
17.79349 936.36603 936.299062 901.92725 0.001067958
17.80229 932.73535 932.057597 901.997744 0.001072115
17.81109 930.0929 929.275479 902.068113 0.001075161
17.81989 927.93127 927.438016 902.138354 0.001077666
17.82869 926.4046 926.167353 902.208488 0.001079442
17.83750 925.29846 925.217463 902.27852 0.001080732
17.84630 925.22461 924.522603 902.348439 0.001080819
17.85510 925.26208 924.185392 902.418267 0.001080775
17.86390 925.46356 924.377625 902.487992 0.00108054
17.87270 926.18384 925.275481 902.557619 0.001079699
17.88151 927.45709 927.034134 902.62717 0.001078217
17.89031 929.13861 929.747793 902.696642 0.001076266
17.89911 931.09564 933.386158 902.766048 0.001074004
17.90791 933.09924 937.723224 902.835376 0.001071697
17.91672 936.43048 942.237074 902.904648 0.001067885
17.92552 940.19305 945.87883 902.973853 0.001063611
17.93432 943.14594 947.199492 903.042996 0.001060281
17.94312 943.4986 945.442952 903.112098 0.001059885
17.95192 942.06354 941.427322 903.181156 0.0010615
17.96073 939.53467 936.692055 903.250183 0.001064357
17.96953 937.04016 932.371732 903.319168 0.00106719
17.97833 934.47375 929.000425 903.388132 0.001070121
17.98713 932.58087 926.75762 903.457049 0.001072293
17.99593 931.17499 925.654377 903.525971 0.001073912
18.00474 929.50616 925.644789 903.59487 0.00107584
18.01354 928.52936 926.674115 903.663761 0.001076972
18.02234 930.3847 928.683556 903.732656 0.001074824
18.03114 933.65204 931.574954 903.801544 0.001071063
18.03995 937.13367 935.120825 903.870446 0.001067084
18.04875 939.39764 938.81001 903.939335 0.001064512
18.05755 941.10516 941.744415 904.008263 0.001062581
18.06635 940.57996 942.98483 904.077205 0.001063174
18.07515 939.33124 942.424705 904.146172 0.001064587
18.08396 938.35205 940.983761 904.215177 0.001065698
18.09276 938.34229 939.793083 904.28421 0.001065709
18.10156 939.5542 939.724158 904.353275 0.001064335
18.11036 942.93152 941.288447 904.422393 0.001060522
18.11916 949.15497 944.83271 904.491568 0.001053569
18.12797 958.22345 950.548017 904.560791 0.001043598
18.13677 972.37097 958.400042 904.630073 0.001028414
18.14557 990.92682 967.994547 904.699426 0.001009156
18.15437 1013.9824 978.358126 904.768841 0.00098621
18.16317 1030.3383 987.729341 904.838321 0.000970555
18.17198 1037.9347 993.871497 904.907888 0.000963452
18.18078 1029.6379 995.830029 904.977545 0.000971215
18.18958 1018.4221 995.445407 905.047282 0.000981911
18.19838 1007.7072 996.131551 905.117111 0.000992352
18.20719 1005.2356 1000.943926 905.187045 0.000994792
18.21599 1012.9165 1012.058597 905.257056 0.000987248
18.22479 1034.8405 1030.89549 905.327197 0.000966332
18.23359 1074.0535 1058.003792 905.397441 0.000931052
18.24239 1123.3718 1092.519521 905.467799 0.000890177
18.25120 1165.6483 1130.979752 905.538285 0.000857892
18.26000 1186.7126 1166.68163 905.608886 0.000842664
18.26880 1186.3271 1192.711864 905.679624 0.000842938
18.27760 1182.8362 1207.397614 905.750469 0.000845426
18.28640 1181.6273 1213.195122 905.821476 0.000846291
18.29521 1174.3593 1209.535478 905.892616 0.000851528
18.30401 1161.2173 1192.073758 905.963902 0.000861165
18.31281 1140.4907 1160.412082 906.035345 0.000876816
18.32161 1107.8202 1121.564013 906.106934 0.000902674
18.33041 1078.764 1084.109572 906.178674 0.000926987
18.33922 1054.2648 1053.409215 906.250583 0.000948528
18.34802 1034.4514 1031.737583 906.322667 0.000966696
18.35682 1022.291 1019.790004 906.394913 0.000978195
18.36562 1019.1868 1017.661189 906.467334 0.000981174
18.37443 1022.9993 1025.225539 906.539941 0.000977518
18.38323 1034.9497 1042.111714 906.612723 0.000966231
18.39203 1054.9341 1067.35235 906.685683 0.000947927
18.40083 1083.6532 1098.545396 906.758841 0.000922804
18.40963 1114.0789 1130.446162 906.832201 0.000897602
18.41844 1132.3059 1154.024109 906.905751 0.000883154
18.42724 1131.5602 1159.713519 906.979503 0.000883736
18.43604 1116.4861 1144.768235 907.053468 0.000895667
18.44484 1093.1505 1115.223985 907.127617 0.000914787
18.45364 1066.6356 1079.889209 907.202004 0.000937527
18.46245 1039.7783 1045.600066 907.276599 0.000961743
18.47125 1015.1921 1016.020937 907.351422 0.000985035
18.48005 995.41345 992.331628 907.42646 0.001004608
18.48885 980.82666 974.283518 907.501724 0.001019548
18.49766 969.758 961.012629 907.577227 0.001031185
18.50646 961.48718 951.485425 907.652938 0.001040055
18.51526 954.42767 944.692816 907.728911 0.001047748
18.52406 949.72632 939.814524 907.805115 0.001052935
18.53286 946.27136 936.241312 907.881571 0.001056779
18.54167 943.15332 933.561358 907.958265 0.001060273
18.55047 940.41687 931.508277 908.035208 0.001063358
18.55927 938.77905 929.911884 908.112395 0.001065213
18.56807 938.40778 928.665915 908.189845 0.001065635
18.57687 937.15503 927.699509 908.267563 0.001067059
18.58568 935.66144 926.966651 908.345533 0.001068763
18.59448 935.06775 926.437199 908.423776 0.001069441
18.60328 934.73206 926.092868 908.502277 0.001069825
18.61208 934.63818 925.925131 908.581047 0.001069933
18.62088 934.39813 925.934844 908.660081 0.001070208
18.62969 935.12372 926.135044 908.739397 0.001069377
18.63849 936.19293 926.555273 908.819 0.001068156
18.64729 936.91205 927.251323 908.898874 0.001067336
18.65609 937.51996 928.318897 908.979038 0.001066644
18.66490 938.85443 929.91047 909.059478 0.001065128
18.67370 941.30536 932.250621 909.140195 0.001062355
18.68250 944.03046 935.640633 909.22121 0.001059288
18.69130 947.87177 940.441412 909.302516 0.001054995
18.70010 953.87927 947.02244 909.384124 0.001048351
18.70891 960.95856 955.671814 909.466018 0.001040628
18.71771 968.86816 966.440868 909.548219 0.001032132
18.72651 977.76941 978.858307 909.630708 0.001022736
18.73531 984.36224 991.53149 909.713489 0.001015886
18.74411 989.54236 1002.099214 909.796582 0.001010568
18.75292 994.58759 1008.426939 909.879978 0.001005442
18.76172 998.47449 1010.242539 909.96369 0.001001528
18.77052 1000.864 1008.541226 910.047699 0.000999137
18.77932 1001.4709 1003.710056 910.132026 0.000998531
18.78812 997.2981 995.539714 910.216635 0.001002709
18.79693 988.12738 984.755855 910.301574 0.001012015
18.80573 978.62823 973.242392 910.386835 0.001021838
18.81453 969.83868 962.746741 910.4724 0.001031099
18.82333 962.33643 954.177365 910.558289 0.001039138
18.83214 955.81976 947.780117 910.644484 0.001046222
18.84094 952.0296 943.458458 910.731006 0.001050388
18.84974 949.12219 940.995327 910.817816 0.001053605
18.85854 947.52686 940.148129 910.904963 0.001055379
18.86734 946.52454 940.696099 910.992439 0.001056497
18.87615 945.76508 942.436742 911.080225 0.001057345
18.88495 945.41943 945.141101 911.168341 0.001057732
18.89375 945.78302 948.4617 911.256768 0.001057325
18.90255 948.09595 951.820764 911.345505 0.001054746
18.91135 950.57697 954.490075 911.434573 0.001051993
18.92016 952.80383 956.090265 911.523963 0.001049534
18.92896 956.66425 957.049771 911.613684 0.001045299
18.93776 963.82922 958.266962 911.703717 0.001037528
18.94656 974.00061 960.447812 911.794081 0.001026693
18.95537 988.07727 963.786322 911.884756 0.001012067
18.96417 999.64606 967.894382 911.975742 0.001000354
18.97297 1004.3639 971.801479 912.067059 0.000995655
18.98177 1001.4703 974.356552 912.158696 0.000998532
18.99057 991.42438 975.152558 912.250664 0.00100865
18.99938 981.21179 974.978342 912.34294 0.001019148
19.00818 973.76196 975.235754 912.435545 0.001026945
19.01698 970.40967 977.240777 912.528437 0.001030493
19.02578 971.21729 981.963294 912.621677 0.001029636
19.03458 976.1532 990.021516 912.715223 0.001024429
19.04339 984.60272 1001.69872 912.809083 0.001015638
19.05219 996.38043 1016.909325 912.903268 0.001003633
19.06099 1012.0508 1035.335944 912.997756 0.000988093
19.06979 1032.6951 1056.673836 913.092565 0.00096834
19.07859 1053.7289 1080.451227 913.187652 0.000949011
19.08740 1076.1758 1105.83835 913.283079 0.000929216
19.09620 1104.8993 1132.290872 913.378803 0.00090506
19.10500 1142.0193 1159.485278 913.474832 0.000875642
19.11380 1178.7489 1184.905519 913.571175 0.000848357
19.12261 1201.8663 1201.819004 913.667808 0.000832039
19.13141 1203.5989 1202.061096 913.764731 0.000830842
19.14021 1189.9929 1183.48681 913.861961 0.000840341
19.14901 1165.4714 1152.824443 913.959498 0.000858022
19.15781 1136.943 1119.797009 914.057317 0.000879552
19.16662 1109.2694 1091.462534 914.155427 0.000901494
19.17542 1086.8071 1071.379907 914.253836 0.000920126
19.18422 1070.6563 1060.661164 914.352519 0.000934007
19.19302 1061.8704 1058.809175 914.451474 0.000941735
19.20182 1059.323 1064.01986 914.550721 0.000943999
19.21063 1064.621 1073.185479 914.650256 0.000939301
19.21943 1071.2476 1081.694593 914.750055 0.000933491
19.22823 1075.6053 1084.199272 914.850125 0.000929709
19.23703 1072.7806 1077.635996 914.950474 0.000932157
19.24583 1064.3101 1063.67519 915.051054 0.000939576
19.25464 1052.038 1046.881958 915.15193 0.000950536
19.26344 1041.6893 1031.462979 915.253052 0.000959979
19.27224 1032.2351 1020.126045 915.354441 0.000968772
19.28104 1026.4006 1014.48785 915.456069 0.000974278
19.28985 1025.2841 1015.612662 915.557944 0.000975339
19.29865 1031.0404 1024.289379 915.660074 0.000969894
19.30745 1047.7908 1041.032007 915.762409 0.000954389
19.31625 1080.8523 1065.913774 915.865013 0.000925196
19.32505 1130.3256 1098.101402 915.967837 0.000884701
19.33386 1186.9382 1135.058341 916.070899 0.000842504
19.34266 1226.3228 1171.276151 916.174172 0.000815446
19.35146 1234.641 1197.580827 916.277663 0.000809952
19.36026 1205.5117 1204.139924 916.381356 0.000829523
19.36906 1159.9852 1187.639123 916.485269 0.00086208
19.37787 1111.0566 1154.414503 916.589397 0.000900044
19.38667 1071.4952 1114.652343 916.693713 0.000933275
19.39547 1040.4337 1076.103218 916.798234 0.000961138
19.40427 1018.536 1042.768378 916.902933 0.000981801
19.41307 1002.3667 1016.047531 917.007791 0.000997639
19.42188 989.79199 995.845645 917.112863 0.001010313
19.43068 980.07837 981.311468 917.218096 0.001020327
19.43948 973.19269 971.23194 917.323509 0.001027546
19.44828 967.84064 964.314208 917.429071 0.001033228
19.45709 963.29962 959.387696 917.534802 0.001038099
19.46589 959.45276 955.582316 917.640671 0.001042261
19.47469 955.76404 952.391316 917.74666 0.001046283
19.48349 952.71301 949.517944 917.852823 0.001049634
19.49229 951.52173 946.713968 917.959107 0.001050948
19.50110 950.86206 943.793817 918.065528 0.001051677
19.50990 950.05847 940.748615 918.172058 0.001052567
19.51870 949.38263 937.730333 918.278712 0.001053316
19.52750 949.20044 934.95493 918.385437 0.001053518
19.53630 949.30103 932.666287 918.492286 0.001053407
19.54511 949.2049 931.124214 918.599241 0.001053513
19.55391 949.51166 930.470552 918.70627 0.001053173
19.56271 949.60907 930.582068 918.813391 0.001053065
19.57151 949.91522 931.14432 918.920572 0.001052726
19.58032 950.1969 931.869981 919.027831 0.001052413
19.58912 950.50922 932.61537 919.135111 0.001052068
19.59792 950.92957 933.359337 919.242467 0.001051603
19.60672 950.91284 934.177951 919.349878 0.001051621
19.61552 950.50494 935.148737 919.457313 0.001052072
19.62433 950.63861 936.344703 919.564789 0.001051924
19.63313 951.15314 937.826455 919.672273 0.001051355
19.64193 951.79102 939.677705 919.779758 0.001050651
19.65073 953.05243 942.031333 919.88726 0.00104926
19.65953 954.68951 945.073184 919.994759 0.001047461
19.66834 956.55194 949.032663 920.102259 0.001045422
19.67714 958.90997 954.162671 920.209728 0.001042851
19.68594 962.84814 960.714441 920.317181 0.001038585
19.69474 967.97552 968.884658 920.424586 0.001033084
19.70354 973.83887 978.73826 920.531935 0.001026864
19.71235 980.59491 990.028736 920.639243 0.001019789
19.72115 989.26306 1002.125959 920.74649 0.001010853
19.72995 998.66498 1014.161747 920.853679 0.001001337
19.73875 1009.1307 1025.921814 920.960777 0.000990952
19.74756 1019.4669 1038.306904 921.067799 0.000980905
19.75636 1031.6653 1052.419865 921.174688 0.000969307
19.76516 1045.8304 1068.25711 921.281507 0.000956178
19.77396 1063.1857 1083.94994 921.3882 0.000940569
19.78276 1075.3802 1095.745629 921.494768 0.000929904
19.79157 1076.4509 1099.227299 921.601215 0.000928979
19.80037 1067.4614 1092.304146 921.707507 0.000936802
19.80917 1049.3218 1077.359037 921.813659 0.000952996
19.81797 1029.688 1059.379501 921.919613 0.000971168
19.82678 1012.9291 1042.66569 922.025432 0.000987236
19.83558 1001.8387 1029.651368 922.131058 0.000998165
19.84438 995.9115 1021.20902 922.236493 0.001004105
19.85318 993.70789 1017.151924 922.34174 0.001006332
19.86198 995.13556 1016.485377 922.446764 0.001004888
19.87079 996.84564 1017.496222 922.551556 0.001003164
19.87959 997.62396 1018.070029 922.656129 0.001002382
19.88839 997.07404 1016.671278 922.760474 0.001002935
19.89719 994.69604 1013.448972 922.864556 0.001005332
19.90599 992.22662 1009.989318 922.968377 0.001007834
19.91480 992.32495 1007.992866 923.071939 0.001007734
19.92360 995.90411 1008.44817 923.175207 0.001004113
19.93240 1003.4767 1011.450992 923.278172 0.000996535
19.94120 1011.4823 1016.204764 923.380847 0.000988648
19.95001 1015.0854 1021.131749 923.48322 0.000985139
19.95881 1014.2904 1024.561401 923.585257 0.000985911
19.96761 1013.2266 1025.795198 923.686961 0.000986946
19.97641 1016.3403 1025.203213 923.788331 0.000983922
19.98521 1019.9329 1023.263094 923.889312 0.000980457
19.99402 1021.6592 1019.812334 923.98996 0.0009788
20.00282 1020.1179 1014.299902 924.09022 0.000980279
20.01162 1014.7076 1006.769973 924.190104 0.000985506
20.02042 1005.8657 998.29672 924.289577 0.000994169
20.02922 995.09131 990.215904 924.38864 0.001004933
20.03803 986.07239 983.293523 924.487293 0.001014124
20.04683 979.10474 977.548395 924.585481 0.001021341
20.05563 972.36798 972.521092 924.68326 0.001028417
20.06443 966.1698 967.781346 924.780573 0.001035015
20.07324 962.45056 963.302036 924.877432 0.001039014
20.08204 959.34698 959.392526 924.973804 0.001042376
20.09084 957.2229 956.382518 925.069688 0.001044689
20.09964 955.02789 954.477099 925.165062 0.00104709
20.10844 953.79254 953.770314 925.259938 0.001048446
20.11725 953.6778 954.278784 925.354303 0.001048572
20.12605 954.67688 955.937371 925.448124 0.001047475
20.13485 954.89008 958.583651 925.541412 0.001047241
20.14365 955.96387 961.924068 925.634135 0.001046065
20.15245 957.79767 965.480503 925.726291 0.001044062
20.16126 959.48285 968.472675 925.817859 0.001042228
20.17006 961.0119 969.8939 925.908848 0.00104057
20.17886 961.18927 969.026488 925.999246 0.001040378
20.18766 959.45508 966.043527 926.089023 0.001042258
20.19646 957.00458 961.859143 926.178187 0.001044927
20.20527 954.26166 957.457628 926.266705 0.001047931
20.21407 951.62946 953.494144 926.354558 0.001050829
20.22287 949.26727 950.299814 926.441784 0.001053444
20.23167 948.5719 948.00559 926.528331 0.001054216
20.24047 948.64716 946.623772 926.614208 0.001054133
20.24928 949.08197 946.105528 926.699384 0.00105365
20.25808 950.42297 946.364969 926.783867 0.001052163
20.26688 952.29059 947.294334 926.867626 0.0010501
20.27568 954.67859 948.767233 926.950642 0.001047473
20.28449 958.4353 950.636877 927.03295 0.001043367
20.29329 962.12299 952.708424 927.114501 0.001039368
20.30209 965.46777 954.731631 927.195303 0.001035767
20.31089 968.7085 956.486747 927.275326 0.001032302
20.31969 970.88208 958.029307 927.354576 0.001029991
20.32850 971.97919 959.805503 927.433009 0.001028829
20.33730 972.77643 962.468183 927.510656 0.001027985
20.34610 973.2981 966.615556 927.587498 0.001027434
20.35490 977.42706 972.662528 927.663507 0.001023094
20.36370 984.70673 980.773762 927.738689 0.001015531
20.37251 992.98566 990.759975 927.813015 0.001007064
20.38131 1000.1768 1001.884459 927.886493 0.000999823
20.39011 1006.3419 1012.649322 927.959078 0.000993698
20.39891 1006.0342 1020.920043 928.030801 0.000994002
20.40771 1002.78 1024.727057 928.101643 0.000997228
20.41652 997.935 1023.312711 928.171578 0.001002069
20.42532 991.9425 1017.226447 928.24061 0.001008123
20.43412 983.86517 1007.747475 928.308714 0.001016399
20.44292 974.99188 996.522952 928.37588 0.00102565
20.45172 967.42859 985.184008 928.442113 0.001033668
20.46053 961.73676 974.905317 928.507395 0.001039786
20.46933 956.01001 966.271774 928.571723 0.001046014
20.47813 951.33575 959.424849 928.635073 0.001051154
20.48693 948.51068 954.252795 928.697449 0.001054284
20.49574 945.6004 950.53295 928.758828 0.001057529
20.50454 942.85382 948.017735 928.819199 0.00106061
20.51334 941.43079 946.492255 928.878569 0.001062213
20.52214 940.79132 945.801697 928.936919 0.001062935
20.53094 941.02014 945.855277 928.994247 0.001062677
20.53975 940.84619 946.61418 929.050532 0.001062873
20.54855 942.38672 948.065796 929.105776 0.001061135
20.55735 944.1781 950.184853 929.159946 0.001059122
20.56615 947.3114 952.895671 929.21307 0.001055619
20.57495 953.185 955.999578 929.265115 0.001049114
20.58376 960.18298 959.091835 929.316078 0.001041468
20.59256 963.81635 961.533053 929.365957 0.001037542
20.60136 963.77466 962.589259 929.414732 0.001037587
20.61016 959.82343 961.862738 929.462406 0.001041858
20.61896 954.41113 959.586533 929.508949 0.001047766
20.62777 948.73895 956.42019 929.554386 0.001054031
20.63657 945.39001 953.03451 929.598688 0.001057765
20.64537 942.78607 949.884349 929.641852 0.001060686
20.65417 941.17987 947.213787 929.683877 0.001062496
20.66298 939.40533 945.124835 929.724744 0.001064503
20.67178 938.49432 943.631656 929.764448 0.001065537
20.68058 937.92657 942.7065 929.80299 0.001066182
20.68938 937.91425 942.310473 929.840364 0.001066196
20.69818 938.50012 942.410276 929.876554 0.00106553
20.70699 939.3667 942.987545 929.911559 0.001064547
20.71579 940.91736 944.036253 929.945376 0.001062793
20.72459 942.22095 945.550263 929.977991 0.001061322
20.73339 943.63379 947.501974 930.0094 0.001059733
20.74219 944.6275 949.80644 930.039603 0.001058618
20.75100 945.63153 952.286414 930.068596 0.001057494
20.75980 947.198 954.690883 930.096365 0.001055745
20.76860 948.06714 956.799043 930.12291 0.001054778
20.77741 948.94281 958.513157 930.148229 0.001053804
20.78620 950.01703 959.789012 930.172307 0.001052613
20.79501 951.3631 960.556352 930.195154 0.001051123
20.80381 951.77002 960.799546 930.216757 0.001050674
20.81261 951.0813 960.668781 930.237117 0.001051435
20.82141 950.58118 960.36362 930.256224 0.001051988
20.83022 951.06384 959.94434 930.274079 0.001051454
20.83902 950.29779 959.309532 930.29068 0.001052302
20.84782 948.90417 958.361367 930.306017 0.001053847
20.85662 948.0611 957.114363 930.320098 0.001054784
20.86542 947.13715 955.626387 930.332914 0.001055813
20.87423 946.06213 953.940984 930.344464 0.001057013
20.88303 945.18646 952.139316 930.354746 0.001057992
20.89183 944.37207 950.383974 930.363758 0.001058905
20.90063 942.85883 948.854998 930.371499 0.001060604
20.90943 942.44537 947.688245 930.377969 0.001061069
20.91824 942.27747 946.939721 930.383167 0.001061259
20.92704 941.52344 946.58231 930.387091 0.001062108
20.93584 941.4397 946.516122 930.389742 0.001062203
20.94465 942.08655 946.572625 930.391119 0.001061474
20.95345 942.43597 946.56385 930.391224 0.00106108
20.96225 942.13452 946.370497 930.390056 0.00106142
20.97105 941.96851 946.017598 930.387616 0.001061607
20.97985 943.83337 945.628946 930.383906 0.001059509
20.98866 945.80157 945.34486 930.378927 0.001057304
20.99746 948.0119 945.267364 930.37268 0.001054839
21.00626 950.53339 945.458808 930.365169 0.001052041
21.01506 953.11517 945.95542 930.356397 0.001049191
21.02386 954.31769 946.783892 930.346363 0.001047869
21.03267 954.50342 947.975952 930.335073 0.001047665
21.04147 955.99854 949.592661 930.322528 0.001046027
21.05027 958.26843 951.750324 930.308735 0.001043549
21.05907 960.5426 954.627894 930.293696 0.001041078
21.06788 963.88586 958.438035 930.277413 0.001037467
21.07668 968.51599 963.380582 930.2599 0.001032507
21.08548 975.23792 969.600027 930.241149 0.001025391
21.09428 982.68201 977.118158 930.221174 0.001017623
21.10308 991.76642 985.783299 930.199976 0.001008302
21.11189 1000.2545 995.239703 930.177565 0.000999746
21.12069 1010.9683 1004.933508 930.153946 0.000989151
21.12949 1022.7136 1014.228707 930.129129 0.000977791
21.13829 1033.4264 1022.493443 930.103114 0.000967655
21.14709 1043.3695 1028.899861 930.075908 0.000958433
21.15590 1050.5736 1032.131735 930.047527 0.000951861
21.16470 1051.3729 1030.842757 930.017971 0.000951137
21.17350 1045.6337 1024.809757 929.987255 0.000956358
21.18230 1034.5212 1015.390956 929.955386 0.000966631
21.19110 1021.7521 1004.65937 929.922376 0.000978711
21.19991 1007.7675 994.320788 929.888227 0.000992292
21.20871 996.07831 985.415257 929.852949 0.001003937
21.21751 986.57324 978.443442 929.816561 0.001013609
21.22631 980.36707 973.613876 929.779064 0.001020026
21.23512 976.15656 971.000612 929.740478 0.001024426
21.24392 974.4375 970.662072 929.700815 0.001026233
21.25272 975.80853 972.713962 929.660078 0.001024791
21.26152 981.99963 977.3544 929.618284 0.00101833
21.27032 993.36084 984.862731 929.57544 0.001006684
21.27913 1013.4271 995.518146 929.531569 0.000986751
21.28793 1042.7585 1009.501394 929.486675 0.000958995
21.29673 1085.0013 1026.711535 929.44078 0.000921658
21.30553 1136.3661 1046.562734 929.3939 0.000879998
21.31433 1194.0013 1067.647806 929.346039 0.00083752
21.32314 1241.3086 1087.374163 929.297217 0.000805601
21.33194 1256.86 1101.968646 929.247443 0.000795634
21.34074 1230.3647 1107.746282 929.196745 0.000812767
21.34954 1180.2677 1103.232258 929.145126 0.000847265
21.35834 1123.5026 1090.05124 929.092628 0.000890074
21.36715 1074.6501 1071.577045 929.03923 0.000930535
21.37595 1037.4694 1051.219409 928.984975 0.000963884
21.38475 1010.3694 1031.603658 928.929874 0.000989737
21.39355 990.58655 1014.333413 928.873939 0.001009503
21.40236 977.18225 1000.152617 928.817201 0.001023351
21.41116 967.68939 989.136291 928.759665 0.001033389
21.41996 961.26068 980.943945 928.701377 0.001040301
21.42876 957.17114 974.934693 928.642317 0.001044745
21.43756 954.00189 970.357776 928.582532 0.001048216
21.44637 951.77289 966.539235 928.522035 0.001050671
21.45517 950.41998 963.107994 928.46084 0.001052166
21.46397 950.03088 960.014189 928.398983 0.001052597
21.47277 949.29028 957.374032 928.336483 0.001053419
21.48157 948.76154 955.306967 928.273351 0.001054006
21.49038 948.72491 953.886591 928.209606 0.001054046
21.49918 948.95667 953.138514 928.145287 0.001053789
21.50798 949.66132 953.044993 928.08041 0.001053007
21.51678 951.22528 953.537655 928.014989 0.001051276
21.52558 952.53467 954.484521 927.94908 0.001049831
21.53439 954.96606 955.703378 927.88266 0.001047158
21.54319 959.59546 957.022922 927.815785 0.001042106
21.55199 963.89166 958.357903 927.748464 0.001037461
21.56079 965.99219 959.67968 927.680737 0.001035205
21.56959 966.95959 960.905851 927.612622 0.001034169
21.57840 966.17944 961.859749 927.544139 0.001035004
21.58720 965.03638 962.387448 927.475343 0.00103623
21.59600 964.38593 962.47472 927.406214 0.001036929
21.60480 965.14423 962.172973 927.336811 0.001036115
21.61360 965.22675 961.45386 927.267153 0.001036026
21.62241 965.18567 960.217076 927.19726 0.00103607
21.63121 964.41187 958.486641 927.127176 0.001036901
21.64001 963.63092 956.52659 927.056928 0.001037742
21.64881 963.50623 954.73203 926.986529 0.001037876
21.65762 963.73419 953.462044 926.916007 0.001037631
21.66642 964.30548 952.981774 926.845409 0.001037016
21.67522 965.97998 953.474496 926.774755 0.001035218
21.68402 968.37555 955.074517 926.704067 0.001032657
21.69282 971.25189 957.855949 926.633391 0.001029599
21.70163 974.14581 961.82362 926.562756 0.00102654
21.71043 977.63812 966.870629 926.492179 0.001022873
21.71923 981.34668 972.711831 926.421688 0.001019008
21.72803 984.72906 978.787842 926.351331 0.001015508
21.73683 988.24512 984.181605 926.281132 0.001011895
21.74564 990.45789 987.723477 926.211113 0.001009634
21.75444 991.15222 988.452545 926.141338 0.001008927
21.76324 989.64197 986.226846 926.071792 0.001010466
21.77204 986.94427 981.835927 926.002537 0.001013228
21.78085 982.85455 976.480482 925.933591 0.001017445
21.78965 977.49878 971.206295 925.865002 0.001023019
21.79845 971.65118 966.68715 925.796794 0.001029176
21.80725 966.52582 963.274143 925.728992 0.001034634
21.81605 961.32959 961.093502 925.661659 0.001040226
21.82486 958.01654 960.11524 925.594784 0.001043823
21.83366 956.80823 960.1877 925.528429 0.001045142
21.84246 957.065 961.053849 925.462612 0.001044861
21.85126 955.9306 962.360261 925.397382 0.001046101
21.86006 954.84045 963.739668 925.332765 0.001047295
21.86887 953.26593 964.97971 925.268802 0.001049025
21.87767 951.50739 966.188321 925.205511 0.001050964
21.88647 950.57043 967.750217 925.142926 0.001052
21.89527 951.73682 970.142095 925.081095 0.001050711
21.90408 954.62396 973.772887 925.020037 0.001047533
21.91288 959.77893 978.944239 924.9598 0.001041907
21.92168 968.18268 985.84072 924.900411 0.001032863
21.93048 981.05212 994.502671 924.841909 0.001019314
21.93928 997.25665 1004.76235 924.784315 0.001002751
21.94809 1014.0439 1016.19108 924.727663 0.000986151
21.95689 1025.8411 1028.185231 924.671997 0.00097481
21.96569 1034.5464 1040.477591 924.61734 0.000966607
21.97449 1034.2188 1053.431785 924.563737 0.000966913
21.98329 1031.0236 1068.005816 924.511219 0.00096991
21.99210 1036.8264 1085.007939 924.459809 0.000964482
22.00090 1049.724 1104.350344 924.409543 0.000952631
22.00970 1077.0625 1124.500575 924.36045 0.000928451
22.01850 1104.6836 1142.291161 924.312573 0.000905237
22.02731 1125.7009 1153.422625 924.265931 0.000888335
22.03611 1132.3405 1154.294128 924.220569 0.000883127
22.04491 1129.4612 1144.084518 924.176516 0.000885378
22.05371 1115.9846 1125.097425 924.133793 0.00089607
22.06251 1100.8501 1101.203176 924.092436 0.000908389
22.07132 1078.4186 1076.11609 924.05247 0.000927284
22.08012 1055.1169 1052.555438 924.013936 0.000947762
22.08892 1033.8339 1032.089808 923.976853 0.000967273
22.09772 1017.9979 1015.422127 923.941266 0.00098232
22.10652 1005.6889 1002.591368 923.90718 0.000994343
22.11533 999.11383 993.255842 923.874639 0.001000887
22.12413 995.03174 986.836757 923.843666 0.001004993
22.13293 994.72681 982.719951 923.814286 0.001005301
22.14173 994.46582 980.339276 923.78653 0.001005565
22.15054 994.92389 979.15213 923.760419 0.001005102
22.15934 994.52252 978.572927 923.735988 0.001005508
22.16814 992.47314 977.988197 923.713246 0.001007584
22.17694 988.43585 976.852233 923.692226 0.001011699
22.18574 982.9679 974.787085 923.67295 0.001017327
22.19455 975.61774 971.687975 923.655437 0.001024992
22.20335 968.96552 967.794484 923.639713 0.001032028
22.21215 962.58105 963.57522 923.625798 0.001038874
22.22095 957.27972 959.502354 923.613708 0.001044627
22.22975 953.70654 955.908664 923.603463 0.001048541
22.23856 950.18762 952.98114 923.59508 0.001052424
22.24736 947.43469 950.799945 923.588578 0.001055482
22.25616 945.88623 949.389807 923.583972 0.00105721
22.26496 944.89709 948.748187 923.581276 0.001058316
22.27376 944.84863 948.863072 923.580504 0.001058371
22.28257 944.72784 949.727656 923.581669 0.001058506
22.29137 944.70294 951.353121 923.58478 0.001058534
22.30017 945.14429 953.786402 923.589849 0.00105804
22.30897 946.0517 957.105844 923.596885 0.001057025
22.31778 947.29572 961.389748 923.605894 0.001055637
22.32658 949.55865 966.642127 923.61688 0.001053121
22.33538 953.71307 972.73101 923.629853 0.001048533
22.34418 958.51575 979.283261 923.644812 0.00104328
22.35298 963.13788 985.652842 923.66176 0.001038273
22.36179 965.82684 991.011959 923.680699 0.001035382
22.37059 966.43414 994.668499 923.701624 0.001034732
22.37939 966.73962 996.358762 923.724536 0.001034405
22.38819 967.42987 996.175461 923.749419 0.001033667
22.39699 967.6123 994.330374 923.776283 0.001033472
22.40580 968.03522 991.139579 923.805109 0.00103302
22.41460 969.52515 987.129948 923.835889 0.001031433
22.42340 971.1037 982.932642 923.868616 0.001029756
22.43220 970.25098 979.023726 923.903266 0.001030661
22.44100 967.01453 975.590537 923.939825 0.001034111
22.44981 963.72803 972.632607 923.978281 0.001037637
22.45861 960.90155 970.133513 924.018615 0.001040689
22.46741 958.80725 968.159023 924.060795 0.001042962
22.47621 957.5 966.803103 924.104802 0.001044386
22.48502 957.04834 966.086789 924.150612 0.001044879
22.49382 957.92188 965.88743 924.198187 0.001043926
22.50262 958.76068 965.95506 924.247494 0.001043013
22.51142 957.65778 966.018684 924.298509 0.001044214
22.52022 956.8988 965.929323 924.351195 0.001045043
22.52903 956.55298 965.753701 924.405503 0.00104542
22.53783 956.2525 965.774094 924.461393 0.001045749
22.54663 956.95819 966.397253 924.51883 0.001044978
22.55543 959.33118 968.031123 924.577737 0.001042393
22.56423 963.61304 970.996389 924.638103 0.001037761
22.57304 971.27747 975.480875 924.699849 0.001029572
22.58184 984.13733 981.521534 924.76293 0.001016118
22.59064 1004.4808 988.956397 924.827274 0.000995539
22.59944 1032.6035 997.404854 924.892822 0.000968426
22.60825 1066.5311 1006.252363 924.959516 0.000937619
22.61705 1092.1073 1014.66184 925.027256 0.000915661
22.62585 1100.2904 1021.652511 925.096014 0.000908851
22.63465 1090.4474 1026.271908 925.165682 0.000917055
22.64345 1069.8718 1028.064067 925.236196 0.000934691
22.65226 1045.2299 1027.457655 925.307454 0.000956727
22.66106 1025.212 1025.634949 925.379378 0.000975408
22.66986 1013.8487 1023.891265 925.451865 0.00098634
22.67866 1011.8575 1023.065722 925.524838 0.000988281
22.68746 1018.0829 1023.331498 925.598195 0.000982238
22.69627 1031.1963 1024.260746 925.671817 0.000969747
22.70507 1048.5386 1025.057348 925.745611 0.000953708
22.71387 1062.1317 1024.83164 925.819448 0.000941503
22.72267 1067.4525 1022.788603 925.893218 0.00093681
22.73147 1064.3962 1018.404942 925.966793 0.0009395
22.74028 1054.6771 1011.716356 926.040062 0.000948157
22.74908 1039.7078 1003.439937 926.112894 0.000961809
22.75788 1023.5324 994.662082 926.185136 0.000977009
22.76668 1008.3511 986.366252 926.256665 0.000991718
22.77549 994.953 979.226197 926.327317 0.001005073
22.78429 983.15753 973.601424 926.396935 0.001017131
22.79309 975.85413 969.631459 926.465402 0.001024743
22.80189 970.36731 967.309648 926.532524 0.001030538
22.81069 967.04028 966.515071 926.598149 0.001034083
22.81950 965.74078 967.028571 926.66209 0.001035475
22.82830 966.58838 968.521658 926.724184 0.001034567
22.83710 968.23193 970.524438 926.784231 0.00103281
22.84590 970.66339 972.425979 926.842037 0.001030223
22.85470 972.21545 973.568909 926.897436 0.001028579
22.86351 972.92957 973.489521 926.950202 0.001027824
22.87231 972.43884 972.146931 927.000137 0.001028342
22.88111 970.92065 969.915506 927.047015 0.00102995
22.88991 970.11462 967.355602 927.090625 0.001030806
22.89871 968.93585 965.011695 927.13072 0.00103206
22.90752 966.87891 963.318364 927.167089 0.001034256
22.91632 964.64056 962.526015 927.199483 0.001036656
22.92512 962.77582 962.68794 927.227646 0.001038663
22.93392 959.99451 963.6801 927.251328 0.001041673
22.94273 957.75177 965.285153 927.270261 0.001044112
22.95153 956.22778 967.286951 927.284177 0.001045776
22.96033 956.16833 969.498215 927.292793 0.001045841
22.96913 957.67316 971.695102 927.295829 0.001044198
22.97793 959.33374 973.496661 927.292987 0.00104239
22.98674 958.8645 974.366925 927.283965 0.0010429
22.99554 957.80334 973.81744 927.26845 0.001044056
23.00434 954.91138 971.717443 927.246127 0.001047218
23.01314 950.47113 968.398299 927.216671 0.00105211
23.02194 945.68768 964.443782 927.179739 0.001057432
23.03075 942.15771 960.404753 927.134989 0.001061393
23.03955 939.40967 956.663636 927.08206 0.001064498
23.04835 936.99786 953.445119 927.020601 0.001067238
23.05715 934.98474 950.861383 926.950226 0.001069536
23.06596 934.29388 948.965024 926.870569 0.001070327
23.07476 933.78046 947.768071 926.78124 0.001070916
23.08356 933.73584 947.262654 926.681819 0.001070967
23.09236 934.29614 947.434959 926.571904 0.001070324
23.10116 934.62274 948.268072 926.451058 0.00106995
23.10997 935.94879 949.746386 926.318877 0.001068435
23.11877 937.74884 951.847645 926.174889 0.001066384
23.12757 940.48773 954.536075 926.018709 0.001063278
23.13637 944.45929 957.736763 925.849766 0.001058807
23.14517 948.59613 961.296425 925.667659 0.001054189
23.15398 953.68976 964.955765 925.471882 0.001048559
23.16278 960.14142 968.363275 925.261912 0.001041513
23.17158 965.46552 971.17558 925.037286 0.00103577
23.18038 969.16547 973.209162 924.797433 0.001031816
23.18918 969.96906 974.513132 924.541933 0.001030961
23.19799 969.30328 975.364902 924.270066 0.001031669
23.20679 967.79462 976.215436 923.981391 0.001033277
23.21559 965.60663 977.590443 923.675306 0.001035618
23.22439 964.0882 979.942472 923.35119 0.001037249
23.23320 965.04279 983.529777 923.00852 0.001036223
23.24200 968.73907 988.354826 922.64669 0.00103227
23.25080 975.56354 994.173186 922.264995 0.001025049
23.25960 986.16528 1000.561452 921.86279 0.001014029
23.26840 1003.1004 1007.050786 921.439514 0.000996909
23.27721 1026.8256 1013.145129 920.994456 0.000973875
23.28601 1052.818 1018.208442 920.526882 0.000949832
23.29481 1073.1481 1021.371425 920.036201 0.000931838
23.30361 1078.2181 1021.727412 919.521711 0.000927456
23.31241 1067.0936 1018.763128 918.982571 0.000937125
23.32122 1046.5597 1012.738797 918.418029 0.000955512
23.33002 1021.8475 1004.675919 917.827458 0.00097862
23.33882 1000.2963 995.898568 917.210023 0.000999704
23.34762 982.42188 987.571608 916.564859 0.001017893
23.35642 969.38586 980.471046 915.891464 0.001031581
23.36523 961.06299 974.998805 915.188556 0.001040515
23.37403 954.74445 971.253664 914.455607 0.001047401
23.38283 951.84973 969.094561 913.691592 0.001050586
23.39163 953.05829 968.166884 912.895812 0.001049254
23.40044 956.26862 967.970578 912.06729 0.001045731
23.40924 959.30853 967.939123 911.205017 0.001042418
23.41804 960.73889 967.543912 910.308467 0.001040866
23.42684 958.26697 966.365105 909.376083 0.001043551
23.43564 954.70453 964.118782 908.407311 0.001047444
23.44445 950.35797 960.713292 907.400946 0.001052235
23.45325 945.49786 956.31636 906.356212 0.001057644
23.46205 942.1474 951.340956 905.271972 0.001061405
23.47085 939.31171 946.291675 904.147314 0.001064609
23.47965 936.7356 941.599648 902.980915 0.001067537
23.48846 935.20746 937.54632 901.771678 0.001069281
23.49726 934.06464 934.274715 900.51877 0.00107059
23.50606 933.71973 931.806297 899.220778 0.001070985
23.51486 934.54358 930.070257 897.876849 0.001070041
23.52367 935.57263 928.897262 896.485665 0.001068864
23.53247 937.39874 928.040007 895.0462 0.001066782
23.54127 939.26355 927.221906 893.55691 0.001064664
23.55007 940.30609 926.244824 892.016538 0.001063483
23.55887 940.97491 925.064273 890.424173 0.001062728
23.56768 941.57648 923.750206 888.778165 0.001062049
23.57648 940.94983 922.345783 887.077578 0.001062756
23.58528 939.89191 920.765332 885.321299 0.001063952
23.59408 938.36896 918.806185 883.506962 0.001065679
23.60288 935.64899 916.276178 881.633986 0.001068777
23.61169 933.41461 913.142465 879.700536 0.001071335
23.62049 931.0061 909.574379 877.705615 0.001074107
23.62929 929.17798 905.856053 875.647308 0.00107622
23.63809 927.58234 902.26239 873.524593 0.001078071
23.64689 925.66913 899.011082 871.33623 0.0010803
23.65570 924.13147 896.261178 869.079422 0.001082097
23.66450 923.19049 894.151774 866.7536 0.0010832
23.67330 922.10468 892.820567 864.356637 0.001084476
23.68210 921.01703 892.423908 861.88745 0.001085756
23.69091 920.46765 893.141928 859.343822 0.001086404
23.69971 920.91376 895.173856 856.725248 0.001085878
23.70851 921.05884 898.72135 854.02854 0.001085707
23.71731 921.89459 903.967594 851.252218 0.001084723
23.72611 922.30939 911.026655 848.395136 0.001084235
23.73492 922.29163 919.908623 845.454839 0.001084256
23.74372 923.28864 930.42607 842.430156 0.001083085
23.75252 924.38141 942.115565 839.319245 0.001081805
23.76132 925.78339 954.065726 836.119498 0.001080166
23.77012 927.2558 964.846478 832.829327 0.001078451
23.77893 927.8161 972.683303 829.446375 0.0010778
23.78773 928.05176 976.115007 825.969407 0.001077526
23.79653 927.25049 974.843143 822.395596 0.001078457
23.80533 926.69525 970.000677 818.723683 0.001079103
23.81414 927.37592 963.468853 814.951596 0.001078311
23.82294 929.42712 956.973389 811.076336 0.001075932
23.83174 931.80493 951.487352 807.096149 0.001073186
23.84054 933.84613 947.060922 803.008348 0.00107084
23.84934 936.81 942.8557 798.811612 0.001067452
23.85815 939.31134 937.342889 794.502697 0.00106461
23.86695 939.44458 928.871193 790.081274 0.001064459
23.87575 939.22845 916.492465 785.541961 0.001064704
23.88455 939.17157 900.518781 780.884377 0
23.89335 938.53412 0 0 0
23.90216 938.70605 0 0 0
23.91096 939.37701 0 0 0
23.91976 940.51575 0 0 0
23.92856 942.87274 0 0 0
23.93736 945.94604 0 0 0
23.94617 949.06311 0 0 0
23.95497 952.47339 0 0 0
23.96377 956.39252 0 0 0
23.97257 960.65912 0 0 0
23.98137 967.42847 0 0 0
23.99018 977.30927 0 0 0
23.99898 989.53333 0 0 0
24.00778 999.01172 0 0 0
24.01658 1003.475 0 0 0
24.02539 1003.1897 0 0 0
24.03419 998.40778 0 0 0
24.04299 990.14935 0 0 0
24.05179 979.87122 0 0 0
24.06059 970.63843 0 0 0
24.06940 962.95477 0 0 0
24.07820 957.12805 0 0 0
24.08700 952.14978 0 0 0
24.09580 948.04004 0 0 0
24.10460 946.67224 0 0 0
24.11341 947.23651 0 0 0
24.12221 948.65442 0 0 0
24.13101 952.29498 0 0 0
24.13981 955.76074 0 0 0
24.14862 957.72162 0 0 0
24.15742 957.21863 0 0 0
24.16622 954.16577 0 0 0
24.17502 950.06665 0 0 0
24.18382 947.04492 0 0 0
24.19263 945.24933 0 0 0
24.20143 943.62518 0 0 0
24.21023 942.302 0 0 0
24.21903 941.81494 0 0 0
24.22783 940.9035 0 0 0
24.23664 940.20685 0 0 0
24.24544 938.88397 0 0 0
24.25424 937.30676 0 0 0
24.26304 935.92889 0 0 0
24.27184 934.67047 0 0 0
24.28065 933.80408 0 0 0
24.28945 932.12604 0 0 0
24.29825 930.81024 0 0 0
24.30705 929.3634 0 0 0
24.31586 927.35986 0 0 0
24.32466 926.72626 0 0 0
24.33346 926.7121 0 0 0
24.34226 924.71289 0 0 0
24.35106 922.64624 0 0 0
24.35987 922.17932 0 0 0
24.36867 921.75293 0 0 0
24.37747 920.82782 0 0 0
24.38627 920.84894 0 0 0
24.39507 920.66815 0 0 0
24.40388 919.81653 0 0 0
24.41268 919.20837 0 0 0
24.42148 918.8761 0 0 0
24.43029 919.90918 0 0 0
24.43908 920.46088 0 0 0
24.44789 920.87195 0 0 0
24.45669 921.98254 0 0 0
24.46549 923.05103 0 0 0
24.47430 924.42908 0 0 0
24.48310 926.12439 0 0 0
24.49190 927.27203 0 0 0
24.50070 929.12451 0 0 0
24.50950 932.01068 0 0 0
24.51831 933.82733 0 0 0
24.52711 934.77496 0 0 0
24.53591 936.11566 0 0 0
24.54471 936.63916 0 0 0
24.55351 935.95831 0 0 0
24.56232 936.14429 0 0 0
24.57112 936.96942 0 0 0
24.57992 938.1532 0 0 0
24.58872 939.02856 0 0 0
24.59753 941.20612 0 0 0
24.60633 944.25427 0 0 0
24.61513 947.45984 0 0 0
24.62393 950.80841 0 0 0
24.63273 956.12421 0 0 0
24.64154 962.54242 0 0 0
24.65034 969.31946 0 0 0
24.65914 974.83167 0 0 0
24.66794 979.79352 0 0 0
24.67674 983.28259 0 0 0
24.68555 985.9079 0 0 0
24.69435 987.25415 0 0 0
24.70315 987.75726 0 0 0
24.71195 991.96002 0 0 0
24.72076 996.76727 0 0 0
24.72956 1009.3632 0 0 0
24.73836 1019.7443 0 0 0
24.74716 1040.8181 0 0 0
24.75596 1052.4744 0 0 0
24.76477 1070.2788 0 0 0
24.77357 1076.4604 0 0 0
24.78237 1079.3685 0 0 0
24.79117 1075.7825 0 0 0
24.79997 1058.7209 0 0 0
24.80878 1049.9027 0 0 0
24.81758 1031.373 0 0 0
24.82638 1022.1339 0 0 0
24.83518 1008.4428 0 0 0
24.84398 1003.5698 0 0 0
24.85279 998.50146 0 0 0
24.86159 998.54895 0 0 0
24.87039 995.00427 0 0 0
24.87919 993.69305 0 0 0
24.88800 990.26691 0 0 0
24.89680 984.61279 0 0 0
24.90560 979.11786 0 0 0
24.91440 972.14667 0 0 0
24.92320 967.21332 0 0 0
24.93201 961.09845 0 0 0
24.94081 957.6369 0 0 0
24.94961 955.2298 0 0 0
24.95841 954.59314 0 0 0
24.96721 952.76526 0 0 0
24.97602 953.651 0 0 0
24.98482 955.65051 0 0 0
24.99362 958.5802 0 0 0
25.00242 960.25146 0 0 0
25.01122 961.35565 0 0 0
25.02003 963.34607 0 0 0
25.02883 966.44739 0 0 0
25.03763 970.05463 0 0 0
25.04643 974.17474 0 0 0
25.05523 980.7666 0 0 0
25.06404 989.35339 0 0 0
25.07284 1000.7934 0 0 0
25.08164 1014.7041 0 0 0
25.09044 1031.097 0 0 0
25.09924 1048.4674 0 0 0
25.10805 1066.4602 0 0 0
25.11685 1083.5198 0 0 0
25.12565 1093.8794 0 0 0
25.13445 1090.8829 0 0 0
25.14325 1076.2378 0 0 0
25.15206 1052.7863 0 0 0
25.16086 1028.0463 0 0 0
25.16966 1007.8395 0 0 0
25.17846 990.86676 0 0 0
25.18727 975.6922 0 0 0
25.19607 964.41791 0 0 0
25.20487 956.08057 0 0 0
25.21367 949.36823 0 0 0
25.22247 945.08771 0 0 0
25.23128 941.53918 0 0 0
25.24008 938.93793 0 0 0
25.24888 937.69952 0 0 0
25.25768 936.98553 0 0 0
25.26648 936.021 0 0 0
25.27529 935.75439 0 0 0
25.28409 936.58209 0 0 0
25.29289 939.59113 0 0 0
25.30169 944.35425 0 0 0
25.31049 949.69147 0 0 0
25.31930 957.61383 0 0 0
25.32810 968.63953 0 0 0
25.33690 983.96466 0 0 0
25.34570 1002.5685 0 0 0
25.35451 1024.5654 0 0 0
25.36331 1053.4445 0 0 0
25.37211 1091.3578 0 0 0
25.38091 1131.0354 0 0 0
25.38971 1163.3933 0 0 0
25.39852 1163.3583 0 0 0
25.40732 1134.0066 0 0 0
25.41612 1095.6205 0 0 0
25.42492 1051.7286 0 0 0
25.43372 1019.4651 0 0 0
25.44253 994.61792 0 0 0
25.45133 977.3952 0 0 0
25.46013 964.52032 0 0 0
25.46893 954.61633 0 0 0
25.47774 947.28296 0 0 0
25.48654 941.24445 0 0 0
25.49534 935.93073 0 0 0
25.50414 932.5835 0 0 0
25.51294 929.59521 0 0 0
25.52175 926.17236 0 0 0
25.53055 924.66095 0 0 0
25.53935 924.41724 0 0 0
25.54815 924.38092 0 0 0
25.55695 923.71759 0 0 0
25.56576 923.24408 0 0 0
25.57456 923.95007 0 0 0
25.58336 926.05951 0 0 0
25.59216 927.87085 0 0 0
25.60096 929.97516 0 0 0
25.60977 931.8075 0 0 0
25.61857 934.20062 0 0 0
25.62737 938.11365 0 0 0
25.63618 941.67749 0 0 0
25.64498 944.34082 0 0 0
25.65378 946.61694 0 0 0
25.66258 949.73676 0 0 0
25.67138 954.65485 0 0 0
25.68019 959.9599 0 0 0
25.68899 961.25745 0 0 0
25.69779 958.50464 0 0 0
25.70659 952.76282 0 0 0
25.71539 945.89343 0 0 0
25.72420 938.63678 0 0 0
25.73300 931.71094 0 0 0
25.74180 927.20154 0 0 0
25.75060 924.71729 0 0 0
25.75940 923.30493 0 0 0
25.76821 922.22626 0 0 0
25.77701 921.43182 0 0 0
25.78581 920.33508 0 0 0
25.79461 920.36633 0 0 0
25.80342 921.18866 0 0 0
25.81222 922.2005 0 0 0
25.82102 924.51996 0 0 0
25.82982 928.98383 0 0 0
25.83862 934.75775 0 0 0
25.84743 940.77399 0 0 0
25.85623 947.16064 0 0 0
25.86503 952.18262 0 0 0
25.87383 954.65344 0 0 0
25.88263 953.66431 0 0 0
25.89144 950.83044 0 0 0
25.90024 945.82471 0 0 0
25.90904 941.38757 0 0 0
25.91784 938.32214 0 0 0
25.92664 934.99408 0 0 0
25.93545 932.36731 0 0 0
25.94425 931.17877 0 0 0
25.95305 931.06366 0 0 0
25.96185 930.7475 0 0 0
25.97066 931.36652 0 0 0
25.97946 932.21301 0 0 0
25.98826 931.10828 0 0 0
25.99706 928.2157 0 0 0
26.00586 925.89233 0 0 0
26.01467 924.69885 0 0 0
26.02347 922.53833 0 0 0
26.03227 920.41144 0 0 0
26.04107 920.13745 0 0 0
26.04987 919.71436 0 0 0
26.05868 918.62665 0 0 0
26.06748 918.07971 0 0 0
26.07628 917.39258 0 0 0
26.08508 916.59857 0 0 0
26.09388 915.26178 0 0 0
26.10269 914.18555 0 0 0
26.11149 912.85345 0 0 0
26.12029 911.47736 0 0 0
26.12909 911.00934 0 0 0
26.13790 910.49548 0 0 0
26.14670 909.45789 0 0 0
26.15550 908.29413 0 0 0
26.16430 907.04651 0 0 0
26.17310 906.42572 0 0 0
26.18191 905.83362 0 0 0
26.19071 904.67236 0 0 0
26.19951 904.33136 0 0 0
26.20831 904.97247 0 0 0
26.21711 904.71533 0 0 0
26.22592 903.33484 0 0 0
26.23472 902.85748 0 0 0
26.24352 902.17908 0 0 0
26.25232 900.66559 0 0 0
26.26113 900.00708 0 0 0
26.26993 899.58301 0 0 0
26.27873 898.80048 0 0 0
26.28753 897.80365 0 0 0
26.29633 897.44019 0 0 0
26.30514 897.82581 0 0 0
26.31394 897.60596 0 0 0
26.32274 897.15533 0 0 0
26.33154 897.20911 0 0 0
26.34034 898.67505 0 0 0
26.34915 900.80853 0 0 0
26.35795 902.28107 0 0 0
26.36675 904.14221 0 0 0
26.37555 906.59045 0 0 0
26.38435 908.55988 0 0 0
26.39316 910.38562 0 0 0
26.40196 911.49078 0 0 0
26.41076 911.16797 0 0 0
26.41956 909.97656 0 0 0
26.42837 908.68982 0 0 0
26.43717 906.12256 0 0 0
26.44597 903.30988 0 0 0
26.45477 902.18512 0 0 0
26.46357 901.24304 0 0 0
26.47238 900.66083 0 0 0
26.48118 900.31671 0 0 0
26.48998 900.70685 0 0 0
26.49878 901.6637 0 0 0
26.50758 902.78027 0 0 0
26.51639 903.83948 0 0 0
26.52519 904.84741 0 0 0
26.53399 905.65466 0 0 0
26.54279 907.2959 0 0 0
26.55159 910.04187 0 0 0
26.56040 912.63922 0 0 0
26.56920 914.58026 0 0 0
26.57800 916.67218 0 0 0
26.58680 919.94196 0 0 0
26.59561 922.96661 0 0 0
26.60441 926.38379 0 0 0
26.61321 930.95276 0 0 0
26.62201 935.21027 0 0 0
26.63081 938.97211 0 0 0
26.63962 941.57391 0 0 0
26.64842 941.34772 0 0 0
26.65722 940.15302 0 0 0
26.66602 937.55048 0 0 0
26.67482 932.40143 0 0 0
26.68363 926.30194 0 0 0
26.69243 921.58484 0 0 0
26.70123 918.02771 0 0 0
26.71003 914.92279 0 0 0
26.71884 912.88928 0 0 0
26.72764 910.49652 0 0 0
26.73644 909.05133 0 0 0
26.74524 908.52679 0 0 0
26.75404 907.79218 0 0 0
26.76285 907.29614 0 0 0
26.77165 906.9176 0 0 0
26.78045 907.43811 0 0 0
26.78925 907.2981 0 0 0
26.79805 905.8739 0 0 0
26.80686 905.41864 0 0 0
26.81566 905.12726 0 0 0
26.82446 904.41327 0 0 0
26.83326 903.65692 0 0 0
26.84206 903.03674 0 0 0
26.85087 903.72675 0 0 0
26.85967 905.04626 0 0 0
26.86847 904.16211 0 0 0
26.87727 902.953 0 0 0
26.88608 903.00385 0 0 0
26.89488 903.46509 0 0 0
26.90368 905.20074 0 0 0
26.91248 907.78009 0 0 0
26.92128 910.9776 0 0 0
26.93009 914.50922 0 0 0
26.93889 918.52142 0 0 0
26.94769 922.87732 0 0 0
26.95649 928.48352 0 0 0
26.96529 933.2865 0 0 0
26.97410 937.6897 0 0 0
26.98290 943.5545 0 0 0
26.99170 951.30859 0 0 0
27.00050 963.68958 0 0 0
27.00930 979.95966 0 0 0
27.01811 990.55994 0 0 0
27.02691 990.4021 0 0 0
27.03571 987.28369 0 0 0
27.04451 986.21936 0 0 0
27.05332 987.82245 0 0 0
27.06212 992.51965 0 0 0
27.07092 995.57483 0 0 0
27.07972 991.34784 0 0 0
27.08852 982.47345 0 0 0
27.09733 970.24323 0 0 0
27.10613 956.05212 0 0 0
27.11493 943.89001 0 0 0
27.12373 933.46332 0 0 0
27.13253 924.95264 0 0 0
27.14134 919.24292 0 0 0
27.15014 914.10474 0 0 0
27.15894 910.54834 0 0 0
27.16774 908.1239 0 0 0
27.17655 906.38306 0 0 0
27.18535 905.65741 0 0 0
27.19415 903.92786 0 0 0
27.20295 901.62762 0 0 0
27.21175 900.47888 0 0 0
27.22056 900.99207 0 0 0
27.22936 901.00385 0 0 0
27.23816 900.50006 0 0 0
27.24696 899.71893 0 0 0
27.25576 898.8866 0 0 0
27.26457 898.53467 0 0 0
27.27337 898.82251 0 0 0
27.28217 899.32196 0 0 0
27.29097 899.94843 0 0 0
27.29977 900.29895 0 0 0
27.30858 900.09521 0 0 0
27.31738 900.33228 0 0 0
27.32618 901.25848 0 0 0
27.33498 902.51593 0 0 0
27.34379 903.35974 0 0 0
27.35259 903.63477 0 0 0
27.36139 903.62567 0 0 0
27.37019 903.00806 0 0 0
27.37899 902.57172 0 0 0
27.38780 903.15228 0 0 0
27.39660 903.26971 0 0 0
27.40540 903.40039 0 0 0
27.41420 904.52826 0 0 0
27.42300 904.44897 0 0 0
27.43181 904.02789 0 0 0
27.44061 905.09393 0 0 0
27.44941 906.27338 0 0 0
27.45821 907.54633 0 0 0
27.46701 908.88855 0 0 0
27.47582 910.27942 0 0 0
27.48462 911.29608 0 0 0
27.49342 911.38184 0 0 0
27.50222 912.56177 0 0 0
27.51103 913.86292 0 0 0
27.51983 914.68188 0 0 0
27.52863 916.5202 0 0 0
27.53743 918.40784 0 0 0
27.54623 920.13733 0 0 0
27.55504 923.02112 0 0 0
27.56384 927.02191 0 0 0
27.57264 931.24518 0 0 0
27.58144 934.45087 0 0 0
27.59024 936.88843 0 0 0
27.59905 939.88831 0 0 0
27.60785 944.05273 0 0 0
27.61665 948.9834 0 0 0
27.62545 951.5177 0 0 0
27.63426 951.45428 0 0 0
27.64306 950.22638 0 0 0
27.65186 948.6217 0 0 0
27.66066 946.08221 0 0 0
27.66946 941.63135 0 0 0
27.67827 937.32135 0 0 0
27.68707 935.06281 0 0 0
27.69587 933.66083 0 0 0
27.70467 931.57373 0 0 0
27.71347 930.81738 0 0 0
27.72228 931.16608 0 0 0
27.73108 930.77905 0 0 0
27.73988 930.05884 0 0 0
27.74868 928.22797 0 0 0
27.75748 926.67859 0 0 0
27.76629 924.70618 0 0 0
27.77509 921.73346 0 0 0
27.78389 918.54944 0 0 0
27.79269 916.15283 0 0 0
27.80150 915.64587 0 0 0
27.81030 914.12061 0 0 0
27.81910 912.75677 0 0 0
27.82790 913.58301 0 0 0
27.83670 914.04138 0 0 0
27.84551 912.22528 0 0 0
27.85431 909.82349 0 0 0
27.86311 907.19104 0 0 0
27.87191 904.66827 0 0 0
27.88071 903.43494 0 0 0
27.88952 901.8302 0 0 0
27.89832 900.7149 0 0 0
27.90712 900.13654 0 0 0
27.91592 900.10132 0 0 0
27.92472 899.39819 0 0 0
27.93353 897.56458 0 0 0
27.94233 896.55762 0 0 0
27.95113 896.84998 0 0 0
27.95993 898.45587 0 0 0
27.96874 898.25024 0 0 0
27.97754 896.60083 0 0 0
27.98634 896.93195 0 0 0
27.99514 897.29822 0 0 0
28.00394 896.66675 0 0 0
28.01275 896.35931 0 0 0
28.02155 896.43591 0 0 0
28.03035 895.92749 0 0 0
28.03915 895.96735 0 0 0
28.04796 897.03937 0 0 0
28.05676 897.38507 0 0 0
28.06556 897.34192 0 0 0
28.07436 897.79456 0 0 0
28.08316 898.84277 0 0 0
28.09196 899.97253 0 0 0
28.10077 901.55634 0 0 0
28.10957 903.87048 0 0 0
28.11837 907.37152 0 0 0
28.12717 912.3504 0 0 0
28.13598 919.10492 0 0 0
28.14478 924.5257 0 0 0
28.15358 927.32227 0 0 0
28.16238 928.7597 0 0 0
28.17119 931.30444 0 0 0
28.17999 934.08661 0 0 0
28.18879 934.42627 0 0 0
28.19759 934.75397 0 0 0
28.20639 934.48419 0 0 0
28.21520 933.00269 0 0 0
28.22400 932.20807 0 0 0
28.23280 932.22052 0 0 0
28.24160 933.51721 0 0 0
28.25040 936.41675 0 0 0
28.25921 937.33002 0 0 0
28.26801 934.80402 0 0 0
28.27681 932.38788 0 0 0
28.28561 928.96021 0 0 0
28.29442 924.30737 0 0 0
28.30322 921.77478 0 0 0
28.31202 919.84088 0 0 0
28.32082 917.76251 0 0 0
28.32962 911.86188 0 0 0
28.33843 894.26813 0 0 0
28.34723 889.375 0 0 0
28.35603 898.50543 0 0 0
28.36483 900.99438 0 0 0
28.37363 901.27869 0 0 0
28.38244 901.11658 0 0 0
28.39124 900.10272 0 0 0
28.40004 898.79059 0 0 0
28.40884 898.56427 0 0 0
28.41765 898.7254 0 0 0
28.42645 898.34869 0 0 0
28.43525 898.08441 0 0 0
28.44405 899.62531 0 0 0
28.45285 900.99951 0 0 0
28.46166 900.8147 0 0 0
28.47046 900.81818 0 0 0
28.47926 901.43542 0 0 0
28.48806 902.46753 0 0 0
28.49686 903.58838 0 0 0
28.50567 904.40765 0 0 0
28.51447 905.87927 0 0 0
28.52327 906.86322 0 0 0
28.53207 907.49774 0 0 0
28.54087 907.9295 0 0 0
28.54968 908.35284 0 0 0
28.55848 908.40729 0 0 0
28.56728 907.2063 0 0 0
28.57608 907.65503 0 0 0
28.58488 910.29297 0 0 0
28.59369 912.33612 0 0 0
28.60249 915.13342 0 0 0
28.61129 920.62207 0 0 0
28.62009 926.02142 0 0 0
28.62889 931.58246 0 0 0
28.63770 938.40851 0 0 0
28.64650 945.77197 0 0 0
28.65530 951.59143 0 0 0
28.66410 956.21381 0 0 0
28.67291 962.35712 0 0 0
28.68171 965.94934 0 0 0
28.69051 965.51514 0 0 0
28.69931 964.24329 0 0 0
28.70811 963.64075 0 0 0
28.71692 963.15369 0 0 0
28.72572 961.12421 0 0 0
28.73452 959.13184 0 0 0
28.74332 956.46912 0 0 0
28.75212 952.63348 0 0 0
28.76093 948.80896 0 0 0
28.76973 944.12079 0 0 0
28.77853 939.07813 0 0 0
28.78733 934.59869 0 0 0
28.79613 932.26093 0 0 0
28.80494 928.27136 0 0 0
28.81374 922.40363 0 0 0
28.82254 919.62457 0 0 0
28.83134 917.25916 0 0 0
28.84014 914.90698 0 0 0
28.84895 913.30664 0 0 0
28.85775 914.39484 0 0 0
28.86655 916.42029 0 0 0
28.87535 914.55786 0 0 0
28.88416 912.89777 0 0 0
28.89296 912.68542 0 0 0
28.90176 911.27075 0 0 0
28.91056 909.51935 0 0 0
28.91936 908.38013 0 0 0
28.92817 907.32269 0 0 0
28.93697 905.91809 0 0 0
28.94577 904.43726 0 0 0
28.95457 902.95569 0 0 0
28.96337 902.7085 0 0 0
28.97218 905.46869 0 0 0
28.98098 906.6723 0 0 0
28.98978 906.96124 0 0 0
28.99858 907.01166 0 0 0
29.00738 906.67133 0 0 0
29.01619 907.89935 0 0 0
29.02499 907.60413 0 0 0
29.03379 906.9035 0 0 0
29.04259 906.70361 0 0 0
29.05140 905.10822 0 0 0
29.06020 904.85437 0 0 0
29.06900 905.04083 0 0 0
29.07780 903.34601 0 0 0
29.08660 901.04059 0 0 0
29.09541 899.75555 0 0 0
29.10421 900.15265 0 0 0
29.11301 899.67786 0 0 0
29.12181 898.90631 0 0 0
29.13061 899.20514 0 0 0
29.13942 899.27478 0 0 0
29.14822 900.20776 0 0 0
29.15702 902.28394 0 0 0
29.16583 904.65045 0 0 0
29.17463 906.74518 0 0 0
29.18343 909.18903 0 0 0
29.19223 911.63007 0 0 0
29.20103 913.95026 0 0 0
29.20984 916.81659 0 0 0
29.21864 919.44116 0 0 0
29.22744 921.31964 0 0 0
29.23624 926.5564 0 0 0
29.24504 936.771 0 0 0
29.25384 948.05377 0 0 0
29.26265 955.16833 0 0 0
29.27145 954.11823 0 0 0
29.28025 949.55774 0 0 0
29.28906 942.93146 0 0 0
29.29785 933.71381 0 0 0
29.30666 926.52948 0 0 0
29.31546 921.44769 0 0 0
29.32426 915.48627 0 0 0
29.33307 910.14526 0 0 0
29.34187 908.38068 0 0 0
29.35067 907.56836 0 0 0
29.35947 905.08008 0 0 0
29.36827 904.80969 0 0 0
29.37708 907.51587 0 0 0
29.38588 911.24524 0 0 0
29.39468 915.71448 0 0 0
29.40348 920.04266 0 0 0
29.41228 924.50171 0 0 0
29.42109 926.93396 0 0 0
29.42989 926.11285 0 0 0
29.43869 925.17603 0 0 0
29.44749 924.1402 0 0 0
29.45630 921.71149 0 0 0
29.46510 918.27399 0 0 0
29.47390 914.58685 0 0 0
29.48270 911.62848 0 0 0
29.49150 908.85632 0 0 0
29.50031 907.27148 0 0 0
29.50911 906.31238 0 0 0
29.51791 905.47272 0 0 0
29.52671 905.55121 0 0 0
29.53551 904.4787 0 0 0
29.54432 901.96021 0 0 0
29.55312 899.9787 0 0 0
29.56192 900.09265 0 0 0
29.57072 898.54083 0 0 0
29.57952 896.1037 0 0 0
29.58833 895.37433 0 0 0
29.59713 894.4494 0 0 0
29.60593 894.35345 0 0 0
29.61473 894.65173 0 0 0
29.62354 894.53302 0 0 0
29.63234 895.25616 0 0 0
29.64114 894.95227 0 0 0
29.64994 893.92328 0 0 0
29.65874 894.20496 0 0 0
29.66755 895.3764 0 0 0
29.67635 895.84705 0 0 0
29.68515 895.72241 0 0 0
29.69395 896.29907 0 0 0
29.70275 895.88885 0 0 0
29.71156 896.16272 0 0 0
29.72036 897.41565 0 0 0
29.72916 897.67499 0 0 0
29.73796 898.82306 0 0 0
29.74676 900.37238 0 0 0
29.75557 901.8642 0 0 0
29.76437 902.06128 0 0 0
29.77317 901.01154 0 0 0
29.78197 901.64978 0 0 0
29.79078 901.07959 0 0 0
29.79958 903.02515 0 0 0
29.80838 906.29022 0 0 0
29.81718 905.55701 0 0 0
29.82598 905.84985 0 0 0
29.83479 906.25879 0 0 0
29.84359 903.90082 0 0 0
29.85239 902.83459 0 0 0
29.86119 903.89789 0 0 0
29.86999 903.58331 0 0 0
29.87880 902.59491 0 0 0
29.88760 903.1106 0 0 0
29.89640 903.80182 0 0 0
29.90520 904.45557 0 0 0
29.91400 906.31384 0 0 0
29.92281 906.1499 0 0 0
29.93161 905.22943 0 0 0
29.94041 907.30249 0 0 0
29.94921 911.02618 0 0 0
29.95801 917.5462 0 0 0
29.96682 924.52643 0 0 0
29.97562 930.67621 0 0 0
29.98442 938.47131 0 0 0
29.99322 942.56128 0 0 0
30.00203 940.31183 0 0 0
30.01083 935.19366 0 0 0
30.01963 927.6416 0 0 0
30.02843 919.60956 0 0 0
30.03723 912.30933 0 0 0
30.04604 907.99689 0 0 0
30.05484 904.61517 0 0 0
30.06364 901.10211 0 0 0
30.07244 898.18011 0 0 0
30.08124 897.22858 0 0 0
30.09005 897.14172 0 0 0
30.09885 897.68512 0 0 0
30.10765 897.65741 0 0 0
30.11645 896.48553 0 0 0
30.12526 896.06079 0 0 0
30.13406 897.82123 0 0 0
30.14286 896.77771 0 0 0
30.15166 894.82391 0 0 0
30.16046 894.85571 0 0 0
30.16927 893.59381 0 0 0
30.17807 893.36523 0 0 0
30.18687 895.29572 0 0 0
30.19567 897.21326 0 0 0
30.20447 898.86694 0 0 0
30.21328 899.19586 0 0 0
30.22208 896.04816 0 0 0
30.23088 892.6521 0 0 0
30.23968 894.21594 0 0 0
30.24849 895.82483 0 0 0
30.25729 895.93866 0 0 0
30.26609 896.99652 0 0 0
30.27489 897.82562 0 0 0
30.28369 897.599 0 0 0
30.29250 897.64441 0 0 0
30.30130 898.93988 0 0 0
30.31010 900.75732 0 0 0
30.31890 902.8833 0 0 0
30.32770 902.10736 0 0 0
30.33651 901.09161 0 0 0
30.34531 903.44574 0 0 0
30.35411 904.78931 0 0 0
30.36291 903.30432 0 0 0
30.37172 902.02368 0 0 0
30.38052 900.94165 0 0 0
30.38932 900.96545 0 0 0
30.39812 901.35516 0 0 0
30.40692 902.48285 0 0 0
30.41573 903.2915 0 0 0
30.42453 903.67798 0 0 0
30.43333 903.54785 0 0 0
30.44213 906.11725 0 0 0
30.45093 907.02179 0 0 0
30.45974 905.50372 0 0 0
30.46854 907.23895 0 0 0
30.47734 910.09021 0 0 0
30.48614 910.94952 0 0 0
30.49494 913.50928 0 0 0
30.50375 918.99298 0 0 0
30.51255 925.04297 0 0 0
30.52135 928.20197 0 0 0
30.53015 932.23047 0 0 0
30.53896 935.48639 0 0 0
30.54776 939.36133 0 0 0
30.55656 944.42609 0 0 0
30.56536 950.03156 0 0 0
30.57416 952.5741 0 0 0
30.58297 955.05042 0 0 0
30.59177 958.81488 0 0 0
30.60057 961.41956 0 0 0
30.60937 964.72192 0 0 0
30.61817 963.76587 0 0 0
30.62698 961.68921 0 0 0
30.63578 962.81506 0 0 0
30.64458 967.3631 0 0 0
30.65338 970.42487 0 0 0
30.66218 971.38757 0 0 0
30.67099 974.39026 0 0 0
30.67979 973.37628 0 0 0
30.68859 970.57922 0 0 0
30.69739 963.16516 0 0 0
30.70620 953.47876 0 0 0
30.71500 945.92493 0 0 0
30.72380 936.75861 0 0 0
30.73260 926.70575 0 0 0
30.74140 918.69879 0 0 0
30.75021 916.19159 0 0 0
30.75901 914.57104 0 0 0
30.76781 914.43176 0 0 0
30.77661 914.62079 0 0 0
30.78541 914.21991 0 0 0
30.79422 916.28662 0 0 0
30.80302 916.68842 0 0 0
30.81182 912.61316 0 0 0
30.82062 908.07898 0 0 0
30.82943 906.01514 0 0 0
30.83823 904.01117 0 0 0
30.84703 901.70819 0 0 0
30.85583 900.00891 0 0 0
30.86463 898.71698 0 0 0
30.87344 899.57782 0 0 0
30.88224 898.13654 0 0 0
30.89104 896.49976 0 0 0
30.89984 895.38818 0 0 0
30.90864 894.67419 0 0 0
30.91745 894.72699 0 0 0
30.92625 892.85883 0 0 0
30.93505 892.25763 0 0 0
30.94385 893.2851 0 0 0
30.95265 891.79779 0 0 0
30.96146 889.19226 0 0 0
30.97026 887.89386 0 0 0
30.97906 890.01868 0 0 0
30.98786 888.83081 0 0 0
30.99667 887.06183 0 0 0
31.00547 888.12952 0 0 0
31.01427 888.51178 0 0 0
31.02307 888.18799 0 0 0
31.03187 886.9198 0 0 0
31.04068 885.16162 0 0 0
31.04948 883.49976 0 0 0
31.05828 881.341 0 0 0
31.06708 882.40649 0 0 0
31.07588 885.4624 0 0 0
31.08469 884.88837 0 0 0
31.09349 881.38452 0 0 0
31.10229 881.27448 0 0 0
31.11109 882.35187 0 0 0
31.11989 882.18579 0 0 0
31.12870 879.6944 0 0 0
31.13750 878.81885 0 0 0
31.14630 879.33496 0 0 0
31.15510 879.44946 0 0 0
31.16391 879.12958 0 0 0
31.17271 879.77441 0 0 0
31.18151 879.47113 0 0 0
31.19031 874.93616 0 0 0
31.19911 870.95026 0 0 0
31.20792 871.22656 0 0 0
31.21672 873.29492 0 0 0
31.22552 874.10107 0 0 0
31.23432 873.01215 0 0 0
31.24312 872.20532 0 0 0
31.25193 870.98328 0 0 0
31.26073 870.57593 0 0 0
31.26953 871.63647 0 0 0
31.27833 871.0199 0 0 0
31.28714 870.30536 0 0 0
31.29594 868.1377 0 0 0
31.30474 867.95563 0 0 0
31.31354 870.70227 0 0 0
31.32234 872.64386 0 0 0
31.33115 873.75586 0 0 0
31.33995 874.72906 0 0 0
31.34875 874.31512 0 0 0
31.35755 874.62427 0 0 0
31.36635 877.51978 0 0 0
31.37516 879.55695 0 0 0
31.38396 877.01373 0 0 0
31.39276 878.24152 0 0 0
31.40156 878.58759 0 0 0
31.41036 878.70319 0 0 0
31.41917 880.07483 0 0 0
31.42797 882.9704 0 0 0
31.43677 885.63947 0 0 0
31.44557 887.42255 0 0 0
31.45438 888.70532 0 0 0
31.46318 890.07996 0 0 0
31.47198 893.49237 0 0 0
31.48078 896.73279 0 0 0
31.48958 897.4422 0 0 0
31.49839 894.02539 0 0 0
31.50719 890.6983 0 0 0
31.51599 889.56738 0 0 0
31.52479 887.46295 0 0 0
31.53359 887.27246 0 0 0
31.54240 889.46033 0 0 0
31.55120 890.56836 0 0 0
31.56000 889.4173 0 0 0
31.56880 890.81757 0 0 0
31.57760 895.07892 0 0 0
31.58641 898.27985 0 0 0
31.59521 904.47778 0 0 0
31.60401 912.95892 0 0 0
31.61281 915.27057 0 0 0
31.62162 911.62585 0 0 0
31.63042 909.00385 0 0 0
31.63922 904.9704 0 0 0
31.64802 899.21423 0 0 0
31.65682 894.48657 0 0 0
31.66563 892.33643 0 0 0
31.67443 889.10956 0 0 0
31.68323 894.29388 0 0 0
31.69203 903.18298 0 0 0
31.70083 907.54303 0 0 0
31.70964 915.38275 0 0 0
31.71844 927.48724 0 0 0
31.72724 942.17188 0 0 0
31.73604 949.81702 0 0 0
31.74485 946.2937 0 0 0
31.75365 935.87665 0 0 0
31.76245 923.5708 0 0 0
31.77125 912.99011 0 0 0
31.78005 902.25677 0 0 0
31.78886 891.98322 0 0 0
31.79766 884.39496 0 0 0
31.80646 881.48022 0 0 0
31.81526 879.51984 0 0 0
31.82406 877.37164 0 0 0
31.83287 875.70129 0 0 0
31.84167 876.86115 0 0 0
31.85047 877.71533 0 0 0
31.85927 874.45966 0 0 0
31.86807 873.36963 0 0 0
31.87688 872.26447 0 0 0
31.88568 872.01355 0 0 0
31.89448 872.13892 0 0 0
31.90328 870.74609 0 0 0
31.91209 868.11414 0 0 0
31.92089 866.13507 0 0 0
31.92969 862.52527 0 0 0
31.93849 858.84772 0 0 0
31.94729 860.8725 0 0 0
31.95610 863.88416 0 0 0
31.96490 860.05145 0 0 0
31.97370 855.88202 0 0 0
31.98250 857.1571 0 0 0
31.99130 853.71484 0 0 0
32.00011 854.1134 0 0 0
32.00891 853.0589 0 0 0
32.01771 850.2348 0 0 0
32.02651 849.64136 0 0 0
32.03532 846.69995 0 0 0
32.04412 850.20178 0 0 0
32.05292 851.8703 0 0 0
32.06172 848.85413 0 0 0
32.07052 849.88812 0 0 0
32.07933 851.07678 0 0 0
32.08813 850.0296 0 0 0
32.09693 847.90656 0 0 0
32.10573 843.8764 0 0 0
32.11454 842.16193 0 0 0
32.12334 844.95831 0 0 0
32.13214 847.89716 0 0 0
32.14094 842.56677 0 0 0
32.14974 839.8006 0 0 0
32.15855 840.69934 0 0 0
32.16735 843.54877 0 0 0
32.17615 845.9762 0 0 0
32.18495 843.21027 0 0 0
32.19375 844.74329 0 0 0
32.20256 844.86627 0 0 0
32.21136 846.77502 0 0 0
32.22016 851.37805 0 0 0
32.22896 850.00128 0 0 0
32.23776 846.83862 0 0 0
32.24657 840.12079 0 0 0
32.25537 845.91211 0 0 0
32.26417 850.65686 0 0 0
32.27297 847.38324 0 0 0
32.28178 849.95734 0 0 0
32.29058 851.56799 0 0 0
32.29938 852.3772 0 0 0
32.30818 859.6651 0 0 0
32.31698 862.97595 0 0 0
32.32579 860.24988 0 0 0
32.33459 858.59906 0 0 0
32.34339 854.84595 0 0 0
32.35219 859.01416 0 0 0
32.36099 856.31183 0 0 0
32.36980 848.89722 0 0 0
32.37860 849.5036 0 0 0
32.38740 851.09113 0 0 0
32.39620 847.87781 0 0 0
32.40500 839.54645 0 0 0
32.41381 836.53271 0 0 0
32.42261 839.98297 0 0 0
32.43141 842.12921 0 0 0
32.44021 838.34644 0 0 0
32.44902 828.8443 0 0 0
32.45782 829.87146 0 0 0
32.46662 836.20282 0 0 0
32.47542 837.60504 0 0 0
32.48422 831.58185 0 0 0
32.49303 819.36639 0 0 0
32.50183 820.30853 0 0 0
32.51063 830.76392 0 0 0
32.51943 829.50189 0 0 0
32.52823 823.77948 0 0 0
32.53704 822.80988 0 0 0
32.54584 820.31799 0 0 0
32.55464 816.36926 0 0 0
32.56344 811.64612 0 0 0
32.57225 809.54608 0 0 0
32.58105 803.35773 0 0 0
32.58985 804.50134 0 0 0
32.59865 809.01257 0 0 0
32.60745 806.45807 0 0 0
32.61626 812.44586 0 0 0
32.62506 808.88562 0 0 0
32.63386 796.11731 0 0 0
32.64266 788.82629 0 0 0
32.65146 781.98132 0 0 0
32.66027 777.04846 0 0 0
32.66907 767.27582 0 0 0
32.67787 775.22742 0 0 0
32.68667 772.01593 0 0 0
32.69547 763.05518 0 0 0
32.70428 765.76733 0 0 0
32.71308 767.36993 0 0 0
32.72188 755.33264 0 0 0
32.73068 733.72144 0 0 0
32.73949 725.80878 0 0 0
32.74829 726.9054 0 0 0
32.75709 714.23389 0 0 0
32.76589 700.948 0 0 0
32.77469 681.37067 0 0 0
32.78350 657.849 0 0 0
32.79230 637.78088 0 0 0
32.80110 610.55865 0 0 0
32.80990 563.72064 0 0 0
32.81870 494.69611 0 0 0
32.82751 408.17667 0 0 0
32.83631 269.07178 0 0 0
32.84511 189.25449 0 0 0
32.85391 189.78961 0 0 0
32.86271 175.22144 0 0 0
32.87152 169.66692 0 0 0
32.88032 177.14133 0 0 0
32.88912 182.1656 0 0 0
32.89792 184.36938 0 0 0
32.90673 183.74126 0 0 0
32.91553 181.68999 0 0 0
32.92433 176.67485 0 0 0
32.93313 170.74443 0 0 0
32.94193 179.84193 0 0 0
32.95074 188.37706 0 0 0
32.95954 185.62068 0 0 0
32.96834 187.36835 0 0 0
32.97714 193.85329 0 0 0
32.98594 189.94266 0 0 0
32.99475 177.3231 0 0 0
33.00355 177.01294 0 0 0
33.01235 181.6348 0 0 0
33.02115 185.18797 0 0 0
33.02996 186.45169 0 0 0
33.03876 187.84442 0 0 0
33.04756 178.07556 0 0 0
33.05636 176.72835 0 0 0
33.06516 178.80959 0 0 0
33.07397 177.22929 0 0 0
33.08277 173.32973 0 0 0
33.09157 173.81471 0 0 0
33.10037 176.44202 0 0 0
33.10917 186.30811 0 0 0
33.11798 195.99809 0 0 0
33.12678 193.45644 0 0 0
33.13558 189.20737 0 0 0
33.14438 192.90201 0 0 0
33.15318 191.74597 0 0 0
33.16199 188.76175 0 0 0
33.17079 197.3445 0 0 0
33.17959 198.77898 0 0 0
33.18839 188.71066 0 0 0
33.19720 183.67035 0 0 0
33.20600 189.8725 0 0 0
33.21480 202.96512 0 0 0
33.22360 205.74907 0 0 0
33.23240 193.1044 0 0 0
33.24121 182.75598 0 0 0
33.25001 188.48477 0 0 0
33.25881 195.2253 0 0 0
33.26761 193.71037 0 0 0
33.27641 195.6662 0 0 0
33.28522 192.35806 0 0 0
33.29402 192.97145 0 0 0
33.30282 195.47023 0 0 0
33.31162 190.51355 0 0 0
33.32042 187.79114 0 0 0
33.32923 196.96924 0 0 0
33.33803 200.74879 0 0 0
33.34683 194.26842 0 0 0
33.35563 188.36861 0 0 0
33.36444 182.28227 0 0 0
33.37324 174.05676 0 0 0
33.38204 168.71591 0 0 0
33.39084 179.71677 0 0 0
33.39964 183.5331 0 0 0
33.40845 168.49799 0 0 0
33.41725 159.79225 0 0 0
33.42605 174.41061 0 0 0
33.43485 192.24905 0 0 0
33.44365 198.44412 0 0 0
33.45246 193.41087 0 0 0
33.46126 183.03705 0 0 0
33.47006 192.94345 0 0 0
33.47886 199.62254 0 0 0
33.48766 194.99878 0 0 0
33.49647 189.94411 0 0 0
33.50527 183.38591 0 0 0
33.51407 186.1519 0 0 0
33.52287 196.5387 0 0 0
33.53168 201.60661 0 0 0
33.54048 193.50378 0 0 0
33.54928 181.74545 0 0 0
33.55808 180.56213 0 0 0
33.56688 197.34676 0 0 0
33.57569 193.55943 0 0 0
33.58449 187.12875 0 0 0
33.59329 190.14435 0 0 0
33.60209 188.36314 0 0 0
33.61089 197.77332 0 0 0
33.61970 204.96193 0 0 0
33.62850 205.31441 0 0 0
33.63730 201.94073 0 0 0
33.64610 203.9847 0 0 0
33.65491 200.61996 0 0 0
33.66371 183.0762 0 0 0
33.67251 176.26967 0 0 0
33.68131 185.87735 0 0 0
33.69011 194.27492 0 0 0
33.69892 192.77263 0 0 0
33.70772 190.91499 0 0 0
33.71652 180.85474 0 0 0
33.72532 182.52994 0 0 0
33.73412 196.23627 0 0 0
33.74293 204.46121 0 0 0
33.75173 199.7308 0 0 0
33.76053 202.59024 0 0 0
33.76933 214.61595 0 0 0
33.77813 212.75072 0 0 0
33.78694 202.71036 0 0 0
33.79574 190.97427 0 0 0
33.80454 185.38785 0 0 0
33.81334 188.56932 0 0 0
33.82215 183.82715 0 0 0
33.83095 181.57532 0 0 0
33.83975 188.09155 0 0 0
33.84855 197.61966 0 0 0
33.85735 204.75722 0 0 0
33.86616 205.75983 0 0 0
33.87496 199.80865 0 0 0
33.88376 187.62981 0 0 0
33.89256 180.35735 0 0 0
33.90136 189.33742 0 0 0
33.91017 182.63718 0 0 0
33.91897 180.80783 0 0 0
33.92777 186.9473 0 0 0
33.93657 193.88422 0 0 0
33.94537 198.62889 0 0 0
33.95418 196.62149 0 0 0
33.96298 201.31612 0 0 0
33.97178 201.11195 0 0 0
33.98058 199.52002 0 0 0
33.98939 198.59506 0 0 0
33.99819 202.49371 0 0 0
34.00699 197.82619 0 0 0
34.01579 191.62018 0 0 0
34.02459 202.44972 0 0 0
34.03340 207.06987 0 0 0
34.04220 209.54312 0 0 0
34.05100 201.06914 0 0 0
34.05980 196.51427 0 0 0
34.06860 194.04411 0 0 0
34.07741 204.86665 0 0 0
34.08621 207.86655 0 0 0
34.09501 207.98921 0 0 0
34.10381 206.4687 0 0 0
34.11262 202.12416 0 0 0
34.12142 193.5498 0 0 0
34.13022 190.23422 0 0 0
34.13902 196.23441 0 0 0
34.14782 195.3486 0 0 0
34.15663 204.23065 0 0 0
34.16543 210.04344 0 0 0
34.17423 210.91811 0 0 0
34.18303 203.02467 0 0 0
34.19183 199.71512 0 0 0
34.20064 209.28697 0 0 0
34.20944 222.11415 0 0 0
34.21824 220.54283 0 0 0
34.22704 203.89189 0 0 0
34.23584 198.05469 0 0 0
34.24465 201.13953 0 0 0
34.25345 205.06862 0 0 0
34.26225 206.95428 0 0 0
34.27105 206.97542 0 0 0
34.27986 205.12314 0 0 0
34.28866 202.4408 0 0 0
34.29746 205.90607 0 0 0
34.30626 214.51537 0 0 0
34.31506 221.79874 0 0 0
34.32387 211.78465 0 0 0
34.33267 198.57707 0 0 0
34.34147 200.10791 0 0 0
34.35027 196.93692 0 0 0
34.35907 193.57941 0 0 0
34.36788 195.75681 0 0 0
34.37668 201.35835 0 0 0
34.38548 208.72031 0 0 0
34.39428 211.73677 0 0 0
34.40308 209.37645 0 0 0
34.41189 207.53949 0 0 0
34.42069 212.28499 0 0 0
34.42949 212.93394 0 0 0
34.43829 215.28279 0 0 0
34.44710 220.7545 0 0 0
34.45590 210.14001 0 0 0
34.46470 199.58582 0 0 0
34.47350 192.38011 0 0 0
34.48230 197.3466 0 0 0
34.49111 207.70598 0 0 0
34.49991 210.83865 0 0 0
34.50871 209.90785 0 0 0
34.51751 208.02167 0 0 0
34.52631 198.26141 0 0 0
34.53512 187.27794 0 0 0
34.54392 191.56448 0 0 0
34.55272 201.81599 0 0 0
34.56152 202.24103 0 0 0
34.57033 198.49725 0 0 0
34.57913 198.24159 0 0 0
34.58793 200.69133 0 0 0
34.59673 199.95126 0 0 0
34.60553 206.63542 0 0 0
34.61434 207.70598 0 0 0
34.62314 206.17209 0 0 0
34.63194 207.90086 0 0 0
34.64074 211.39395 0 0 0
34.64954 212.25618 0 0 0
34.65835 211.45602 0 0 0
34.66715 210.93784 0 0 0
34.67595 212.11369 0 0 0
34.68475 203.49292 0 0 0
34.69355 191.31241 0 0 0
34.70236 192.34775 0 0 0
34.71116 217.73482 0 0 0
34.71996 232.22504 0 0 0
34.72876 213.42186 0 0 0
34.73757 203.95082 0 0 0
34.74637 206.56285 0 0 0
34.75517 214.91826 0 0 0
34.76397 199.17659 0 0 0
34.77277 202.64375 0 0 0
34.78158 212.0694 0 0 0
34.79038 209.11366 0 0 0
34.79918 204.67197 0 0 0
34.80798 206.79224 0 0 0
34.81678 203.66582 0 0 0
34.82559 199.56055 0 0 0
34.83439 202.84392 0 0 0
34.84319 214.55957 0 0 0
34.85199 207.02299 0 0 0
34.86079 203.16599 0 0 0
34.86960 211.58467 0 0 0
34.87840 223.51573 0 0 0
34.88720 221.57942 0 0 0
34.89600 202.59712 0 0 0
34.90481 181.83116 0 0 0
34.91361 182.77791 0 0 0
34.92241 194.59241 0 0 0
34.93121 210.8147 0 0 0
34.94001 211.64076 0 0 0
34.94882 208.75441 0 0 0
34.95762 210.26663 0 0 0
34.96642 208.21301 0 0 0
34.97522 206.28877 0 0 0
34.98402 205.78142 0 0 0
34.99283 207.311 0 0 0
35.00163 209.59122 0 0 0
35.01043 210.80328 0 0 0
35.01923 207.59497 0 0 0
35.02804 205.31244 0 0 0
35.03684 207.29243 0 0 0
35.04564 208.89685 0 0 0
35.05444 210.23553 0 0 0
35.06324 212.22581 0 0 0
35.07205 216.02477 0 0 0
35.08085 213.68216 0 0 0
35.08965 206.30762 0 0 0
35.09845 207.01064 0 0 0
35.10725 214.6132 0 0 0
35.11606 226.77219 0 0 0
35.12486 226.32886 0 0 0
35.13366 217.11691 0 0 0
35.14246 204.13077 0 0 0
35.15126 194.02658 0 0 0
35.16007 206.10062 0 0 0
35.16887 221.23477 0 0 0
35.17767 223.52495 0 0 0
35.18647 212.55772 0 0 0
35.19528 206.85396 0 0 0
35.20408 210.51022 0 0 0
loop_
_gsas_i100_meas
0.05
13.56
3.54
3.14
4.46
0.49
8.48
10.13
5.03
100.00
12.94
0.10
12.97
0.43
9.07
33.08
0.09
17.17
3.23
5.69
1.70
0.46
1.69
-0.91
2.71
35.00
8.39
20.89
0.64
0.22
-0.28
2.95
0.08
2.53
1.52
-0.83
0.34
0.67
7.01
7.80
7.84
1.45
1.38
0.14
0.03
0.43
0.68
0.26
21.00
0.48
4.77
2.40
1.28
0.00
2.99
0.64
0.14
5.30
2.99
0.32
0.00
12.45
24.15
0.04
1.50
-1.19
1.81
2.38
-0.40
0.82
0.75
0.00
1.82
2.81
0.00
1.56
1.74
2.66
0.35
2.90
-0.25
1.35
-0.00
1.22
0.02
1.62
2.65
24.54
0.00
0.79
1.16
0.95
0.43
0.01
0.00
0.30
0.21
0.74
6.90
2.48
0.02
1.85
1.12
0.08
0.16
3.16
0.18
0.01
0.19
-0.03
0.57
0.69
0.12
0.33
0.13
0.55
-0.02
0.00
0.05
0.05
0.92
0.68
0.12
2.11
0.02
5.39
0.12
6.18
6.57
0.90
0.16
0.01
0.09
2.06
0.13
1.61
-0.00
0.72
0.97
0.17
0.17
0.61
1.79
0.01
-0.22
8.53
0.18
4.32
0.07
1.23
8.73
0.00
0.21
0.24
-0.49
0.06
-0.08
1.46
0.39
4.56
0.05
0.11
1.66
0.02
1.65
0.35
1.66
0.58
0.06
0.00
1.08
0.03
0.12
0.41
0.31
1.82
1.03
0.00
0.57
0.25
0.02
0.00
0.25
0.31
0.05
0.28
0.18
0.06
0.00
0.12
0.07
0.01
0.07
0.20
0.64
0.38
3.49
-0.01
0.09
7.65
1.39
-0.16
0.39
0.28
0.53
0.72
-0.08
0.00
0.50
0.50
0.12
1.15
0.50
0.45
1.24
5.89
0.83
1.39
-0.00
0.05
0.29
0.00
0.49
0.89
0.07
0.00
0.01
1.10
0.89
0.28
0.18
0.34
0.34
0.37
0.52
3.04
0.29
0.01
0.35
1.09
2.71
0.01
-0.00
1.03
0.15
0.11
0.21
-0.19
0.31
0.45
0.52
0.01
0.00
0.01
-0.01
0.57
0.51
0.83
0.64
0.59
2.57
0.01
0.26
0.16
0.44
0.02
0.92
0.00
0.01
0.80
-0.13
0.00
1.11
0.00
4.65
3.10
