#------------------------------------------------------------------------------
#$Date: 2021-09-06 13:32:23 +0300 (Mon, 06 Sep 2021) $
#$Revision: 268688 $
#$URL: file:///home/coder/svn-repositories/cod/cif/7/24/27/7242766.cif $
#------------------------------------------------------------------------------
#
# This file is available in the Crystallography Open Database (COD),
# http://www.crystallography.net/
#
# All data on this site have been placed in the public domain by the
# contributors.
#
data_7242766
loop_
_publ_author_name
'Rather, Sumair A.'
'Saha, Binoy K.'
_publ_section_title
;
 Understanding the elastic bending mechanism in a 9,10-anthraquinone
 crystal through thermal expansion study
;
_journal_issue                   34
_journal_name_full               CrystEngComm
_journal_page_first              5768
_journal_page_last               5773
_journal_paper_doi               10.1039/D1CE00467K
_journal_volume                  23
_journal_year                    2021
_chemical_formula_moiety         'C14 H8 O2'
_chemical_formula_sum            'C14 H8 O2'
_chemical_formula_weight         208.20
_chemical_name_common            Anthraquinone
_chemical_name_systematic        9,10-Anthracenedione
_space_group_crystal_system      monoclinic
_space_group_IT_number           14
_space_group_name_Hall           '-P 2ybc'
_space_group_name_H-M_alt        'P 1 21/c 1'
_atom_sites_solution_hydrogens   geom
_audit_creation_date             2021-03-31
_audit_creation_method
;
Olex2 1.3-alpha
(compiled 2019.09.11 svn.r3662 for OlexSys, GUI svn.r5938)
;
_audit_update_record
;
2021-04-06 deposited with the CCDC.	2021-05-03 downloaded from the CCDC.
;
_cell_angle_alpha                90
_cell_angle_beta                 102.696(6)
_cell_angle_gamma                90
_cell_formula_units_Z            2
_cell_length_a                   7.8662(4)
_cell_length_b                   3.9660(3)
_cell_length_c                   15.7823(11)
_cell_measurement_reflns_used    1235
_cell_measurement_temperature    298
_cell_measurement_theta_max      29.0856
_cell_measurement_theta_min      3.2094
_cell_volume                     480.33(6)
_computing_cell_refinement
;
CrysAlisPro, Agilent Technologies,
Version 1.171.36.21 (release 14-08-2012 CrysAlis171 .NET)
(compiled Sep 14 2012,17:21:16)
;
_computing_data_collection
;
CrysAlisPro, Agilent Technologies,
Version 1.171.36.21 (release 14-08-2012 CrysAlis171 .NET)
(compiled Sep 14 2012,17:21:16)
;
_computing_data_reduction
;
CrysAlisPro, Agilent Technologies,
Version 1.171.36.21 (release 14-08-2012 CrysAlis171 .NET)
(compiled Sep 14 2012,17:21:16)
;
_computing_molecular_graphics    'Olex2 1.3-alpha (Dolomanov et al., 2009)'
_computing_publication_material  'Olex2 1.3-alpha (Dolomanov et al., 2009)'
_computing_structure_refinement  'ShelXL 2018/3 (Sheldrick, 2015)'
_computing_structure_solution    'ShelXS n/a (Sheldrick, 2008)'
_diffrn_ambient_temperature      298.00(2)
_diffrn_detector_area_resol_mean 15.9821
_diffrn_measured_fraction_theta_full 0.998
_diffrn_measured_fraction_theta_max 0.904
_diffrn_measurement_details
;
#__ type_ start__ end____ width___ exp.time_
  1 omega  -28.00   45.00   1.0000   12.0000
omega____ theta____ kappa____ phi______ frames
    -      -16.9491   77.0000  -60.0000 73

#__ type_ start__ end____ width___ exp.time_
  2 omega  -47.00   44.00   1.0000   12.0000
omega____ theta____ kappa____ phi______ frames
    -      -16.9491   77.0000  -90.0000 91

#__ type_ start__ end____ width___ exp.time_
  3 omega  -47.00   47.00   1.0000   12.0000
omega____ theta____ kappa____ phi______ frames
    -      -16.9491   77.0000   30.0000 94

#__ type_ start__ end____ width___ exp.time_
  4 omega   -9.00   82.00   1.0000   12.0000
omega____ theta____ kappa____ phi______ frames
    -       19.6835   77.0000 -180.0000 91

#__ type_ start__ end____ width___ exp.time_
  5 omega   -3.00   24.00   1.0000   12.0000
omega____ theta____ kappa____ phi______ frames
    -       19.6835   77.0000  150.0000 27

#__ type_ start__ end____ width___ exp.time_
  6 omega  -78.00  -31.00   1.0000   12.0000
omega____ theta____ kappa____ phi______ frames
    -      -16.9491  131.0000   90.0000 47

#__ type_ start__ end____ width___ exp.time_
  7 omega  -90.00   27.00   1.0000   12.0000
omega____ theta____ kappa____ phi______ frames
    -      -16.9491  -19.0000  -90.0000 117
;
_diffrn_measurement_device_type  'Xcalibur, Eos'
_diffrn_measurement_method       '\w scans'
_diffrn_radiation_type           MoK\a
_diffrn_radiation_wavelength     0.71073
_diffrn_reflns_av_R_equivalents  0.0283
_diffrn_reflns_av_unetI/netI     0.0253
_diffrn_reflns_Laue_measured_fraction_full 0.998
_diffrn_reflns_Laue_measured_fraction_max 0.904
_diffrn_reflns_limit_h_max       10
_diffrn_reflns_limit_h_min       -10
_diffrn_reflns_limit_k_max       5
_diffrn_reflns_limit_k_min       -5
_diffrn_reflns_limit_l_max       20
_diffrn_reflns_limit_l_min       -20
_diffrn_reflns_number            4877
_diffrn_reflns_point_group_measured_fraction_full 0.998
_diffrn_reflns_point_group_measured_fraction_max 0.904
_diffrn_reflns_theta_full        25.000
_diffrn_reflns_theta_max         29.150
_diffrn_reflns_theta_min         3.311
_exptl_absorpt_coefficient_mu    0.096
_exptl_absorpt_correction_T_max  1.00000
_exptl_absorpt_correction_T_min  0.67900
_exptl_absorpt_correction_type   multi-scan
_exptl_absorpt_process_details
;
CrysAlisPro, Agilent Technologies,
Version 1.171.36.21 (release 14-08-2012 CrysAlis171 .NET)
(compiled Sep 14 2012,17:21:16)
Empirical absorption correction using spherical harmonics,
 implemented in SCALE3 ABSPACK scaling algorithm.
;
_exptl_crystal_colour            yellow
_exptl_crystal_colour_primary    yellow
_exptl_crystal_density_diffrn    1.440
_exptl_crystal_description       block
_exptl_crystal_F_000             216
_exptl_crystal_size_max          0.62
_exptl_crystal_size_mid          0.26
_exptl_crystal_size_min          0.16
_refine_diff_density_max         0.119
_refine_diff_density_min         -0.182
_refine_diff_density_rms         0.041
_refine_ls_extinction_method     none
_refine_ls_goodness_of_fit_ref   1.046
_refine_ls_hydrogen_treatment    constr
_refine_ls_matrix_type           full
_refine_ls_number_parameters     73
_refine_ls_number_reflns         1172
_refine_ls_number_restraints     0
_refine_ls_restrained_S_all      1.046
_refine_ls_R_factor_all          0.0724
_refine_ls_R_factor_gt           0.0467
_refine_ls_shift/su_max          0.000
_refine_ls_shift/su_mean         0.000
_refine_ls_structure_factor_coef Fsqd
_refine_ls_weighting_details
'w=1/[\s^2^(Fo^2^)+(0.0662P)^2^+0.0511P] where P=(Fo^2^+2Fc^2^)/3'
_refine_ls_weighting_scheme      calc
_refine_ls_wR_factor_gt          0.1153
_refine_ls_wR_factor_ref         0.1374
_reflns_Friedel_coverage         0.000
_reflns_number_gt                822
_reflns_number_total             1172
_reflns_threshold_expression     'I > 2\s(I)'
_cod_data_source_file            d1ce00467k2.cif
_cod_data_source_block           anthraquinone-298k
_cod_depositor_comments
'Adding full bibliography for 7242759--7242768.cif.'
_cod_original_cell_volume        480.32(6)
_cod_database_code               7242766
_shelx_shelxl_version_number     2018/3
_shelx_space_group_comment
;
The symmetry employed for this shelxl refinement is uniquely defined
by the following loop, which should always be used as a source of
symmetry information in preference to the above space-group names.
They are only intended as comments.
;
_shelx_estimated_absorpt_t_max   0.985
_shelx_estimated_absorpt_t_min   0.943
_olex2_refinement_description
;
1. Fixed Uiso
 At 1.2 times of:
  All C(H) groups
2.a Aromatic/amide H refined with riding coordinates:
 C5(H5), C3(H3), C6(H6), C4(H4)
;
_shelx_res_file
;
TITL BKS-SS-DI-ANTH-298K-SS in P21/c #14
    anthraquinone-298k.res
    created by SHELXL-2018/3 at 17:45:33 on 31-Mar-2021
REM reset to P21/c #14
CELL 0.71073 7.866219 3.965976 15.782305 90 102.6965 90
ZERR 2 0.000447 0.00026 0.001133 0 0.0063 0
LATT 1
SYMM -X,0.5+Y,0.5-Z
SFAC C H O
UNIT 28 16 4

L.S. 4
PLAN  5
SIZE 0.62 0.26 0.16
TEMP 24.85(2)
CONF
BOND $H
HTAB
MORE -1
fmap 2
acta 50
REM <olex2.extras>
REM <HklSrc "%.\\Anthraquinone-298K.hkl">
REM </olex2.extras>

WGHT    0.066200    0.051100
FVAR      13.72165
C2    1    0.437342    0.652874    0.415220    11.00000    0.04366    0.04237 =
         0.03761   -0.00451    0.00873   -0.00361
C7    1    0.326411    0.639684    0.473457    11.00000    0.03845    0.04282 =
         0.04266   -0.00571    0.01024   -0.00412
C1    1    0.616148    0.512257    0.439622    11.00000    0.04295    0.05395 =
         0.04349   -0.00410    0.01604   -0.00349
C5    1    0.102100    0.913481    0.367679    11.00000    0.04629    0.05515 =
         0.06598   -0.00360   -0.00155    0.00409
AFIX  43
H5    2   -0.010004    1.001381    0.351753    11.00000   -1.20000
AFIX   0
O1    3    0.712911    0.522237    0.388802    11.00000    0.05826    0.11629 =
         0.05825    0.01432    0.03183    0.01267
C3    1    0.377955    0.797343    0.333973    11.00000    0.06088    0.05452 =
         0.04225   -0.00074    0.01331   -0.00217
AFIX  43
H3    2    0.451187    0.807553    0.295114    11.00000   -1.20000
AFIX   0
C6    1    0.158798    0.771197    0.448415    11.00000    0.04147    0.05281 =
         0.05860   -0.00469    0.01140    0.00153
AFIX  43
H6    2    0.084340    0.762748    0.486703    11.00000   -1.20000
AFIX   0
C4    1    0.211169    0.925967    0.310359    11.00000    0.06479    0.05530 =
         0.04676    0.00148   -0.00248    0.00228
AFIX  43
H4    2    0.172367    1.021198    0.255673    11.00000   -1.20000
AFIX   0
HKLF 4




REM  BKS-SS-DI-ANTH-298K-SS in P21/c #14
REM wR2 = 0.1374, GooF = S = 1.046, Restrained GooF = 1.046 for all data
REM R1 = 0.0467 for 822 Fo > 4sig(Fo) and 0.0724 for all 1172 data
REM 73 parameters refined using 0 restraints

END

WGHT      0.0662      0.0511

REM No hydrogen bonds found for HTAB generation

REM Highest difference peak  0.119,  deepest hole -0.182,  1-sigma level  0.041
Q1    1   0.4947  0.7889  0.2824  11.00000  0.05    0.12
Q2    1   0.0849  0.7908  0.5185  11.00000  0.05    0.11
Q3    1   0.2050  1.1283  0.4558  11.00000  0.05    0.11
Q4    1   0.2060  1.0061  0.5193  11.00000  0.05    0.10
Q5    1   0.6854  0.7931  0.5210  11.00000  0.05    0.10
;
_shelx_res_checksum              83191
_shelx_hkl_file
;
   0   0  -3-59.3614 40.2669   2
   0   0   3 12.1389 45.7484   4
   0   0  -4 203441. 1854.70   1
   0   0  -4 199171. 2002.63   2
   0   0   4 201622. 1995.98   2
   0   0  -5-23.8889 36.0310   1
   0   0   5-121.828 94.6961   4
   0   0   5-101.930 73.7027   2
   0   0  -5-45.5082 66.2308   2
   0   0   6 1101.18 145.406   2
   0   0   6 734.120 159.798   4
   0   0  -6 1099.17 148.804   2
   0   0  -6 1214.95 123.710   1
   0   0   7-35.8087 39.7892   2
   0   0  -7 31.8397 28.8983   1
   0   0  -7-6.03189 43.1189   2
   0   0   8 26362.5 823.193   2
   0   0  -8 27192.6 706.351   1
   0   0  -8 25526.0 805.850   2
   0   0  -9 8.40190 57.1598   2
   0   0   9 100.317 64.0008   2
   0   0  -9 84.8929 48.8742   1
   0   0  10 572.054 139.036   2
   0   0 -10 585.401 107.553   1
   0   0  11 35.1496 53.7937   2
   0   0 -11 11.7123 52.1523   1
   0   0  12 1165.57 217.093   2
   0   0  13-32.6785 94.9406   2
   0   0 -14 4579.10 601.590   3
   0   0  14 4966.34 471.692   2
   0   0  15-49.3997 97.1827   2
   0   0 -15 152.602 296.141   3
   0   0  16 732.324 182.364   2
   0   0 -16 276.839 253.006   3
   0   0 -17-424.508 356.936   3
   0   0 -18-856.952 441.318   3
   0   0 -19-169.141 292.673   3
   0  -1   0 122.908 82.8787   6
   0   1   0 16.4263 31.0042   2
   0  -1   0 53.1605 46.9235   3
   0   1   0-14.2882 53.5407   6
   0   1   0 9.84255 31.5460   1
   0  -1   0-23.9944 46.3393   2
   0   1   0 11.7837 38.1726   3
   0  -1   1 168005. 1929.57   6
   0   1   1 165876. 1772.47   2
   0  -1   1 159904. 1922.38   2
   0   1  -1 167147. 1825.55   4
   0   1  -1 166054. 1837.95   3
   0   1  -1 168594. 1923.22   2
   0  -1  -1 167039. 1924.41   6
   0   1  -1 164226. 1899.82   1
   0   1  -1 165687. 1909.94   6
   0   1   1 166775. 1713.32   1
   0  -1  -1 170240. 1881.12   3
   0   1   1 170310. 1916.48   6
   0   1   1 167470. 1875.89   3
   0  -1  -2 585892. 4841.59   3
   0   1   2 596742. 4879.02   3
   0   1  -2 566357. 4555.38   5
   0   1   2 587581. 4802.53   6
   0  -1   2 593098. 5001.33   2
   0  -1  -2 586454. 4833.81   6
   0   1  -2 578169. 4925.95   1
   0  -1   2 603877. 4303.43   7
   0   1   2 580682. 4581.35   2
   0   1   2 600464. 4400.74   1
   0   1  -2 578406. 4810.54   6
   0   1  -2 589907. 4951.51   2
   0  -1   2 587458. 4843.40   6
   0  -1   2 595678. 4761.64   4
   0   1  -2 594600. 4778.83   4
   0   1  -3 194191. 2186.48   4
   0  -1   3 191957. 1873.80   5
   0  -1  -3 187991. 2218.36   3
   0  -1   3 190486. 2112.48   6
   0  -1   3 189535. 1903.20   7
   0   1   3 191410. 2290.84   3
   0  -1   3 189528. 2112.70   4
   0   1   3 189670. 1619.96   1
   0   1   3 191836. 2103.29   6
   0  -1  -3 190816. 2114.26   6
   0   1  -3 191580. 2298.66   2
   0   1  -3 189447. 2112.44   6
   0   1  -3 190417. 2269.53   1
   0  -1   3 186033. 2336.74   2
   0  -1  -4 28013.2 810.954   3
   0   1  -4 27815.0 807.552   2
   0   1   4 27004.9 668.733   6
   0   1  -4 27629.9 785.316   1
   0  -1   4 27215.1 593.125   5
   0  -1  -4 27094.3 672.393   6
   0   1  -4 26819.5 770.419   4
   0  -1   4 26601.9 814.164   2
   0   1   4 28436.0 837.029   3
   0  -1   4 27754.9 727.260   4
   0   1  -4 27870.9 680.063   6
   0  -1   4 27021.3 672.182   6
   0  -1   4 26766.6 663.740   7
   0  -1   5 137168. 2113.33   2
   0  -1   5 141066. 1653.59   5
   0   1   5 145032. 2252.88   3
   0   1  -5 145138. 1780.57   6
   0  -1  -5 141940. 2126.77   3
   0   1  -5 142851. 2089.44   2
   0  -1   5 142547. 1929.61   4
   0  -1   5 138425. 1734.88   6
   0   1  -5 141367. 2036.65   1
   0   1  -5 142977. 2009.77   4
   0  -1  -5 139309. 1738.74   6
   0   1   5 140549. 1761.57   6
   0  -1  -6 44096.2 1184.52   3
   0   1  -6 46288.6 932.373   6
   0  -1   6 46817.9 1107.52   4
   0  -1   6 44722.5 1187.14   2
   0  -1   6 43520.8 872.121   6
   0  -1  -6 46005.1 893.517   6
   0   1  -6 45495.3 1152.73   4
   0   1   6 45817.6 925.282   6
   0  -1   7 28503.7 984.956   2
   0  -1  -7 27442.2 972.306   3
   0   1  -7 27528.1 928.308   4
   0  -1   7 25603.4 644.341   6
   0  -1  -7 27237.0 664.283   6
   0   1   8 15461.2 535.592   2
   0  -1   8 18737.5 826.771   2
   0   1  -8 15670.7 735.073   4
   0  -1  -8 17468.1 820.843   3
   0   1  -9 5505.37 471.797   4
   0  -1   9 6919.82 530.560   2
   0  -1  -9 5961.70 508.828   3
   0   1   9 6027.99 334.416   2
   0  -1 -10 2584.51 358.194   3
   0   1 -10 2767.41 356.057   4
   0   1  10 2728.40 238.772   2
   0  -1  10 3021.57 360.299   2
   0  -1 -11-147.783 168.750   3
   0   1 -11-17.9934 84.1971   4
   0  -1  11-81.9421 89.6539   2
   0   1  11 20.8611 51.5408   2
   0   1 -12 1193.24 260.701   4
   0   1  12 1242.16 179.296   2
   0  -1 -12 1479.00 310.864   3
   0  -1  12 1453.36 275.471   2
   0   1  13-20.7757 74.6074   2
   0  -1  13-87.4579 119.768   2
   0  -1  14 1653.41 332.561   2
   0  -1 -14 1107.18 327.718   3
   0  -1  15 1066.29 256.711   2
   0  -1 -15 1411.61 405.089   3
   0  -1  16 144.622 88.6410   2
   0  -1 -16 33.7126 207.101   3
   0  -1  17 55.4249 92.7375   2
   0  -1 -17-553.747 263.843   3
   0  -1  18 114.528 147.081   2
   0  -1 -18 165.970 209.549   3
   0  -2   0 11262.8 564.297   3
   0  -2   0 9984.94 573.942   2
   0  -2   0 11609.1 605.748   6
   0   2   1 16393.6 634.012   1
   0  -2   1 15221.6 688.121   2
   0  -2  -1 15731.7 699.795   3
   0  -2  -1 16010.4 711.611   6
   0  -2   1 16279.8 714.672   6
   0   2  -1 15388.7 664.359   4
   0   2   1 15802.3 651.596   2
   0   2   1 14139.4 424.082   7
   0  -2   2 3472.58 336.139   2
   0  -2  -2 3004.74 299.242   3
   0   2  -2 3299.87 303.667   4
   0   2   2 3032.48 277.197   2
   0  -2   2 3134.37 312.893   6
   0  -2  -2 3275.93 310.534   6
   0   2   2 3364.39 271.125   1
   0   2  -2 3140.70 290.235   5
   0   2   2 3188.25 227.257   7
   0   2  -3 29542.3 872.966   5
   0  -2   3 31694.4 1004.64   6
   0  -2  -3 31906.2 1012.37   6
   0  -2  -3 32078.6 1001.66   3
   0   2   3 30815.8 868.978   2
   0   2   3 30990.5 796.583   1
   0   2  -3 30683.5 948.423   4
   0  -2   3 33263.9 1104.77   2
   0   2  -4 19117.2 700.517   5
   0   2   4 19693.3 582.587   1
   0  -2   4 20596.4 811.470   6
   0  -2   4 18700.3 506.956   7
   0  -2  -4 21162.3 829.865   3
   0  -2  -4 21193.0 824.361   6
   0   2  -4 18282.6 771.076   4
   0  -2   4 21638.1 923.864   2
   0   2   4 21162.8 709.757   2
   0   2   5 65338.9 1028.80   1
   0  -2  -5 66712.9 1554.92   3
   0  -2   5 67548.1 1199.90   7
   0  -2   5 68376.5 1530.98   6
   0  -2   5 69030.6 1730.11   2
   0   2   5 67844.8 1311.19   2
   0   2  -5 65612.5 1537.88   4
   0  -2   6 7574.88 581.626   2
   0   2  -6 6534.47 535.753   4
   0   2   6 7199.86 413.912   2
   0  -2   6 6738.40 388.805   7
   0  -2  -6 7902.98 495.254   6
   0  -2  -6 7709.95 549.768   3
   0  -2   6 7641.56 492.151   6
   0  -2  -7 4882.79 400.643   6
   0  -2   7 4037.74 326.541   7
   0   2   7 4528.01 328.630   2
   0  -2   7 4781.13 399.776   6
   0  -2  -7 5205.92 467.480   3
   0  -2   7 5176.86 506.225   2
   0   2  -7 4257.46 444.362   4
   0  -2  -8 6060.39 515.530   3
   0  -2   8 4869.79 408.945   6
   0   2  -8 4694.50 486.858   4
   0  -2   8 5579.19 536.019   2
   0  -2  -8 5834.99 438.399   6
   0   2  -9 171.012 129.840   4
   0  -2  -9 137.416 105.955   3
   0  -2   9 86.2870 86.9927   2
   0   2 -10 2964.06 424.756   4
   0  -2  10 3988.75 483.377   2
   0  -2 -10 3981.64 449.319   3
   0   2  10 2504.81 261.958   2
   0  -2 -11 744.598 230.674   3
   0   2 -11 529.026 180.446   4
   0  -2  11 587.051 194.425   2
   0  -2 -12 3202.05 447.913   3
   0   2 -12 3651.40 470.758   4
   0  -2  12 3287.34 482.012   2
   0   2 -13 4257.01 522.440   4
   0  -2  13 4730.52 590.872   2
   0  -2 -13 5332.18 582.856   3
   0  -2 -14 65.6287 129.242   3
   0   2 -14 85.6531 107.313   4
   0  -2  14 298.977 150.240   2
   0   2 -15 5297.78 619.251   4
   0  -2 -15 6053.05 703.683   3
   0  -2  15 4708.12 623.823   2
   0  -2  16 4878.17 646.357   2
   0  -2 -16 5920.02 705.202   3
   0  -2 -17-595.879 312.154   3
   0  -2  17-181.675 299.819   2
   0  -2  18-108.720 169.989   2
   0  -2  19 115.299 131.220   2
   0  -3   0 56.1211 95.7351   6
   0  -3   0 43.9059 83.5538   3
   0  -3  -1 226.948 119.811   6
   0  -3  -1 329.716 122.423   3
   0  -3   1 200.722 115.712   6
   0  -3   1 247.567 121.082   2
   0   3   1 93.0701 33.5011   7
   0   3  -1 179.482 116.326   4
   0  -3   2 7252.93 592.812   6
   0  -3  -2 7394.45 592.892   6
   0   3   2 6305.43 361.213   7
   0   3  -2 6518.72 534.896   5
   0  -3   2 6409.83 606.614   2
   0   3  -2 6650.66 549.066   4
   0  -3  -2 7264.86 580.314   3
   0  -3  -3 5421.14 502.546   6
   0   3  -3 4465.51 432.680   5
   0  -3   3 4374.20 455.917   6
   0   3   3 4989.95 349.622   7
   0  -3  -3 5645.44 521.380   3
   0  -3   3 5292.95 536.317   2
   0   3  -3 4837.02 471.395   4
   0  -3  -4 584.659 190.050   3
   0   3  -4 622.351 181.006   5
   0  -3   4 758.301 236.604   6
   0  -3  -4 797.739 206.690   6
   0   3  -4 554.265 183.829   4
   0  -3   4 716.855 208.492   2
   0   3   4 529.312 117.819   7
   0   3  -5 435.270 171.920   4
   0  -3   5 557.799 185.703   6
   0  -3  -5 528.109 182.597   3
   0  -3  -5 448.212 148.528   6
   0   3   5 548.202 145.400   7
   0  -3   5 508.078 198.646   2
   0   3  -5 336.455 133.903   5
   0  -3   6 728.791 195.867   6
   0  -3   6 712.418 193.499   2
   0  -3  -6 1158.91 246.747   3
   0   3  -6 1029.96 245.355   4
   0  -3  -6 941.757 229.976   6
   0   3   6 1262.01 234.666   7
   0  -3  -7 2.05973 76.7826   3
   0   3  -7 247.641 158.179   4
   0  -3   7 6.46934 105.237   2
   0   3   7-62.0369 64.1432   7
   0  -3  -7 9.62495 67.1716   6
   0  -3   7-80.0984 73.6163   6
   0  -3  -8 1172.39 264.720   3
   0  -3   8 1047.07 261.814   2
   0  -3   8 1056.48 233.902   6
   0  -3  -8 1280.79 279.895   6
   0   3  -8 1472.23 306.562   4
   0  -3  -9 2730.26 413.767   3
   0   3  -9 2874.15 418.165   4
   0  -3   9 3054.25 475.766   2
   0   3 -10 264.254 122.644   4
   0  -3  10 443.534 241.617   2
   0  -3 -10 665.665 219.286   3
   0  -3 -11 1587.56 333.941   3
   0  -3  11 1401.83 326.544   2
   0   3 -11 1789.48 364.779   4
   0  -3 -12 1900.93 382.231   3
   0  -3  12 1613.48 382.580   2
   0   3 -12 1745.81 369.810   4
   0  -3  13-161.176 159.861   2
   0   3 -13-148.296 155.554   4
   0  -3 -13 172.254 164.600   3
   0  -3 -14 47.3788 127.490   3
   0  -3  14 122.072 161.002   2
   0  -3 -15 297.910 194.846   3
   0  -3  15 274.422 218.830   2
   0  -3 -16 2143.13 445.777   3
   0  -4   0-231.539 177.195   6
   0   4   0 258.733 161.426   4
   0   4  -1 428.703 215.219   5
   0  -4   1 439.342 179.358   6
   0   4  -1 403.514 157.550   4
   0   4   1 447.714 178.472   4
   0  -4  -1 318.748 164.336   6
   0   4  -2 61.7742 112.907   4
   0  -4  -2 30.1979 126.875   3
   0  -4  -2-166.222 163.268   6
   0   4  -2 150.517 162.080   5
   0  -4   2-12.2564 108.089   6
   0  -4  -3 41.1158 120.189   3
   0   4  -3-130.512 130.872   4
   0  -4  -3-91.2803 117.776   6
   0  -4   3 152.877 124.293   6
   0   4  -3 210.897 143.653   5
   0  -4  -4 113.455 88.0587   6
   0   4  -4 172.250 163.433   4
   0  -4   4-238.656 157.970   2
   0  -4  -4-111.329 147.429   3
   0   4  -4 111.554 129.164   5
   0  -4   4-138.702 99.7314   6
   0   4  -5-68.2939 120.592   4
   0  -4   5 94.9027 133.400   6
   0  -4   5-46.1661 92.6311   2
   0  -4  -5-192.702 157.966   3
   0   4  -5 11.8262 137.213   5
   0  -4  -5 65.1705 83.3080   6
   0  -4  -6 145.641 127.386   3
   0  -4   6 197.413 100.641   2
   0   4  -6 342.507 194.457   4
   0  -4   7 171.329 136.673   2
   0   4  -7 306.604 174.975   4
   0  -4  -7 142.340 119.740   3
   0   4  -8 726.449 216.744   4
   0  -4   8 781.488 263.059   2
   0  -4  -8 1269.27 302.734   3
   0   4  -9-214.064 155.474   4
   0  -4   9-234.761 167.356   2
   0  -4  -9-146.133 150.886   3
   0  -4  10 1351.14 375.958   2
   0  -4 -10 2215.40 427.193   3
   0  -4  11 1228.29 351.531   2
   0  -4 -11 1787.08 376.269   3
   0  -4 -12 16.5719 97.8729   3
   0  -4 -13-152.526 190.120   3
   0   5   0-71.5223 121.827   5
   0   5   0-157.189 170.223   4
   0   5  -1 287.001 206.801   5
   0   5   1-27.4926 100.782   5
   0   5   1 1.66765 108.476   4
   0   5  -1 261.572 176.224   4
   0   5   2-53.4382 152.046   4
   0   5  -2-272.790 259.232   4
   0   5   2-297.249 216.518   5
   0   5   3 175.639 141.637   4
   0  -5  -4 800.081 261.520   3
   0  -5  -5 586.370 215.676   3
   0  -5  -6 112.659 122.760   3
   0  -5  -7 147.575 136.439   3
   0  -5  -8-178.345 158.135   3
   1   0 -19 555.776 402.339   3
   1   0 -18-47.4925 283.354   3
  -1   0  17 418.606 185.650   2
   1   0 -17-50.7987 330.535   3
  -1   0  16 58.4605 100.467   2
  -1   0  15-15.0327 68.6811   2
  -1   0  14 1639.06 290.552   2
  -1   0  13 182.879 102.321   2
  -1   0  12 28666.1 1068.34   2
  -1   0  11 40.1582 60.8287   2
   1   0 -11 72.5710 61.9344   1
  -1   0  10 235.712 116.159   2
   1   0 -10 87.0908 33.8503   1
  -1   0   9-29.6700 60.1474   2
   1   0  -9-48.3218 54.9042   1
  -1   0   8 21345.6 662.436   1
  -1   0   8 20284.4 761.127   2
   1   0  -8 20754.6 639.287   1
   1   0  -7 82.2232 51.1700   1
  -1   0   7 150.370 65.8914   1
  -1   0   7 83.7517 86.5318   4
  -1   0   7 37.9784 78.1999   2
  -1   0   6 77775.9 1511.85   7
  -1   0   6 81799.2 1224.17   1
  -1   0   6 82817.3 1439.62   2
   1   0  -6 80258.3 1232.28   1
  -1   0   5-118.236 63.4578   7
  -1   0   5 85.4316 43.6407   1
  -1   0   5-77.6325 70.9312   2
   1   0  -5 2.81524 45.4139   1
  -1   0   4 89771.4 1358.57   2
  -1   0   4 93070.1 1413.43   7
   1   0  -4 92470.3 1216.29   1
   1   0  -4 90375.0 1413.59   7
  -1   0   4 90747.0 1146.60   1
  -1   0   3-18.2272 37.3567   1
  -1   0   3 115.809 65.6970   2
   1   0  -3-65.6686 54.5835   7
   1   0  -3 103.763 64.8711   1
  -1   0   3 33.4001 47.7483   7
   1   0  -2 284245. 2248.43   5
  -1   0   2 285846. 2480.02   1
   1   0  -2 288864. 2586.98   7
   1   0   1 24.4766 27.0571   7
   1   0   1-27.0339 37.8498   4
  -1   0  -1-4.46738 32.8016   3
  -1   0  -2 12934.4 427.139   4
   1   0   2 12369.0 407.107   3
  -1   0  -2 12945.4 384.558   3
  -1   0  -2 12712.9 317.839   2
   1   0   2 13088.5 431.407   7
   1   0   2 13656.8 434.643   4
   1   0   3 1.35972 36.8070   2
  -1   0  -3 94.8537 123.066   3
  -1   0  -3 23.4799 24.8277   2
  -1   0  -3 126.227 111.421   4
   1   0   3 231.868 105.542   4
   1   0   4 38946.5 699.876   2
   1   0   4 41268.7 990.186   4
  -1   0  -4 40079.5 704.269   2
  -1   0  -4 38558.2 935.753   4
   1   0   5 0.76961 79.6402   4
   1   0   5-28.1869 32.1731   2
  -1   0  -5 0.16611 98.9985   3
  -1   0  -5 0.44381 32.9146   2
  -1   0  -5 4.37701 90.8308   4
  -1   0  -6 273760. 2691.22   2
  -1   0  -6 264569. 3370.92   3
   1   0   6 269584. 2683.64   2
  -1   0  -6 271098. 3311.90   4
  -1   0  -7-38.7465 82.9173   4
  -1   0  -7 27.0458 38.1173   2
  -1   0  -7-24.5877 166.813   3
   1   0   7 18.4419 54.8494   2
  -1   0  -8 189598. 2355.58   2
   1   0   8 185075. 2344.45   2
  -1   0  -9-43.5571 45.9915   2
   1   0   9-125.923 96.1464   2
  -1   0  -9 29.0072 213.852   3
  -1   0 -10 8422.38 687.427   3
   1   0  10 7459.20 450.255   2
  -1   0 -10 7642.91 429.178   1
   1   0  11-46.3080 58.9125   2
  -1   0 -11-11.9449 224.278   3
  -1   0 -12 6589.23 674.405   3
   1   0  12 6072.10 453.135   2
   1   0  13 81.2783 81.1898   2
  -1   0 -13 236.984 212.582   3
   1   0  14 1362.12 240.554   2
  -1   0 -14 1287.67 437.619   3
  -1   0 -15 372.301 324.471   3
  -1   0 -16 6998.07 842.662   3
  -1   0 -17 375.050 236.608   3
  -1   0 -18-7.92412 264.616   3
  -1  -1  19 1289.55 328.983   2
   1  -1 -19 1827.85 452.811   3
  -1  -1  18-20.2846 126.504   2
   1  -1 -18-231.283 252.548   3
   1  -1 -17 126.765 202.977   3
  -1  -1  17-3.83171 112.859   2
  -1  -1  16 781.631 246.921   2
   1  -1 -16 1045.33 322.655   3
   1  -1 -15 26403.0 1427.23   3
  -1  -1  15 26003.2 1311.25   2
   1  -1 -14 22458.9 1268.65   3
  -1   1  14 21792.2 900.319   2
  -1  -1  14 22552.8 1159.39   2
  -1  -1  13 2058.96 339.425   2
   1  -1 -13 2674.16 465.684   3
  -1   1  13 2336.67 283.773   2
   1  -1 -12 2921.23 438.493   3
  -1   1  12 2898.77 302.874   2
  -1  -1  12 2454.65 363.041   2
   1  -1 -11 3629.89 226.247   6
  -1   1  11 4138.47 356.508   2
   1  -1 -11 4270.45 487.097   3
  -1  -1  11 4867.58 495.818   2
   1   1 -11 3539.64 255.738   6
   1   1 -10 617.980 114.514   6
   1  -1 -10 634.313 97.8322   6
  -1   1  10 412.123 131.383   2
  -1  -1  10 670.011 182.899   2
  -1  -1   9 4672.59 449.604   2
  -1   1   9 4034.98 352.085   2
   1  -1  -9 4380.28 261.321   6
   1   1  -9 4299.27 272.194   6
   1   1  -9 3893.70 346.364   4
   1  -1  -9 4282.64 427.491   3
   1   1  -8 8334.08 388.651   6
   1  -1  -8 7947.67 359.438   6
  -1  -1   8 8457.64 489.566   4
  -1  -1   8 8543.66 577.362   2
   1  -1  -8 8277.64 540.488   3
   1   1  -8 8034.02 460.232   4
   1   1  -7 1611.26 196.034   4
  -1  -1   7 1565.73 207.047   4
  -1  -1   7 1646.16 254.028   2
   1  -1  -7 1854.05 252.969   3
  -1  -1   7 1588.05 225.183   1
   1  -1  -7 1649.92 167.103   6
  -1   1   7 1217.18 89.4957   1
   1   1  -7 1732.12 178.742   6
  -1  -1   6 15561.5 693.249   2
   1  -1  -6 15888.0 535.377   6
   1   1  -6 16025.0 541.152   6
  -1  -1   6 15959.9 543.360   4
   1  -1  -6 15860.2 650.681   3
   1   1  -6 15291.9 545.679   4
  -1  -1   6 15532.7 638.086   7
  -1  -1   6 16100.2 690.084   1
   1   1  -5 313.533 101.748   1
  -1  -1   5 324.459 100.644   7
   1   1  -5 329.708 72.8221   6
  -1  -1   5 356.957 107.422   2
  -1  -1   5 360.712 104.004   1
   1   1  -5 379.911 88.9661   4
   1  -1  -5 259.037 97.5660   3
   1  -1  -5 369.920 94.3962   6
  -1  -1   5 422.021 87.8790   4
   1   1  -5 414.284 101.076   7
  -1  -1   4 4236.63 317.712   1
   1   1  -4 4115.10 298.756   1
  -1   1   4 4213.82 282.733   7
   1  -1  -4 4105.10 276.881   3
  -1  -1   4 3895.82 214.553   4
  -1  -1   4 4754.33 318.749   7
  -1  -1   4 3544.60 296.411   2
  -1   1   4 4099.06 303.363   3
   1   1  -4 4053.53 303.541   2
   1   1  -4 4063.22 278.343   7
   1   1  -4 3948.69 221.695   4
   1  -1  -4 4290.27 280.757   6
   1   1  -4 4079.28 259.807   6
   1   1  -3 70123.1 1179.28   6
  -1  -1   3 68291.0 1334.22   1
  -1  -1   3 70252.4 1285.00   2
  -1   1   3 69833.8 1129.48   7
   1   1  -3 72267.6 1155.53   7
  -1   1   3 72693.0 1164.61   3
   1  -1  -3 69902.8 1101.89   3
   1   1  -3 71780.7 1277.91   2
   1  -1  -3 71299.9 1242.74   6
  -1  -1   3 74732.2 1170.98   7
   1   1  -3 73236.2 1299.39   1
   1   1  -3 72233.5 972.136   4
   1   1  -2 245.579 85.4142   2
   1   1  -2 282.284 53.9016   4
   1   1  -2 199.815 72.3760   3
  -1   1   2 276.077 94.1084   3
   1  -1  -2 158.367 41.2906   3
  -1  -1   2 233.197 71.1432   7
   1   1  -2 317.112 82.7261   6
   1  -1  -2 374.975 95.5306   6
  -1   1   2 176.795 52.0136   7
   1   1  -2 254.659 70.7787   1
   1   1  -2 213.905 62.4655   7
  -1  -1   2 213.821 65.8001   2
  -1  -1   2 337.968 88.1392   1
  -1   1   1 1013.65 94.9206   7
   1   1  -1 1026.50 129.421   6
  -1  -1   1 929.257 133.519   1
   1   1  -1 1124.94 141.931   1
   1  -1  -1 1090.94 86.9099   7
  -1  -1   1 1154.85 134.739   2
  -1  -1   1 886.267 129.352   7
  -1   1   1 1113.61 112.287   3
   1   1  -1 1213.59 146.629   3
   1  -1  -1 947.358 131.197   6
   1   1  -1 973.447 119.780   7
   1   1  -1 897.296 104.438   2
   1  -1  -1 1086.59 106.631   3
  -1  -1   1 949.425 136.298   3
   1   1   0 448273. 3854.65   1
  -1   1   0 452245. 4039.66   4
   1   1   0 449131. 3989.85   6
  -1  -1   0 450056. 3873.63   1
  -1   1   0 457822. 4052.65   2
   1  -1   0 446904. 4092.81   6
  -1   1   0 448549. 3527.51   3
  -1  -1   0 451490. 3703.33   2
   1   1   0 456622. 4066.64   3
   1   1   0 449689. 3691.86   2
  -1  -1   0 451998. 3782.95   7
   1   1   0 444945. 3835.53   7
  -1  -1   0 442708. 4094.85   3
  -1   1   0 454282. 4011.61   5
   1  -1   1 981678. 7487.06   6
  -1  -1  -1 944675. 7480.61   3
   1   1   1 956036. 6829.12   2
   1  -1   1 993753. 7377.04   5
  -1  -1  -1 998405. 7258.98   7
   1   1   1 954206. 7093.47   1
   1  -1   1 887805. 6626.07   7
   1  -1   1 999999. 7475.54   4
  -1   1  -1 981827. 7472.72   5
  -1   1  -1 967037. 7483.25   4
   1   1   1 973060. 7373.98   6
   1   1   1 929058. 7219.41   7
  -1   1  -1 995172. 7542.16   2
   1   1   1 970473. 7473.62   3
  -1  -1  -1 933301. 7073.36   1
  -1  -1  -1 962777. 6841.44   2
   1   1   2 91874.2 970.363   2
   1   1   2 94421.7 1227.99   1
  -1  -1  -2 93534.3 1168.84   1
   1  -1   2 96532.9 1494.19   4
   1  -1   2 96890.9 1427.22   5
  -1  -1  -2 87918.5 1453.79   3
   1   1   2 89972.6 1447.26   7
   1   1   2 92390.2 1385.69   6
   1  -1   2 92644.8 1533.84   2
   1  -1   2 90532.2 1413.91   6
  -1   1  -2 93057.5 1542.23   4
  -1   1  -2 97332.7 1524.86   2
   1  -1   2 92455.4 1101.11   7
   1   1   2 92648.6 1528.20   3
  -1  -1  -2 89499.9 970.630   2
   1  -1   3 28756.3 839.455   2
   1  -1   3 30951.0 804.060   5
  -1   1  -3 30349.4 892.716   4
   1   1   3 31010.3 884.752   3
  -1   1  -3 31346.6 854.965   2
   1  -1   3 30052.5 755.513   6
  -1  -1  -3 30434.2 564.647   1
   1  -1   3 31724.6 852.155   4
   1   1   3 30603.2 855.478   7
   1   1   3 30987.8 743.198   6
  -1  -1  -3 28209.4 832.827   3
   1   1   4 494.981 126.284   3
  -1   1  -4 475.383 112.671   2
   1  -1   4 520.059 101.141   6
   1  -1   4 401.262 114.897   4
   1  -1   4 471.286 106.267   2
  -1  -1  -4 555.980 68.8555   1
  -1   1  -4 489.644 129.032   4
  -1  -1  -4 273.831 91.9749   3
   1   1   4 454.769 87.2080   6
   1  -1   5 99823.8 1774.85   2
  -1  -1  -5 95725.1 1811.84   3
  -1  -1  -5 96136.0 1066.76   1
  -1   1  -5 100161. 1860.41   4
   1   1   5 97803.3 1438.37   6
   1  -1   5 95620.2 1423.21   6
  -1  -1  -6 20528.4 438.319   1
   1   1   6 25771.3 679.047   6
   1  -1   6 24018.9 651.861   6
  -1  -1  -6 27281.9 972.443   3
  -1   1  -6 22857.2 908.734   4
   1  -1   6 25115.1 878.831   2
  -1  -1  -7 16991.2 804.380   3
  -1   1  -7 15629.2 787.380   4
   1   1   7 16467.4 528.940   6
   1  -1   7 16232.0 514.657   6
   1  -1   7 17329.1 758.062   2
   1  -1   8 19959.5 586.512   6
   1   1   8 18700.5 556.393   6
  -1  -1  -8 18668.5 890.921   3
   1   1   8 17244.7 390.165   2
  -1   1  -8 18631.2 909.159   4
   1  -1   8 20215.9 857.818   2
  -1   1  -9 5687.90 528.822   4
   1   1   9 5826.79 249.185   2
  -1  -1  -9 6229.53 526.651   3
   1  -1   9 6159.70 475.821   2
   1  -1   9 6771.60 336.033   6
  -1  -1  -9 5956.38 212.902   1
   1   1   9 6336.02 317.134   6
  -1  -1 -10 17934.6 401.872   1
  -1  -1 -10 21902.4 1062.03   3
   1  -1  10 23249.1 992.918   2
   1   1  10 19542.9 568.958   6
  -1   1 -10 19290.0 996.969   4
   1  -1  10 20274.5 567.775   6
   1   1  10 19061.4 511.457   2
   1  -1  11-12.5579 66.6248   2
   1   1  11 43.1133 42.1024   2
  -1  -1 -11 55.4431 27.9337   1
  -1  -1 -11 80.9120 141.790   3
  -1   1 -11-135.571 167.158   4
   1   1  12 471.470 86.7373   2
  -1  -1 -12 551.122 245.858   3
   1  -1  12 720.565 196.282   2
  -1   1 -12 185.432 148.429   4
  -1   1 -13 2206.22 418.034   4
  -1  -1 -13 2218.48 402.209   3
   1  -1  13 2113.67 345.304   2
  -1  -1 -14 3785.85 521.988   3
   1  -1  14 3293.49 445.206   2
   1  -1  15 2169.32 383.629   2
  -1  -1 -15 2605.62 468.815   3
   1  -1  16-31.6748 109.372   2
  -1  -1 -16 384.870 279.973   3
   1  -1  17 18.7699 94.3042   2
  -1   1 -17-206.618 297.091   3
  -1   1 -18 378.958 291.660   3
  -1  -1 -18 564.882 240.012   3
  -1  -2  19-59.5217 138.710   2
   1  -2 -18 1159.70 334.254   3
  -1  -2  18 333.620 195.039   2
   1  -2 -17 6896.27 820.913   3
  -1  -2  17 7336.40 810.847   2
  -1  -2  16 9734.47 921.080   2
   1  -2 -16 11277.0 989.041   3
  -1  -2  15 3839.30 554.358   2
   1  -2 -15 4795.92 617.361   3
   1   2 -14 463.793 160.837   4
  -1  -2  14 544.738 230.814   2
   1  -2 -14 490.520 211.281   3
   1   2 -13 571.939 211.174   4
   1  -2 -13 269.863 153.183   3
  -1  -2  13 393.460 179.527   2
   1   2 -12 855.942 205.575   4
  -1  -2  12 1134.06 287.425   2
   1  -2 -12 865.769 176.419   6
  -1   2  12 905.765 200.731   2
   1  -2 -12 753.709 228.281   3
   1   2 -11 1259.63 244.035   4
  -1  -2  11 1793.61 345.890   2
   1  -2 -11 1999.35 258.126   6
  -1   2  11 1517.48 254.515   2
   1  -2 -11 1858.49 341.757   3
   1  -2 -10 1136.43 200.445   6
  -1  -2  10 898.286 248.651   2
   1   2 -10 1276.41 252.383   4
   1  -2 -10 1177.63 256.322   3
  -1  -2   9 2166.17 353.917   2
   1  -2  -9 2242.33 329.689   3
   1  -2  -9 2186.97 268.298   6
   1   2  -9 1918.77 271.807   4
   1   2  -8 5303.30 440.860   4
   1  -2  -8 5670.78 474.025   3
  -1  -2   8 5951.28 557.312   2
   1  -2  -8 6311.55 459.563   6
   1  -2  -7 2075.35 272.379   3
   1   2  -7 2092.41 267.624   4
  -1  -2   7 2070.84 325.004   2
   1  -2  -7 2144.01 265.501   6
  -1   2   7 1948.49 142.555   1
  -1   2   6 17516.3 504.024   1
   1   2  -6 19331.8 760.716   4
   1  -2  -6 18518.9 792.490   3
   1  -2  -6 18600.6 779.654   6
  -1  -2   6 18843.1 909.492   2
  -1  -2   6 18212.7 700.460   7
  -1   2   5 5073.29 367.656   7
   1   2  -5 4829.98 302.690   5
   1  -2  -5 5176.58 401.934   6
   1   2  -5 4787.44 361.636   4
   1  -2  -5 5123.96 394.320   3
  -1  -2   5 4497.83 314.841   7
  -1  -2   5 5069.39 457.763   2
   1   2  -4 21180.6 725.157   4
   1  -2  -4 19280.5 732.704   3
  -1  -2   4 22700.6 930.809   2
  -1  -2   4 20620.2 652.828   7
   1  -2  -4 20160.6 806.674   6
   1   2  -4 21081.0 641.156   7
  -1   2   4 20039.4 669.175   7
   1   2  -4 20570.9 630.587   5
  -1  -2   3 2098.66 271.342   2
  -1   2   3 1902.55 238.319   3
   1   2  -3 1704.47 193.729   4
   1   2  -3 1946.83 181.371   7
  -1   2   3 2115.42 191.061   7
   1  -2  -3 1984.87 248.364   6
   1  -2  -3 1901.22 221.301   3
  -1  -2   3 1711.17 177.242   7
  -1  -2   3 2128.65 287.185   1
  -1  -2   2 4863.32 409.589   1
   1   2  -2 4783.32 333.204   4
  -1  -2   2 4478.23 280.317   7
  -1  -2   2 4839.76 401.364   2
   1  -2  -2 4934.44 349.857   3
  -1   2   2 4697.27 361.523   3
   1  -2  -2 5043.80 400.371   6
   1   2  -2 5052.66 283.909   7
  -1   2   2 4820.61 234.210   7
  -1  -2   1 14438.1 662.846   2
   1  -2  -1 15647.9 700.047   6
  -1  -2   1 15803.8 712.721   1
   1  -2  -1 15820.9 625.226   3
  -1  -2   1 15676.8 719.390   3
  -1   2   1 15908.9 623.731   3
  -1  -2   1 14904.5 507.999   7
   1   2  -1 15015.1 493.474   7
  -1  -2   0 259.225 113.119   3
  -1   2   0 331.417 130.219   4
   1  -2   0 53.2670 51.9259   3
   1   2   0 415.062 91.6811   7
   1   2   0 250.437 84.5469   2
   1  -2   0 52.1914 79.5112   6
  -1  -2   0 309.464 104.337   1
  -1  -2   0 260.474 89.1769   2
  -1   2   0 386.475 105.778   3
  -1   2   0 158.681 91.1949   5
   1   2   1 7822.98 411.046   2
  -1  -2  -1 8566.00 547.393   3
  -1   2  -1 7259.01 489.023   5
   1  -2   1 7876.40 496.706   6
   1   2   1 8252.85 450.392   1
  -1  -2  -1 7353.36 422.365   2
  -1   2  -1 8073.55 438.904   3
  -1   2  -1 7078.70 493.222   4
   1   2   1 7885.55 413.523   7
  -1  -2  -1 7865.54 459.479   1
   1  -2   2 155279. 2513.92   2
  -1   2  -2 148307. 2363.53   5
   1   2   2 156296. 2097.72   1
  -1  -2  -2 146293. 2002.91   2
  -1   2  -2 143437. 2381.90   4
  -1  -2  -2 160797. 2514.68   3
   1   2   2 151452. 1967.56   2
  -1   2  -2 154297. 2145.90   3
  -1  -2  -2 154352. 2100.45   1
   1   2   2 150432. 2107.94   7
   1  -2   2 152303. 2370.67   6
  -1   2  -3 185352. 2577.70   5
  -1   2  -3 183175. 2699.42   4
  -1  -2  -3 188011. 2111.89   1
   1   2   3 183799. 1958.06   2
   1   2   3 187562. 2135.07   1
   1  -2   3 186907. 2544.28   6
   1   2   3 189306. 2395.57   7
   1   2   4 89124.9 1764.83   7
   1  -2   4 76942.9 1124.64   7
   1  -2   4 87303.0 1982.07   2
   1   2   4 86436.3 1377.83   1
  -1  -2  -4 89245.9 1879.24   3
   1   2   4 82166.9 1198.18   2
  -1   2  -4 82162.3 1825.02   4
   1  -2   4 85610.8 1713.94   6
   1  -2   4 80243.1 1117.85   7
   1   2   5 4639.34 431.246   7
   1   2   5 4721.84 302.619   1
   1  -2   5 4722.15 460.327   2
  -1   2  -5 4252.80 438.667   4
   1   2   5 4391.98 227.074   2
   1  -2   5 4392.50 366.875   6
   1  -2   5 4215.30 263.874   7
  -1  -2  -5 4961.76 441.611   3
   1  -2   6 5229.06 498.339   2
   1  -2   6 4612.31 315.223   7
  -1   2  -6 5486.16 517.757   4
   1   2   6 4843.99 214.773   2
   1  -2   6 5515.54 423.548   6
  -1  -2  -6 5640.47 498.614   3
   1   2   7 584.196 62.2856   2
   1  -2   7 822.732 215.634   2
   1  -2   7 864.532 171.327   6
  -1   2  -7 758.859 219.580   4
  -1  -2  -7 761.534 210.107   3
   1  -2   8 343.838 145.633   2
  -1  -2  -8 508.494 190.790   3
   1  -2   8 386.827 131.688   6
  -1   2  -8 588.670 208.342   4
   1  -2   9 760.231 174.462   6
   1  -2   9 574.813 187.829   2
  -1  -2  -9 801.475 218.638   3
  -1   2  -9 573.227 218.771   4
   1  -2  10 1062.66 276.953   2
   1  -2  10 1176.21 196.554   6
  -1  -2 -10 1639.93 316.807   3
  -1   2 -10 1877.21 358.032   4
   1  -2  11-64.8407 108.281   6
  -1   2 -11-196.193 189.730   4
   1  -2  11 14.1407 104.221   2
  -1  -2 -11-118.232 133.247   3
  -1  -2 -12 4822.74 553.260   3
   1  -2  12 5473.94 625.768   2
  -1   2 -12 4209.55 556.367   4
  -1   2 -13-68.3626 158.700   4
  -1  -2 -13 127.962 132.136   3
  -1   2 -14 105.507 203.636   4
   1  -2  14 55.2803 102.111   2
  -1  -2 -14 267.754 183.710   3
  -1  -2 -15-23.2832 113.020   3
   1  -2  15-246.243 171.379   2
  -1   2 -15 198.434 217.611   4
  -1   2 -16 403.079 222.720   4
   1  -2  16 92.2247 88.2994   2
  -1  -2 -16 54.0551 145.686   3
  -1  -2 -17 248.213 195.467   3
   1  -2  17-226.899 135.980   2
   1  -2  18 281.928 194.929   2
   1  -3 -16-78.3817 214.840   3
  -1  -3  15 14.1096 95.5810   2
   1  -3 -15-23.1744 190.453   3
  -1  -3  14 151.222 110.180   2
   1  -3 -14-181.019 163.523   3
   1  -3 -13-22.5788 134.119   3
  -1  -3  13 121.908 110.744   2
  -1  -3  12 131.511 85.6784   2
   1  -3 -12-32.4131 115.035   3
   1  -3 -12 137.759 103.246   6
   1  -3 -11 5294.71 536.296   6
   1  -3 -11 6075.84 629.344   3
  -1  -3  11 5042.15 649.925   2
   1   3 -11 4623.82 495.315   4
   1  -3 -10 3094.59 396.020   6
  -1  -3  10 3307.58 502.408   2
   1   3 -10 2891.08 407.516   4
   1  -3 -10 3723.31 466.910   3
   1   3  -9 2244.00 338.771   4
  -1  -3   9 2607.50 425.468   2
   1  -3  -9 3128.25 413.946   6
   1  -3  -9 2830.21 415.943   3
  -1  -3   8 1440.27 324.540   2
   1  -3  -8 1619.88 294.768   6
   1   3  -8 1103.11 250.055   4
   1  -3  -8 1528.71 286.497   3
   1  -3  -7 1417.81 259.679   3
  -1  -3   7 1378.85 289.191   2
   1   3  -7 1258.27 233.615   4
   1  -3  -7 1267.08 250.500   6
  -1  -3   6 93.5572 88.8739   2
   1  -3  -6 162.505 83.4899   3
   1   3  -6-3.86333 94.0968   5
   1   3  -6 9.76272 84.7856   4
   1  -3  -6 80.0429 93.1832   6
   1   3  -5 1362.95 242.280   5
  -1  -3   5 1298.65 270.929   2
   1  -3  -5 1474.62 287.176   6
   1  -3  -5 1398.71 248.579   3
   1   3  -5 955.506 203.413   4
  -1  -3   4 8011.65 377.660   7
   1  -3  -4 12261.8 801.690   6
   1  -3  -4 12345.3 724.501   3
  -1   3   4 10378.8 509.252   7
   1   3  -4 9978.20 624.796   4
   1   3  -4 9463.14 581.072   5
  -1  -3   4 10954.7 789.514   2
   1   3  -3 20784.7 899.600   4
   1  -3  -3 25896.3 1153.16   6
  -1   3   3 17084.2 514.189   7
   1   3  -3 22314.1 567.844   7
   1  -3  -3 25024.1 1027.24   3
  -1  -3   3 16987.2 544.145   7
  -1  -3   3 23418.7 1130.81   2
  -1   3   3 16156.4 537.843   7
   1   3  -2 287.768 121.958   4
   1   3  -2 342.999 74.0579   7
   1  -3  -2 59.0706 75.5402   3
   1  -3  -2 250.779 116.471   6
  -1  -3   2 153.038 88.0324   2
   1  -3  -1 4335.83 488.001   6
  -1  -3   1 4158.64 437.763   2
   1  -3  -1 4827.93 444.980   3
   1   3  -1 3935.87 250.347   7
  -1   3   0 546.398 210.513   5
  -1   3   0 494.704 162.680   4
   1   3   0 485.439 102.481   7
  -1  -3   0 562.587 196.898   3
  -1  -3   0 409.957 163.399   2
   1  -3   0 619.257 194.394   6
   1   3   1 342.468 88.0998   7
  -1   3  -1 132.150 97.7502   4
  -1  -3  -1 359.106 154.615   3
  -1  -3  -1 238.697 114.409   2
  -1   3  -1 319.866 184.936   5
   1   3   2 7333.10 484.790   7
   1  -3   2 6243.96 558.989   6
  -1  -3  -2 6469.85 583.344   3
  -1   3  -2 5686.26 549.482   4
  -1   3  -2 5048.22 536.109   5
   1  -3   3 1413.16 269.923   6
  -1   3  -3 1179.14 260.150   4
   1   3   3 1520.25 222.622   7
  -1  -3  -3 1553.66 283.025   3
  -1   3  -3 813.797 222.965   5
  -1   3  -4 9727.39 711.370   5
  -1  -3  -4 11506.6 787.924   3
  -1   3  -4 9492.58 720.332   4
   1   3   4 11258.7 657.542   7
   1  -3   4 10251.9 815.341   2
   1  -3   4 11463.6 764.590   6
  -1   3  -5 9379.18 727.787   4
   1   3   5 11083.7 675.578   7
  -1  -3  -5 10927.0 786.932   3
   1  -3   5 11571.8 767.531   6
   1  -3   5 11796.6 869.763   2
   1  -3   6 13645.7 842.675   6
  -1   3  -6 12552.8 880.445   4
   1  -3   6 15952.5 1060.47   2
   1   3   6 14830.5 850.329   7
  -1  -3  -6 15701.0 954.441   3
  -1  -3  -7-52.3884 119.448   3
   1  -3   7 171.874 71.2694   6
  -1   3  -7 188.374 127.677   4
   1   3   7-16.0388 112.488   7
   1  -3   7 4.10207 120.277   2
   1  -3   8-81.8273 100.134   2
  -1   3  -8-281.172 170.463   4
   1   3   8-38.1258 96.5842   7
   1  -3   8-60.9441 82.9371   6
  -1  -3  -8 2.21719 81.5050   3
  -1  -3  -9 1254.93 308.737   3
   1   3   9 1064.91 288.897   7
  -1   3  -9 813.158 215.302   4
   1  -3   9 1002.96 247.320   6
   1  -3   9 1187.84 300.379   2
   1   3  10 1320.55 354.190   7
   1  -3  10 1338.64 353.991   2
  -1  -3 -10 1348.13 295.066   3
  -1   3 -10 1178.49 328.731   4
   1  -3  10 945.696 222.806   6
   1  -3  11 185.087 108.612   6
  -1  -3 -11 202.442 153.615   3
  -1   3 -11 204.411 170.398   4
   1  -3  11 468.918 214.469   2
   1   3  11 412.794 229.146   7
   1  -3  12 296.954 166.080   2
  -1   3 -12 340.342 201.890   4
  -1  -3 -12 476.721 188.762   3
   1   3  12 122.595 134.486   7
   1   3  13-119.277 196.151   7
   1  -3  13 62.1590 133.017   2
  -1   3 -13 196.246 193.569   4
  -1  -3 -13 182.983 174.818   3
   1   3  14-141.685 144.132   7
   1  -3  14 219.730 115.692   2
  -1  -3 -14-98.5983 97.3510   3
   1  -3  15-170.621 230.921   2
   1   3  15-174.868 220.812   7
  -1  -3 -15 104.389 138.731   3
  -1   3 -15 88.2288 169.642   4
   1   3  16 449.784 313.606   7
   1  -4 -14 280.702 159.183   3
   1  -4 -13 665.030 206.120   3
   1  -4 -12 864.895 277.592   3
  -1  -4  11 41.5993 168.757   2
   1  -4 -11-55.2084 100.647   3
  -1  -4  10 1243.31 369.144   2
   1  -4 -10 623.663 181.648   6
   1  -4 -10 1279.76 325.619   3
   1  -4  -9 1475.22 343.793   6
  -1  -4   9 1117.04 296.951   2
   1  -4  -9 1638.87 349.723   3
   1  -4  -8 79.4458 133.600   3
   1  -4  -8-190.819 176.914   6
  -1  -4   8 77.1078 90.0302   2
  -1  -4   7-66.4174 129.699   2
   1  -4  -7 207.220 156.965   3
   1  -4  -7 359.718 196.418   6
  -1  -4   6-147.774 168.082   2
   1  -4  -6 171.828 140.949   3
   1   4  -6 259.667 154.453   4
   1  -4  -6 38.3238 147.960   6
  -1  -4   5 2612.17 459.290   2
   1   4  -5 2179.03 368.285   4
   1  -4  -5 2338.84 413.998   6
   1  -4  -5 2556.81 394.667   3
   1  -4  -4 2100.99 387.831   6
   1  -4  -4 2114.93 382.042   3
   1   4  -4 2063.57 354.138   4
   1   4  -4 1495.97 285.190   5
  -1  -4   4 2344.55 433.547   2
   1   4  -3 517.730 194.437   5
   1   4  -3 542.026 201.317   4
   1  -4  -3 862.570 248.460   6
  -1  -4   3 852.620 252.044   2
   1  -4  -3 827.677 257.126   3
  -1   4   2 3754.08 514.153   5
   1   4  -2 4393.78 519.153   4
  -1   4   2 3862.31 552.388   4
   1  -4  -2 4791.02 594.991   6
  -1  -4   2 4319.81 542.215   2
   1  -4  -1 2990.37 463.788   6
   1   4  -1 2728.74 417.589   4
  -1   4   1 2416.22 415.799   4
  -1   4   1 2467.59 429.580   5
   1  -4   0 57.7494 93.9031   6
  -1   4   0 178.854 148.768   5
  -1   4   0 313.828 162.078   4
   1   4   0 306.256 177.816   4
  -1  -4  -1-63.9802 105.712   3
  -1   4  -1-118.068 139.870   5
  -1   4  -1-101.441 171.040   4
   1  -4   1 70.2385 107.435   6
   1  -4   2-171.695 127.167   6
  -1   4  -2 22.9430 109.680   5
  -1  -4  -2 89.3128 99.6129   3
  -1   4  -2-52.2188 103.287   4
   1  -4   3 32.0745 132.592   6
  -1   4  -3 11.7821 134.973   5
  -1  -4  -3 87.8324 108.261   3
  -1   4  -3-15.3985 107.567   4
  -1   4  -4-323.770 222.472   5
  -1   4  -4-41.1698 137.847   4
  -1  -4  -4-169.982 123.116   3
   1  -4   4 136.639 119.283   6
  -1  -4  -5 2255.11 407.004   3
   1  -4   5 2257.98 402.775   6
  -1   4  -5 2289.10 432.785   4
   1  -4   6 679.268 238.940   6
  -1  -4  -6 784.085 259.567   3
  -1   4  -6 365.445 208.528   4
   1  -4   7 807.430 236.983   6
  -1   4  -7 419.377 238.107   4
  -1  -4  -7 673.896 240.698   3
   1  -4   8 4.07733 128.574   6
  -1  -4  -8 121.865 162.499   3
   1  -4   8-58.4298 168.666   2
  -1   4  -8-132.560 159.193   4
  -1  -4  -9-394.784 258.144   3
   1  -4   9 250.193 176.002   2
   1  -4   9-24.9845 182.694   6
  -1   4  -9-289.993 143.318   4
  -1   4 -10 40.5440 193.713   4
  -1  -4 -10-93.3675 181.455   3
   1  -4  10-103.251 183.574   2
  -1   4 -11 124.261 200.849   4
  -1  -4 -11 226.993 185.624   3
  -1  -4 -12-163.766 188.764   3
  -1   5   4 43.1086 179.589   5
  -1   5   4 68.5048 133.319   4
  -1   5   3 48.3502 143.992   5
  -1   5   3 70.5018 144.512   4
  -1   5   2 446.012 225.705   5
  -1   5   2 205.691 173.044   4
  -1   5   1-83.6220 122.721   5
  -1   5   1-305.690 229.626   4
   1   5   0-234.606 175.278   5
  -1   5   0 217.376 188.243   5
  -1   5   0 292.889 226.984   4
   1   5   1-77.3155 146.914   4
  -1   5  -1 49.3549 117.247   4
  -1   5  -2 2002.70 460.834   4
  -1   5  -2 1534.03 376.355   5
   1   5   2 2316.06 475.446   4
  -1   5  -3 1552.59 424.290   4
  -1  -5  -3 1856.08 416.572   3
  -1  -5  -4 998.610 316.120   3
  -1   5  -4 468.912 199.207   4
  -1  -5  -5 314.945 158.309   3
  -1   5  -5 255.977 167.517   4
  -1  -5  -6 46.7443 112.383   3
   2   0 -19 191.084 246.516   3
  -2   0  18 2003.55 356.116   2
  -2   0  17-45.4982 68.3877   2
  -2   0  16 92.8231 113.244   2
  -2   0  15-110.004 123.349   2
  -2   0  14 147886. 2883.46   2
  -2   0  13-135.557 138.175   2
  -2   0  12 57929.7 1406.70   1
  -2   0  12 57764.8 1646.75   2
  -2   0  11-206.452 124.543   2
  -2   0  11-61.1518 63.7744   1
  -2   0  10 25508.4 1036.77   2
  -2   0  10 26476.9 858.471   1
   2   0  -9 1.42465 57.3405   1
  -2   0   9-73.2149 75.3113   1
   2   0  -8 829.225 150.043   1
  -2   0   8 973.863 207.442   2
  -2   0   8 783.641 141.606   1
  -2   0   7-29.0633 51.1983   1
   2   0  -7-78.6804 90.7959   1
  -2   0   7-16.7183 81.3631   2
  -2   0   6 1143.95 147.287   1
  -2   0   6 1295.86 129.902   5
   2   0  -6 1320.43 199.328   7
  -2   0   6 1183.56 191.361   2
   2   0  -6 1318.71 192.108   1
  -2   0   5 19.1886 54.2162   1
  -2   0   5-110.505 73.7321   7
   2   0  -5 15.8396 48.9343   7
  -2   0   5-110.901 71.7146   5
   2   0  -5 2.76071 60.7950   1
  -2   0   4 79237.0 1486.46   7
  -2   0   4 76737.1 1295.77   1
  -2   0   4 79041.9 1152.27   5
  -2   0   3 37.9307 44.3521   7
   2   0  -3 34.1557 60.5341   7
   2   0  -3 89.4009 52.9922   5
  -2   0   3-46.3971 66.4226   1
   2   0  -2 106223. 1552.45   7
  -2   0   2 109210. 1241.83   4
  -2   0   1 51.4087 45.2992   7
   2   0  -1 75.0303 54.9316   4
  -2   0   1-3.03660 52.0323   4
  -2   0   1 0.08537 33.4536   3
   2   0  -1 59.6863 26.6845   3
   2   0  -1 51.3890 67.5604   7
   2   0   0 170374. 1861.46   4
  -2   0   0 170911. 1840.26   4
  -2   0   0 173776. 2071.36   7
  -2   0   0 167153. 1696.33   3
   2   0   0 167083. 1679.41   3
   2   0   0 172195. 2066.77   7
  -2   0  -1 31.6837 74.5507   4
   2   0   1 219.623 96.3302   4
   2   0   1 101.434 64.0332   7
  -2   0  -1 15.4522 41.2279   7
  -2   0  -1 0.31864 35.6108   3
   2   0   1 155.250 69.8096   3
  -2   0  -2 63366.1 1215.64   4
   2   0   2 63402.8 1217.08   7
   2   0   2 67575.4 1244.19   4
  -2   0  -2 68116.8 1269.74   7
   2   0   2 61784.2 1100.95   3
  -2   0  -2 64028.6 1052.04   3
   2   0   3-76.8183 76.6727   4
  -2   0  -3 56.9087 72.7500   4
  -2   0  -3-16.9095 33.7277   2
   2   0   3-24.4959 97.4000   3
   2   0   3 4.18583 50.7680   7
  -2   0  -3-24.7455 62.6700   3
  -2   0  -4 28563.1 904.618   4
  -2   0  -4 30749.1 688.920   2
   2   0   4 29258.1 933.481   7
  -2   0  -4 27883.6 819.741   3
  -2   0  -5 44.6759 29.7167   2
  -2   0  -5-32.9836 82.2256   4
   2   0   5 5.35070 47.1665   7
  -2   0  -5 113.913 88.4257   3
  -2   0  -6 9198.62 570.644   4
  -2   0  -6 10720.4 433.912   2
  -2   0  -6 10849.0 580.042   3
  -2   0  -7-42.1065 110.014   3
  -2   0  -7 36.3067 56.2211   2
  -2   0  -7-64.7241 118.358   4
  -2   0  -8 2634.66 349.375   4
  -2   0  -8 2622.40 234.365   2
   2   0   8 2731.20 250.522   2
  -2   0  -8 3417.25 381.787   3
  -2   0  -9-74.6228 128.652   4
  -2   0  -9 12.1715 34.4391   2
   2   0   9-1.04562 42.2452   2
  -2   0  -9-177.002 168.579   3
   2   0  10-56.8128 56.5890   2
  -2   0 -10 344.027 199.858   3
   2   0  11 4.44788 48.5292   2
  -2   0 -11 170.535 188.319   3
   2   0  12-23.9606 54.5003   2
  -2   0 -12-290.691 254.885   3
  -2   0 -13-740.890 303.217   3
   2   0  13-9.45659 74.6441   2
  -2   0 -14 10004.2 892.020   3
  -2   0 -15 42.8907 185.180   3
  -2   0 -16 2832.96 544.174   3
  -2   0 -17-77.0188 266.989   3
  -2   0 -18 157.043 247.762   3
  -2  -1  20 791.594 230.925   2
  -2  -1  19 1757.23 358.762   2
   2  -1 -19 5199.26 734.196   3
  -2  -1  18 234.720 94.3950   2
   2  -1 -18 1029.27 390.276   3
   2  -1 -17 699.898 283.621   3
  -2  -1  17 136.160 118.886   2
  -2   1  16 11873.7 775.588   2
  -2  -1  16 12108.0 934.203   2
   2  -1 -16 13511.9 1080.36   3
  -2  -1  15 10611.4 853.012   2
  -2   1  15 11274.9 733.277   2
   2  -1 -15 11414.6 951.100   3
   2  -1 -14 4207.00 578.739   3
  -2  -1  14 4143.62 516.559   2
  -2   1  14 4782.82 467.188   2
  -2   1  13 9714.06 677.255   2
  -2  -1  13 9977.56 748.662   2
   2  -1 -13 10841.6 861.289   3
   2  -1 -12 26933.2 717.608   6
   2  -1 -12 29912.8 1327.99   3
  -2   1  12 31251.9 1149.74   2
  -2  -1  12 29230.4 1269.52   2
   2   1 -11 17651.0 627.200   6
  -2   1  11 20974.3 917.422   2
  -2  -1  11 19431.0 992.006   2
  -2  -1  11 20037.6 929.469   1
  -2   1  11 19291.1 562.094   1
   2  -1 -11 18956.8 1009.59   3
   2  -1 -11 19661.2 650.060   6
   2   1 -10 7065.35 400.504   6
  -2   1  10 8563.74 362.717   1
  -2   1  10 7777.93 580.658   2
  -2  -1  10 8094.10 614.949   2
   2  -1 -10 8299.46 633.776   3
  -2  -1  10 7935.58 495.046   4
  -2  -1  10 7898.79 574.470   1
   2  -1 -10 8282.47 444.562   6
  -2  -1   9 8697.96 468.373   4
  -2  -1   9 7534.92 577.274   2
   2  -1  -9 9026.45 606.192   3
   2   1  -9 7709.81 420.241   6
  -2   1   9 8500.99 357.403   1
  -2  -1   9 9056.95 587.850   1
   2  -1  -8 9116.23 570.697   3
  -2   1   8 9296.89 387.778   1
  -2  -1   8 8964.25 427.313   4
  -2  -1   8 8551.54 551.822   1
  -2  -1   8 8871.62 586.444   2
   2   1  -7 26787.3 956.625   7
  -2  -1   7 25867.0 649.503   4
  -2  -1   7 24757.9 948.422   2
   2  -1  -7 23549.6 855.408   3
  -2   1   7 25839.2 689.019   1
  -2  -1   7 24851.3 920.911   1
  -2  -1   6 52583.5 1312.84   1
  -2  -1   6 51808.1 811.254   4
  -2  -1   6 52317.2 1344.36   2
   2   1  -6 51789.9 1289.48   7
   2  -1  -6 50452.9 1173.46   3
  -2  -1   5 20592.5 782.376   2
  -2  -1   5 21189.2 771.203   1
  -2   1   5 21125.2 763.746   7
   2   1  -5 20671.6 752.824   7
  -2  -1   5 22249.7 796.289   7
   2  -1  -5 19928.9 643.743   3
  -2  -1   4 185.361 81.7044   7
  -2   1   4 224.968 96.9644   5
  -2  -1   4 70.8675 61.5117   2
  -2  -1   4 162.117 56.0886   1
   2   1  -4 230.928 100.344   2
   2   1  -4 37.2720 64.4427   7
  -2   1   4 274.816 86.4017   7
   2  -1  -4 164.441 76.9663   3
   2  -1  -4 164.302 61.4370   7
  -2  -1   3 4966.29 355.304   1
   2   1  -3 6447.17 398.077   1
   2   1  -3 6453.43 388.323   2
   2  -1  -3 5335.39 240.565   3
  -2  -1   3 5893.70 378.962   7
   2  -1  -3 5733.84 317.900   7
  -2  -1   3 5251.12 346.629   2
  -2   1   3 5852.53 348.437   7
   2   1  -3 5380.98 345.566   7
   2   1  -3 5706.08 366.876   3
  -2   1   3 5353.31 364.509   5
   2   1  -2 3274.50 261.686   7
  -2   1   2 3439.94 242.892   7
   2   1  -2 3403.79 276.194   2
   2   1  -2 3570.97 283.471   1
  -2  -1   2 3175.32 270.748   1
  -2  -1   2 3251.83 257.873   2
  -2   1   2 3359.47 286.659   5
   2  -1  -2 3482.03 235.326   7
   2   1  -2 3091.36 270.269   3
   2  -1  -2 3181.52 146.547   3
  -2  -1   2 3001.33 271.413   7
  -2   1   1 7286.56 427.389   5
   2  -1  -1 7513.60 423.649   5
  -2  -1   1 6348.15 371.770   1
   2   1  -1 7064.15 356.181   2
  -2   1   1 5998.51 385.584   4
   2   1  -1 6332.21 378.916   3
   2   1  -1 7235.87 401.647   1
   2  -1  -1 6583.40 307.417   7
  -2  -1   1 6474.38 386.672   3
  -2  -1   1 6322.70 329.306   2
  -2  -1   1 6803.20 417.140   7
   2   1  -1 5504.69 369.446   7
  -2   1   1 6576.25 316.418   7
  -2  -1   0 5646.82 344.793   1
   2  -1   0 5553.15 374.210   5
   2   1   0 6028.85 299.820   2
  -2   1   0 5576.32 370.135   4
  -2  -1   0 5899.13 284.705   2
   2  -1   0 6018.33 307.464   7
  -2   1   0 5512.73 292.631   7
   2   1   0 6165.57 359.551   1
  -2  -1   0 5400.34 357.778   3
   2   1   0 4856.64 361.503   7
   2   1   0 5970.93 364.229   3
  -2  -1   0 6205.45 383.846   7
   2  -1   0 5407.12 364.542   4
  -2   1  -1 41856.5 1093.60   4
   2  -1   1 43138.3 1040.20   5
  -2   1  -1 41215.4 835.138   7
   2  -1   1 43117.1 1047.73   4
   2  -1   1 42925.8 862.084   7
   2   1   1 41548.0 1050.42   3
   2   1   1 40976.1 927.368   1
  -2  -1  -1 39659.9 711.231   2
   2   1   1 40141.9 1008.40   7
  -2  -1  -1 40203.7 1025.65   3
  -2  -1  -1 43988.6 1049.31   7
  -2  -1  -1 40883.0 935.043   1
  -2  -1  -2 4785.29 356.772   7
   2  -1   2 4120.82 330.440   5
   2   1   2 4600.30 335.367   4
  -2   1  -2 4459.46 379.235   4
  -2  -1  -2 4708.54 341.537   3
  -2  -1  -2 4673.62 192.274   2
  -2  -1  -2 4166.46 281.017   1
   2   1   2 3862.46 328.988   7
  -2   1  -2 4710.39 358.618   2
   2   1   2 4946.32 360.371   3
   2  -1   2 4373.41 273.949   7
  -2   1  -3 3262.04 336.398   4
   2  -1   3 3692.12 271.269   7
   2   1   3 3798.65 331.320   4
  -2  -1  -3 3757.52 134.698   2
  -2  -1  -3 3901.60 272.164   1
   2   1   3 3564.17 322.445   7
  -2  -1  -3 4013.10 332.822   3
   2  -1   4 162.005 77.0213   7
  -2  -1  -4 226.645 86.2303   1
   2   1   4 111.467 73.7271   7
  -2   1  -4-59.1854 144.815   4
  -2  -1  -4 108.260 84.8348   3
  -2   1  -5 40398.5 1277.41   4
  -2  -1  -5 42652.8 878.437   1
   2  -1   5 41365.6 1132.41   2
   2   1   5 44796.0 1328.59   7
   2  -1   5 42802.0 1132.62   7
  -2  -1  -5 43560.9 1239.61   3
  -2  -1  -6 921.020 195.165   3
   2  -1   6 938.229 171.296   2
  -2   1  -6 760.405 203.913   4
   2   1   6 757.623 189.963   7
  -2  -1  -7 24044.0 1013.44   3
   2   1   7 24426.2 762.525   6
   2   1   7 25853.2 1127.73   7
   2  -1   7 25951.7 966.450   2
  -2   1  -7 23754.3 1061.89   4
   2   1   8 7946.50 409.382   6
   2  -1   8 8286.44 448.038   6
  -2  -1  -8 8373.62 623.427   3
  -2   1  -8 7538.30 622.562   4
   2  -1   8 8455.28 573.829   2
   2   1   9 23955.4 704.845   6
  -2   1  -9 24508.9 1164.08   4
  -2  -1  -9 27008.6 1170.82   3
   2  -1   9 24594.4 749.957   6
   2  -1   9 26899.5 1054.19   2
   2  -1  10 4.70897 46.5115   6
   2   1  10-4.23858 27.0189   6
   2  -1  10-174.350 107.175   2
  -2   1 -10-141.579 139.305   4
  -2  -1 -10-24.2803 147.109   3
   2  -1  11 153.132 94.1565   2
   2  -1  11 11.7999 34.0060   6
  -2  -1 -11-28.1635 118.604   3
  -2  -1 -12 4682.66 543.624   3
   2  -1  12 4142.62 455.444   2
  -2   1 -12 3947.49 525.283   4
   2  -1  13-62.1872 108.777   2
  -2  -1 -13-9.90840 134.872   3
  -2   1 -13-24.9223 115.402   4
  -2   1 -13 346.239 280.438   3
   2  -1  14 67.8994 101.412   2
  -2   1 -14 182.585 246.542   3
  -2  -1 -14 156.803 158.719   3
  -2   1 -14-283.105 239.650   4
   2  -1  15 86.7194 86.9066   2
  -2  -1 -15 313.101 201.474   3
  -2   1 -16 1741.33 395.773   3
  -2  -1 -16 2272.92 486.191   3
  -2   1 -17 2682.17 593.550   3
  -2  -1 -17 2210.80 513.483   3
  -2   1 -18-100.649 267.107   3
  -2  -2  19 1247.81 376.461   2
   2  -2 -18 169.058 205.565   3
  -2  -2  18 100.186 122.927   2
  -2  -2  17 3996.49 609.337   2
   2  -2 -17 4870.03 636.065   3
   2  -2 -16-35.0892 137.204   3
  -2  -2  16-61.6633 113.037   2
   2  -2 -15 74.2335 142.924   3
  -2  -2  15 110.344 133.222   2
  -2  -2  14 201.132 138.653   2
   2  -2 -14 532.478 245.404   3
  -2   2  13 532.325 190.140   2
  -2  -2  13 126.390 86.8578   2
   2  -2 -13 295.152 167.848   3
   2  -2 -12 15.2001 54.3393   6
   2  -2 -12 140.623 149.585   3
  -2  -2  12-204.716 171.807   2
  -2  -2  11 991.932 272.462   2
   2   2 -11 1033.77 200.537   4
   2  -2 -11 1085.78 196.149   6
   2  -2 -11 1453.69 301.343   3
  -2  -2  10 3498.18 448.981   2
   2   2 -10 3466.41 315.178   4
   2  -2 -10 4091.32 380.320   6
   2  -2 -10 3942.41 431.434   3
  -2  -2   9 28824.2 1266.99   1
   2   2  -9 29780.5 899.020   4
   2  -2  -9 28771.4 1097.80   3
  -2  -2   9 29416.2 891.993   4
  -2  -2   9 31728.7 1329.47   2
   2  -2  -9 30369.9 1044.95   6
  -2  -2   8 1904.64 312.681   2
   2   2  -8 2071.66 223.281   4
  -2  -2   8 1687.56 206.108   4
   2  -2  -8 1975.37 266.670   6
  -2  -2   8 1826.86 312.250   1
   2  -2  -8 2015.01 253.679   3
   2  -2  -7 7.71049 66.0568   3
   2  -2  -7 99.8245 84.8919   6
  -2  -2   7 135.141 107.576   2
  -2  -2   7-27.5865 86.0297   1
   2   2  -7-0.16346 73.5637   7
   2   2  -7 82.0644 64.8159   4
   2   2  -6 4132.53 226.454   5
   2   2  -6 6209.43 355.105   4
   2  -2  -6 5374.44 387.742   3
  -2  -2   6 5548.96 491.029   2
   2   2  -6 5508.51 420.321   7
  -2  -2   6 5911.00 528.147   1
   2  -2  -6 6089.88 473.702   6
   2  -2  -5 876.000 146.014   3
  -2  -2   5 791.633 179.545   2
  -2  -2   5 774.682 183.263   1
   2   2  -5 855.524 164.721   7
   2   2  -5 967.181 141.629   4
   2  -2  -5 878.362 193.234   6
  -2  -2   5 770.309 161.211   7
  -2   2   5 803.600 145.861   7
  -2  -2   4 19512.9 732.249   7
   2   2  -4 18974.1 586.162   4
   2   2  -4 19818.7 748.790   7
  -2   2   4 20412.0 751.714   3
  -2  -2   4 20442.2 872.032   2
   2  -2  -4 18834.8 658.506   3
  -2   2   4 21343.8 726.064   7
  -2  -2   4 21040.5 943.492   1
   2  -2  -4 20134.3 887.649   6
   2  -2  -3 3555.29 280.611   3
  -2  -2   3 3657.80 380.584   1
  -2   2   3 3328.05 373.160   5
   2  -2  -3 3737.64 370.843   6
   2   2  -3 3279.53 238.041   4
  -2  -2   3 3543.27 350.903   2
  -2  -2   3 3785.47 326.042   7
  -2   2   3 3421.88 250.927   7
   2   2  -3 3664.69 308.934   7
  -2   2   3 3628.88 290.851   3
  -2  -2   2 31791.6 938.705   7
   2   2  -2 28997.6 876.447   7
  -2  -2   2 30276.5 977.324   2
  -2   2   2 32049.5 831.690   3
   2  -2  -2 31006.1 806.384   3
  -2   2   2 29620.3 681.869   7
  -2  -2   2 31211.3 1079.39   1
   2  -2  -2 30301.7 1066.64   6
  -2   2   1 22069.5 930.103   5
  -2   2   1 24793.5 699.817   3
  -2   2   1 20686.7 934.546   4
   2  -2  -1 23690.3 936.950   6
  -2  -2   1 23579.4 822.418   2
   2   2  -1 22975.0 802.444   7
  -2   2   1 19750.9 507.607   7
  -2  -2   1 24274.3 959.576   3
  -2  -2   1 24391.2 812.014   7
  -2  -2   1 23238.8 898.194   1
  -2   2   0 14234.4 748.594   5
  -2   2   0 13044.5 739.260   4
  -2  -2   0 15488.5 692.239   1
   2  -2   0 14678.5 728.090   6
   2   2   0 14950.1 612.261   2
  -2   2   0 15243.3 530.738   3
  -2  -2   0 14677.9 612.629   2
   2   2   0 13838.4 629.591   7
  -2  -2   0 15548.5 660.280   7
  -2  -2   0 14400.5 741.509   3
   2  -2   0 13538.7 331.107   7
  -2  -2  -1 64632.6 1637.47   3
   2   2   1 60643.3 1210.56   2
  -2   2  -1 59554.4 1583.42   4
  -2  -2  -1 59717.6 1208.62   2
  -2   2  -1 59669.4 1112.16   3
   2  -2   1 53263.5 748.376   7
   2   2   1 59736.3 1448.27   7
  -2  -2  -1 63028.0 1416.17   7
  -2   2  -1 57027.8 1554.64   5
   2  -2   1 60331.9 1525.12   6
  -2  -2  -1 59281.7 1354.25   1
  -2   2  -2 79139.3 1862.52   4
   2   2   2 83089.1 1365.85   2
   2   2   2 78214.9 1666.88   7
  -2   2  -2 80637.5 1357.97   3
  -2  -2  -2 84986.6 1347.89   2
  -2  -2  -2 85100.9 1892.65   3
  -2  -2  -2 82544.5 1549.43   1
   2  -2   2 84744.1 1812.38   6
  -2   2  -3 630.876 117.969   3
   2   2   3 668.465 143.808   1
   2   2   3 888.483 185.520   7
   2  -2   3 788.896 107.830   7
  -2  -2  -3 787.338 112.396   2
   2   2   3 719.899 108.030   2
  -2   2  -3 752.710 213.002   4
  -2  -2  -3 946.258 201.331   3
   2  -2   3 708.332 164.466   6
  -2  -2  -3 787.495 133.332   1
  -2  -2  -4 1274.49 239.249   3
   2  -2   4 1156.60 140.927   7
  -2  -2  -4 1152.94 151.141   1
   2  -2   4 1360.18 216.443   6
   2   2   4 834.209 116.749   2
  -2   2  -4 1214.45 255.753   4
   2   2   4 1262.99 227.481   7
   2  -2   5 431.438 108.813   7
   2   2   5 465.648 148.448   7
  -2   2  -5 588.613 198.325   4
  -2  -2  -5 738.059 120.811   1
   2  -2   5 534.542 161.147   6
  -2  -2  -5 784.509 206.602   3
  -2  -2  -6 720.200 196.631   3
   2  -2   6 491.008 165.807   2
  -2   2  -6 564.699 222.369   4
   2  -2   6 511.589 153.557   6
   2   2   6 620.590 183.961   7
   2  -2   6 486.789 122.854   7
  -2  -2  -6 650.549 99.0420   1
  -2  -2  -7 361.568 143.740   3
   2  -2   7 46.5612 81.8814   2
   2  -2   7 246.436 98.4644   7
   2  -2   7 236.686 96.0961   6
   2   2   7 77.4530 80.7431   7
  -2  -2  -7 171.195 51.8767   1
  -2  -2  -8 187.000 134.155   3
  -2  -2  -8 249.957 52.6008   1
   2  -2   8 71.0960 87.3483   2
   2  -2   8 256.167 99.4538   7
  -2   2  -8 191.031 172.826   4
   2  -2   8 395.061 141.710   6
   2   2   8 416.485 192.281   7
  -2   2  -9 5001.29 604.378   4
   2  -2   9 5920.89 590.982   2
   2   2   9 5545.25 619.091   7
   2  -2   9 5650.13 445.158   6
  -2  -2  -9 5175.36 559.273   3
   2  -2  10 15057.6 752.166   6
   2  -2  10 15495.7 1016.55   2
   2   2  10 16389.9 1115.30   7
  -2  -2 -10 15637.0 987.286   3
  -2   2 -10 16843.2 1102.28   4
   2  -2  11 3088.97 350.279   6
  -2  -2 -11 2452.50 403.601   3
  -2   2 -11 2572.59 480.907   4
   2   2  11 2724.41 481.258   7
   2  -2  11 2856.28 436.469   2
   2  -2  12 48.5450 96.1072   2
  -2   2 -12 284.354 205.157   4
   2   2  12 72.5366 85.9817   7
  -2  -2 -12 276.658 123.859   3
  -2  -2 -13 816.037 255.543   3
   2  -2  13 51.3587 127.213   2
  -2   2 -13 483.930 219.907   4
   2   2  13 743.767 284.479   7
  -2  -2 -14 1044.82 288.491   3
  -2   2 -14 1047.28 317.897   4
   2  -2  14 758.013 263.391   2
   2   2  14 897.900 322.421   7
  -2  -2 -15 234.138 160.597   3
  -2   2 -15-385.129 286.374   4
   2  -2  15 225.863 160.874   2
   2   2  15-145.768 225.844   7
  -2   2 -16-77.0771 171.163   4
  -2  -2 -16-256.977 191.693   3
   2  -2  16 183.448 166.944   2
   2   2  16 170.236 147.522   7
  -2   2 -17 285.115 184.593   4
   2  -2  17 391.184 231.041   2
   2  -3 -17 554.928 237.317   3
   2  -3 -16 369.620 189.828   3
   2  -3 -15 309.927 183.632   3
  -2  -3  15-83.3616 163.932   2
   2  -3 -14-5.42912 96.9734   3
  -2  -3  14-175.000 185.969   2
   2  -3 -13 193.515 137.400   3
  -2  -3  13 78.3864 93.5345   2
  -2  -3  12 1175.46 325.119   2
   2  -3 -12 1385.53 268.042   6
   2  -3 -12 1729.44 328.525   3
   2  -3 -11 1542.44 292.756   6
   2  -3 -11 1457.54 290.909   3
  -2  -3  11 1496.73 352.524   2
   2  -3 -10 99.1818 102.521   3
   2  -3 -10 207.837 111.680   6
  -2  -3  10 124.072 146.533   2
   2  -3  -9 309.862 153.009   6
  -2  -3   9 260.900 148.229   2
   2  -3  -9 392.262 137.896   3
   2   3  -8 450.454 139.294   4
   2  -3  -8 576.129 169.199   6
   2  -3  -8 796.591 206.446   3
  -2  -3   8 277.379 157.627   2
   2  -3  -7 722.077 213.967   6
   2  -3  -7 885.915 202.885   3
  -2  -3   7 824.938 248.059   2
   2   3  -7 1146.04 211.075   4
   2  -3  -6 524.636 155.408   6
   2   3  -6 721.668 168.775   4
  -2  -3   6 318.385 144.611   2
   2   3  -6 705.760 153.426   5
   2  -3  -6 675.971 158.061   3
   2   3  -6 409.105 110.255   7
   2  -3  -5 2505.81 366.194   6
   2   3  -5 1982.63 242.442   7
   2   3  -5 1771.27 249.137   4
  -2  -3   5 2056.02 344.120   2
   2  -3  -5 2111.57 281.840   3
  -2  -3   4 1565.71 315.923   2
  -2   3   4 1209.93 289.275   5
   2  -3  -4 2421.80 297.198   3
   2  -3  -4 2123.99 335.679   6
  -2  -3   4 1498.25 217.233   7
   2   3  -4 1768.00 222.264   7
   2   3  -4 1347.72 217.903   4
  -2   3   3 12408.2 854.380   5
   2   3  -3 13085.4 668.638   4
  -2  -3   3 14696.2 856.931   2
  -2  -3   3 12858.2 614.759   7
   2  -3  -3 13823.4 855.818   6
   2   3  -3 15186.1 650.616   7
   2  -3  -3 16652.3 772.363   3
  -2  -3   2 14323.0 853.365   1
  -2   3   2 12153.1 840.512   5
  -2  -3   2 13766.1 659.545   7
   2  -3  -2 16321.8 757.589   3
  -2  -3   2 14751.1 836.915   2
   2   3  -2 14648.3 637.362   7
  -2   3   2 12066.1 857.679   4
   2  -3  -2 14105.3 845.493   6
  -2   3   1 2940.35 422.170   5
  -2  -3   1 2869.95 387.300   1
  -2   3   1 2598.17 397.101   4
  -2  -3   1 3244.33 379.406   2
   2   3  -1 2816.39 290.798   7
  -2  -3   1 3344.87 431.392   3
   2  -3  -1 3251.94 411.314   6
  -2  -3   0 1209.17 252.749   1
  -2   3   0 1583.54 329.338   5
  -2   3   0 1364.08 300.192   4
   2  -3   0 1484.91 278.595   6
  -2  -3   0 1668.31 271.156   2
   2   3   0 1525.30 227.940   7
  -2  -3   0 1487.83 290.560   3
  -2  -3  -1-40.2237 99.7562   1
  -2   3  -1-8.02502 150.489   5
  -2  -3  -1 23.0717 75.6110   3
   2   3   1 5.09670 47.2707   7
  -2  -3  -1-54.6574 52.9997   2
  -2   3  -1-173.806 158.071   4
   2  -3   1 40.6210 136.009   6
  -2  -3  -2 6361.04 499.705   1
   2   3   2 8358.57 596.751   7
  -2   3  -2 6516.91 640.028   5
  -2   3  -2 6644.00 641.395   4
  -2  -3  -2 7103.13 627.913   3
   2  -3   2 6691.83 572.617   6
  -2  -3  -2 6532.62 484.164   2
  -2   3  -3 28666.2 1337.37   4
  -2  -3  -3 32740.5 1388.40   3
   2   3   3 34093.5 1260.47   7
   2  -3   3 27929.1 1205.44   6
   2  -3   4 22801.6 1082.89   6
  -2  -3  -4 24827.5 1217.82   3
   2   3   4 24922.7 1097.93   7
   2  -3   5 44867.4 1542.11   6
   2   3   5 47232.4 1592.06   7
  -2  -3  -5 47942.9 1753.15   3
   2  -3   6 4670.59 497.355   6
  -2   3  -6 5157.90 617.634   4
   2   3   6 5138.10 544.516   7
  -2  -3  -6 5785.50 614.789   3
   2  -3   7 709.915 217.440   6
  -2   3  -7 531.491 229.484   4
  -2  -3  -7 470.946 169.838   3
   2   3   7 511.218 196.335   7
  -2  -3  -8 231.165 182.603   3
  -2   3  -8 145.974 178.516   4
   2  -3   8 86.0676 88.2507   6
   2   3   8 248.203 165.756   7
   2  -3   9 129.899 108.839   6
  -2  -3  -9 439.158 150.082   3
  -2   3  -9 826.717 300.709   4
   2  -3   9 443.445 204.213   2
   2   3   9 514.016 186.733   7
   2  -3  10 88.1705 112.933   6
  -2   3 -10-69.7408 196.955   4
   2  -3  10-118.676 113.771   2
   2   3  10 72.0235 110.396   7
  -2  -3 -10-202.364 152.262   3
  -2  -3 -11-48.6494 165.021   3
   2  -3  11-10.7371 73.4667   6
  -2   3 -11 265.137 200.557   4
   2  -3  11 111.733 106.325   2
   2   3  11-102.234 155.414   7
   2  -3  12 2635.06 486.664   2
  -2  -3 -12 3314.33 529.235   3
   2   3  12 2257.86 536.966   7
  -2   3 -12 2833.14 526.617   4
  -2  -3 -13 1311.28 351.084   3
   2   3  13 1047.05 382.086   7
  -2   3 -13 1356.63 372.895   4
   2  -3  13 640.754 239.096   2
   2  -3  14-193.316 242.114   2
  -2  -3 -14 5.55060 125.855   3
   2   3  14 48.8849 184.002   7
  -2   3 -14-269.381 236.848   4
  -2   3 -15 328.088 283.201   4
   2   3  15-209.329 247.983   7
   2  -4 -13-159.054 125.182   3
   2  -4 -12 29.5476 114.784   3
   2  -4 -11 212.691 155.262   6
   2  -4 -11 118.868 83.0570   3
  -2  -4  11 105.324 142.675   2
  -2  -4  10-265.944 188.592   2
   2  -4 -10-5.67551 118.430   3
   2  -4  -9-70.4361 163.099   6
   2  -4  -9 22.9212 93.0243   3
  -2  -4   9 138.531 149.663   2
   2  -4  -8-70.9166 93.5548   6
   2  -4  -8 135.420 98.3706   3
  -2  -4   8-66.8147 90.3526   2
   2  -4  -7 91.9426 125.956   6
   2  -4  -7-1.27891 63.8030   3
  -2  -4   7-54.0080 110.608   2
  -2   4   6 769.344 270.020   5
  -2  -4   6 838.571 245.585   2
   2  -4  -6 808.527 216.113   3
   2  -4  -6 601.840 210.632   6
   2  -4  -5 1377.34 319.735   6
  -2  -4   5 1066.49 275.760   2
  -2   4   5 970.212 299.253   5
   2  -4  -5 1448.42 284.562   3
   2  -4  -4 4005.62 582.226   6
  -2   4   4 4050.70 574.184   5
  -2  -4   4 3363.51 527.885   2
   2  -4  -4 4078.85 484.823   3
   2  -4  -3 1742.19 358.115   6
  -2   4   3 999.420 294.673   4
  -2   4   3 1203.78 338.924   5
  -2  -4   3 1441.23 338.222   2
   2   4  -3 1394.22 268.698   4
   2   4  -2 1180.54 267.553   4
  -2   4   2 1310.47 332.533   5
  -2  -4   2 1450.36 328.559   2
   2  -4  -2 1925.13 376.003   6
  -2   4   2 1572.11 351.181   4
   2  -4  -1 242.074 151.467   6
  -2   4   1-54.6009 156.742   5
  -2  -4   1 404.619 197.922   2
   2   4  -1 424.189 161.435   4
  -2   4   1 644.529 250.770   4
   2  -4   0 35.6636 112.407   6
  -2   4   0-59.3256 195.714   5
  -2  -4   0 130.713 121.684   2
  -2   4   0 64.6146 105.772   4
   2  -4   1 40.6734 122.959   6
  -2   4  -1 83.4500 193.364   5
  -2  -4  -1-119.778 144.082   3
  -2   4  -1-231.191 190.600   4
  -2   4  -2 1215.06 359.269   5
  -2  -4  -2 1134.90 314.506   3
  -2   4  -2 763.775 285.484   4
   2  -4   2 992.133 276.651   6
   2  -4   3 12261.8 938.984   6
  -2   4  -3 10470.6 939.158   4
  -2  -4  -3 12896.0 993.178   3
   2  -4   4 18114.6 1167.51   6
  -2   4  -4 15285.7 1128.66   4
  -2  -4  -4 18904.9 1192.33   3
   2  -4   5 61.4390 95.5699   6
  -2  -4  -5 422.550 241.683   3
  -2   4  -5 331.501 206.948   4
   2  -4   6 8596.53 793.391   6
  -2   4  -6 8301.41 858.632   4
  -2  -4  -6 9575.80 906.579   3
   2  -4   7 6009.68 665.682   6
  -2   4  -7 6287.80 746.263   4
  -2  -4  -7 7664.72 809.843   3
   2  -4   8-28.4657 97.9006   6
  -2  -4  -8-55.8690 122.006   3
  -2   4  -8-79.7886 198.129   4
  -2  -4  -9 139.760 165.144   3
   2  -4   9 287.719 139.224   6
  -2   4  -9 324.674 223.068   4
   2  -4  10-302.129 170.386   6
  -2   4 -10 127.827 187.034   4
  -2  -4 -10-46.4638 109.269   3
  -2   4 -11 583.232 287.774   4
  -2   4 -12 777.046 343.365   4
  -2  -5   6 108.126 141.567   2
  -2  -5   5 4.54420 116.510   2
  -2  -5   4 254.855 137.392   2
  -2   5   3 42.0714 158.326   5
  -2   5   2 230.686 192.688   5
  -2   5   2 93.8160 181.460   4
  -2   5   1-2.97069 118.203   4
  -2   5   1 151.812 240.703   5
  -2   5   0 2298.03 497.301   5
  -2   5   0 3501.83 642.484   4
  -2   5  -1 821.844 316.535   4
  -2   5  -1 982.877 318.044   5
  -2   5  -2 1617.35 468.737   5
  -2   5  -2 2132.20 523.792   4
  -2  -5  -3 574.412 254.639   3
  -2   5  -3 872.696 301.689   4
  -2   5  -4 428.326 269.429   4
  -3   0  19-54.0937 118.014   2
  -3   0  18 3375.34 499.396   2
  -3   0  17 66.4175 94.0094   2
  -3   0  16 303.592 127.351   2
  -3   0  15 19.2789 71.6800   1
  -3   0  15-12.9307 115.621   2
  -3   0  14 25078.7 1042.08   1
  -3   0  14 25101.3 1212.97   2
  -3   0  13 113.515 107.214   2
  -3   0  13 19.8890 84.3832   1
  -3   0  12 2432.10 227.216   5
  -3   0  12 2867.62 408.173   2
  -3   0  12 2660.65 311.511   1
  -3   0  11 71.2534 64.0672   1
  -3   0  11-64.9520 117.852   2
  -3   0  11 60.4999 75.8094   5
  -3   0  10 2879.29 247.653   5
  -3   0  10 3453.95 398.348   2
  -3   0  10 3304.90 327.403   1
  -3   0   9-42.9431 80.5781   1
  -3   0   9 150.891 77.5725   5
   3   0  -9 45.1347 78.9303   7
  -3   0   9-147.941 132.168   2
  -3   0   8 64667.6 1228.51   5
  -3   0   8 63385.8 1686.79   2
   3   0  -8 68629.6 1723.72   7
  -3   0   8 64232.7 1433.36   1
  -3   0   7-70.2639 92.5400   5
  -3   0   7-217.635 157.636   2
  -3   0   7 11.5198 79.8805   1
   3   0  -7 18.3822 76.9907   7
  -3   0   6 259021. 3187.03   1
   3   0  -6 262125. 3412.08   7
   3   0  -5 56.2602 46.2027   5
  -3   0   5 5.54486 69.2393   1
   3   0  -5-9.20248 58.5313   7
   3   0  -4 20097.2 617.976   5
  -3   0   4 19372.8 729.444   1
   3   0  -4 20924.1 800.124   7
  -3   0   4 18720.2 529.213   4
   3   0  -3 23.2935 78.4854   5
   3   0  -3 22.8405 40.5566   3
  -3   0   3 121.335 102.654   1
  -3   0   3 52.1486 47.0059   4
  -3   0   3-52.5312 89.1039   7
   3   0  -3-10.5101 47.1678   7
   3   0  -2 85631.7 1596.27   7
  -3   0   2 88728.9 1632.23   7
  -3   0   2 90011.6 1321.87   4
   3   0  -2 83202.3 1228.88   4
   3   0  -2 86293.5 1249.12   3
   3   0  -1 40.2045 27.6353   3
  -3   0   1-21.8555 35.0207   3
  -3   0   1-6.17552 64.6342   4
   3   0  -1 0.05728 45.3529   4
  -3   0   1 7.98625 46.1191   7
   3   0  -1 36.8841 44.9796   7
  -3   0   0 17025.1 513.961   3
  -3   0   0 16505.1 592.161   4
   3   0   0 17485.9 616.628   4
   3   0   0 16785.5 511.076   3
  -3   0   0 18268.8 710.299   7
   3   0   0 16447.6 678.071   7
  -3   0  -1-24.7473 40.5728   3
   3   0   1 75.1557 49.4559   3
  -3   0  -1 19.3973 96.8088   4
   3   0   1 19.7383 57.5064   4
   3   0   1-9.66376 56.3807   7
  -3   0  -1 85.5961 83.2436   7
  -3   0  -2 275466. 3242.59   4
   3   0   2 273415. 3309.16   4
  -3   0  -2 274903. 2891.69   3
   3   0   2 268385. 3348.35   7
   3   0   2 273312. 2941.25   3
  -3   0  -3 35.3641 54.0497   3
  -3   0  -3-33.3837 99.5556   4
   3   0   3 17.8067 69.0681   7
   3   0   3 59.8015 99.6695   3
  -3   0  -4 112.517 149.568   4
  -3   0  -4 51.8001 42.8535   2
  -3   0  -4-29.4678 62.4617   3
   3   0   4 70.5005 76.1041   7
   3   0   4-76.1297 124.785   3
  -3   0  -5-11.3770 28.3527   2
  -3   0  -5 162.519 125.742   4
   3   0   5 8.42080 86.6264   7
  -3   0  -5-50.4057 76.6168   3
   3   0   6 40357.8 1381.02   7
  -3   0  -6 40728.7 1210.83   3
  -3   0  -6 40052.2 955.459   2
  -3   0  -7 32.4075 37.8662   2
  -3   0  -7-73.1658 135.657   4
   3   0   7 3.63539 64.3052   7
  -3   0  -7 37.0939 118.941   3
  -3   0  -8 2635.12 387.918   4
  -3   0  -8 2610.10 349.483   3
  -3   0  -8 2316.74 230.192   2
   3   0   8 2402.15 366.907   7
  -3   0  -9 148.223 142.073   3
  -3   0  -9 153.501 120.189   4
   3   0   9 156.942 119.156   7
  -3   0 -10 857.955 260.029   4
   3   0  10 1090.49 263.941   7
  -3   0 -10 1066.57 298.275   3
   3   0  11 3.50083 75.2540   7
  -3   0 -11 162.833 140.221   3
   3   0  12 251.066 156.939   7
  -3   0 -12 145.994 153.038   3
   3   0  13 2.73395 82.9447   7
  -3   0 -13 13.5912 167.420   3
   3   0  14 879.116 284.334   7
  -3   0 -14 1146.27 338.516   3
   3   0  15-88.0441 157.313   7
  -3   0 -15-320.391 243.193   3
   3   0  16 1165.14 351.038   7
  -3   0 -16 2013.58 475.531   3
   3   0  17-36.7671 121.349   7
  -3   0 -17 41.1685 253.257   3
  -3  -1  20 117.384 178.895   2
  -3  -1  19 355.543 181.268   2
   3  -1 -19 573.526 223.555   3
  -3  -1  18-334.399 211.358   2
   3  -1 -18 546.152 300.099   3
  -3  -1  17 847.637 277.618   2
  -3   1  17 1580.53 309.614   2
   3  -1 -17 1398.37 466.217   3
  -3   1  16 1637.40 307.701   2
   3  -1 -16 1438.97 404.396   3
  -3  -1  16 1244.59 336.865   2
  -3  -1  15 611.062 212.813   2
   3  -1 -15 81.5468 193.038   3
  -3   1  15 637.428 189.409   2
  -3  -1  14 8190.21 661.454   1
  -3   1  14 9377.29 742.101   2
  -3  -1  14 7438.46 689.096   2
   3  -1 -14 8403.71 797.349   3
  -3  -1  13 37419.6 1432.62   1
  -3   1  13 44304.1 1574.46   2
  -3  -1  13 36739.2 1511.65   2
   3  -1 -13 41025.4 1655.17   3
   3  -1 -13 40034.7 1120.22   6
  -3   1  13 40331.6 1052.68   1
  -3   1  12 17223.4 998.981   2
  -3  -1  12 17483.5 1007.38   2
  -3  -1  12 17048.7 908.972   1
   3  -1 -12 19633.3 1097.87   3
  -3   1  12 18128.1 685.397   1
   3  -1 -11 24329.6 1164.25   3
  -3  -1  11 23005.8 805.002   4
  -3   1  11 24820.4 1092.82   2
  -3  -1  11 23786.7 1139.31   2
  -3  -1  11 22574.7 1034.27   1
  -3   1  11 24519.8 806.921   1
  -3  -1  10 2029.75 215.848   4
  -3  -1  10 1792.45 271.829   1
  -3   1  10 2296.44 249.631   1
   3  -1 -10 2397.35 369.453   3
  -3  -1  10 1801.67 320.810   2
  -3  -1   9 29364.8 740.197   4
  -3  -1   9 29710.2 1207.48   2
   3   1  -9 32384.5 1230.28   7
  -3  -1   9 28737.7 1094.90   1
  -3   1   9 30827.8 941.911   1
  -3   1   8 9939.87 589.085   5
  -3  -1   8 11114.8 377.509   4
  -3  -1   8 11414.6 717.115   2
  -3   1   8 12661.5 600.288   1
  -3  -1   8 11934.8 682.687   1
   3   1  -8 12751.2 732.186   7
  -3   1   7 12687.4 656.477   5
   3   1  -7 15217.8 770.425   7
  -3  -1   7 14054.8 758.418   2
  -3   1   7 12880.3 607.079   1
  -3  -1   7 14485.0 719.429   1
   3  -1  -7 14769.3 738.320   7
  -3   1   6 4914.50 401.989   5
  -3  -1   6 5635.43 466.001   2
   3   1  -6 5215.01 433.800   7
   3  -1  -6 5356.08 424.571   7
  -3  -1   6 5381.63 430.328   1
  -3  -1   5 1291.77 218.189   1
  -3   1   5 1181.40 196.410   5
   3  -1  -5 1070.69 186.249   7
   3  -1  -5 1085.91 163.346   3
  -3  -1   5 1205.15 211.704   2
   3   1  -5 1392.22 243.761   7
  -3   1   4 73851.1 1636.18   5
  -3  -1   4 77362.6 1642.63   2
   3  -1  -4 75513.0 1097.46   3
   3   1  -4 75193.1 1607.09   7
   3  -1  -4 74059.6 1497.55   7
  -3  -1   4 77009.4 1631.63   1
  -3   1   3-79.8718 147.033   5
  -3   1   3 27.0082 40.3498   7
  -3  -1   3 3.18582 73.6794   1
  -3   1   3 156.519 100.173   4
  -3  -1   3 47.5367 65.1088   2
   3  -1  -3 42.2646 32.4765   3
   3   1  -3 9.38239 65.6165   7
   3  -1  -3 87.7866 57.3303   7
  -3  -1   2 59.8949 58.0029   3
   3   1  -2 133.516 88.1899   7
  -3  -1   2 124.625 80.4122   1
   3   1  -2 62.4124 36.8354   4
  -3  -1   2 112.666 61.8327   2
   3  -1  -2 158.447 69.5901   7
  -3   1   2 120.531 65.5632   7
  -3   1   2 86.5720 53.1347   4
   3   1  -1 53204.4 937.171   4
  -3   1   1 52242.6 1317.79   4
  -3  -1   1 53672.5 1166.46   2
  -3  -1   1 51422.3 1268.19   1
   3   1  -1 51051.3 1294.54   7
  -3  -1   1 49310.6 1240.22   3
   3  -1  -1 53274.3 1149.16   7
   3   1   0 83028.8 1733.86   7
   3   1   0 89713.2 1402.09   4
  -3  -1   0 86395.8 1707.41   3
  -3   1   0 85710.7 1781.49   4
  -3  -1   0 88849.7 1459.94   2
  -3  -1   0 88118.0 1681.20   1
  -3   1   0 93324.0 1604.45   7
   3  -1   0 91764.5 1591.51   7
   3   1   1 123474. 1845.04   4
  -3   1  -1 115349. 2153.93   4
  -3  -1  -1 121709. 1656.97   2
   3  -1   1 125144. 1919.29   7
   3   1   1 128019. 2227.83   7
  -3   1  -1 120495. 1205.66   3
  -3  -1  -1 122047. 2010.95   1
  -3   1  -1 127716. 1921.81   7
  -3  -1  -1 118940. 2064.71   3
   3   1   2 7971.58 475.768   4
   3  -1   2 8247.03 480.096   7
  -3   1  -2 7304.42 553.295   4
  -3  -1  -2 8437.18 352.623   2
  -3  -1  -2 8105.89 508.106   3
  -3  -1  -2 8750.71 494.656   1
  -3   1  -2 8599.25 479.733   7
   3   1   2 8214.84 544.066   7
  -3   1  -2 8693.96 319.993   3
  -3   1  -3 332.548 91.2732   3
  -3  -1  -3 259.399 112.213   1
   3   1   3 223.945 94.4384   7
  -3   1  -3 274.617 152.251   4
  -3  -1  -3 301.327 104.350   3
  -3  -1  -3 174.189 56.4014   2
   3  -1   3 266.427 102.473   7
  -3   1  -4 3486.50 389.390   4
  -3  -1  -4 3560.74 185.571   2
   3  -1   4 3327.04 318.058   7
  -3  -1  -4 3381.39 298.934   1
  -3   1  -4 3533.18 311.664   3
  -3  -1  -4 4346.84 398.202   3
   3   1   4 3523.33 377.552   7
  -3   1  -5 613.377 185.634   4
  -3   1  -5 410.531 143.640   3
  -3  -1  -5 313.261 53.2942   2
  -3  -1  -5 317.386 52.1853   2
   3   1   5 533.830 157.991   7
  -3  -1  -5 513.636 154.251   3
   3  -1   5 329.206 107.836   7
  -3  -1  -6 38.9815 92.8337   3
   3   1   6 73.7070 105.578   7
  -3   1  -6-71.0328 117.150   4
  -3   1  -6-210.115 135.708   3
   3  -1   6 4.30278 54.1990   7
  -3   1  -7 5565.72 554.421   4
  -3   1  -7 6795.24 528.395   3
   3  -1   7 5881.34 507.531   7
   3   1   7 6257.70 591.880   7
  -3  -1  -7 5681.22 504.558   3
  -3   1  -8 2864.18 409.450   4
   3  -1   8 3197.94 401.442   7
   3   1   8 2809.86 414.571   7
  -3   1  -8 3507.38 446.969   3
  -3  -1  -8 2837.61 373.140   3
  -3   1  -9 6575.49 638.584   4
  -3  -1  -9 7966.81 637.432   3
   3  -1   9 7333.51 622.003   7
   3   1   9 8126.25 734.878   7
  -3   1  -9 8443.71 691.734   3
  -3   1 -10 1073.45 252.772   4
  -3   1 -10 1898.23 404.209   3
   3  -1  10 1297.77 277.130   7
   3   1  10 1618.10 341.214   7
  -3  -1 -10 1544.73 288.001   3
   3  -1  11 1478.41 203.099   6
   3   1  11 1534.43 323.242   7
  -3   1 -11 1423.82 337.807   4
   3  -1  11 1698.80 349.021   7
  -3   1 -11 1469.61 348.742   3
  -3  -1 -11 1829.96 339.219   3
  -3   1 -12 680.015 290.789   3
  -3   1 -12 294.122 193.564   4
  -3  -1 -12 74.8460 145.523   3
   3  -1  12 63.6224 99.9648   7
   3   1  12 219.894 166.831   7
  -3   1 -13-12.2440 147.878   4
  -3   1 -13-73.8649 236.792   3
   3   1  13 28.1588 100.945   7
   3  -1  13 36.3126 102.363   7
  -3  -1 -13 194.869 166.973   3
  -3   1 -14 2549.07 484.300   4
   3  -1  14 1764.95 387.727   7
   3   1  14 2598.93 504.922   7
  -3   1 -14 2993.23 549.615   3
  -3  -1 -14 2321.29 426.224   3
  -3   1 -15-346.174 269.297   4
   3  -1  15 24.2937 111.408   7
   3   1  15 133.150 112.505   7
  -3   1 -15 231.322 217.224   3
  -3  -1 -15 116.263 124.261   3
  -3  -1 -16 440.079 250.040   3
   3  -1  16 460.104 252.613   7
   3   1  16-71.9772 116.934   7
   3  -1  17 61.3969 107.049   7
  -3   1 -17 237.799 236.399   3
   3  -2 -19 1022.25 342.073   3
  -3  -2  18 1533.67 354.778   2
   3  -2 -18 1874.99 409.089   3
  -3  -2  17-97.4717 172.381   2
   3  -2 -17-109.413 196.129   3
  -3  -2  16 805.835 266.724   2
   3  -2 -16 1243.41 341.178   3
  -3  -2  15 385.860 211.671   2
   3  -2 -15 191.216 129.743   3
   3  -2 -14 406.417 213.786   3
  -3  -2  14 286.864 177.805   2
  -3   2  14 131.674 122.923   2
  -3  -2  13 114.979 146.502   2
   3  -2 -13-5.18317 80.3187   6
   3  -2 -13-112.119 140.403   3
  -3  -2  12 10472.4 817.182   1
  -3  -2  12 11491.5 906.609   2
   3  -2 -12 10302.3 729.971   3
   3  -2 -12 10679.7 655.837   6
  -3  -2  11 34231.4 1514.78   2
   3  -2 -11 33240.2 1267.07   3
  -3  -2  11 31833.6 1420.93   1
   3  -2 -11 35013.1 1234.19   6
  -3  -2  10 24398.2 1221.11   1
  -3  -2  10 26423.4 1280.07   2
  -3   2  10 28496.4 903.645   1
   3  -2 -10 25445.3 1051.88   3
   3  -2 -10 27254.2 1096.70   6
  -3  -2   9 9571.99 746.997   2
   3  -2  -9 8462.59 564.809   3
   3   2  -9 8880.25 655.039   7
   3  -2  -9 8700.81 632.986   6
  -3  -2   9 7933.58 671.033   1
  -3  -2   8 461.237 173.988   1
   3  -2  -8 354.556 179.264   6
   3   2  -8 244.458 94.5761   7
  -3  -2   8 451.679 172.604   2
   3  -2  -8 327.057 108.354   3
  -3   2   7 662.265 207.649   5
  -3  -2   7 1265.96 269.426   1
   3   2  -7 900.125 94.6210   4
   3  -2  -7 1093.13 216.448   6
   3  -2  -7 1054.49 169.961   3
   3   2  -7 445.148 58.8536   5
   3   2  -7 1249.58 235.158   7
  -3  -2   7 1256.89 264.099   2
   3  -2  -6 352.116 98.8424   3
   3  -2  -6 554.115 186.944   6
  -3   2   6 529.919 202.373   5
  -3  -2   6 445.678 159.692   1
   3   2  -6 266.140 56.8421   4
  -3  -2   6 473.132 144.642   2
   3   2  -6 438.217 127.657   7
   3  -2  -5 493.793 99.3426   3
  -3  -2   5 717.779 183.172   1
   3   2  -5 404.795 74.3166   4
  -3   2   5 551.970 173.531   5
   3   2  -5 854.039 181.465   7
  -3  -2   5 614.876 154.534   2
   3   2  -4 593.101 158.927   7
   3  -2  -4 503.647 102.784   3
  -3   2   4 527.345 150.256   5
   3   2  -4 403.940 74.9684   4
  -3   2   4 450.878 118.919   7
  -3  -2   4 718.954 199.549   1
  -3  -2   4 515.599 153.766   2
  -3   2   3 3754.37 417.786   5
  -3   2   3 3751.28 427.030   4
  -3  -2   3 3840.90 367.271   2
  -3   2   3 4036.77 319.095   7
  -3  -2   3 3987.80 400.659   1
   3  -2  -3 4365.54 311.876   7
   3  -2  -3 4440.19 254.974   3
   3   2  -3 4166.24 394.295   7
  -3  -2   2 45846.5 1422.90   3
  -3   2   2 42906.8 1452.49   5
  -3   2   2 42605.2 1441.02   4
  -3  -2   2 45811.0 1242.96   2
  -3   2   2 45544.7 814.383   3
   3   2  -2 48183.6 1336.01   7
   3  -2  -2 42909.0 976.045   7
  -3  -2   2 45798.5 1370.93   1
  -3   2   2 43672.4 1007.30   7
  -3   2   1 4299.79 450.241   5
  -3   2   1 4250.84 443.950   4
  -3  -2   1 4289.72 388.358   1
  -3  -2   1 4327.75 356.200   2
  -3   2   1 4570.73 233.436   3
   3  -2  -1 4029.96 279.383   7
  -3  -2   1 4217.99 436.102   3
   3   2  -1 4402.81 412.550   7
  -3   2   1 4452.82 299.271   7
  -3   2   0 10473.8 713.035   4
  -3  -2   0 11029.8 539.436   2
  -3   2   0 9884.68 717.597   5
   3   2   0 11759.9 669.317   7
   3  -2   0 11264.1 454.713   7
  -3   2   0 10637.9 362.519   3
  -3  -2   0 11380.1 634.713   1
  -3   2   0 11688.0 479.341   7
  -3  -2   0 9983.44 679.748   3
  -3  -2  -1 1056.80 157.277   2
  -3  -2  -1 1116.83 198.828   1
  -3  -2  -1 1273.77 253.891   3
   3   2   1 862.527 207.487   7
  -3   2  -1 875.600 207.653   4
  -3   2  -1 901.563 109.195   3
   3  -2   1 1031.88 138.641   7
  -3   2  -1 1119.97 151.829   7
   3  -2   2 8294.08 414.051   7
  -3   2  -2 6813.44 574.294   4
  -3  -2  -2 8322.66 396.340   2
   3   2   2 8182.72 628.635   7
  -3  -2  -2 7761.71 495.376   1
  -3  -2  -2 8148.88 605.998   3
  -3   2  -2 7030.40 330.374   3
  -3  -2  -3 308.406 68.3898   2
  -3  -2  -3 326.038 138.403   3
  -3  -2  -3 227.605 78.7451   1
   3   2   3 424.183 144.610   7
  -3   2  -3 252.710 148.432   4
   3  -2   3 324.960 99.3931   7
  -3  -2  -4 264.755 117.118   3
  -3  -2  -4 286.131 89.1186   1
  -3  -2  -4 218.320 49.8291   2
  -3   2  -4 198.076 121.272   4
   3   2   4 262.519 92.0097   7
   3  -2   4 314.024 110.690   7
   3  -2   4 571.902 202.102   6
  -3   2  -5 5292.12 571.551   4
   3   2   5 5396.10 536.080   7
   3  -2   5 5329.19 409.971   7
  -3  -2  -5 5235.38 367.727   1
  -3  -2  -5 4829.92 502.642   3
   3  -2   5 5742.63 490.111   6
  -3  -2  -6 55125.3 1779.02   3
  -3   2  -6 53336.7 1888.45   4
   3   2   6 55349.7 1774.70   7
   3  -2   6 55575.9 1417.26   7
  -3  -2  -6 53625.1 1200.88   1
   3  -2   6 56824.9 1582.11   6
  -3   2  -7 31897.2 1477.63   4
   3   2   7 34009.1 1451.11   7
  -3  -2  -7 31903.3 876.517   1
   3  -2   7 31316.1 1104.37   7
  -3  -2  -7 33013.5 1388.41   3
   3  -2   7 32891.3 1188.99   6
   3  -2   8 1691.90 264.973   6
  -3  -2  -8 1993.89 348.018   3
  -3   2  -8 1932.67 415.156   4
  -3  -2  -8 1901.62 199.783   1
   3   2   8 1516.47 315.868   7
   3  -2   8 1524.97 256.598   7
  -3  -2  -9 966.948 253.492   3
   3  -2   9 948.177 223.369   7
  -3   2  -9 774.260 296.967   4
   3   2   9 1050.39 277.473   7
   3  -2   9 843.042 178.739   6
  -3   2 -10 5099.23 652.733   4
  -3  -2 -10 4854.52 561.395   3
   3  -2  10 3886.22 472.365   7
   3   2  10 4176.28 594.205   7
   3  -2  10 3622.77 372.018   6
  -3  -2 -11 223.885 144.954   3
   3   2  11 142.067 186.126   7
  -3   2 -11-134.023 249.868   4
   3  -2  11 324.604 138.526   7
   3  -2  11 86.7842 82.2405   6
  -3  -2 -12 340.703 174.752   3
  -3   2 -12 415.902 256.193   4
   3  -2  12 68.3470 74.9782   7
   3   2  12 386.311 152.816   7
  -3  -2 -13-59.0237 118.172   3
  -3   2 -13-249.489 186.497   4
   3  -2  13-60.9320 122.593   7
   3   2  13-128.813 153.306   7
  -3  -2 -14-50.8553 125.291   3
  -3   2 -14 222.864 186.446   4
   3  -2  14 180.520 125.896   7
   3   2  14-97.9319 121.373   7
  -3  -2 -15-170.823 235.917   3
  -3   2 -15 177.571 169.791   4
   3  -2  15 114.162 96.0273   7
   3   2  15-162.500 219.459   7
  -3   2 -15-40.1443 418.862   3
  -3   2 -16 515.642 293.305   4
   3  -2  16 381.075 176.562   7
   3  -3 -17 2334.52 465.182   3
   3  -3 -16 35.8432 115.139   3
   3  -3 -15 1664.24 352.748   3
  -3  -3  15 1377.48 407.425   2
   3  -3 -14-157.917 162.425   3
  -3  -3  14-27.2601 102.771   2
  -3  -3  13 27.1146 132.325   2
   3  -3 -13-31.5573 106.630   3
  -3  -3  12 506.532 222.374   2
   3  -3 -12 557.144 210.535   6
   3  -3 -12 462.684 152.878   3
   3  -3 -11-67.7465 108.917   3
   3  -3 -11-17.6549 68.8358   6
  -3  -3  11-7.32801 92.4650   2
   3  -3 -10 1127.24 216.421   3
   3  -3 -10 1057.62 243.570   6
  -3  -3  10 1377.50 331.293   2
   3  -3  -9 3552.58 379.238   3
  -3  -3   9 2969.71 456.034   1
  -3  -3   9 3279.64 494.787   2
   3  -3  -9 4135.48 486.415   6
  -3  -3   8 9427.45 823.507   1
  -3   3   8 7592.23 732.204   5
  -3  -3   8 9013.03 795.520   2
   3  -3  -8 9800.73 616.321   3
   3   3  -8 9706.30 662.067   7
   3  -3  -8 9389.74 736.111   6
   3  -3  -7 2230.15 371.870   6
  -3  -3   7 1404.08 310.636   2
  -3   3   7 1487.86 322.639   5
   3   3  -7 1683.69 271.930   7
  -3  -3   7 1730.87 341.895   1
   3  -3  -7 1874.43 261.702   3
   3  -3  -6-84.5471 147.286   6
  -3  -3   6-51.2549 88.9864   2
   3  -3  -6 58.5806 57.3277   3
  -3   3   6 81.6556 139.593   5
  -3  -3   6-23.3400 128.176   1
   3   3  -6-57.0840 94.9769   7
   3  -3  -5 1057.00 257.479   6
  -3  -3   5 751.956 211.317   2
   3  -3  -5 649.819 153.409   3
  -3   3   5 438.371 218.110   5
   3   3  -5 731.412 178.625   7
   3   3  -5 503.620 117.616   4
  -3  -3   5 731.356 211.242   1
  -3  -3   4 2585.05 418.633   1
  -3   3   4 2830.82 443.083   5
   3   3  -4 2463.15 260.368   4
  -3  -3   4 2259.24 360.488   2
   3   3  -4 2426.31 329.746   7
   3  -3  -4 2666.78 295.357   3
   3  -3  -4 2751.97 400.388   6
   3  -3  -3 603.355 196.830   6
  -3  -3   3 236.537 121.579   2
  -3   3   3 488.134 280.533   5
  -3  -3   3 371.628 171.883   1
   3   3  -3 197.348 68.6059   4
  -3   3   3 199.159 125.034   4
   3   3  -3 193.821 95.4192   7
   3  -3  -2 209.472 156.746   6
  -3  -3   2 2.71692 89.6597   2
  -3   3   2 38.8291 140.598   5
  -3  -3   2 116.616 122.522   1
  -3   3   2 302.938 161.594   4
   3   3  -2 102.107 94.6559   7
   3  -3  -1 220.159 110.641   6
  -3  -3   1-11.4343 93.3511   1
  -3   3   1 9.99012 179.884   5
  -3  -3   1 128.610 113.880   2
  -3  -3   1-80.3215 81.2013   3
  -3   3   1 272.307 168.555   4
   3   3  -1 161.450 106.287   7
   3  -3   0-121.901 113.444   6
  -3  -3   0-24.7614 83.2649   1
  -3   3   0 195.573 185.760   5
  -3  -3   0-22.3610 54.8815   2
  -3  -3   0 8.21243 120.510   3
  -3   3   0 147.936 123.799   4
   3   3   0-194.912 145.607   7
  -3  -3  -1 275.775 102.683   1
  -3   3  -1 533.359 222.059   5
  -3  -3  -1 429.788 161.236   3
  -3  -3  -1 348.402 119.682   2
   3  -3   1 300.296 137.131   6
  -3   3  -1 229.143 160.458   4
   3   3   1 398.942 134.261   7
   3  -3   2 1525.69 286.050   6
  -3  -3  -2 1570.23 324.201   3
  -3  -3  -2 1551.42 265.487   1
  -3   3  -2 1251.47 336.849   4
  -3  -3  -2 1510.81 224.890   2
   3   3   2 1693.33 300.703   7
  -3  -3  -3 16692.5 833.550   1
  -3   3  -3 15185.6 1025.18   4
   3   3   3 20142.4 1077.26   7
  -3  -3  -3 16482.2 693.493   2
   3  -3   3 17119.3 957.024   6
  -3  -3  -3 19127.4 1118.60   3
  -3   3  -4 20815.4 1219.08   4
  -3  -3  -4 25460.4 1308.89   3
   3   3   4 25951.9 1242.12   7
  -3  -3  -4 22092.6 920.434   1
   3  -3   4 22314.3 1095.34   6
  -3   3  -5 14614.7 1045.85   4
  -3  -3  -5 16873.1 1063.11   3
   3   3   5 16454.8 1013.63   7
  -3  -3  -5 15685.1 751.901   1
   3  -3   5 14500.2 890.400   6
  -3  -3  -6 7615.16 743.229   3
  -3   3  -6 6752.48 726.253   4
   3   3   6 6997.00 697.082   7
   3  -3   6 6157.50 570.243   6
  -3  -3  -6 6842.10 476.320   1
   3  -3   7 58.6424 107.581   6
  -3  -3  -7 37.2111 85.8215   3
  -3   3  -7-183.688 235.127   4
   3   3   7-119.672 114.246   7
   3  -3   8 1788.86 293.574   6
  -3  -3  -8 2167.25 412.629   3
   3   3   8 1614.44 371.127   7
  -3   3  -8 1563.66 378.308   4
   3  -3   9 737.099 218.892   6
  -3  -3  -9 848.767 286.623   3
  -3   3  -9 737.428 280.046   4
   3   3   9 501.047 245.706   7
   3  -3  10 1203.54 267.902   6
  -3  -3 -10 1294.75 341.959   3
  -3   3 -10 696.034 326.649   4
   3   3  10 673.706 264.037   7
  -3  -3 -11 2546.89 478.145   3
  -3   3 -11 3038.33 553.469   4
   3   3  11 2485.39 529.031   7
  -3  -3 -12 11.3645 121.023   3
  -3   3 -12-239.635 205.209   4
   3   3  12 4.06862 80.0052   7
  -3   3 -13 2067.04 480.689   4
   3   3  13 603.556 277.432   7
  -3   3 -14-219.966 252.286   4
   3   3  14 183.718 198.003   7
   3  -4 -11 176.454 164.727   6
  -3  -4  11-239.051 208.870   2
  -3   4  11 124.499 144.188   5
   3  -4 -10-281.292 224.957   6
  -3  -4  10-32.7977 139.827   2
  -3   4  10 168.163 126.418   5
  -3   4   9 1041.01 314.335   5
  -3  -4   9 1467.43 369.418   2
   3  -4  -8 840.180 249.279   6
  -3   4   8 861.054 301.499   5
  -3  -4   8 537.863 212.104   2
   3  -4  -7 179.499 169.777   6
  -3   4   7 61.9557 171.937   5
  -3  -4   7 97.9509 158.030   2
   3  -4  -6 360.891 163.281   6
  -3   4   6 730.485 284.711   5
  -3  -4   6 537.182 205.456   2
   3  -4  -5 192.346 142.493   6
  -3   4   5 211.354 167.408   5
  -3  -4   5 419.223 140.797   2
  -3   4   5-126.385 136.242   4
   3  -4  -4 11.8254 91.2953   6
  -3   4   4 112.371 142.327   5
  -3  -4   4 58.1263 123.042   2
  -3   4   4 14.2619 167.547   4
   3  -4  -3 675.612 240.928   6
  -3   4   3 920.019 336.725   5
  -3  -4   3 325.792 138.020   2
  -3   4   3 581.143 225.955   4
   3  -4  -2 38.5643 128.382   6
  -3   4   2 45.6878 176.163   5
  -3  -4   2-77.2152 100.193   2
  -3   4   2-73.0102 94.5579   4
  -3   4   1 388.098 205.130   5
   3  -4  -1 237.692 165.332   6
  -3  -4   1 617.559 224.018   2
  -3   4   1 324.777 155.760   4
   3  -4   0 129.523 149.907   6
  -3   4   0 170.101 251.129   5
  -3  -4   0 185.378 159.472   3
  -3  -4   0 101.126 97.9818   2
  -3   4   0 250.018 217.889   4
   3  -4   1 1673.97 373.562   6
  -3   4  -1 2126.14 488.202   5
  -3  -4  -1 2005.14 431.361   3
  -3   4  -1 2180.83 463.067   4
   3  -4   2 4518.07 570.198   6
  -3   4  -2 4136.80 639.435   4
  -3  -4  -2 4352.33 598.162   3
   3  -4   3 205.926 137.390   6
  -3  -4  -3-90.3788 141.654   3
  -3   4  -3 379.909 289.192   4
   3  -4   4 5404.42 645.796   6
  -3   4  -4 5755.95 717.478   4
  -3  -4  -4 6615.00 741.591   3
   3  -4   5 7007.08 744.832   6
  -3   4  -5 6881.97 830.534   4
  -3  -4  -5 7549.96 809.286   3
   3  -4   6 82.0049 98.1874   6
  -3  -4  -6-59.3028 163.326   3
  -3   4  -6 129.240 159.141   4
   3  -4   7 288.792 211.151   6
  -3  -4  -7 202.467 155.410   3
  -3   4  -7 51.7117 177.072   4
   3  -4   8 4.06860 144.056   6
  -3  -4  -8-5.29201 127.692   3
  -3   4  -8 114.369 196.540   4
   3  -4   9-122.958 120.083   6
  -3   4  -9-49.5260 206.235   4
   3  -4  10 465.636 158.080   6
  -3   4 -10 615.877 333.979   4
  -3  -5   6 172.404 175.885   2
  -3  -5   5-25.3548 140.630   2
  -3  -5   4-54.9164 213.516   2
  -4   0  20-244.141 248.995   2
  -4   0  19-229.834 206.578   2
  -4   0  18 2077.15 409.522   2
  -4   0  17-161.736 162.088   2
  -4   0  16 3628.99 519.126   2
  -4   0  15 133.610 114.024   1
  -4   0  15-212.357 179.559   2
  -4   0  14 8150.11 741.588   2
  -4   0  14 7810.18 602.330   1
  -4   0  13 70.7927 92.1081   5
  -4   0  13-147.144 105.837   1
  -4   0  13-210.512 169.720   2
  -4   0  12 677.131 171.887   5
  -4   0  12 598.164 199.982   2
  -4   0  12 657.873 153.065   1
  -4   0  11-8.27657 82.9959   1
  -4   0  11 145.833 106.469   2
   4   0 -11 237.792 161.589   7
  -4   0  10 15061.2 919.856   2
   4   0 -10 15932.4 920.295   7
  -4   0  10 15941.5 805.618   1
  -4   0   9 25.7872 105.174   2
  -4   0   9-33.5738 77.5173   1
   4   0  -9 33.5914 69.4213   7
  -4   0   8 11864.5 735.177   2
   4   0  -8 11195.1 717.232   7
  -4   0   8 12268.0 695.661   1
  -4   0   7 77.9998 81.2349   1
   4   0  -7 66.6677 64.9161   7
   4   0  -6 15094.4 579.485   5
  -4   0   6 14531.4 535.835   4
  -4   0   6 17046.6 806.953   1
   4   0  -6 15681.8 801.255   7
   4   0  -5-0.63854 56.4252   5
  -4   0   5-17.6315 91.6164   1
  -4   0   5-40.9807 66.6010   4
   4   0  -5-9.90589 81.8631   7
  -4   0   4 115.049 97.0893   1
   4   0  -4 93.4715 65.4893   3
  -4   0   4 82.7340 48.4906   4
   4   0  -4 54.4140 82.2320   7
   4   0  -3-24.6050 29.6496   3
  -4   0   3 36.8934 62.7666   4
   4   0  -3-17.2089 69.1484   7
  -4   0   2 14653.5 586.046   4
   4   0  -2 13626.9 543.675   4
   4   0  -2 13886.6 714.253   7
   4   0  -2 14180.9 537.256   3
   4   0  -1-19.7799 34.8258   3
  -4   0   1-42.5419 45.5548   3
  -4   0   1 2.77006 75.0884   4
   4   0  -1 29.5330 45.8628   4
   4   0  -1 128.581 103.176   7
  -4   0   0 87916.3 1636.72   4
   4   0   0 87913.8 1855.96   7
   4   0   0 83469.5 1405.58   3
  -4   0   0 84045.0 1429.07   3
  -4   0  -1 58.4614 61.5249   3
   4   0   1-49.9223 72.3487   7
  -4   0  -1-167.120 149.440   4
   4   0   1-54.9297 58.3882   3
   4   0   2 150166. 2172.94   3
  -4   0  -2 147691. 2480.51   4
  -4   0  -2 150906. 2194.18   3
  -4   0  -3-21.0993 71.3485   3
  -4   0  -3-51.1772 127.906   4
   4   0   3-88.9776 105.348   7
   4   0   3 44.7673 108.834   3
  -4   0  -4 530.435 146.803   3
  -4   0  -4 911.726 210.996   4
   4   0   4 604.822 177.547   7
  -4   0  -5 65.1959 113.162   3
  -4   0  -5 66.0819 131.025   4
   4   0   5-54.8860 77.7706   7
  -4   0  -6 1016.14 212.333   3
  -4   0  -6 546.773 141.905   4
   4   0   6 830.518 221.051   7
  -4   0  -7 191.600 153.501   4
   4   0   7-26.0764 112.120   7
  -4   0  -7-34.9545 86.8705   3
  -4   0  -8 39414.9 1387.64   3
  -4   0  -8 34797.1 1410.19   4
   4   0   8 37674.3 1525.52   7
  -4   0  -9-178.178 153.120   4
   4   0   9-42.8893 90.8295   7
  -4   0  -9-19.6059 130.740   3
   4   0  10 65073.7 2185.78   7
  -4   0 -10 67561.6 2022.54   3
  -4   0 -11-6.96166 133.282   4
   4   0  11 16.3868 125.433   7
  -4   0 -11 66.5677 126.426   3
   4   0  12 553.724 204.007   7
  -4   0 -12 455.629 191.187   3
   4   0  13-119.867 175.279   7
  -4   0 -13-57.4865 148.635   3
   4   0  14 54.1042 84.2785   7
  -4   0 -14 89.1223 158.285   3
   4   0  15-26.4740 112.654   7
  -4   0 -15-12.6554 183.146   3
   4   0  16-94.0494 148.844   7
  -4   0 -16-207.644 242.572   3
  -4  -1  20 1006.83 281.393   2
   4  -1 -20 1778.47 498.533   3
   4  -1 -19-255.428 212.201   3
  -4  -1  19-199.877 178.447   2
  -4   1  18 392.382 253.964   2
   4  -1 -18 698.948 324.586   3
  -4  -1  18 212.744 137.897   2
  -4  -1  17 180.471 75.9491   1
  -4   1  17 533.173 217.553   2
   4  -1 -17 802.786 344.043   3
  -4  -1  17 291.712 189.569   2
  -4   1  16 207.966 99.7378   5
  -4  -1  16 40.6602 123.152   1
  -4   1  16 675.712 206.675   2
   4  -1 -16 558.909 302.913   3
  -4  -1  16 813.581 260.266   2
  -4  -1  15 2753.85 416.401   1
  -4   1  15 1563.68 275.105   5
  -4   1  15 2282.75 434.048   2
   4  -1 -15 3076.91 514.433   3
  -4  -1  15 2495.50 431.313   2
  -4   1  14 755.904 213.699   5
  -4   1  14 1065.56 298.324   2
   4  -1 -14 1406.97 389.463   3
  -4  -1  14 739.671 217.199   2
  -4  -1  14 578.380 198.590   1
  -4   1  13 437.636 132.972   1
  -4   1  13 67.9519 77.6755   5
  -4  -1  13 516.646 181.255   1
  -4   1  13 563.329 182.160   2
  -4  -1  13 206.882 163.872   2
  -4  -1  12 32.6043 82.2557   1
  -4   1  12 119.506 142.959   5
  -4   1  12 220.312 166.762   2
  -4  -1  12 149.735 148.781   2
  -4   1  12 93.9329 103.541   1
  -4   1  11 957.993 215.848   5
  -4   1  11 1305.26 227.822   1
  -4  -1  11 917.843 253.894   2
  -4  -1  11 1129.58 240.561   1
   4   1 -11 1072.80 273.209   7
  -4   1  10-66.5739 105.674   5
  -4  -1  10 14.2913 47.0079   4
  -4   1  10-14.4157 90.6238   1
  -4  -1  10 23.9849 84.6134   1
  -4  -1  10 47.2395 144.266   2
   4   1 -10-124.787 120.561   7
  -4   1   9 11115.4 683.845   5
  -4  -1   9 12443.7 813.504   2
  -4   1   9 13356.2 732.357   1
   4  -1  -9 12121.0 770.861   7
   4   1  -9 12603.9 803.133   7
  -4  -1   9 12657.3 758.212   1
  -4   1   8-47.2338 81.0725   1
  -4   1   8-45.0130 109.257   5
  -4  -1   8-106.649 85.9394   1
  -4  -1   8-4.09560 103.630   2
   4   1  -8-61.4871 78.2943   7
   4  -1  -8-16.7969 100.672   7
  -4   1   7 11072.1 678.537   5
  -4  -1   7 12711.3 768.919   2
  -4  -1   7 11845.8 717.009   1
   4   1  -7 12040.8 736.540   7
   4  -1  -7 11799.1 705.038   7
  -4   1   6 9712.94 629.897   5
  -4  -1   6 10208.9 668.607   2
   4  -1  -6 9701.90 609.244   7
   4   1  -6 10793.5 700.601   7
  -4  -1   6 9888.87 640.090   1
  -4   1   5 61522.4 1676.07   5
  -4  -1   5 60493.0 1609.84   2
  -4  -1   5 60300.5 1594.64   1
   4  -1  -5 59212.4 1507.64   7
   4   1  -5 60537.9 1628.84   7
  -4   1   4 3202.61 348.128   4
  -4  -1   4 3958.92 384.295   2
  -4  -1   4 3964.12 387.218   1
   4   1  -4 3811.56 384.982   7
   4  -1  -4 3781.33 369.674   7
   4   1  -3 744.083 98.1463   4
  -4   1   3 1106.46 209.570   4
  -4  -1   3 1398.24 237.311   1
  -4  -1   3 1423.78 234.935   2
   4   1  -3 1212.29 213.717   7
   4  -1  -3 1190.86 199.849   7
   4   1  -2 17605.2 537.859   4
  -4   1   2 18071.9 843.742   4
  -4  -1   2 19909.0 801.839   2
  -4  -1   2 19674.9 857.928   1
   4   1  -2 21051.1 956.363   7
   4  -1  -2 20540.7 830.886   7
  -4  -1   2 18700.9 794.925   3
  -4  -1   1 804.225 168.350   3
   4  -1  -1 979.644 184.911   7
  -4  -1   1 955.336 161.902   2
  -4  -1   1 905.873 185.188   1
   4   1  -1 972.095 156.072   4
  -4   1   1 668.042 173.093   4
   4   1  -1 836.672 177.346   7
  -4   1   0 10698.3 667.260   4
  -4  -1   0 11863.4 557.671   2
   4   1   0 11796.3 692.258   7
   4  -1   0 12505.7 658.806   7
  -4  -1   0 12389.8 680.917   1
  -4  -1   0 12693.0 675.947   3
  -4  -1  -1 1596.27 251.711   1
  -4  -1  -1 1615.59 193.668   2
  -4  -1  -1 1700.53 250.341   3
  -4   1  -1 1685.36 291.142   4
   4  -1   1 1776.63 266.357   7
  -4   1  -1 1409.91 116.133   3
   4   1   1 1636.28 264.778   7
  -4   1  -2 21455.8 1010.15   4
  -4  -1  -2 22243.7 913.508   1
   4   1   2 23477.6 1055.75   7
  -4  -1  -2 22663.9 939.444   3
  -4   1  -2 22763.5 572.302   3
   4  -1   2 23618.3 937.208   7
  -4   1  -3 62372.8 1772.28   4
   4   1   3 62770.3 1756.41   7
  -4  -1  -3 64360.7 1552.85   1
  -4  -1  -3 63640.3 1622.88   3
   4  -1   3 66856.5 1683.54   7
  -4   1  -3 62664.2 1138.35   3
  -4   1  -4 6665.42 607.745   4
  -4  -1  -4 6352.60 484.641   1
   4   1   4 7044.55 593.666   7
  -4  -1  -4 6306.17 515.204   3
  -4   1  -4 6585.61 391.790   3
   4  -1   4 6562.61 517.355   7
  -4  -1  -5 275.771 100.107   3
  -4   1  -5 359.264 138.987   4
   4   1   5 395.831 166.005   7
   4  -1   5 483.168 150.896   7
  -4   1  -5 430.106 142.556   3
  -4   1  -6 12871.4 885.289   4
  -4  -1  -6 12360.9 390.616   2
  -4  -1  -6 12785.5 797.700   3
   4   1   6 12624.6 875.926   7
   4  -1   6 13527.6 810.772   7
  -4   1  -6 12801.3 657.698   3
  -4   1  -7 67402.2 2118.37   4
  -4  -1  -7 67720.6 911.801   2
   4   1   7 69396.6 2104.50   7
   4  -1   7 69374.5 1945.68   7
  -4   1  -7 71939.0 1716.14   3
  -4  -1  -7 72212.1 1974.36   3
   4   1   8 35701.8 1553.00   7
  -4   1  -8 34700.4 1546.16   4
  -4  -1  -8 34152.0 1398.13   3
   4  -1   8 35293.3 1412.00   7
  -4   1  -8 36189.9 1314.07   3
  -4   1  -9 4989.35 601.149   4
  -4   1  -9 6074.89 535.747   3
   4   1   9 4634.78 583.782   7
   4  -1   9 4789.89 552.647   7
  -4  -1  -9 5359.10 551.379   3
  -4  -1 -10 690.082 220.490   3
  -4   1 -10 748.460 276.228   4
   4   1  10 546.378 212.921   7
   4  -1  10 448.445 207.868   7
  -4   1 -10 696.134 224.785   3
  -4  -1 -11 4.01952 118.513   3
  -4   1 -11 81.8247 172.331   4
   4   1  11-14.0496 103.834   7
   4  -1  11 304.750 171.200   7
  -4   1 -11 310.680 213.391   3
  -4   1 -12 3029.23 514.212   4
   4  -1  12 3107.93 509.768   7
   4   1  12 3368.63 566.113   7
  -4  -1 -12 4131.86 566.122   3
  -4   1 -12 4116.64 552.447   3
  -4  -1 -13 243.971 165.854   3
  -4   1 -13 182.153 180.266   4
   4  -1  13-13.0122 124.224   7
   4   1  13 139.374 147.390   7
  -4   1 -13 268.869 170.961   3
  -4  -1 -14 98.1032 204.193   3
  -4   1 -14 55.4273 166.998   4
   4  -1  14 57.7366 160.523   7
   4   1  14-61.6289 196.702   7
  -4   1 -14 154.129 212.234   3
  -4  -1 -15 1104.70 304.887   3
  -4   1 -15 1109.91 327.534   4
   4  -1  15 438.597 187.923   7
   4   1  15 969.870 283.798   7
  -4   1 -15 706.841 344.403   3
   4  -1  16 700.894 269.699   7
  -4   1 -16 1034.79 307.264   3
   4  -2 -19 38.3230 163.885   3
  -4   2  18 53.5090 138.850   5
   4  -2 -18 330.723 183.311   3
  -4  -2  17 289.144 187.562   2
  -4   2  17 39.2693 140.773   5
   4  -2 -17 510.409 271.499   3
  -4  -2  16 1441.40 380.661   2
  -4   2  16 711.169 138.701   5
   4  -2 -16 1367.64 341.860   3
  -4  -2  15 395.929 187.249   2
  -4   2  15 325.583 207.490   2
  -4   2  15-11.5437 171.800   5
  -4  -2  15 192.483 85.7960   1
   4  -2 -15 55.0820 132.838   3
  -4  -2  14 4129.28 558.107   1
  -4   2  14 3444.95 461.253   5
   4  -2 -14 5224.47 585.584   3
  -4  -2  14 5066.55 659.746   2
  -4  -2  13 4177.22 548.755   1
  -4   2  13 3031.64 454.179   5
  -4  -2  13 4545.60 611.226   2
   4  -2 -13 4444.24 505.116   3
   4  -2 -13 4657.99 481.990   6
  -4   2  12 6838.14 642.789   5
   4  -2 -12 8382.88 641.443   3
  -4  -2  12 7913.74 774.670   2
   4  -2 -12 8736.06 660.045   6
  -4  -2  12 8694.95 779.602   1
  -4   2  11 2711.42 403.479   5
  -4  -2  11 3708.54 516.295   2
   4  -2 -11 3686.91 399.041   3
   4   2 -11 3436.02 461.490   7
  -4  -2  11 3719.14 493.743   1
   4  -2 -11 3707.83 457.136   6
  -4   2  10 5886.03 592.432   5
  -4  -2  10 6591.09 658.744   2
  -4   2  10 6761.96 534.226   1
   4  -2 -10 7011.84 514.306   3
   4   2 -10 7458.59 660.472   7
  -4  -2  10 6569.65 647.724   1
  -4   2   9 205.767 164.300   5
  -4  -2   9 194.350 81.0916   1
  -4  -2   9 8.30133 113.233   2
   4   2  -9 166.205 107.941   7
   4  -2  -9 98.8469 80.2363   3
  -4  -2   8 46.4603 105.553   1
  -4   2   8 580.195 214.089   5
   4   2  -8 480.602 170.080   7
  -4  -2   8 465.309 169.998   2
   4  -2  -8 368.865 105.468   3
   4  -2  -7 301.385 97.7947   3
   4   2  -7 339.811 129.071   7
  -4   2   7 309.306 191.899   5
  -4  -2   7 295.201 173.689   1
  -4  -2   7 47.9688 76.7388   2
   4  -2  -6-49.6099 50.4351   3
  -4   2   6-84.2738 157.084   5
  -4  -2   6 82.7049 85.7094   1
   4   2  -6 34.0125 64.8171   7
  -4  -2   6 53.8435 69.7683   2
   4  -2  -6-14.9105 83.5768   7
  -4   2   5 8047.40 683.283   5
   4   2  -5 8531.63 648.743   7
  -4   2   5 8044.02 662.322   4
  -4  -2   5 8067.87 608.157   2
   4  -2  -5 8699.72 553.549   7
  -4  -2   5 7963.73 640.570   1
   4  -2  -5 8113.53 335.808   3
  -4   2   4 12530.9 835.626   5
  -4   2   4 11769.4 805.089   4
   4  -2  -4 11038.0 338.949   3
  -4  -2   4 13106.0 739.550   2
   4   2  -4 13671.7 784.002   7
   4  -2  -4 13423.4 654.821   7
  -4  -2   4 13304.9 801.732   1
  -4   2   3 13477.8 891.979   5
  -4   2   3 12902.5 843.141   4
  -4  -2   3 12981.6 704.961   2
   4   2  -3 13556.9 784.007   7
   4  -2  -3 13326.2 632.014   7
  -4  -2   3 13617.8 791.299   1
  -4  -2   2 1164.91 224.062   1
  -4  -2   2 1111.50 243.492   3
   4   2  -2 953.146 131.701   4
  -4   2   2 1027.42 251.994   4
   4   2  -2 1190.35 258.036   7
   4  -2  -2 1225.28 184.215   7
  -4  -2   2 852.361 165.726   2
   4   2  -1 3432.22 293.019   4
  -4   2   1 4150.44 479.760   4
  -4  -2   1 3940.05 350.874   2
  -4   2   1 3781.52 344.001   7
   4   2  -1 4855.96 481.045   7
   4  -2  -1 4517.23 351.417   7
  -4  -2   1 3853.52 407.559   1
  -4  -2   1 3766.50 444.746   3
   4   2   0 6574.96 568.916   7
  -4   2   0 6211.72 603.596   4
  -4  -2   0 5461.84 398.313   2
   4  -2   0 6396.14 417.360   7
  -4   2   0 6380.43 443.215   7
  -4  -2   0 6274.89 518.186   1
  -4  -2   0 6280.45 564.304   3
  -4  -2  -1 1202.00 211.810   1
  -4  -2  -1 1164.11 248.083   3
  -4  -2  -1 1342.27 186.692   2
   4  -2   1 1395.17 201.957   7
  -4   2  -1 1489.81 312.464   4
   4   2   1 1439.40 273.883   7
  -4  -2  -2 1085.09 239.106   3
  -4  -2  -2 1345.66 171.045   2
  -4   2  -2 892.833 108.379   3
  -4   2  -2 1003.57 281.762   4
   4  -2   2 1323.67 212.125   7
   4   2   2 1144.59 252.912   7
  -4   2  -2 780.116 90.7899   3
  -4  -2  -2 1267.85 231.024   1
  -4  -2  -3 62.1842 45.7657   2
  -4  -2  -3 88.7346 92.1371   3
  -4   2  -3 31.5160 119.104   4
   4   2   3-57.2488 95.3820   7
   4  -2   3-25.7938 69.8259   7
  -4  -2  -3 45.0662 75.1083   1
  -4  -2  -4 1446.38 287.223   3
  -4  -2  -4 1671.71 260.890   1
  -4   2  -4 1080.50 284.899   4
  -4  -2  -4 1554.94 138.719   2
   4  -2   4 1867.96 268.438   7
   4   2   4 1588.09 288.803   7
  -4   2  -5 42848.8 1746.61   4
   4  -2   5 46781.3 1404.73   7
  -4  -2  -5 45623.6 1308.85   1
  -4  -2  -5 43120.6 1593.46   3
   4   2   5 45600.0 1706.79   7
  -4  -2  -6 6916.34 638.771   3
  -4   2  -6 6359.68 680.989   4
   4   2   6 6597.97 670.364   7
  -4  -2  -6 7442.41 506.355   1
   4  -2   6 7200.84 552.845   7
  -4   2  -7 3200.30 509.191   4
  -4   2  -7 3035.20 390.178   3
  -4  -2  -7 2659.50 406.261   3
   4   2   7 2699.20 433.006   7
   4  -2   7 3012.64 378.482   7
  -4  -2  -7 3035.18 322.144   1
   4  -2   7 2907.68 373.560   6
   4  -2   8-89.4327 136.154   6
  -4  -2  -8 3.46404 81.8089   3
  -4   2  -8-262.225 171.602   4
  -4   2  -8 9.86101 157.960   3
   4   2   8-24.4427 69.0494   7
   4  -2   8-39.8026 59.0448   7
  -4  -2  -8-51.8333 83.9438   1
  -4  -2  -9 2586.40 438.116   3
  -4   2  -9 2284.91 483.929   4
   4   2   9 2512.59 480.178   7
   4  -2   9 2319.25 377.480   7
  -4   2  -9 2918.85 419.036   3
   4  -2   9 3288.42 397.420   6
   4  -2  10 57.7133 118.371   6
  -4  -2 -10 189.354 143.830   3
  -4   2 -10-137.968 260.226   4
  -4   2 -10 257.470 186.216   3
   4   2  10 76.4814 138.323   7
   4  -2  10 7.60630 97.3215   7
  -4  -2 -11 95.7500 184.937   3
  -4   2 -11-366.321 254.344   4
   4   2  11-101.731 106.516   7
   4  -2  11-32.2138 99.4319   7
  -4   2 -11 156.540 204.897   3
  -4  -2 -12 1249.91 335.836   3
  -4   2 -12 567.535 273.912   4
   4  -2  12 615.526 215.287   7
   4   2  12 934.483 321.202   7
  -4  -2 -13 1835.80 407.028   3
  -4   2 -13 1059.30 358.022   4
   4   2  13 1120.67 368.167   7
   4  -2  13 1048.79 295.033   7
  -4  -2 -14 1362.91 385.933   3
  -4   2 -14 2012.64 505.663   4
   4   2  14 988.035 329.170   7
   4  -2  14 781.336 249.993   7
  -4   3  16 713.212 265.270   5
  -4   3  15 887.426 263.963   5
  -4  -3  14 323.574 196.939   2
  -4   3  14-109.585 195.864   5
   4  -3 -13 648.978 220.515   6
  -4  -3  13 190.105 161.742   2
  -4   3  13 257.180 213.124   5
   4  -3 -12 145.670 114.195   6
  -4  -3  12 144.309 140.444   2
  -4   3  12-83.6739 124.289   5
  -4  -3  12-186.905 175.770   1
  -4   3  11 3002.11 473.601   5
  -4  -3  11 3611.82 553.615   2
  -4  -3  11 2726.90 455.060   1
   4  -3 -11 3844.50 502.607   6
  -4  -3  10 9409.80 872.049   1
  -4   3  10 7016.15 748.216   5
  -4  -3  10 8669.71 841.596   2
   4   3 -10 8572.27 697.348   7
   4  -3 -10 9301.67 767.458   6
  -4  -3   9 27338.8 1480.48   1
  -4   3   9 23951.7 1399.22   5
  -4  -3   9 25616.8 1395.29   2
   4   3  -9 27628.5 1235.75   7
   4  -3  -9 26095.3 1312.47   6
   4  -3  -8 181.586 116.886   6
  -4  -3   8 712.057 234.362   2
  -4   3   8 210.658 139.261   5
  -4  -3   8 312.589 175.871   1
   4   3  -8 523.228 168.077   7
  -4   3   7 5756.79 656.989   5
  -4  -3   7 5612.33 627.678   2
   4   3  -7 6051.35 553.419   7
   4  -3  -7 6116.39 625.674   6
  -4  -3   7 6049.38 656.560   1
   4  -3  -6 2267.77 385.992   6
  -4   3   6 2202.57 427.644   5
  -4  -3   6 2457.77 405.587   2
   4   3  -6 2458.94 355.281   7
  -4  -3   6 2166.60 397.362   1
   4  -3  -5 65.2049 97.3640   6
  -4  -3   5-60.0235 102.716   2
  -4   3   5 325.319 209.717   5
  -4  -3   5-101.776 103.480   1
   4   3  -5-202.052 157.373   7
  -4   3   5 62.2184 100.653   4
   4  -3  -4-22.7287 133.862   6
  -4   3   4 89.3468 181.470   5
  -4  -3   4-158.272 104.466   2
  -4  -3   4-43.3221 109.164   1
  -4   3   4 92.5379 133.599   4
   4   3  -4-3.66617 74.5020   7
   4  -3  -3 290.620 178.626   6
  -4  -3   3 95.1434 59.7538   2
  -4   3   3 305.926 200.842   5
  -4  -3   3 145.172 113.994   1
  -4   3   3 171.597 151.576   4
   4   3  -3 220.347 122.220   7
  -4   3   2 6180.07 734.600   5
  -4   3   2 4588.76 602.452   4
  -4  -3   2 6035.28 536.960   2
   4   3  -2 7216.09 630.806   7
  -4  -3   2 6183.82 604.761   1
   4  -3  -2 6055.96 604.418   6
   4  -3  -1 2544.60 390.291   6
  -4  -3   1 2296.21 404.406   3
  -4  -3   1 2194.77 349.433   1
  -4  -3   1 2219.28 309.171   2
   4   3  -1 2765.45 420.487   7
  -4   3   1 1937.08 407.009   4
   4  -3   0 946.725 268.452   6
  -4  -3   0 877.173 191.145   2
  -4  -3   0 1311.44 273.946   1
  -4  -3   0 775.208 203.437   3
  -4   3   0 833.396 274.548   4
   4   3   0 1487.54 312.679   7
   4  -3   1 739.662 199.262   6
  -4  -3  -1 906.782 219.942   1
  -4  -3  -1 1209.96 216.753   2
  -4  -3  -1 955.008 260.366   3
  -4   3  -1 1022.10 319.500   4
   4   3   1 1201.11 273.902   7
   4  -3   2 1163.08 258.931   6
  -4  -3  -2 1029.37 238.347   1
  -4  -3  -2 1092.88 300.221   3
   4   3   2 1175.60 272.353   7
  -4  -3  -2 1317.94 202.218   2
  -4   3  -2 977.905 293.091   4
  -4  -3  -3 380.211 117.417   1
   4  -3   3 551.400 166.064   6
  -4  -3  -3 516.413 184.358   3
  -4   3  -3 174.991 163.859   4
   4   3   3 602.692 207.860   7
   4  -3   4 1021.97 269.101   6
  -4  -3  -4 595.541 172.409   1
  -4  -3  -4 447.485 219.623   3
  -4   3  -4 700.744 305.368   4
   4   3   4 810.874 264.010   7
   4  -3   5 244.949 174.894   6
  -4  -3  -5 187.250 98.6757   1
  -4  -3  -5-110.961 80.1666   3
  -4   3  -5-3.02675 217.939   4
   4   3   5 136.490 96.3194   7
   4  -3   6 1123.44 285.059   6
  -4  -3  -6 1362.62 324.095   3
  -4   3  -6 1090.26 355.308   4
   4   3   6 1343.85 329.313   7
   4  -3   7 186.784 98.9609   6
  -4  -3  -7 324.013 181.317   3
  -4   3  -7 104.893 207.398   4
   4   3   7 382.771 196.030   7
   4  -3   8 563.774 191.607   6
  -4  -3  -8 913.890 299.375   3
  -4   3  -8 388.283 244.363   4
   4   3   8 695.793 240.406   7
   4  -3   9-48.7858 81.4343   6
  -4  -3  -9-79.7561 107.846   3
  -4   3  -9 9.28742 198.485   4
   4   3   9 241.284 170.810   7
   4  -3  10 17.7149 126.671   6
  -4  -3 -10 268.288 217.547   3
  -4   3 -10 55.8168 205.744   4
   4   3  10-154.996 150.867   7
  -4  -3 -11 1494.46 373.731   3
  -4   3 -11 1117.38 357.290   4
   4   3  11 419.407 224.968   7
   4   3  12 1830.03 446.158   7
  -4   3 -12 1506.89 441.480   4
   4  -4 -12 275.752 206.247   6
   4  -4 -11 3560.32 561.542   6
  -4  -4  11 2900.37 568.892   2
   4  -4 -10 4131.91 593.848   6
  -4   4  10 4874.58 721.641   5
  -4  -4  10 6388.78 792.129   2
   4  -4  -9 683.691 249.840   6
  -4  -4   9 436.620 218.737   2
  -4   4   9 975.848 323.979   5
   4  -4  -8 10469.7 933.639   6
  -4   4   8 8658.23 946.908   5
  -4  -4   8 9638.83 920.172   2
   4  -4  -7 3882.61 547.078   6
  -4   4   7 3551.51 594.857   5
  -4  -4   7 3981.45 584.887   2
  -4   4   7 2358.81 493.123   4
   4  -4  -6 808.759 239.600   6
  -4   4   6 335.414 217.769   5
  -4  -4   6 723.741 245.978   2
  -4   4   6 530.375 210.111   4
   4  -4  -5 115.046 136.857   6
  -4   4   5-207.115 221.666   5
  -4  -4   5-73.3549 75.8857   2
  -4  -4   5 120.297 163.142   1
  -4   4   5-111.732 87.5533   4
   4  -4  -4 70.3488 136.318   6
  -4   4   4 137.627 234.262   5
  -4  -4   4 0.22416 72.8856   2
  -4  -4   4-228.637 179.308   1
  -4   4   4-14.0073 133.669   4
   4  -4  -3-96.6590 156.305   6
  -4   4   3 423.460 250.786   5
  -4  -4   3 259.256 115.665   2
  -4  -4   3 73.3813 91.8416   1
  -4   4   3 171.314 189.678   4
   4  -4  -2 83.8206 84.9052   6
  -4   4   2-165.941 236.183   5
  -4  -4   2 22.8766 84.8869   2
  -4  -4   2 142.088 120.005   1
  -4   4   2 181.780 155.744   4
   4  -4  -1 991.991 290.064   6
  -4   4   1 601.492 338.354   5
  -4   4   1 423.142 239.074   4
  -4  -4   1 233.452 146.686   1
   4  -4   0 428.870 219.680   6
  -4  -4   0 564.504 271.046   3
  -4   4   0 467.396 252.773   4
  -4  -4   0 585.999 215.996   1
  -4  -4  -1-30.7499 95.7564   1
   4  -4   1 348.796 162.604   6
  -4  -4  -1 289.324 162.600   3
  -4   4  -1 250.544 250.011   4
   4  -4   2 190.307 151.728   6
  -4  -4  -2 608.535 257.005   3
  -4  -4  -2 311.742 168.177   1
  -4   4  -2 235.862 165.195   4
   4  -4   3 827.795 244.496   6
  -4  -4  -3 923.832 272.994   3
  -4   4  -3 269.050 153.970   4
   4  -4   4 432.634 155.911   6
  -4  -4  -4 364.591 192.160   3
  -4   4  -4 10.4422 206.304   4
   4  -4   5 174.537 168.804   6
  -4  -4  -5 217.355 193.656   3
  -4   4  -5 195.493 211.757   4
   4  -4   6 132.970 143.274   6
  -4  -4  -6 13.9545 99.2980   3
  -4   4  -6 47.2301 189.664   4
   4  -4   7 15.9776 128.862   6
  -4   4  -7 250.262 270.295   4
   4  -4   8-75.0890 90.1106   6
   4  -4   9 62.4129 114.463   6
  -5   0  20 1989.29 455.242   2
  -5   0  19 135.452 178.881   2
  -5   0  18 103.085 158.240   2
  -5   0  17-30.1845 123.989   2
  -5   0  16 1675.82 317.124   1
  -5   0  16 1102.24 301.003   2
  -5   0  15-185.157 113.732   1
  -5   0  15-320.143 221.638   2
  -5   0  14 3468.96 496.228   2
  -5   0  14 3783.44 466.455   1
  -5   0  13 268.496 149.475   1
  -5   0  13-264.395 176.994   2
  -5   0  12 22757.7 1272.20   2
   5   0 -12 21365.5 1211.32   7
  -5   0  12 23957.7 1143.07   1
  -5   0  11 89.0211 171.931   2
   5   0 -11 28.6245 104.995   7
  -5   0  11 14.0846 93.4968   1
  -5   0  10 188.457 199.805   2
  -5   0  10-69.5701 76.3958   1
   5   0 -10 12.5209 120.430   7
  -5   0   9 93.0192 116.948   1
  -5   0   9 33.5708 157.841   2
   5   0  -9 8.83982 86.2535   7
   5   0  -8 24451.7 1120.16   7
  -5   0   8 26029.5 1130.38   1
  -5   0   7-84.9052 163.224   1
  -5   0   7 9.51672 53.0427   4
   5   0  -7-38.9430 95.8508   7
  -5   0   6 842.489 213.605   1
  -5   0   6 845.672 149.143   4
   5   0  -6 700.765 187.367   7
  -5   0   5-66.9171 121.059   1
  -5   0   5-122.039 76.5392   4
   5   0  -5 155.473 126.715   7
  -5   0   4 14338.6 641.493   4
  -5   0   4 14764.1 815.322   1
   5   0  -4 13835.3 793.503   7
   5   0  -4 14647.1 634.986   3
   5   0  -3 39.4463 39.1778   3
  -5   0   3 33.8521 73.3867   4
   5   0  -3-6.62834 66.1492   7
   5   0  -2 347.897 90.4376   3
  -5   0   2 583.906 163.755   4
   5   0  -2 574.352 178.462   7
   5   0  -1-0.36162 60.2022   3
  -5   0   1 21.7028 41.1857   3
  -5   0   1 81.2271 86.9855   4
   5   0  -1 67.0799 79.5337   7
  -5   0   0 27.9107 40.7087   3
  -5   0   0-0.81323 98.2239   4
   5   0   0-92.8242 118.105   7
   5   0   0-10.3721 51.7633   3
  -5   0  -1-44.3482 56.9993   3
  -5   0  -1-126.145 136.832   4
   5   0   1 45.6787 67.7571   7
   5   0   1-8.21813 68.6784   3
  -5   0  -2 12139.6 704.321   4
   5   0   2 12229.7 780.532   7
  -5   0  -2 12246.0 631.230   3
  -5   0  -3 84.0357 107.268   3
  -5   0  -3 12.3548 115.180   4
   5   0   3 103.975 72.0602   7
  -5   0  -4 2856.37 377.790   4
   5   0   4 3457.82 445.890   7
  -5   0  -4 3503.69 360.408   3
  -5   0  -5 111.795 63.0579   3
  -5   0  -5-68.0080 151.537   4
   5   0   5 21.6248 64.1829   7
  -5   0  -6 831.873 209.761   3
  -5   0  -6 951.756 254.119   4
   5   0   6 1117.54 280.889   7
  -5   0  -7-74.9477 121.929   3
   5   0   7 159.470 142.327   7
  -5   0  -7-33.2891 144.823   4
  -5   0  -8 93103.8 2536.92   4
   5   0   8 101257. 2788.34   7
  -5   0  -8 100370. 2322.75   3
  -5   0  -9-78.2630 90.7812   3
  -5   0  -9 93.8862 182.438   4
   5   0   9-43.6552 116.224   7
  -5   0 -10 5836.93 674.831   4
   5   0  10 5568.60 666.179   7
  -5   0 -10 6031.24 593.840   3
  -5   0 -11-87.5327 124.612   3
  -5   0 -11 39.6091 128.053   4
   5   0  11-406.848 215.966   7
   5   0  12 2473.20 485.500   7
  -5   0 -12 3193.06 476.894   3
   5   0  13 280.757 255.864   7
  -5   0 -13 112.131 108.756   3
   5   0  14 267.672 196.059   7
  -5   0 -14 24.4308 130.286   3
  -5   0 -15 184.088 159.272   3
   5  -1 -20-188.066 280.689   3
  -5   1  19-28.8025 162.164   2
   5  -1 -19-44.5393 208.228   3
  -5  -1  19-48.6589 176.950   2
  -5  -1  18 726.211 224.469   1
  -5   1  18 537.348 237.006   2
   5  -1 -18 1689.31 389.604   3
  -5  -1  18 1537.79 405.390   2
  -5  -1  17-124.791 133.344   1
  -5   1  17 230.274 234.384   2
   5  -1 -17-149.693 245.376   3
  -5  -1  17-264.825 233.863   2
   5  -1 -16 124.678 200.083   3
  -5   1  16-30.6556 124.211   2
  -5  -1  16 515.476 239.570   2
  -5  -1  16 75.2191 134.032   1
  -5   1  15 1879.34 314.288   5
  -5  -1  15 2515.14 425.544   1
   5  -1 -15 2886.91 483.110   3
  -5   1  15 3404.70 556.392   2
  -5  -1  15 2383.18 445.912   2
  -5   1  14 2371.63 377.307   5
  -5  -1  14 3140.60 442.567   1
  -5   1  14 2717.66 481.105   2
  -5  -1  14 2834.21 483.020   2
  -5   1  13 13750.2 875.453   5
  -5   1  13 16839.8 1124.95   2
  -5  -1  13 16081.1 1109.21   2
   5   1 -13 16712.2 1122.93   7
  -5  -1  13 15824.9 1020.63   1
  -5   1  13 18589.5 986.440   1
  -5   1  12 524.256 211.402   5
   5   1 -12 631.060 208.899   7
  -5  -1  12 442.904 140.505   1
  -5   1  12 717.741 207.455   1
  -5  -1  12 441.514 217.828   2
  -5   1  11 839.349 167.399   5
  -5  -1  11 1577.67 284.818   1
  -5   1  11 1403.51 272.912   1
  -5  -1  11 1350.71 342.942   2
   5   1 -11 1027.61 264.605   7
   5  -1 -11 1595.64 313.686   7
  -5   1  10 585.670 199.224   5
  -5  -1  10 194.094 111.186   1
  -5   1  10 342.943 191.257   1
  -5  -1  10 238.957 124.634   2
   5   1 -10 253.247 129.362   7
   5  -1 -10 355.591 165.730   7
  -5   1   9 2785.41 400.558   5
  -5  -1   9 2911.75 415.364   2
  -5   1   9 3717.93 442.770   1
   5   1  -9 3219.35 427.080   7
   5  -1  -9 2966.33 402.779   7
  -5  -1   9 3007.52 402.347   1
  -5  -1   8 112.593 99.0647   1
  -5   1   8 123.365 115.905   1
  -5  -1   8 88.7422 153.623   2
   5   1  -8 81.8128 67.0803   7
   5  -1  -8 182.869 87.6248   7
   5   1  -7 1961.05 233.947   5
   5   1  -7 2318.09 358.821   7
  -5   1   7 1719.32 275.416   4
   5  -1  -7 2424.08 343.272   7
  -5  -1   7 2481.25 366.362   2
  -5  -1   7 1974.33 316.781   1
  -5   1   6 1529.08 260.576   4
  -5  -1   6 1545.36 273.975   2
  -5  -1   6 1872.11 314.308   1
   5   1  -6 1475.20 277.647   7
   5  -1  -6 1542.29 250.334   7
  -5   1   5 6488.81 524.978   4
  -5  -1   5 7079.65 571.524   2
  -5  -1   5 6643.55 566.271   1
   5   1  -5 6942.99 584.141   7
   5  -1  -5 7163.76 579.437   7
   5  -1  -5 6815.72 312.423   3
  -5   1   4 8604.31 634.696   4
  -5  -1   4 9508.84 645.945   2
   5  -1  -4 8756.48 306.433   3
   5   1  -4 8970.06 666.432   7
  -5  -1   4 8904.55 647.827   1
   5  -1  -4 9769.82 654.078   7
  -5  -1   3 1017.07 234.379   1
  -5   1   3 766.886 193.726   4
   5   1  -3 232.313 61.0835   4
  -5  -1   3 1050.30 213.335   2
   5   1  -3 712.628 195.957   7
   5  -1  -3 902.871 188.040   7
  -5  -1   2 989.570 200.093   3
  -5  -1   2 1064.16 221.389   1
  -5   1   2 798.522 224.515   4
   5   1  -2 609.002 115.181   4
  -5  -1   2 980.150 220.094   2
   5   1  -2 994.888 231.174   7
   5  -1  -2 719.738 179.710   7
  -5  -1   1 860.185 186.092   3
  -5  -1   1 1155.45 211.115   2
  -5  -1   1 878.939 193.139   1
   5   1  -1 695.600 137.890   4
  -5   1   1 1250.41 248.391   4
   5   1  -1 874.605 212.601   7
   5  -1  -1 988.158 217.335   7
  -5   1   0 9363.80 686.370   4
  -5  -1   0 10471.2 691.064   1
   5   1   0 8934.11 666.023   7
   5  -1   0 11053.6 715.237   7
  -5  -1   0 9654.66 628.894   3
  -5   1  -1-13.1284 26.5965   3
  -5  -1  -1 89.8964 104.211   3
  -5  -1  -1 155.973 110.803   1
  -5   1  -1 90.4841 123.316   4
   5   1   1-92.9318 106.301   7
   5  -1   1 20.0522 85.9419   7
  -5   1  -2 8979.99 719.331   4
  -5  -1  -2 9547.36 663.425   1
   5   1   2 8889.88 706.820   7
   5  -1   2 9271.23 646.743   7
  -5   1  -2 9241.21 388.625   3
  -5  -1  -2 9330.41 635.569   3
  -5   1  -3 7663.44 672.530   4
  -5  -1  -3 8301.08 629.012   3
  -5  -1  -3 8655.53 626.479   1
   5   1   3 8665.04 736.855   7
   5  -1   3 8588.47 647.553   7
  -5   1  -3 8860.93 440.140   3
  -5   1  -4 25.2397 51.4219   3
  -5  -1  -4-59.3791 123.664   1
  -5  -1  -4-58.4020 96.0326   3
  -5   1  -4-221.675 197.398   4
   5   1   4 31.3568 84.6458   7
   5  -1   4-105.208 99.1290   7
  -5  -1  -5 1270.18 251.785   3
  -5   1  -5 1115.00 273.458   4
  -5  -1  -5 1346.57 249.365   1
   5  -1   5 1219.16 264.299   7
   5   1   5 1504.36 332.276   7
  -5   1  -5 1243.13 193.999   3
  -5   1  -6 8096.38 760.354   4
   5   1   6 8266.86 749.846   7
   5  -1   6 8466.74 698.887   7
  -5   1  -6 8136.81 522.150   3
  -5  -1  -6 8054.14 672.493   3
  -5  -1  -7 529.357 152.942   3
  -5   1  -7 434.961 194.989   4
   5   1   7 483.737 215.315   7
   5  -1   7 507.120 173.809   7
  -5   1  -7 607.029 157.341   3
  -5  -1  -8 696.172 201.416   3
  -5   1  -8 682.085 240.392   4
   5   1   8 613.110 218.748   7
   5  -1   8 872.468 255.926   7
  -5   1  -8 991.199 234.025   3
  -5   1  -9 3329.83 541.842   4
   5   1   9 3423.34 547.511   7
   5  -1   9 3540.20 506.224   7
  -5   1  -9 4127.67 470.188   3
  -5  -1  -9 3844.00 508.567   3
  -5   1 -10 19289.2 1287.92   4
   5   1  10 19802.7 1317.74   7
   5  -1  10 19361.5 1257.33   7
  -5   1 -10 20116.1 1058.80   3
  -5  -1 -10 19616.9 1180.33   3
  -5   1 -11 12742.2 1069.69   4
   5   1  11 12077.9 1043.59   7
   5  -1  11 11586.4 969.519   7
  -5   1 -11 12948.1 903.854   3
  -5  -1 -11 12459.1 956.153   3
  -5  -1 -12 1274.73 312.782   3
  -5   1 -12 1042.41 357.288   4
   5   1  12 1346.95 369.129   7
   5  -1  12 1046.27 299.077   7
  -5   1 -12 949.370 263.229   3
   5   1  13 461.718 203.321   7
  -5   1 -13 834.747 260.283   4
  -5  -1 -13 587.998 181.062   3
   5  -1  13 500.767 241.926   7
  -5   1 -13 523.234 189.250   3
  -5  -1 -14 613.510 249.136   3
  -5   1 -14 300.193 200.439   4
   5   1  14 456.449 178.238   7
   5  -1  14 52.8548 104.367   7
   5  -1  15 1020.58 330.011   7
  -5  -2  17 311.915 175.899   2
  -5   2  17 393.976 223.828   5
  -5  -2  17 29.4938 131.187   1
   5  -2 -17 92.3319 157.603   3
  -5  -2  16 1791.93 392.725   1
  -5   2  16 1001.93 253.684   5
  -5   2  16 2033.81 500.028   2
   5  -2 -16 2432.15 431.882   3
  -5  -2  16 2941.07 554.005   2
  -5   2  15 200.316 115.018   5
  -5   2  15 70.7570 164.987   2
  -5  -2  15 229.633 188.635   1
   5  -2 -15 265.543 146.027   3
  -5  -2  15-59.3026 103.892   2
  -5   2  14 3878.36 527.588   5
  -5  -2  14 4481.97 659.876   2
   5  -2 -14 4692.02 530.416   3
  -5  -2  14 4791.31 628.991   1
  -5   2  13 15.9532 141.269   5
  -5  -2  13 208.376 128.729   1
   5  -2 -13 29.5769 119.379   3
  -5  -2  13 46.0096 90.9727   2
   5   2 -13 260.452 192.074   7
  -5   2  12 1502.52 330.732   5
  -5  -2  12 1683.82 382.653   1
  -5  -2  12 1674.08 380.920   2
   5  -2 -12 1865.08 300.813   3
   5   2 -12 1423.01 294.637   7
  -5   2  11-65.0288 139.491   5
  -5  -2  11-91.8648 117.150   1
  -5   2  11 58.5474 107.919   1
  -5  -2  11-6.23298 151.525   2
   5  -2 -11-176.092 124.455   3
   5   2 -11 39.9738 104.431   7
  -5  -2  10-108.135 101.113   1
  -5   2  10 336.256 201.113   5
  -5   2  10-128.102 127.640   1
  -5  -2  10 166.177 120.427   2
   5   2 -10 29.8616 82.4384   7
   5  -2 -10 111.083 83.7587   3
  -5   2   9 1273.20 335.549   5
  -5  -2   9 1087.91 265.258   1
  -5  -2   9 1459.04 323.074   2
   5   2  -9 1483.80 309.909   7
   5  -2  -9 1446.06 205.809   3
  -5   2   8 26858.7 1344.54   5
  -5  -2   8 29093.7 1352.42   2
   5   2  -8 29645.6 1335.72   7
   5  -2  -8 27912.6 1204.67   7
   5  -2  -8 25125.5 740.630   3
  -5  -2   8 28127.5 1357.11   1
  -5   2   7 20128.4 1149.94   5
  -5   2   7 18002.5 1070.39   4
  -5  -2   7 20619.3 1095.85   2
   5   2  -7 22274.4 1162.16   7
   5  -2  -7 21063.0 996.155   7
   5  -2  -7 17230.0 538.932   3
  -5  -2   7 19731.9 1117.34   1
  -5   2   6 13422.5 969.143   5
  -5   2   6 9967.22 801.376   4
  -5  -2   6 11924.7 810.309   2
   5   2  -6 12027.7 862.390   7
   5  -2  -6 11769.0 729.250   7
   5  -2  -6 9439.85 322.406   3
  -5  -2   6 12191.2 846.755   1
  -5   2   5 7092.79 678.472   4
  -5  -2   5 8390.73 658.955   2
   5   2  -5 8037.25 668.627   7
  -5  -2   5 7714.03 670.751   1
   5  -2  -5 8434.84 595.313   7
  -5   2   4 4812.96 544.632   4
  -5  -2   4 5689.71 520.876   2
  -5  -2   4 5594.45 568.376   1
   5   2  -4 6569.93 600.401   7
   5  -2  -4 5234.88 461.021   7
  -5  -2   3 23.8312 76.8051   1
  -5   2   3 105.424 160.380   4
   5   2  -3-55.5487 98.2653   7
  -5  -2   3 115.503 92.7526   2
   5  -2  -3 53.9726 85.9837   7
  -5  -2   2 415.258 113.295   1
  -5  -2   2 486.644 185.795   3
  -5   2   2 236.037 148.690   4
   5   2  -2 362.670 151.855   7
  -5  -2   2 399.066 130.004   2
   5  -2  -2 529.639 156.868   7
  -5  -2   1 89.6098 130.723   3
  -5   2   1 228.060 170.575   4
   5   2  -1 10.9497 63.6286   7
  -5  -2   1 59.0167 73.0407   2
   5  -2  -1 192.841 103.435   7
  -5  -2   1 44.7724 90.3647   1
  -5  -2   0 1236.77 270.293   3
  -5  -2   0 1641.77 244.315   2
  -5   2   0 1422.58 321.369   4
   5   2   0 1415.48 311.170   7
   5  -2   0 1569.77 248.588   7
  -5  -2   0 1554.78 276.980   1
  -5  -2  -1 321.270 144.259   3
  -5   2  -1 462.648 159.891   4
   5   2   1 486.891 167.976   7
  -5  -2  -1 302.514 140.538   1
   5  -2   1 425.900 130.263   7
  -5  -2  -1 417.884 112.259   2
  -5  -2  -2 2767.31 267.822   2
  -5   2  -2 3035.19 483.465   4
   5   2   2 2844.77 425.959   7
   5  -2   2 2836.82 356.388   7
  -5  -2  -2 2726.70 352.264   1
  -5  -2  -2 2974.61 433.203   3
  -5  -2  -3 4548.33 309.813   2
   5  -2   3 4723.54 450.822   7
  -5   2  -3 4164.95 549.857   4
   5   2   3 4739.71 554.531   7
  -5  -2  -3 4466.18 538.703   3
  -5  -2  -3 4621.99 472.183   1
  -5   2  -4 11104.4 949.624   4
   5   2   4 12070.0 927.529   7
   5  -2   4 11847.1 720.709   7
  -5  -2  -4 12399.4 766.691   1
  -5  -2  -4 11581.9 841.748   3
  -5  -2  -5 1484.24 300.772   3
  -5   2  -5 823.582 291.450   4
  -5  -2  -5 1087.38 223.030   1
   5   2   5 1041.75 273.051   7
   5  -2   5 1309.10 248.088   7
  -5  -2  -6 4385.83 542.894   3
  -5   2  -6 4305.83 627.556   4
   5   2   6 3874.76 571.206   7
   5  -2   6 4816.94 515.473   7
  -5  -2  -6 4972.97 472.038   1
  -5  -2  -7 1569.92 338.715   3
  -5   2  -7 1715.26 408.250   4
  -5  -2  -7 1629.99 287.781   1
   5   2   7 1221.56 314.035   7
   5  -2   7 1507.49 295.133   7
  -5  -2  -8 26.4938 90.9233   3
  -5   2  -8 146.762 166.507   4
   5   2   8 180.565 128.467   7
   5  -2   8 49.6959 82.9716   7
  -5  -2  -9 861.226 238.604   3
  -5   2  -9 1402.96 405.849   4
   5   2   9 1072.26 326.655   7
   5  -2   9 809.463 240.207   7
   5  -2   9 1064.95 281.778   6
   5  -2  10 603.489 199.182   6
  -5  -2 -10 32.1721 140.676   3
  -5   2 -10 36.4515 175.998   4
   5   2  10 407.900 192.856   7
   5  -2  10 231.460 84.5750   7
  -5  -2 -11 1992.40 429.347   3
  -5   2 -11 1443.13 394.198   4
   5   2  11 1345.03 370.629   7
   5  -2  11 1215.95 307.258   7
  -5  -2 -12 1098.78 353.141   3
  -5   2 -12 481.519 336.240   4
   5   2  12 557.019 259.032   7
   5  -2  12 299.354 197.617   7
  -5   3  16 416.803 309.187   5
  -5   3  15 314.289 252.475   5
  -5  -3  14 19.4276 188.684   2
  -5   3  14-334.051 223.038   5
  -5  -3  14 23.7262 146.318   1
  -5  -3  13 619.391 259.706   2
   5  -3 -13 1091.25 288.479   6
  -5   3  13 589.468 327.604   5
  -5  -3  13 280.229 163.957   1
  -5  -3  12 190.673 153.119   2
   5  -3 -12 235.216 159.999   6
  -5   3  12 441.468 221.742   5
  -5  -3  12 33.9153 135.492   1
   5   3 -12 206.504 118.903   7
  -5  -3  11 2581.39 486.357   2
  -5   3  11 2318.27 455.800   5
  -5  -3  11 2104.47 426.590   1
   5   3 -11 2848.82 451.546   7
   5  -3 -11 3646.62 508.509   6
   5  -3 -10 3489.03 513.584   6
  -5   3  10 3245.04 555.240   5
  -5  -3  10 3968.46 594.021   2
   5   3 -10 4237.78 520.030   7
  -5  -3  10 4219.94 614.031   1
  -5   3   9 13862.1 1092.70   5
  -5  -3   9 14581.3 1087.71   2
   5   3  -9 15160.7 983.492   7
  -5  -3   9 14818.9 1096.72   1
   5  -3  -9 15875.8 1062.98   6
  -5   3   8 7520.49 831.506   5
  -5   3   8 6344.02 758.988   4
  -5  -3   8 8077.43 791.352   2
   5   3  -8 8516.33 720.565   7
  -5  -3   8 7954.57 810.085   1
   5  -3  -8 9031.78 814.432   6
  -5  -3   7 1939.46 371.773   2
   5  -3  -7 2119.10 399.435   6
  -5   3   7 960.162 311.603   5
  -5  -3   7 1306.69 307.865   1
  -5   3   7 953.917 311.916   4
   5   3  -7 1632.33 329.458   7
  -5  -3   6 905.336 237.319   2
   5  -3  -6 989.654 265.559   6
  -5   3   6 945.464 316.058   5
  -5  -3   6 656.182 228.121   1
  -5   3   6 804.103 256.733   4
   5   3  -6 1136.26 277.483   7
  -5  -3   5 421.980 152.450   2
   5  -3  -5 633.613 261.497   6
  -5   3   5 888.243 302.015   5
  -5  -3   5 392.136 191.816   1
  -5   3   5 234.297 124.253   4
   5   3  -5 610.586 199.685   7
  -5  -3   4 227.179 105.998   2
  -5  -3   4 335.585 120.424   1
  -5   3   4-3.42983 229.197   5
  -5   3   4 520.851 219.196   4
   5   3  -4 642.305 241.665   7
   5  -3  -3 4095.14 537.452   6
  -5   3   3 3460.13 585.614   4
  -5  -3   3 4078.00 486.656   2
   5   3  -3 4007.95 516.959   7
  -5  -3   3 3465.35 496.457   1
   5  -3  -2 1080.99 304.678   6
  -5  -3   2 1269.59 261.951   2
  -5   3   2 913.743 305.283   4
   5   3  -2 1559.36 321.103   7
  -5  -3   2 901.625 241.251   1
   5  -3  -1 4151.05 531.324   6
  -5   3   1 3974.03 627.499   4
  -5  -3   1 3778.38 411.963   2
  -5  -3   1 3296.75 516.141   3
  -5  -3   1 3636.08 479.821   1
   5   3  -1 4249.20 562.831   7
   5  -3   0 1036.23 280.190   6
  -5  -3   0 1253.75 225.503   2
  -5  -3   0 1367.76 336.107   3
  -5   3   0 923.690 319.517   4
  -5  -3   0 1481.63 301.481   1
   5   3   0 1559.71 349.542   7
   5  -3   1-34.2015 124.085   6
  -5  -3  -1-147.664 171.219   3
  -5   3  -1-27.1523 158.993   4
  -5  -3  -1-93.1251 114.445   1
   5   3   1-232.175 166.461   7
   5  -3   2 1517.42 322.615   6
  -5  -3  -2 1047.64 281.323   3
  -5   3  -2 1178.46 363.088   4
  -5  -3  -2 1575.57 316.290   1
   5   3   2 1418.69 344.724   7
   5  -3   3 178.953 133.348   6
  -5  -3  -3 229.800 153.768   3
  -5   3  -3 286.075 177.362   4
  -5  -3  -3-19.0513 85.8477   1
   5   3   3 135.513 136.614   7
   5  -3   4-53.1990 173.260   6
  -5  -3  -4 145.115 147.215   3
  -5   3  -4-207.436 187.731   4
  -5  -3  -4 49.0744 60.2841   1
   5   3   4 341.226 158.856   7
   5  -3   5 2900.49 479.186   6
  -5  -3  -5 2146.51 425.024   3
  -5   3  -5 1771.52 443.835   4
   5   3   5 2268.04 454.728   7
   5  -3   6 1861.58 362.773   6
  -5  -3  -6 2172.65 422.833   3
  -5   3  -6 2016.81 454.196   4
   5   3   6 1795.50 414.445   7
   5  -3   7 555.571 243.390   6
   5   3   7 329.345 210.477   7
  -5  -3  -7 505.036 201.591   3
  -5   3  -7 610.788 287.846   4
   5  -3   8 91.7012 112.480   6
  -5  -3  -8 158.262 195.175   3
  -5   3  -8 18.9646 188.955   4
   5   3   8 11.1947 156.837   7
   5  -3   9 53.6502 131.848   6
  -5  -3  -9-32.2138 133.781   3
  -5   3  -9 33.7261 220.618   4
   5   3   9 158.996 176.439   7
   5   3  10 27.9767 154.464   7
   5  -4 -11 655.990 231.269   6
   5  -4 -10 2126.85 442.126   6
  -5  -4  10 2457.27 508.169   2
   5  -4  -9 2067.90 404.059   6
  -5  -4   9 1663.27 409.517   2
   5  -4  -8 847.407 265.037   6
  -5  -4   8 875.480 319.650   1
  -5  -4   8 617.539 228.993   2
  -5   4   8-144.351 355.684   5
  -5   4   8 765.000 313.064   4
   5  -4  -7 1177.07 337.412   6
  -5  -4   7 864.698 297.792   2
  -5   4   7 161.458 255.036   5
  -5  -4   7 668.620 272.851   1
  -5   4   7 593.986 291.303   4
   5  -4  -6-48.1240 127.285   6
  -5  -4   6-5.21794 141.426   2
  -5   4   6 319.646 202.951   5
  -5  -4   6-1.97668 187.915   1
  -5   4   6-49.6933 114.682   4
   5  -4  -5-149.112 105.165   6
  -5   4   5 252.439 171.991   5
  -5  -4   5-238.809 176.926   2
  -5   4   5-11.9971 174.109   4
  -5  -4   5 105.362 82.7263   1
   5  -4  -4 702.782 289.822   6
  -5   4   4 683.145 366.573   5
  -5  -4   4 577.907 229.029   2
  -5   4   4 455.528 230.266   4
  -5  -4   4 521.445 245.328   1
   5  -4  -3 882.875 260.773   6
  -5  -4   3 1064.60 257.235   2
  -5   4   3 1193.85 367.733   4
  -5  -4   3 1064.34 332.753   1
   5  -4  -2 1847.63 374.266   6
  -5   4   2 2145.92 504.999   4
  -5  -4   2 1829.79 400.109   1
   5  -4  -1 364.057 191.289   6
  -5   4   1-117.654 170.307   4
  -5  -4   1 12.5688 145.554   1
   5  -4   0 974.009 276.148   6
  -5  -4   0 970.173 295.387   3
  -5  -4   0 1259.11 335.223   1
  -5   4   0 1057.11 391.689   4
   5  -4   1 1254.91 335.833   6
  -5  -4  -1 941.379 306.790   3
  -5  -4  -1 771.495 222.380   1
  -5   4  -1 574.015 290.646   4
   5  -4   2 22.8343 164.496   6
  -5  -4  -2-208.114 155.081   3
  -5   4  -2 323.395 310.332   4
   5  -4   3-224.985 188.953   6
  -5  -4  -3 179.351 166.267   3
  -5   4  -3 165.782 187.050   4
   5  -4   4-68.8467 96.6444   6
  -5   4  -4-19.1688 180.030   4
   5  -4   5 391.809 230.879   6
   5  -4   6 393.890 268.883   6
   5  -4   7 211.777 191.039   6
  -6   0  18-0.80951 154.543   2
  -6   0  17-19.8899 130.534   2
  -6   0  16 2791.62 463.766   1
  -6   0  16 3478.99 607.084   2
  -6   0  15 61.6755 162.726   1
  -6   0  15-172.973 183.862   2
  -6   0  14 2524.22 475.572   2
  -6   0  14 2972.63 455.989   1
  -6   0  13-199.986 143.613   1
  -6   0  13 27.4424 144.007   2
   6   0 -13 35.6485 148.523   7
  -6   0  12 34440.0 1612.63   2
   6   0 -12 31831.7 1545.88   7
  -6   0  12 35551.0 1507.86   1
  -6   0  11 19.6406 48.0206   4
  -6   0  11-89.0006 211.533   2
  -6   0  11-105.001 146.550   1
   6   0 -11 96.3664 85.5118   7
  -6   0  10 8244.76 766.907   2
  -6   0  10 6239.75 429.573   4
  -6   0  10 8554.33 722.270   1
   6   0 -10 8141.29 725.616   7
  -6   0   9 418.340 184.713   1
  -6   0   9 47.4436 66.5012   4
  -6   0   8-106.772 147.491   1
  -6   0   8 9.62856 69.7166   4
   6   0  -8-106.280 135.258   7
  -6   0   7-8.88546 110.364   1
  -6   0   7 49.9451 88.3653   4
   6   0  -7-163.327 133.973   7
  -6   0   6 27209.2 944.008   4
  -6   0   6 29575.3 1306.45   1
   6   0  -6 28017.9 1300.95   7
  -6   0   5-323.485 160.857   1
  -6   0   5-21.3882 92.2232   4
   6   0  -5-61.4173 123.221   7
  -6   0   4 113958. 2156.77   4
  -6   0   4 118073. 2656.81   1
   6   0  -4 113681. 2639.34   7
  -6   0   3-34.2711 91.1432   4
  -6   0   3-188.072 170.156   1
   6   0  -3 35.1170 93.8867   7
  -6   0   2 2841.51 321.208   4
   6   0  -2 2716.02 390.684   7
  -6   0   1 12.9364 100.820   4
   6   0  -1 21.2643 64.5697   7
  -6   0   0 4.60651 74.9311   3
  -6   0   0 62.8692 133.527   4
   6   0   0-57.9821 66.7182   7
  -6   0  -1-46.0596 64.4617   3
  -6   0  -1 22.0320 121.199   4
   6   0   1 52.6200 94.7838   7
  -6   0  -2 5111.88 538.552   4
   6   0   2 5901.65 581.508   7
  -6   0  -2 5736.77 458.160   3
  -6   0  -3-93.5573 89.4620   3
  -6   0  -3 177.578 158.649   4
   6   0   3-33.9552 103.167   7
  -6   0  -4 871.759 177.892   3
  -6   0  -4 1093.90 233.270   4
   6   0   4 997.074 254.254   7
  -6   0  -5-76.6800 113.472   3
  -6   0  -5 92.8903 155.699   4
   6   0   5 29.5096 74.4504   7
  -6   0  -6 114.135 71.7478   3
  -6   0  -6 144.346 159.596   4
   6   0   6 138.179 112.492   7
  -6   0  -7-36.3843 118.222   3
  -6   0  -7-126.428 191.337   4
   6   0   7 44.1773 88.9668   7
  -6   0  -8 383.958 176.751   3
  -6   0  -8 569.384 226.296   4
   6   0   8 460.667 189.673   7
  -6   0  -9-11.5436 112.633   3
  -6   0  -9-276.547 236.121   4
   6   0   9 34.1166 76.9622   7
  -6   0 -10 1903.03 367.434   3
  -6   0 -10 1961.01 427.577   4
   6   0  10 1782.83 415.176   7
  -6   0 -11 43.3929 135.767   3
  -6   0 -11-108.646 175.758   4
   6   0  11 121.710 136.046   7
  -6   0 -12 630.230 230.860   3
   6   0  12 605.697 268.508   7
  -6   0 -13 321.738 196.208   3
   6   0  13 59.2669 104.578   7
  -6   0 -14 682.386 256.768   3
  -6   1  19 367.042 183.136   2
   6  -1 -19 1010.89 339.826   3
  -6  -1  18 328.672 170.961   1
  -6   1  18 1672.08 459.225   2
   6  -1 -18 1066.48 361.764   3
  -6  -1  17 8.43203 168.910   1
  -6   1  17 416.864 273.036   2
   6  -1 -17-292.309 271.920   3
  -6  -1  17-12.5660 136.923   2
  -6  -1  16 481.452 217.200   1
   6  -1 -16-192.477 257.073   3
  -6   1  16 298.967 268.468   2
  -6  -1  16 420.137 274.125   2
  -6  -1  15 394.163 180.511   1
  -6   1  15 333.010 227.087   2
  -6  -1  15 559.294 210.143   2
  -6   1  14 2695.64 490.257   2
  -6  -1  14 2587.32 443.351   1
  -6  -1  14 2056.75 425.643   2
   6   1 -14 2529.16 477.278   7
  -6   1  13 1530.86 355.110   2
  -6  -1  13 1660.82 339.116   1
  -6   1  13 1864.32 347.781   1
  -6  -1  13 1612.31 376.359   2
   6   1 -13 1624.85 345.558   7
  -6  -1  12 749.684 250.031   1
  -6   1  12 807.981 216.180   1
  -6  -1  12 688.419 210.303   2
   6   1 -12 881.725 274.485   7
   6  -1 -12 973.315 286.173   7
  -6  -1  11 15818.1 1101.91   2
  -6   1  11 17697.9 1063.83   1
   6   1 -11 16130.3 1071.27   7
   6  -1 -11 15815.4 1038.53   7
  -6  -1  11 15686.1 1019.33   1
  -6  -1  10 1803.31 348.914   1
  -6   1  10 2152.99 359.477   1
  -6   1  10 1166.62 239.084   4
  -6  -1  10 1804.84 379.813   2
   6   1 -10 1748.07 341.196   7
   6  -1 -10 1753.51 337.574   7
  -6  -1   9 2085.96 363.947   1
  -6   1   9 2121.45 389.072   1
  -6   1   9 1007.81 212.917   4
  -6  -1   9 2022.10 374.429   2
   6   1  -9 2393.85 391.930   7
   6  -1  -9 2055.73 349.948   7
  -6   1   8 4677.13 466.678   4
  -6  -1   8 6201.88 608.343   2
  -6   1   8 6006.32 594.549   1
   6   1  -8 6128.36 627.556   7
  -6  -1   8 5433.32 582.129   1
   6  -1  -8 5806.49 560.133   7
  -6  -1   7 50900.1 1781.24   2
   6   1  -7 52693.8 1899.44   7
  -6  -1   7 49663.0 1752.22   1
   6  -1  -7 48779.8 1695.46   7
  -6   1   6 31984.6 1306.95   4
  -6  -1   6 36682.7 1459.14   2
  -6  -1   6 36838.2 1488.09   1
   6   1  -6 36728.0 1506.71   7
   6  -1  -6 36964.4 1455.56   7
  -6   1   5 24892.5 1106.78   4
  -6  -1   5 26313.7 1202.22   2
  -6  -1   5 25884.1 1228.85   1
   6   1  -5 25288.2 1237.95   7
   6  -1  -5 28556.5 1278.56   7
   6  -1  -5 25051.7 611.217   3
  -6  -1   4 1714.83 308.341   1
  -6   1   4 1382.57 288.787   4
  -6  -1   4 1687.48 296.068   2
   6  -1  -4 1020.85 100.438   3
   6   1  -4 1965.19 348.365   7
   6  -1  -4 1935.17 320.774   7
  -6  -1   3 490.005 177.602   1
  -6   1   3 58.6075 147.734   4
  -6  -1   3 440.884 165.480   2
   6   1  -3 454.708 184.014   7
   6  -1  -3 631.594 192.985   7
  -6  -1   2 9840.38 535.238   4
  -6   1   2 9687.42 727.141   4
  -6  -1   2 10527.4 686.646   2
  -6  -1   2 10393.5 779.859   1
   6   1  -2 9991.83 782.716   7
   6  -1  -2 10548.0 742.192   7
  -6  -1   1 516.620 141.441   4
  -6  -1   1 359.951 141.273   3
  -6  -1   1 598.903 173.295   1
  -6   1   1 690.555 264.278   4
   6   1  -1 438.579 172.715   7
   6  -1  -1 684.657 214.309   7
  -6  -1   0 137.391 92.0902   4
  -6  -1   0 254.332 141.717   3
  -6  -1   0 358.385 149.227   1
  -6   1   0 264.476 189.280   4
   6   1   0 27.3025 76.8443   7
   6  -1   0 375.323 160.843   7
  -6  -1  -1 16.9420 100.779   3
  -6  -1  -1 2.00944 198.796   1
  -6   1  -1 118.406 148.125   4
   6   1   1 2.46146 79.0378   7
   6  -1   1-1.79687 79.1415   7
  -6  -1  -2 2596.99 385.758   1
  -6   1  -2 2065.46 390.459   4
   6  -1   2 2093.79 339.713   7
   6   1   2 2120.86 372.138   7
  -6  -1  -2 2589.12 374.927   3
  -6  -1  -3 144.506 138.087   1
  -6  -1  -3 95.6973 72.8165   3
  -6   1  -3 223.145 201.993   4
   6   1   3 35.3011 68.0776   7
   6  -1   3 287.125 158.296   7
  -6  -1  -4 2452.76 363.544   1
  -6   1  -4 2689.94 438.974   4
   6  -1   4 2512.05 390.789   7
  -6  -1  -4 2661.45 395.330   3
   6   1   4 2384.58 409.697   7
  -6  -1  -5 938.140 257.060   1
  -6  -1  -5 1089.49 257.220   3
  -6   1  -5 895.368 310.412   4
   6   1   5 787.936 252.678   7
   6  -1   5 695.910 207.028   7
  -6  -1  -6 666.784 211.466   3
  -6   1  -6 341.084 182.077   4
  -6  -1  -6 273.127 106.728   1
   6   1   6 717.284 257.848   7
   6  -1   6 506.301 219.581   7
  -6  -1  -7 542.988 201.741   3
  -6   1  -7 695.776 320.700   4
  -6  -1  -7 649.709 259.817   1
   6   1   7 467.170 181.197   7
   6  -1   7 585.249 202.075   7
  -6   1  -8 5626.29 688.483   4
   6   1   8 4849.16 656.470   7
   6  -1   8 5136.29 624.289   7
  -6  -1  -8 5650.67 622.757   3
  -6   1  -9 5937.00 728.612   4
   6   1   9 5525.82 721.582   7
   6  -1   9 5095.91 635.015   7
  -6  -1  -9 5665.59 635.489   3
  -6  -1 -10 368.876 205.489   3
  -6   1 -10 553.531 263.397   4
   6   1  10 383.296 206.228   7
   6  -1  10 81.6450 121.163   7
  -6  -1 -11 77.9574 89.0971   3
  -6   1 -11 49.4523 168.239   4
   6  -1  11 34.4268 111.622   7
  -6  -1 -12-155.007 175.674   3
  -6   1 -12 154.523 241.009   4
   6   1  12 189.364 149.495   7
   6  -1  12 147.541 75.6035   7
  -6  -1 -13 165.675 109.843   3
   6  -1  13 364.424 205.466   7
  -6   2  17 253.639 180.775   2
  -6  -2  17 546.590 244.343   1
  -6   2  16-129.269 253.442   5
  -6  -2  16 172.854 171.089   1
  -6   2  16-186.383 269.462   2
  -6   2  15 173.707 159.601   5
  -6  -2  15 84.5393 160.246   1
  -6  -2  15 351.043 110.532   2
  -6   2  14 247.447 203.448   5
  -6  -2  14 95.5922 117.917   1
  -6  -2  14 88.8524 130.512   2
   6   2 -14 151.604 95.5899   7
  -6   2  13-622.312 263.410   5
  -6  -2  13-88.5485 205.298   1
  -6  -2  13 35.2184 171.111   2
   6   2 -13-87.6189 173.272   7
  -6  -2  12 1046.95 281.531   1
  -6   2  12 453.390 224.950   5
  -6  -2  12 908.646 255.817   2
   6   2 -12 580.240 217.815   7
  -6   2  11 140.754 273.405   5
  -6   2  11-136.748 126.383   1
  -6  -2  11-63.7039 157.038   1
  -6  -2  11-135.632 150.017   2
   6   2 -11-34.4919 138.777   7
  -6   2  10 372.914 154.230   1
  -6  -2  10-18.5670 136.763   1
  -6   2  10 112.324 153.938   4
  -6  -2  10 236.816 159.294   2
   6   2 -10 71.6772 102.427   7
  -6   2   9 12120.6 946.857   4
  -6  -2   9 14517.5 1016.38   2
   6   2  -9 16528.5 1086.58   7
   6  -2  -9 15100.0 957.986   7
  -6  -2   9 15180.6 1060.90   1
  -6   2   8 6700.17 692.047   4
  -6  -2   8 8297.53 762.490   2
   6   2  -8 8681.75 785.922   7
   6  -2  -8 7965.82 683.413   7
  -6  -2   8 8170.14 755.057   1
  -6   2   7 5812.41 637.209   4
  -6  -2   7 7788.37 718.987   2
   6   2  -7 8924.06 814.251   7
   6  -2  -7 7144.35 623.576   7
  -6  -2   7 7699.75 717.881   1
  -6  -2   6 1768.99 347.574   1
  -6   2   6 1896.61 360.877   4
  -6  -2   6 2150.40 369.597   2
   6   2  -6 1751.29 362.005   7
   6  -2  -6 1941.60 305.753   7
  -6  -2   5 2356.44 393.229   1
  -6  -2   5 2580.00 398.961   2
  -6   2   5 1936.25 363.869   4
   6   2  -5 2492.76 417.875   7
   6  -2  -5 2110.67 317.848   7
  -6  -2   4 143.261 119.460   1
  -6   2   4 352.601 197.301   4
  -6  -2   4 269.247 176.446   2
   6   2  -4 13.5024 93.0940   7
   6  -2  -4 226.106 96.4889   7
  -6  -2   3 19.1648 93.7692   1
  -6   2   3-98.4483 132.096   4
  -6  -2   3 15.9772 99.4819   2
   6   2  -3-33.7749 94.0312   7
   6  -2  -3 70.0573 101.236   7
  -6   2   2 2031.67 352.062   4
   6   2  -2 2512.33 418.444   7
   6  -2  -2 2339.77 334.257   7
  -6  -2   2 2640.28 406.697   1
  -6  -2   2 2117.14 318.920   2
  -6  -2   1 621.145 207.188   3
  -6   2   1 721.343 263.476   4
  -6  -2   1 704.543 180.186   2
   6   2  -1 679.029 224.524   7
  -6  -2   1 986.422 259.076   1
   6  -2  -1 955.253 215.449   7
  -6  -2   0 3449.22 367.771   2
  -6   2   0 2727.04 470.391   4
   6   2   0 3160.70 465.849   7
   6  -2   0 3163.46 391.706   7
  -6  -2   0 3462.53 437.717   1
  -6  -2   0 2834.81 439.331   3
  -6  -2  -1 1399.96 319.808   3
  -6   2  -1 1185.90 309.056   4
  -6  -2  -1 1396.99 293.930   1
   6   2   1 1592.96 332.640   7
  -6  -2  -1 1249.08 227.173   2
   6  -2   1 1341.95 264.993   7
  -6  -2  -2 1382.26 309.389   3
  -6  -2  -2 1848.40 243.566   2
  -6   2  -2 1347.75 336.083   4
  -6  -2  -2 1636.75 306.410   1
   6   2   2 1449.03 344.190   7
   6  -2   2 1879.83 323.464   7
  -6  -2  -3 484.137 207.870   3
  -6   2  -3 315.297 162.710   4
  -6  -2  -3 336.991 118.019   1
   6   2   3 401.454 221.494   7
   6  -2   3 402.915 154.665   7
  -6  -2  -4 90.3039 155.851   3
  -6   2  -4-28.3829 151.999   4
  -6  -2  -4-131.020 112.467   1
   6   2   4 78.6858 120.339   7
   6  -2   4 64.3113 100.171   7
  -6  -2  -5 153.753 113.355   3
  -6   2  -5 84.9109 184.864   4
  -6  -2  -5 226.868 101.715   1
   6   2   5 245.631 169.233   7
   6  -2   5 395.158 179.975   7
  -6  -2  -6 281.353 194.041   3
  -6   2  -6-81.0788 251.837   4
  -6  -2  -6-365.709 181.572   1
   6   2   6-158.902 168.966   7
   6  -2   6-77.0534 141.790   7
  -6  -2  -7 61.7431 96.0444   3
  -6   2  -7-231.201 188.381   4
  -6  -2  -7-93.2923 111.516   1
   6   2   7-155.769 157.970   7
   6  -2   7-188.353 116.363   7
  -6  -2  -8 240.337 135.237   3
  -6   2  -8 304.206 241.428   4
   6   2   8 117.126 161.314   7
   6  -2   8 129.614 88.2056   7
  -6  -2  -9 1256.72 316.393   3
  -6   2  -9 2245.08 549.470   4
   6   2   9 1431.64 401.757   7
   6  -2   9 1170.42 313.908   7
  -6  -2 -10 2108.95 412.123   3
  -6   2 -10 1632.72 421.608   4
   6   2  10 2021.24 481.084   7
   6  -2  10 1621.59 368.251   7
  -6  -2 -11 4403.52 636.312   3
  -6   3  14-338.911 233.841   5
  -6  -3  13 760.429 302.462   2
   6  -3 -13 702.664 256.576   6
  -6   3  13 364.059 238.903   5
   6   3 -13 620.333 184.929   7
  -6  -3  12 130.663 166.196   2
   6  -3 -12-241.671 106.419   6
  -6  -3  12 244.729 147.568   1
  -6   3  12 216.429 298.804   5
   6   3 -12-3.68590 142.811   7
  -6  -3  11-374.606 233.116   2
   6  -3 -11-45.0829 215.758   6
  -6   3  11 50.5286 160.337   5
  -6   3  11 71.0654 99.0922   4
  -6  -3  11-90.3104 156.934   1
   6   3 -11-153.378 122.895   7
  -6  -3  10 821.289 272.459   2
   6  -3 -10 578.095 242.898   6
  -6   3  10 449.415 252.810   5
  -6   3  10 453.670 239.212   4
  -6  -3  10 758.890 292.316   1
   6   3 -10 1376.53 318.112   7
  -6  -3   9 94.9584 100.258   2
   6  -3  -9-64.1952 127.366   6
  -6   3   9 169.795 252.408   5
  -6  -3   9-41.7829 173.813   1
  -6   3   9-70.8187 142.852   4
   6   3  -9-59.0456 113.539   7
  -6   3   8 174.073 201.473   5
  -6  -3   8 256.154 179.023   1
  -6   3   8 179.027 143.916   4
   6   3  -8 307.331 168.550   7
   6  -3  -8-102.387 192.261   6
  -6  -3   8-3.43870 88.7532   2
  -6  -3   7 41.4407 132.098   1
  -6   3   7 34.0511 122.628   4
   6   3  -7 139.183 84.0189   7
   6  -3  -7 118.825 146.249   6
  -6  -3   7 7.20384 117.205   2
  -6   3   6 167.262 215.525   4
   6   3  -6 126.945 127.764   7
  -6  -3   6 174.967 152.705   1
  -6  -3   6-118.542 141.325   2
  -6   3   5-180.302 219.125   4
  -6  -3   5-59.8371 96.8367   1
   6   3  -5-112.606 175.599   7
  -6  -3   5 11.5462 95.2437   2
  -6  -3   4 59.8584 105.857   2
  -6   3   4-82.7754 136.582   4
  -6  -3   4-59.7656 120.498   1
   6   3  -4 241.747 143.848   7
  -6  -3   3 1098.77 266.478   2
  -6   3   3 1257.64 329.504   4
  -6  -3   3 1418.18 308.056   1
   6   3  -3 1643.34 391.155   7
  -6  -3   2 2453.10 359.067   2
  -6  -3   2 2339.61 412.182   1
  -6   3   2 1880.58 451.194   4
   6   3  -2 2578.16 484.112   7
  -6  -3   1 1161.61 243.068   2
  -6  -3   1 1245.49 330.038   3
  -6  -3   1 1092.55 273.125   1
  -6   3   1 1166.95 364.111   4
   6   3  -1 1103.12 325.128   7
  -6  -3   0-203.802 175.548   3
  -6  -3   0 16.4120 91.5155   1
  -6   3   0-181.698 229.816   4
   6   3   0-173.302 165.172   7
  -6  -3  -1 192.296 110.750   3
  -6  -3  -1-69.2513 154.898   1
  -6   3  -1 186.637 241.212   4
   6   3   1 355.641 173.100   7
  -6  -3  -2 734.387 236.290   3
  -6  -3  -2 1036.22 263.267   1
  -6   3  -2 1156.23 401.410   4
   6   3   2 973.281 287.150   7
   6  -3   2 1745.99 422.647   6
   6  -3   3-301.073 256.962   6
  -6  -3  -3 174.694 178.615   3
  -6  -3  -3-133.898 74.7353   1
  -6   3  -3-522.079 318.542   4
   6   3   3 28.0721 84.1036   7
   6  -3   4 1050.80 227.330   6
  -6  -3  -4 1586.61 371.487   3
  -6  -3  -4 1543.61 315.388   1
  -6   3  -4 1369.10 415.920   4
   6   3   4 1240.55 346.182   7
   6  -3   5 2834.72 514.103   6
  -6  -3  -5 2689.66 522.238   3
  -6   3  -5 3086.09 600.127   4
   6   3   5 2370.05 467.696   7
   6  -3   6-82.7042 159.272   6
  -6  -3  -6 103.171 118.856   3
  -6   3  -6 172.699 169.666   4
   6   3   6 107.134 125.475   7
   6  -3   7 1464.26 367.413   6
  -6  -3  -7 1409.47 363.233   3
  -6   3  -7 1207.77 404.939   4
   6   3   7 1066.84 353.882   7
   6  -3   8 205.605 120.047   6
   6   3   8 635.319 286.757   7
  -6  -4   9 644.397 314.370   2
  -6  -4   8 96.4467 115.283   2
  -6  -4   7-199.080 146.788   2
  -6  -4   6-98.0633 163.173   2
  -6  -4   6-171.040 174.028   1
  -6  -4   5 201.322 150.598   1
  -6  -4   4-13.9256 96.8708   1
  -6  -4   3 142.341 108.065   1
  -6  -4   2-99.2280 170.108   1
  -6  -4   1 535.564 202.115   1
  -6  -4   0-72.3594 118.034   1
  -7   0  17-178.609 199.812   2
  -7   0  16 1113.67 278.504   1
  -7   0  16 736.147 348.145   2
  -7   0  15-116.827 147.768   1
  -7   0  15-117.043 160.689   2
   7   0 -15-15.3164 109.350   7
  -7   0  14 272.083 180.765   1
  -7   0  14 254.088 195.799   2
   7   0 -14 193.224 151.505   7
  -7   0  13-131.590 202.705   2
   7   0 -13-35.4914 112.109   7
  -7   0  13-16.7396 127.707   1
  -7   0  12 199.893 131.484   2
  -7   0  12 162.170 157.801   1
   7   0 -12-51.6562 90.2275   7
  -7   0  11-77.9272 164.753   1
   7   0 -11-130.284 128.473   7
  -7   0  10 3283.79 483.743   1
  -7   0  10 2897.40 486.099   2
   7   0 -10 3296.94 485.239   7
  -7   0   9-48.8983 152.901   1
   7   0  -9-61.3221 84.1735   7
  -7   0   8 1293.51 308.921   1
  -7   0   8 1077.37 203.576   4
   7   0  -8 1344.47 302.511   7
  -7   0   7 122.589 139.436   1
  -7   0   7-132.646 145.493   4
   7   0  -7-42.3864 98.5566   7
  -7   0   6 94168.8 2637.81   1
   7   0  -6 88082.9 2524.63   7
  -7   0   5 325.081 233.522   1
  -7   0   5-105.094 173.102   4
   7   0  -5 112.564 167.916   7
  -7   0   4 54454.0 1596.23   4
  -7   0   4 59099.1 2025.68   1
   7   0  -4 55192.3 1949.60   7
  -7   0   3 221.728 196.008   1
  -7   0   3 17.6857 133.918   4
   7   0  -3-40.6428 84.1084   7
  -7   0   2 3010.12 369.437   4
   7   0  -2 3368.52 483.375   7
  -7   0   1 111.998 133.583   4
   7   0  -1-108.289 76.5551   7
  -7   0   0 2061.32 347.444   4
   7   0   0 2015.34 360.428   7
  -7   0   0 1532.56 233.559   3
  -7   0  -1 7.01833 62.9530   3
   7   0   1 79.2407 128.528   7
  -7   0  -2 4788.14 555.882   4
   7   0   2 4801.82 565.606   7
  -7   0  -2 4741.50 432.701   3
  -7   0  -3 8.77516 59.0145   3
  -7   0  -3 61.7900 187.134   4
   7   0   3-55.4118 88.4924   7
  -7   0  -4 5999.37 644.133   4
   7   0   4 5815.04 666.068   7
  -7   0  -4 5922.49 526.497   3
  -7   0  -5-84.5437 113.877   3
  -7   0  -5-164.224 176.244   4
   7   0   5-219.465 163.865   7
  -7   0  -6 468.748 244.031   4
   7   0   6 651.661 237.029   7
  -7   0  -7 279.163 218.811   4
   7   0   7-4.96894 107.871   7
  -7   0  -8 524.209 193.764   4
   7   0   8 383.350 223.866   7
  -7   0  -9-209.995 143.658   4
   7   0   9-41.7514 82.0292   7
  -7   0 -10-37.4227 263.363   4
   7   0  10 161.866 107.161   7
   7   0  11-41.2966 105.328   7
  -7  -1  18 870.129 247.370   1
  -7  -1  17 99.1876 150.253   1
  -7   1  17-49.4765 165.882   2
  -7   1  16-73.6099 154.041   2
  -7  -1  16 1.14293 118.169   2
  -7  -1  16 77.1644 176.017   1
  -7   1  15 1064.76 342.544   2
  -7  -1  15 699.671 220.636   1
  -7  -1  15 773.019 326.065   2
   7   1 -15 646.423 275.720   7
  -7  -1  14 405.501 219.990   1
  -7   1  14 33.3250 201.510   2
  -7  -1  14 324.063 244.700   2
   7   1 -14 373.427 195.681   7
  -7  -1  13 839.392 285.156   1
  -7   1  13 622.163 219.039   1
  -7  -1  13 562.403 259.823   2
   7   1 -13 265.430 143.241   7
   7  -1 -13 401.152 164.780   7
  -7  -1  12 1514.18 339.881   1
  -7   1  12 1642.80 332.089   1
  -7   1  12 704.135 210.771   4
  -7  -1  12 1886.79 413.454   2
   7   1 -12 1743.99 387.268   7
   7  -1 -12 2031.19 400.926   7
  -7  -1  11 4059.57 581.249   2
  -7   1  11 4761.66 588.820   1
  -7   1  11 2273.90 354.895   4
   7   1 -11 3623.54 517.708   7
   7  -1 -11 4333.44 563.648   7
  -7  -1  11 4345.22 574.160   1
  -7  -1  10 74.5045 105.941   1
  -7   1  10 3.25393 131.644   4
  -7  -1  10-54.2940 188.157   2
   7   1 -10 178.660 166.242   7
   7  -1 -10 193.650 137.536   7
  -7   1   9 1815.51 378.405   1
  -7   1   9 1201.34 241.223   4
  -7  -1   9 1916.78 383.187   2
  -7  -1   9 1553.45 341.293   1
   7   1  -9 1703.85 377.757   7
   7  -1  -9 1488.22 329.912   7
  -7   1   8 3842.02 484.170   4
  -7  -1   8 5532.49 628.916   2
  -7   1   8 5198.00 613.953   1
  -7  -1   8 4831.21 583.182   1
   7   1  -8 5369.23 626.345   7
   7  -1  -8 4831.20 550.441   7
  -7   1   7 701.935 234.343   1
  -7   1   7 743.381 216.122   4
  -7  -1   7 1044.78 282.181   1
  -7  -1   7 833.282 250.530   2
   7   1  -7 595.449 175.521   7
   7  -1  -7 917.853 235.326   7
  -7   1   6 635.486 214.780   4
  -7  -1   6 637.100 244.017   1
  -7  -1   6 699.711 245.525   2
   7   1  -6 957.501 278.376   7
   7  -1  -6 449.838 177.150   7
  -7   1   5 6320.47 627.268   4
  -7  -1   5 8194.32 717.118   2
  -7  -1   5 7413.47 703.676   1
   7   1  -5 8006.86 739.522   7
   7  -1  -5 7879.83 724.305   7
  -7   1   4 22646.3 1172.26   4
  -7  -1   4 26764.6 1266.21   2
  -7  -1   4 25114.0 1306.51   1
   7   1  -4 23531.0 1302.42   7
   7  -1  -4 25416.2 1309.52   7
  -7   1   3 27248.5 1294.20   4
  -7  -1   3 27927.9 1280.51   2
  -7  -1   3 28145.5 1400.33   1
   7   1  -3 27994.6 1409.43   7
   7  -1  -3 28664.3 1378.42   7
  -7  -1   2 11852.5 650.649   4
  -7   1   2 12020.7 905.511   4
  -7  -1   2 12549.1 806.829   2
  -7  -1   2 12840.5 948.339   1
   7   1  -2 12457.1 940.566   7
   7  -1  -2 12559.3 899.888   7
  -7  -1   1 207.517 139.873   4
  -7  -1   1 88.4760 144.994   3
  -7  -1   1 44.5388 125.444   2
  -7  -1   1-93.6434 126.816   1
  -7   1   1-107.272 207.926   4
   7   1  -1-24.4779 128.978   7
   7  -1  -1-192.392 117.692   7
  -7  -1   0 1311.07 282.083   3
  -7  -1   0 1230.42 277.813   1
  -7   1   0 1429.38 358.244   4
   7   1   0 1601.38 346.219   7
   7  -1   0 1713.29 335.572   7
  -7   1  -1 7047.92 723.400   4
  -7  -1  -1 8044.25 748.491   1
   7   1   1 6771.72 690.954   7
   7  -1   1 7753.98 723.612   7
  -7  -1  -1 7285.51 644.898   3
  -7  -1  -2 1924.12 354.310   3
  -7  -1  -2 2087.75 381.622   1
  -7   1  -2 1852.23 390.703   4
   7   1   2 1890.77 373.385   7
   7  -1   2 2344.11 399.419   7
  -7  -1  -3 92.4069 137.301   3
  -7  -1  -3-203.732 163.517   1
  -7   1  -3-230.310 272.350   4
   7   1   3 35.4060 116.655   7
   7  -1   3 30.5172 95.0463   7
  -7  -1  -4 468.291 203.261   3
  -7  -1  -4 866.549 265.863   1
  -7   1  -4 1114.73 328.248   4
   7   1   4 527.851 225.715   7
   7  -1   4 353.130 115.539   7
  -7  -1  -5-17.0420 86.2280   3
  -7  -1  -5 100.577 189.036   1
  -7   1  -5 193.857 200.595   4
   7   1   5 91.7256 119.390   7
   7  -1   5-38.4358 141.220   7
  -7  -1  -6 978.301 288.086   3
  -7  -1  -6 1546.60 321.327   1
  -7   1  -6 1080.16 322.123   4
   7   1   6 617.685 265.331   7
   7  -1   6 970.386 289.442   7
  -7  -1  -7-75.6182 154.611   3
  -7  -1  -7-368.543 237.166   1
  -7   1  -7 371.438 209.747   4
   7   1   7-129.116 200.402   7
   7  -1   7 218.288 146.762   7
  -7  -1  -8 20.9395 109.441   3
  -7  -1  -8-15.3104 148.698   1
  -7   1  -8-5.18594 235.674   4
   7   1   8-73.1549 113.189   7
   7  -1   8-93.6416 154.807   7
  -7  -1  -9 900.290 251.792   3
  -7   1  -9 2232.72 472.330   4
   7   1   9 1136.01 358.705   7
   7  -1   9 2364.74 475.461   7
  -7  -1 -10 6.43496 134.480   3
  -7   1 -10 354.224 312.628   4
   7  -1  10 87.0274 97.4734   7
  -7  -1 -11 397.952 178.553   3
   7  -1  11 605.369 239.386   7
  -7  -1 -12 74.0513 142.758   3
  -7  -2  15-171.319 156.119   1
   7   2 -15 180.222 161.424   7
  -7  -2  14 864.136 316.812   1
  -7   2  14 445.563 187.760   4
  -7  -2  14 803.951 310.441   2
   7   2 -14 856.014 293.565   7
  -7   2  13 0.55486 113.107   4
  -7  -2  13 679.720 260.574   2
  -7  -2  13 193.952 164.930   1
   7   2 -13 562.283 217.091   7
  -7   2  12 51.6305 125.603   4
  -7  -2  12 488.542 216.868   1
  -7  -2  12 613.659 232.850   2
   7   2 -12 776.532 241.943   7
  -7   2  11-37.3487 132.100   1
  -7  -2  11-6.63821 119.319   1
  -7   2  11-71.7739 97.1997   4
  -7  -2  11 123.071 176.024   2
   7   2 -11-121.596 149.610   7
   7  -2 -11 167.101 157.111   7
  -7   2  10 4547.29 590.132   4
  -7  -2  10 6051.22 706.905   2
  -7   2  10 6659.10 734.691   1
   7   2 -10 6616.21 740.721   7
   7  -2 -10 6242.90 657.739   7
  -7  -2  10 5728.16 679.960   1
  -7  -2   9 1149.11 319.815   1
  -7   2   9 1366.74 348.264   4
  -7  -2   9 1685.65 363.133   2
   7   2  -9 1856.99 389.977   7
   7  -2  -9 1590.34 340.282   7
  -7   2   8 4101.15 580.472   4
  -7  -2   8 4824.64 598.103   2
   7   2  -8 4898.32 634.272   7
   7  -2  -8 4679.41 547.161   7
  -7  -2   8 4599.02 575.092   1
  -7  -2   7 129.962 145.888   1
  -7   2   7 36.3524 124.257   4
  -7  -2   7 267.123 202.655   2
   7   2  -7-11.2106 118.645   7
   7  -2  -7 262.693 123.514   7
  -7  -2   6 97.9812 134.415   1
  -7   2   6 149.666 157.033   4
  -7  -2   6-129.239 189.907   2
   7   2  -6 232.985 141.436   7
   7  -2  -6 4.34818 81.7698   7
  -7  -2   5 486.684 217.376   1
  -7   2   5 697.753 265.852   4
  -7  -2   5 589.479 211.610   2
   7   2  -5 726.743 239.355   7
   7  -2  -5 608.158 188.231   7
  -7   2   4 681.668 245.754   4
  -7  -2   4 917.503 242.795   2
   7   2  -4 1060.74 309.621   7
   7  -2  -4 1008.66 257.654   7
  -7  -2   4 1012.51 259.706   1
  -7   2   3 674.664 231.118   4
  -7  -2   3 793.375 206.754   2
   7   2  -3 1135.50 317.431   7
   7  -2  -3 1116.34 280.202   7
  -7  -2   3 925.317 228.956   1
  -7   2   2 1249.28 327.702   4
  -7  -2   2 1151.43 257.457   2
  -7  -2   2 1219.86 276.427   1
   7   2  -2 1512.12 352.727   7
   7  -2  -2 1213.21 276.904   7
  -7   2   1 15511.9 1174.16   4
  -7  -2   1 16755.0 933.123   2
   7   2  -1 17272.9 1215.56   7
   7  -2  -1 16768.7 994.910   7
  -7  -2   1 16570.1 1075.30   1
  -7  -2   1 15942.5 1088.49   3
  -7  -2   0 875.484 254.778   3
  -7   2   0 703.757 273.176   4
  -7  -2   0 1261.62 296.502   1
  -7  -2   0 1067.78 213.994   2
   7   2   0 891.595 316.382   7
   7  -2   0 1014.41 245.038   7
  -7  -2  -1 681.023 204.163   3
  -7   2  -1 615.879 228.609   4
  -7  -2  -1 751.391 249.309   1
   7   2   1 540.698 204.390   7
   7  -2   1 661.415 176.202   7
  -7  -2  -2 627.259 227.966   3
  -7   2  -2 834.659 329.700   4
  -7  -2  -2 931.252 266.609   1
   7   2   2 658.366 230.833   7
   7  -2   2 728.875 218.560   7
  -7  -2  -3 600.837 227.362   3
  -7   2  -3 321.096 165.123   4
  -7  -2  -3 529.735 186.805   1
   7   2   3 634.796 244.788   7
   7  -2   3 728.067 224.861   7
  -7  -2  -4 857.302 279.349   3
  -7   2  -4 780.446 263.921   4
  -7  -2  -4 1454.17 327.824   1
   7   2   4 903.301 321.385   7
   7  -2   4 965.574 272.206   7
  -7  -2  -5 188.918 178.848   3
  -7   2  -5-50.3747 204.082   4
  -7  -2  -5 65.1568 108.576   1
   7   2   5 235.602 189.282   7
   7  -2   5 122.877 101.723   7
  -7  -2  -6 628.919 237.627   3
  -7   2  -6 865.111 387.630   4
  -7  -2  -6 1150.30 283.364   1
   7   2   6 686.098 291.601   7
   7  -2   6 834.484 282.293   7
  -7  -2  -7 1555.16 362.151   3
  -7   2  -7 1350.82 439.818   4
   7   2   7 1393.31 388.696   7
   7  -2   7 1214.87 308.648   7
  -7  -2  -8 886.359 303.569   3
  -7   2  -8 2145.81 516.704   4
   7   2   8 1318.65 400.297   7
  -7  -2  -9 1280.47 331.575   3
   7  -3 -13-202.738 208.172   6
   7   3 -13 459.594 236.174   7
   7  -3 -12 909.848 338.821   6
  -7   3  12 580.500 224.391   4
   7   3 -12 763.933 246.382   7
   7  -3 -11 252.895 148.533   6
  -7   3  11 53.9749 153.248   4
   7   3 -11 508.926 240.012   7
  -7  -3  11 172.928 110.756   2
  -7  -3  10 81.4925 96.5244   1
  -7   3  10-125.141 192.447   4
   7   3 -10 250.293 152.914   7
   7  -3 -10 236.118 279.267   6
  -7  -3  10-55.4741 121.602   2
  -7  -3   9 1526.23 407.504   1
  -7   3   9 542.273 192.899   4
   7   3  -9 839.412 291.339   7
  -7  -3   9 1504.59 390.015   2
  -7   3   8 564.256 286.141   4
   7   3  -8 1523.24 400.726   7
  -7  -3   8 1143.83 345.619   2
  -7  -3   8 377.906 184.664   1
  -7   3   7 305.550 223.238   4
  -7  -3   7 1119.72 309.858   1
   7   3  -7 1570.26 423.434   7
  -7  -3   7 925.841 273.489   2
  -7   3   6 310.678 205.633   4
  -7  -3   6 156.203 120.821   1
   7   3  -6 756.891 297.321   7
  -7  -3   6 341.752 201.289   2
  -7   3   5-95.0624 196.070   4
  -7  -3   5-169.948 187.870   1
   7   3  -5 58.4366 130.099   7
  -7  -3   5-47.8180 80.6917   2
  -7  -3   4 270.997 159.501   1
  -7   3   4 387.412 283.371   4
   7   3  -4 150.410 147.623   7
  -7  -3   4 20.4124 89.1382   2
  -7  -3   3-17.4364 81.9628   1
  -7   3   3-242.124 225.392   4
   7   3  -3-246.685 187.727   7
  -7  -3   3-142.374 133.871   2
  -7  -3   2 112.012 108.538   1
   7   3  -2 140.854 103.324   7
  -7  -3   1-51.9037 117.352   1
  -7   3   1 2.93898 165.280   4
   7   3  -1-95.4273 167.411   7
  -7  -3   0-192.334 179.086   3
  -7  -3   0 201.896 182.724   1
  -7   3   0 162.136 272.932   4
   7   3   0 68.8292 109.204   7
  -7  -3  -1 773.009 281.763   3
  -7  -3  -1 600.174 219.405   1
  -7   3  -1 255.553 296.895   4
   7   3   1 235.128 174.491   7
  -7  -3  -2 192.288 195.636   3
  -7  -3  -2 239.884 146.332   1
  -7   3  -2 274.962 208.344   4
   7   3   2 108.004 170.105   7
  -7  -3  -3 52.8495 150.495   3
  -7  -3  -3-138.891 158.184   1
   7   3   3-177.621 220.995   7
  -7  -3  -4 281.908 177.505   3
   7   3   4 306.758 207.322   7
   7  -3   4 392.185 267.984   6
   7  -3   5 741.473 275.443   6
   7   3   5 584.870 259.234   7
   7  -3   6 1351.85 358.344   6
   7  -3   7 189.963 177.383   6
  -7  -4   2-21.1962 160.547   1
  -7  -4   1 152.470 95.8263   1
  -7  -4   0 128.250 174.697   1
  -8   0  16 1501.79 321.721   1
  -8   0  15 6.82333 122.250   1
  -8   0  14-77.6064 167.263   1
   8   0 -14 342.992 215.867   7
  -8   0  13 182.041 280.301   2
  -8   0  13-27.4110 172.696   1
   8   0 -13-104.573 131.332   7
  -8   0  12 4442.96 599.366   1
  -8   0  12 4166.43 632.568   2
   8   0 -12 4052.12 576.852   7
  -8   0  11-86.8815 170.753   2
  -8   0  11 64.2975 116.856   1
   8   0 -11 138.377 151.460   7
  -8   0  10 220.811 138.846   1
  -8   0  10 86.9622 171.593   2
   8   0 -10 178.589 150.419   7
  -8   0   9 124.322 119.554   1
   8   0  -9 13.5037 171.449   7
  -8   0   8 3346.39 522.279   1
   8   0  -8 3558.35 549.148   7
  -8   0   7 202.480 257.118   1
   8   0  -7-323.115 184.675   7
  -8   0   6 248.608 152.822   1
   8   0  -6 641.715 261.013   7
  -8   0   5 14.8246 154.006   1
  -8   0   5-25.6900 149.999   4
   8   0  -5-70.3780 148.586   7
  -8   0   4 949.652 242.374   1
  -8   0   4 1009.29 258.561   4
   8   0  -4 822.670 252.165   7
  -8   0   3 204.396 193.083   1
  -8   0   3-192.093 184.747   4
   8   0  -3-15.7977 91.4919   7
  -8   0   2 2149.05 414.819   1
  -8   0   2 1721.77 342.602   4
   8   0  -2 1510.54 328.742   7
  -8   0   1-13.3611 198.201   4
   8   0  -1-15.0916 80.6731   7
  -8   0   0 422.822 192.458   4
   8   0   0 660.780 231.495   7
  -8   0  -1-129.051 212.744   4
   8   0   1-198.444 168.411   7
  -8   0  -2 8357.91 791.482   4
   8   0   2 7957.31 821.641   7
  -8   0  -3-135.357 132.696   4
   8   0   3 6.84817 128.639   7
  -8   0  -4 298.894 211.131   4
   8   0   4-111.627 123.794   7
  -8   0  -5 120.560 202.807   4
   8   0   5 240.212 141.399   7
  -8   0  -6 1663.23 392.241   4
   8   0   6 2132.54 455.455   7
  -8   0  -7-128.319 260.299   4
   8   0   7 194.172 192.528   7
  -8   0  -8 572.146 301.050   4
   8   0   8 207.789 173.499   7
  -8   0  -9 109.655 218.049   4
  -8  -1  15 168.832 130.425   1
  -8  -1  14 296.025 204.836   1
  -8   1  14-306.699 310.864   2
  -8  -1  14 329.959 222.054   2
   8   1 -14 61.1573 122.156   7
   8  -1 -14 50.5115 148.742   7
  -8  -1  13-45.6792 143.491   1
  -8   1  13 438.254 243.015   1
  -8  -1  13 819.694 339.394   2
   8   1 -13 338.318 187.602   7
   8  -1 -13 488.130 264.154   7
  -8  -1  12 392.885 198.197   1
  -8   1  12 170.538 197.454   1
  -8  -1  12 710.677 296.946   2
   8   1 -12 540.110 237.684   7
   8  -1 -12 958.661 321.919   7
  -8  -1  11-4.14007 147.311   1
  -8   1  11-146.366 131.108   1
  -8  -1  11-45.2597 213.135   2
   8   1 -11 90.1962 149.215   7
   8  -1 -11-266.752 258.783   7
  -8   1  10 2975.41 531.507   1
  -8  -1  10 2515.10 482.847   2
   8   1 -10 2156.03 419.879   7
   8  -1 -10 2531.33 457.013   7
  -8  -1  10 2692.93 480.534   1
  -8   1   9 1320.43 346.071   1
  -8   1   9 1133.72 245.879   4
  -8  -1   9 906.827 278.926   2
  -8  -1   9 1428.35 366.666   1
   8   1  -9 1037.20 303.862   7
   8  -1  -9 1089.32 306.905   7
  -8   1   8 790.802 292.100   1
  -8   1   8 95.6591 170.518   4
  -8  -1   8 313.859 232.483   2
  -8  -1   8 740.140 242.258   1
   8   1  -8 501.140 241.001   7
   8  -1  -8 396.741 186.161   7
  -8   1   7 3717.16 580.337   1
  -8   1   7 3114.92 437.183   4
  -8  -1   7 4048.46 569.286   1
   8   1  -7 3370.45 531.546   7
   8  -1  -7 3525.49 525.187   7
  -8  -1   7 3346.03 524.685   2
  -8   1   6 1756.98 318.115   4
  -8  -1   6 2846.46 487.068   1
  -8  -1   6 3192.82 500.296   2
   8   1  -6 3151.55 501.481   7
   8  -1  -6 2593.04 465.333   7
  -8   1   5 2704.78 432.697   4
  -8  -1   5 3465.63 543.295   1
   8  -1  -5 3142.29 495.941   7
  -8  -1   5 2835.64 478.005   2
   8   1  -5 2629.44 459.617   7
  -8  -1   4 2394.27 439.050   1
  -8   1   4 2056.41 402.279   4
  -8  -1   4 2588.39 428.156   2
   8   1  -4 2332.23 434.252   7
   8  -1  -4 2408.58 448.585   7
  -8  -1   3 4610.92 548.080   2
  -8   1   3 3833.94 548.366   4
  -8  -1   3 4236.89 580.966   1
   8   1  -3 3567.91 563.527   7
   8  -1  -3 4217.95 537.153   7
  -8  -1   2-12.6249 170.131   1
  -8   1   2 355.190 210.856   4
  -8  -1   2 208.863 185.986   2
   8   1  -2 118.082 115.878   7
   8  -1  -2 178.061 162.750   7
  -8  -1   1 372.441 140.408   2
  -8  -1   1 647.317 292.335   1
  -8   1   1 540.667 288.248   4
   8   1  -1 466.691 195.744   7
   8  -1  -1 227.077 108.573   7
  -8  -1   0 73.8933 137.339   3
  -8  -1   0 17.2003 117.965   2
  -8  -1   0 65.0584 174.133   1
  -8   1   0 52.0883 145.576   4
   8   1   0 356.628 220.033   7
   8  -1   0 251.013 90.1158   7
  -8  -1  -1 14.5980 89.5435   3
  -8  -1  -1-97.7991 179.315   1
  -8   1  -1-85.2010 266.998   4
   8   1   1-34.7844 125.895   7
   8  -1   1 169.332 111.878   7
  -8  -1  -2 513.144 169.727   3
  -8  -1  -2 752.727 272.215   1
  -8   1  -2 629.970 271.219   4
   8   1   2 802.541 276.062   7
   8  -1   2 282.788 115.284   7
  -8  -1  -3 501.887 232.531   3
  -8  -1  -3 922.296 302.541   1
  -8   1  -3 705.270 324.493   4
   8   1   3 847.446 246.172   7
   8  -1   3 522.581 184.435   7
  -8  -1  -4 2727.66 449.868   3
  -8  -1  -4 3433.54 537.346   1
  -8   1  -4 2897.87 531.496   4
   8   1   4 2540.27 492.345   7
   8  -1   4 2438.13 418.380   7
  -8  -1  -5 764.604 238.031   3
  -8  -1  -5 671.849 264.891   1
  -8   1  -5 417.094 177.344   4
   8   1   5 831.212 282.110   7
   8  -1   5 954.871 307.490   7
  -8  -1  -6 32.2266 156.150   1
  -8   1  -6 54.2845 215.370   4
   8   1   6 114.940 120.060   7
   8  -1   6-36.4351 85.4082   7
  -8  -1  -7 401.843 149.318   1
   8   1   7 319.531 181.527   7
   8  -1   7 375.443 172.588   7
  -8  -1  -8 1594.70 366.017   1
   8  -1   8 1526.68 406.662   7
   8  -1   9 855.278 307.549   7
  -8   2  12 403.038 222.563   4
  -8  -2  12 193.447 128.048   2
   8   2 -12 342.668 176.662   7
   8  -2 -12 10.2402 136.870   7
  -8   2  11-148.052 187.265   1
  -8  -2  11-67.9209 201.401   1
  -8   2  11 201.654 198.894   4
  -8  -2  11 38.5694 125.728   2
   8   2 -11-186.018 163.655   7
   8  -2 -11 4.68557 142.485   7
  -8   2  10 138.744 126.320   1
  -8  -2  10 456.786 266.418   1
  -8   2  10 122.684 197.338   4
  -8  -2  10 152.184 127.197   2
   8   2 -10 141.835 193.475   7
   8  -2 -10 718.192 252.487   7
  -8  -2   9 168.883 190.788   1
  -8   2   9 372.309 291.162   1
  -8   2   9-316.278 213.515   4
  -8  -2   9-144.673 182.312   2
   8   2  -9-77.3237 104.128   7
   8  -2  -9-102.337 103.362   7
  -8  -2   8 482.891 239.709   1
  -8   2   8 285.885 186.590   4
  -8  -2   8 516.806 215.634   2
   8   2  -8 731.258 293.610   7
   8  -2  -8 321.056 150.654   7
  -8  -2   7-120.321 99.0726   1
  -8   2   7 23.6610 146.354   4
  -8  -2   7-211.037 199.569   2
   8   2  -7-139.756 192.208   7
   8  -2  -7-55.9809 100.266   7
  -8  -2   6 547.081 193.664   1
  -8   2   6 656.029 214.684   4
  -8  -2   6 1275.06 344.587   2
   8   2  -6 1051.36 332.549   7
   8  -2  -6 1329.69 314.062   7
  -8  -2   5 126.835 97.1591   1
  -8   2   5 339.618 200.157   4
  -8  -2   5 370.165 205.245   2
   8   2  -5 251.244 150.009   7
   8  -2  -5 260.468 93.8736   7
  -8   2   4 1884.86 417.617   4
  -8  -2   4 1934.52 386.530   2
   8   2  -4 2113.28 435.595   7
   8  -2  -4 1901.08 372.667   7
  -8  -2   4 1680.06 382.618   1
  -8   2   3 6945.07 778.539   4
  -8  -2   3 7074.95 690.596   2
   8   2  -3 6703.21 763.797   7
   8  -2  -3 7884.48 758.286   7
  -8  -2   3 6984.55 753.771   1
  -8   2   2 11612.8 1035.05   4
  -8  -2   2 12741.5 897.262   2
   8   2  -2 12359.1 1073.29   7
   8  -2  -2 13088.2 959.519   7
  -8  -2   2 11798.0 978.193   1
  -8   2   1 1219.90 367.865   4
  -8  -2   1 1887.21 398.840   1
   8   2  -1 1523.72 387.909   7
   8  -2  -1 1641.86 339.945   7
  -8  -2   0 437.022 234.499   3
  -8   2   0 457.487 160.818   4
  -8  -2   0 635.729 236.038   1
   8   2   0 575.561 235.900   7
   8  -2   0 564.613 196.978   7
  -8  -2  -1-42.8841 152.558   3
  -8   2  -1-58.9810 174.298   4
  -8  -2  -1 61.0512 148.082   1
   8   2   1 40.8755 113.980   7
   8  -2   1-12.9655 87.3860   7
  -8  -2  -2 209.427 161.173   3
  -8   2  -2 328.643 194.571   4
  -8  -2  -2 260.851 176.963   1
   8   2   2 302.959 98.0520   7
   8  -2   2 352.220 145.217   7
  -8  -2  -3-200.344 213.426   3
  -8   2  -3 341.549 253.114   4
  -8  -2  -3 334.228 250.709   1
   8   2   3 208.125 154.631   7
   8  -2   3 123.394 107.411   7
  -8  -2  -4 143.482 97.2006   3
  -8   2  -4 233.872 176.940   4
  -8  -2  -4 367.929 225.720   1
   8   2   4 460.573 233.994   7
   8  -2   4 584.833 256.678   7
  -8  -2  -5-111.582 164.976   3
  -8   2  -5-12.3559 262.856   4
  -8  -2  -5-65.5118 189.373   1
  -8  -2  -6 1587.19 411.540   3
  -8  -2  -7 130.855 229.634   3
   8   3 -10-4.87012 205.279   7
  -8   3   9 326.876 222.663   4
   8   3  -9 1413.01 370.608   7
  -8  -3   9 1116.61 343.397   2
  -8   3   8 7.13144 193.851   4
   8   3  -8-418.329 256.688   7
  -8  -3   8 223.131 168.439   2
  -8   3   7 2167.88 490.022   4
   8   3  -7 3343.14 639.632   7
  -8  -3   7 2515.50 475.112   2
  -8   3   6-46.9594 220.310   4
   8   3  -6 256.450 240.754   7
  -8  -3   6 584.700 246.002   2
  -8  -3   5 148.542 161.048   1
  -8   3   5 161.508 168.189   4
   8   3  -5 197.139 207.781   7
  -8  -3   4-133.183 232.993   1
  -8   3   4 167.341 211.157   4
   8   3  -4-195.565 229.661   7
  -8  -3   3 241.990 119.516   1
  -8   3   3 231.971 236.745   4
   8   3  -3 455.600 249.453   7
  -8  -3   2 810.040 310.726   1
  -8   3   2 574.984 361.864   4
   8   3  -2 606.461 238.742   7
  -8  -3   1 2334.24 453.550   1
  -8   3   1 1935.65 507.607   4
   8   3  -1 2390.36 504.479   7
  -8  -3   0 3583.64 556.271   1
   8   3   0 3435.60 602.333   7
  -8  -3  -1 2058.05 443.279   1
   8   3   1 2022.17 485.231   7
  -8  -3  -2 328.645 161.242   1
  -9   0  14 56.0160 168.233   1
  -9   0  13 155.943 166.820   1
  -9   0  12 581.991 256.641   1
   9   0 -12 655.563 279.437   7
  -9   0  11 197.643 213.133   1
  -9   0  11 136.669 153.908   2
   9   0 -11-15.7089 136.474   7
  -9   0  10 1803.28 424.155   1
  -9   0  10 2667.46 560.697   2
   9   0 -10 2016.40 443.900   7
  -9   0   9 3.99272 194.439   2
  -9   0   9-403.237 235.982   1
   9   0  -9-163.559 195.725   7
  -9   0   8 650.127 233.024   1
   9   0  -8 1207.45 348.478   7
  -9   0   7 89.5180 256.962   1
   9   0  -7 247.881 205.357   7
  -9   0   6 2650.28 502.716   1
   9   0  -6 2251.87 463.091   7
  -9   0   5-410.408 262.234   1
   9   0  -5 189.039 112.424   7
  -9   0   4 858.487 328.864   1
   9   0  -4 375.672 156.075   7
  -9   0   3 269.056 227.408   1
   9   0  -3 45.0940 119.608   7
  -9   0   2-20.3341 175.290   1
   9   0  -2-394.400 242.002   7
  -9   0   1 251.576 212.698   1
  -9   0   1-78.8736 147.942   4
   9   0  -1 12.3567 121.336   7
  -9   0   0 9.12973 135.882   4
  -9   0   0 152.111 213.102   1
   9   0   0-157.021 183.787   7
  -9   0  -1-71.5416 147.767   4
   9   0   1-43.0948 103.962   7
  -9   0  -2 940.174 315.815   4
   9   0   2 282.651 159.422   7
  -9   0  -3-40.5892 184.345   4
   9   0   3-142.368 170.323   7
  -9   0  -4-76.7528 220.324   4
   9   0   4 452.419 262.118   7
  -9   0  -5 252.814 231.262   4
  -9   0  -6-109.417 153.556   4
  -9   1  13 753.760 275.243   1
  -9   1  12 1287.60 337.586   1
   9  -1 -12 823.311 282.884   7
  -9  -1  11-176.391 131.494   1
  -9   1  11-273.793 197.390   1
  -9  -1  11-369.342 249.771   2
   9  -1 -11 208.169 178.956   7
  -9   1  10-395.998 262.449   1
  -9  -1  10 171.417 191.771   2
   9   1 -10-15.5114 126.639   7
  -9  -1  10-81.3567 120.202   1
   9  -1 -10 18.2078 156.978   7
  -9   1   9-65.0018 203.332   1
  -9  -1   9 224.174 172.387   2
  -9  -1   9-75.3189 154.763   1
   9   1  -9 338.445 165.626   7
   9  -1  -9 227.177 219.639   7
  -9   1   8 782.661 304.564   1
  -9  -1   8 935.237 325.644   2
  -9  -1   8 1154.99 350.466   1
   9   1  -8 1213.00 394.804   7
   9  -1  -8 1079.54 263.931   7
  -9   1   7 828.180 353.906   1
  -9  -1   7 301.556 123.879   1
  -9  -1   7 1155.30 315.899   2
   9   1  -7 1327.66 361.576   7
   9  -1  -7 1213.32 323.816   7
  -9   1   6-17.5280 143.076   1
  -9  -1   6-44.7441 190.463   1
  -9  -1   6-283.252 225.211   2
   9   1  -6-90.4477 137.862   7
   9  -1  -6-209.687 206.428   7
  -9  -1   5 4514.60 616.142   2
  -9   1   5 3827.40 579.655   4
  -9  -1   5 4776.36 672.644   1
   9   1  -5 4275.68 643.961   7
   9  -1  -5 4535.29 636.293   7
  -9   1   4 283.894 257.184   4
  -9  -1   4 317.393 214.540   1
  -9  -1   4 63.7810 153.705   2
   9   1  -4 291.538 150.594   7
   9  -1  -4 259.756 167.803   7
  -9   1   3 1381.58 359.585   4
  -9  -1   3 2035.98 452.544   1
  -9  -1   3 2090.94 406.815   2
   9   1  -3 1886.48 408.194   7
   9  -1  -3 1541.41 347.117   7
  -9  -1   2 74.0024 124.044   1
  -9   1   2 91.3373 178.184   4
  -9  -1   2-255.810 221.062   2
   9   1  -2-99.8240 118.318   7
   9  -1  -2-110.882 107.167   7
  -9  -1   1 936.074 317.347   1
  -9   1   1 1055.55 346.239   4
  -9  -1   1 559.696 198.860   2
   9   1  -1 993.691 344.232   7
   9  -1  -1 918.742 293.575   7
  -9  -1   0-112.729 155.595   1
  -9   1   0-244.242 219.768   4
   9   1   0-191.262 216.520   7
   9  -1   0 75.1582 118.439   7
  -9  -1  -1 135.133 189.777   1
  -9   1  -1-259.812 285.938   4
   9   1   1-67.8661 140.027   7
   9  -1   1-72.4440 198.080   7
  -9  -1  -2-345.569 304.875   1
  -9   1  -2-1.69771 197.920   4
   9   1   2 256.847 199.833   7
   9  -1   2 64.5880 101.286   7
  -9  -1  -3 931.519 294.900   1
  -9   1  -3 127.563 183.799   4
   9  -1   3 835.015 321.513   7
  -9  -1  -4-173.385 293.178   1
  -9   1  -4 68.5383 190.390   4
   9  -1   4-27.2816 128.085   7
  -9  -1  -5 206.951 214.971   1
  -9   1  -5-349.943 284.566   4
   9  -1   5 160.430 182.723   7
  -9  -1  -6-29.7412 228.713   1
   9  -1   6 146.402 99.6064   7
   9  -2 -12 318.334 219.632   7
   9  -2 -11 240.613 193.654   7
  -9   2  10 424.652 318.535   1
   9  -2 -10 737.238 208.272   7
  -9   2   9 397.340 251.925   1
  -9   2   9 51.0043 191.239   4
   9  -2  -9 37.8277 103.319   7
  -9   2   8 195.735 159.589   4
  -9  -2   8 134.711 216.679   2
   9  -2  -8-144.342 199.089   7
  -9   2   7 773.756 194.540   4
  -9  -2   7 1197.55 373.374   2
   9   2  -7 1558.55 444.701   7
   9  -2  -7 1206.15 321.896   7
  -9  -2   6 2837.61 510.715   1
  -9  -2   6 3546.75 571.743   2
  -9   2   6 2216.28 472.527   4
   9   2  -6 3381.16 606.223   7
   9  -2  -6 2683.04 422.438   7
  -9   2   5 1396.58 373.184   4
  -9  -2   5 1420.01 359.012   2
   9   2  -5 1484.87 395.855   7
   9  -2  -5 1294.33 321.889   7
  -9  -2   5 1257.53 373.119   1
  -9   2   4 81.3920 163.255   4
  -9  -2   4-19.6485 108.658   2
   9   2  -4 187.879 183.254   7
   9  -2  -4 70.5355 95.1491   7
  -9  -2   4-58.4575 159.357   1
  -9   2   3 383.412 212.125   4
  -9  -2   3-323.726 214.148   1
   9   2  -3-271.217 139.947   7
   9  -2  -3 276.936 211.685   7
  -9   2   2-49.4875 227.630   4
  -9  -2   2-246.081 261.388   1
   9   2  -2 17.2972 147.137   7
   9  -2  -2 58.8819 154.937   7
  -9   2   1 204.907 238.422   4
  -9  -2   1 406.556 208.913   1
   9   2  -1 70.7114 164.807   7
   9  -2  -1-55.0125 105.295   7
  -9   2   0 43.8664 189.337   4
  -9  -2   0-384.283 253.233   1
   9  -2   0-193.338 151.517   7
  -9  -2  -1 162.504 152.192   3
  -9   2  -1 105.278 199.958   4
  -9  -2  -1-95.0368 191.570   1
  -9  -2  -2 391.814 252.211   3
  -9  -2  -2 596.649 221.014   1
  -9  -2  -3 1399.45 373.444   3
  -9  -2  -3 1622.13 388.353   1
  -9  -2  -4 68.7296 130.260   1
 -10  -1   7 83.1590 240.690   2
  10  -1  -7 82.1558 117.393   7
 -10  -1   6 1272.39 307.756   2
  10  -1  -6 1297.69 370.675   7
 -10  -1   5 1781.83 404.914   2
  10  -1  -5 1306.41 378.974   7
 -10  -1   4 565.485 209.049   2
  10  -1  -4 325.644 220.835   7
 -10  -1   3 886.716 244.379   2
  10  -1  -3 1426.49 419.227   7
  10  -1  -2 15.6498 132.826   7
 -10   1   1 431.705 295.737   4
  10  -1  -1 550.173 250.554   7
 -10   1   0-190.305 200.535   4
  10  -1   0 123.998 184.743   7
 -10   1  -1 241.064 228.608   4
 -10   1  -2 679.756 285.493   4
 -10   2   5-204.165 272.435   4
 -10   2   4 163.856 199.014   4
 -10   2   3 83.6422 243.739   4
   0   0   0    0.00    0.00   0
TITL BKS-SS-DI-ANTH-298K-SS in P2(1)/c
REM P2(1)/c (#14 in standard setting)
CELL 0.71073   7.866219   3.965976  15.782305  90.0000 102.6965  90.0000
ZERR    2.00   0.000447   0.000260   0.001133   0.0000   0.0063   0.0000
LATT  1
SYMM -x, y+1/2,-z+1/2
SFAC C H O
UNIT 24.00 16.00 4.00
TREF
HKLF 4
END
;
_shelx_hkl_checksum              3496
_olex2_submission_special_instructions 'No special instructions were received'
loop_
_space_group_symop_operation_xyz
'x, y, z'
'-x, y+1/2, -z+1/2'
'-x, -y, -z'
'x, -y-1/2, z-1/2'
loop_
_atom_site_label
_atom_site_type_symbol
_atom_site_fract_x
_atom_site_fract_y
_atom_site_fract_z
_atom_site_U_iso_or_equiv
_atom_site_adp_type
_atom_site_occupancy
_atom_site_site_symmetry_order
_atom_site_calc_flag
_atom_site_refinement_flags_posn
_atom_site_refinement_flags_adp
_atom_site_refinement_flags_occupancy
_atom_site_disorder_assembly
_atom_site_disorder_group
C2 C 0.43734(16) 0.6529(3) 0.41522(9) 0.0412(4) Uani 1 1 d . . . . .
C7 C 0.32641(16) 0.6397(3) 0.47346(9) 0.0411(4) Uani 1 1 d . . . . .
C1 C 0.61615(17) 0.5123(4) 0.43962(9) 0.0458(4) Uani 1 1 d . . . . .
C5 C 0.10210(19) 0.9135(4) 0.36768(11) 0.0579(5) Uani 1 1 d . . . . .
H5 H -0.010004 1.001381 0.351753 0.070 Uiso 1 1 calc R U . . .
O1 O 0.71291(15) 0.5222(4) 0.38880(8) 0.0747(5) Uani 1 1 d . . . . .
C3 C 0.3780(2) 0.7973(4) 0.33397(10) 0.0522(4) Uani 1 1 d . . . . .
H3 H 0.451187 0.807553 0.295114 0.063 Uiso 1 1 calc R U . . .
C6 C 0.15880(18) 0.7712(4) 0.44841(10) 0.0509(4) Uani 1 1 d . . . . .
H6 H 0.084340 0.762748 0.486703 0.061 Uiso 1 1 calc R U . . .
C4 C 0.2112(2) 0.9260(4) 0.31036(11) 0.0579(5) Uani 1 1 d . . . . .
H4 H 0.172367 1.021198 0.255673 0.069 Uiso 1 1 calc R U . . .
loop_
_atom_site_aniso_label
_atom_site_aniso_U_11
_atom_site_aniso_U_22
_atom_site_aniso_U_33
_atom_site_aniso_U_23
_atom_site_aniso_U_13
_atom_site_aniso_U_12
C2 0.0437(8) 0.0424(7) 0.0376(8) -0.0045(6) 0.0087(6) -0.0036(5)
C7 0.0384(7) 0.0428(8) 0.0427(8) -0.0057(6) 0.0102(6) -0.0041(5)
C1 0.0429(7) 0.0540(9) 0.0435(9) -0.0041(6) 0.0160(6) -0.0035(6)
C5 0.0463(8) 0.0551(10) 0.0660(11) -0.0036(8) -0.0016(7) 0.0041(7)
O1 0.0583(7) 0.1163(11) 0.0582(8) 0.0143(7) 0.0318(6) 0.0127(7)
C3 0.0609(9) 0.0545(9) 0.0422(9) -0.0007(7) 0.0133(7) -0.0022(7)
C6 0.0415(8) 0.0528(9) 0.0586(10) -0.0047(7) 0.0114(6) 0.0015(6)
C4 0.0648(10) 0.0553(9) 0.0468(10) 0.0015(7) -0.0025(7) 0.0023(7)
loop_
_atom_type_symbol
_atom_type_description
_atom_type_scat_dispersion_real
_atom_type_scat_dispersion_imag
_atom_type_scat_source
C C 0.0033 0.0016 'International Tables Vol C Tables 4.2.6.8 and 6.1.1.4'
H H 0.0000 0.0000 'International Tables Vol C Tables 4.2.6.8 and 6.1.1.4'
O O 0.0106 0.0060 'International Tables Vol C Tables 4.2.6.8 and 6.1.1.4'
loop_
_geom_angle_atom_site_label_1
_geom_angle_atom_site_label_2
_geom_angle_atom_site_label_3
_geom_angle
_geom_angle_site_symmetry_1
_geom_angle_site_symmetry_3
_geom_angle_publ_flag
C7 C2 C1 120.51(12) . . ?
C3 C2 C7 119.33(13) . . ?
C3 C2 C1 120.16(13) . . ?
C2 C7 C1 121.18(12) . 3_666 ?
C6 C7 C2 119.18(14) . . ?
C6 C7 C1 119.63(13) . 3_666 ?
C7 C1 C2 118.31(11) 3_666 . ?
O1 C1 C2 120.63(14) . . ?
O1 C1 C7 121.06(13) . 3_666 ?
C6 C5 H5 120.0 . . ?
C6 C5 C4 120.08(14) . . ?
C4 C5 H5 120.0 . . ?
C2 C3 H3 119.7 . . ?
C4 C3 C2 120.58(15) . . ?
C4 C3 H3 119.7 . . ?
C7 C6 H6 119.6 . . ?
C5 C6 C7 120.72(14) . . ?
C5 C6 H6 119.6 . . ?
C5 C4 C3 120.10(15) . . ?
C5 C4 H4 119.9 . . ?
C3 C4 H4 119.9 . . ?
loop_
_geom_bond_atom_site_label_1
_geom_bond_atom_site_label_2
_geom_bond_distance
_geom_bond_site_symmetry_2
_geom_bond_publ_flag
C2 C7 1.4005(18) . ?
C2 C1 1.483(2) . ?
C2 C3 1.388(2) . ?
C7 C1 1.475(2) 3_666 ?
C7 C6 1.3920(19) . ?
C1 O1 1.2217(16) . ?
C5 H5 0.9300 . ?
C5 C6 1.375(2) . ?
C5 C4 1.378(2) . ?
C3 H3 0.9300 . ?
C3 C4 1.380(2) . ?
C6 H6 0.9300 . ?
C4 H4 0.9300 . ?
loop_
_geom_torsion_atom_site_label_1
_geom_torsion_atom_site_label_2
_geom_torsion_atom_site_label_3
_geom_torsion_atom_site_label_4
_geom_torsion
_geom_torsion_site_symmetry_1
_geom_torsion_site_symmetry_2
_geom_torsion_site_symmetry_3
_geom_torsion_site_symmetry_4
_geom_torsion_publ_flag
C2 C7 C6 C5 -0.2(2) . . . . ?
C2 C3 C4 C5 0.3(2) . . . . ?
C7 C2 C1 C7 -0.2(2) . . . 3_666 ?
C7 C2 C1 O1 179.70(13) . . . . ?
C7 C2 C3 C4 -0.2(2) . . . . ?
C1 C2 C7 C1 0.2(2) . . . 3_666 ?
C1 C2 C7 C6 -179.46(12) . . . . ?
C1 C2 C3 C4 179.37(13) . . . . ?
C1 C7 C6 C5 -179.86(13) 3_666 . . . ?
C3 C2 C7 C1 179.84(13) . . . 3_666 ?
C3 C2 C7 C6 0.2(2) . . . . ?
C3 C2 C1 C7 -179.84(12) . . . 3_666 ?
C3 C2 C1 O1 0.1(2) . . . . ?
C6 C5 C4 C3 -0.3(2) . . . . ?
C4 C5 C6 C7 0.3(2) . . . . ?
