#------------------------------------------------------------------------------
#$Date: 2021-06-05 21:06:51 +0300 (Sat, 05 Jun 2021) $
#$Revision: 265938 $
#$URL: file:///home/coder/svn-repositories/cod/cif/7/24/25/7242584.cif $
#------------------------------------------------------------------------------
#
# This file is available in the Crystallography Open Database (COD),
# http://www.crystallography.net/
#
# All data on this site have been placed in the public domain by the
# contributors.
#
data_7242584
loop_
_publ_author_name
'Huang, Xing'
'Zhao, Zhiying'
'Zhang, Mengsi'
'He, Zhangzhen'
_publ_section_title
;
 Crystal-to-crystal transformation of a new selenite compound
 CaNi2(SeO3)3&#x00B7;2H2O induced by dehydration
;
_journal_issue                   17
_journal_name_full               CrystEngComm
_journal_page_first              3126
_journal_page_last               3132
_journal_paper_doi               10.1039/D1CE00190F
_journal_volume                  23
_journal_year                    2021
_chemical_formula_moiety         '0.5(Ca2 H8 Ni4 O22 Se6)'
_chemical_formula_sum            'Ca H4 Ni2 O11 Se3'
_chemical_formula_weight         574.41
_chemical_name_systematic        CaNi2(SeO3)3(2H2O)
_space_group_crystal_system      monoclinic
_space_group_IT_number           11
_space_group_name_Hall           '-P 2yb'
_space_group_name_H-M_alt        'P 1 21/m 1'
_atom_sites_solution_hydrogens   difmap
_audit_creation_date             2020-09-04
_audit_creation_method
;
Olex2 1.2
(compiled 2018.05.29 svn.r3508 for OlexSys, GUI svn.r5506)
;
_audit_update_record
;
2021-01-17 deposited with the CCDC.	2021-03-11 downloaded from the CCDC.
;
_cell_angle_alpha                90
_cell_angle_beta                 114.275(7)
_cell_angle_gamma                90
_cell_formula_units_Z            2
_cell_length_a                   7.8568(4)
_cell_length_b                   7.3734(3)
_cell_length_c                   8.9697(6)
_cell_measurement_reflns_used    2666
_cell_measurement_temperature    293(2)
_cell_measurement_theta_max      33.0000
_cell_measurement_theta_min      2.4730
_cell_volume                     473.68(5)
_computing_cell_refinement       'CrysAlisPro 1.171.39.46c (Rigaku OD, 2018)'
_computing_data_collection       'CrysAlisPro 1.171.39.46c (Rigaku OD, 2018)'
_computing_data_reduction        'CrysAlisPro 1.171.39.46c (Rigaku OD, 2018)'
_computing_molecular_graphics    'Olex2 (Dolomanov et al., 2009)'
_computing_publication_material  'Olex2 (Dolomanov et al., 2009)'
_computing_structure_refinement  'ShelXL (Sheldrick, 2015)'
_computing_structure_solution    'SHELXT 2014/5 (Sheldrick, 2014)'
_diffrn_ambient_temperature      293(2)
_diffrn_detector                 'CCD plate'
_diffrn_measured_fraction_theta_full 1.000
_diffrn_measured_fraction_theta_max 0.943
_diffrn_measurement_details
;
List of Runs (angles in degrees, time in seconds):

  # Type    Start    End  Width  t~exp~   \w     \q     \k     \f   Frames
#--------------------------------------------------------------------------
  1  \w   -115.00  65.00   0.50    5.00    --  -25.00  45.00   0.00  360
  2  \w   -115.00  25.00   0.50    5.00    --  -25.00  45.00  90.00  280
  3  \w   -115.00 -35.00   0.50    5.00    --  -25.00  45.00 180.00  160
;
_diffrn_measurement_device       'abstract diffractometer'
_diffrn_measurement_device_type
'dtrek-CrysAlisPro-abstract goniometer imported rigaku-d*trek images'
_diffrn_measurement_method       '\w scans'
_diffrn_orient_matrix_type
'CrysAlisPro convention (1999,Acta A55,543-557)'
_diffrn_orient_matrix_UB_11      -0.0457118000
_diffrn_orient_matrix_UB_12      -0.0059634000
_diffrn_orient_matrix_UB_13      -0.0864412000
_diffrn_orient_matrix_UB_21      0.0836448000
_diffrn_orient_matrix_UB_22      -0.0323546000
_diffrn_orient_matrix_UB_23      -0.0027862000
_diffrn_orient_matrix_UB_31      -0.0269912000
_diffrn_orient_matrix_UB_32      -0.0903785000
_diffrn_orient_matrix_UB_33      0.0067481000
_diffrn_radiation_monochromator  graphite
_diffrn_radiation_probe          x-ray
_diffrn_radiation_type           MoK\a
_diffrn_radiation_wavelength     0.71073
_diffrn_reflns_av_R_equivalents  0.0428
_diffrn_reflns_av_unetI/netI     0.0499
_diffrn_reflns_Laue_measured_fraction_full 1.000
_diffrn_reflns_Laue_measured_fraction_max 0.943
_diffrn_reflns_limit_h_max       12
_diffrn_reflns_limit_h_min       -11
_diffrn_reflns_limit_k_max       9
_diffrn_reflns_limit_k_min       -11
_diffrn_reflns_limit_l_max       13
_diffrn_reflns_limit_l_min       -13
_diffrn_reflns_number            5495
_diffrn_reflns_point_group_measured_fraction_full 1.000
_diffrn_reflns_point_group_measured_fraction_max 0.943
_diffrn_reflns_theta_full        25.242
_diffrn_reflns_theta_max         33.046
_diffrn_reflns_theta_min         2.491
_diffrn_source                   'fine-focus sealed X-ray tube'
_diffrn_source_type              'Enhance (Mo) X-ray Source'
_exptl_absorpt_coefficient_mu    16.095
_exptl_absorpt_correction_T_max  1.00000
_exptl_absorpt_correction_T_min  0.60548
_exptl_absorpt_correction_type   multi-scan
_exptl_absorpt_process_details
;
CrysAlisPro 1.171.39.46c (Rigaku Oxford Diffraction, 2018)
Empirical absorption correction using spherical harmonics,
 implemented in SCALE3 ABSPACK scaling algorithm.
;
_exptl_crystal_colour            yellow
_exptl_crystal_colour_primary    yellow
_exptl_crystal_density_diffrn    4.027
_exptl_crystal_description       needle
_exptl_crystal_F_000             540
_exptl_crystal_preparation       'Magnetic properties'
_refine_diff_density_max         1.222
_refine_diff_density_min         -1.316
_refine_diff_density_rms         0.259
_refine_ls_extinction_method     none
_refine_ls_goodness_of_fit_ref   1.033
_refine_ls_hydrogen_treatment    mixed
_refine_ls_matrix_type           full
_refine_ls_number_parameters     101
_refine_ls_number_reflns         1802
_refine_ls_number_restraints     12
_refine_ls_restrained_S_all      1.031
_refine_ls_R_factor_all          0.0531
_refine_ls_R_factor_gt           0.0358
_refine_ls_shift/su_max          0.000
_refine_ls_shift/su_mean         0.000
_refine_ls_structure_factor_coef Fsqd
_refine_ls_weighting_details
'w=1/[\s^2^(Fo^2^)+(0.0269P)^2^+0.7444P] where P=(Fo^2^+2Fc^2^)/3'
_refine_ls_weighting_scheme      calc
_refine_ls_wR_factor_gt          0.0652
_refine_ls_wR_factor_ref         0.0701
_reflns_Friedel_coverage         0.000
_reflns_number_gt                1439
_reflns_number_total             1802
_reflns_threshold_expression     'I > 2\s(I)'
_cod_data_source_file            d1ce00190f2.cif
_cod_data_source_block           x_CCDC1
_cod_depositor_comments
'Adding full bibliography for 7242583--7242585.cif.'
_cod_database_code               7242584
_shelx_shelxl_version_number     2016/6
_shelx_space_group_comment
;
The symmetry employed for this shelxl refinement is uniquely defined
by the following loop, which should always be used as a source of
symmetry information in preference to the above space-group names.
They are only intended as comments.
;
_reflns_odcompleteness_completeness 94.26
_reflns_odcompleteness_iscentric 1
_reflns_odcompleteness_theta     32.97
_olex2_refinement_description
;
1. Fixed Uiso
 At 1.5 times of:
  All O(H,H) groups
2. Restrained distances
 H1WA-H1WA_$1
 2.2 with sigma of 0.01
 O1W-H1WA = O1W-H1WB
 0.82 with sigma of 0.01
 H1WA-H1WB
 1.39 with sigma of 0.01
 H1WA-Ca1 \\sim H1WB-Ca1
 with sigma of 0.02
 H1BA-O1B \\sim H1BB-O1B
 with sigma of 0.02
3. Uiso/Uaniso restraints and constraints
O1W \\sim O1B: within 2A with sigma of 0.02 and sigma for terminal atoms of 0.04
4. Others
 Sof(O1B)=Sof(H1BA)=Sof(H1BB)=1-FVAR(1)
 Sof(O1W)=Sof(H1WA)=Sof(H1WB)=FVAR(1)
5.a Riding coordinates:
 O1B(H1BA,H1BB)
;
_shelx_res_file
;
TITL hx5_a.res in P2(1)/m
    x.res
    created by SHELXL-2016/6 at 17:54:23 on 04-Sep-2020
REM Old TITL
REM SHELXT solution in P2(1)/m
REM R1 0.040, Rweak 0.007, Alpha 0.022, Orientation as input
REM Formula found by SHELXT: Ca Ni2 Se3 O11
CELL 0.71073 7.8568 7.3734 8.9697 90 114.275 90
ZERR 2 0.0004 0.0003 0.0006 0 0.007 0
LATT 1
SYMM -X,0.5+Y,-Z
SFAC Ca H Ni O Se
UNIT 2 8 4 22 6
EQIV $1 1-X,1-Y,2-Z
DFIX 2.2 0.01 H1Wa H1Wa_$1
DFIX 0.82 0.01 O1W H1Wa O1W H1Wb
SADI H1Wa Ca1 H1Wb Ca1
SADI H1Ba O1B H1Bb O1B
DANG 1.39 0.01 H1Wa H1Wb
SIMU 0.02 0.04 2 O1W O1B

L.S. 30
PLAN  60
CONN 6 1.25 Ni1
list 4
HTAB
fmap 2
acta
REM <olex2.extras>
REM <HklSrc "%.\\x.hkl">
REM </olex2.extras>

WGHT    0.026900    0.744400
FVAR       0.44127   0.88535
NI1   3    0.179752    0.558455    0.316108    11.00000    0.01017    0.00629 =
         0.01095   -0.00015    0.00496   -0.00057
SE1   5    0.006724    0.250000    0.041536    10.50000    0.00834    0.00775 =
         0.00952    0.00000    0.00358    0.00000
SE2   5    0.030484    0.250000    0.480448    10.50000    0.00991    0.00789 =
         0.01171    0.00000    0.00607    0.00000
SE3   5    0.533167    0.250000    0.327726    10.50000    0.00835    0.00699 =
         0.01038    0.00000    0.00434    0.00000
O1    4   -0.036368    0.425104    0.143562    11.00000    0.01418    0.01043 =
         0.01569   -0.00399    0.00733   -0.00204
O2    4   -0.193498    0.250000   -0.140126    10.50000    0.00885    0.00811 =
         0.00767    0.00000    0.00055    0.00000
O3    4    0.189473    0.421867    0.517022    11.00000    0.01272    0.01091 =
         0.01624    0.00427    0.00710   -0.00108
O4    4    0.006484    0.250000    0.662295    10.50000    0.01702    0.00265 =
         0.01374    0.00000    0.00932    0.00000
O5    4    0.393010    0.433081    0.279811    11.00000    0.01338    0.01003 =
         0.01520    0.00403    0.00562    0.00570
O6    4    0.619683    0.250000    0.539511    10.50000    0.01296    0.01130 =
         0.00876    0.00000    0.00317    0.00000
CA1   1    0.461764    0.250000    0.712957    10.50000    0.01229    0.01563 =
         0.01714    0.00000    0.00542    0.00000
PART 1
O1W   4    0.361559    0.429119    0.891799    21.00000    0.04027    0.04726 =
         0.03548    0.00286    0.02305    0.01258
H1WA  2    0.392868    0.398436    0.988238    21.00000   -1.50000
H1WB  2    0.264050    0.489411    0.854521    21.00000   -1.50000
PART 0
PART 2
O1B   4    0.382349    0.250000    0.917477   -21.00000    0.09525    0.09458 =
         0.04348    0.00000   -0.00038    0.00000
AFIX   3
H1BA  2    0.268679    0.250000    0.865647   -21.00000   -1.50000
H1BB  2    0.420089    0.230130    1.015677   -21.00000   -1.50000
AFIX   0
HKLF 4




REM  hx5_a.res in P2(1)/m
REM R1 =  0.0358 for    1439 Fo > 4sig(Fo)  and  0.0531 for all    1802 data
REM    101 parameters refined using     12 restraints

END

WGHT      0.0269      0.7444

REM Instructions for potential hydrogen bonds
EQIV $12 x, y, z+1
HTAB O1W Se3_$12
HTAB O1W O5_$12
EQIV $3 -x, -y+1, -z+1
HTAB O1W O1_$3
HTAB O1B Se3_$12

REM Highest difference peak  1.222,  deepest hole -1.316,  1-sigma level  0.259
Q1    1   0.4257  0.2500  1.1592  10.50000  0.05    1.22
Q2    1   0.5035  0.3962  0.3400  11.00000  0.05    1.09
Q3    1  -0.1255  0.2500 -0.1517  10.50000  0.05    1.06
Q4    1   0.2553  0.2500  0.2191  10.50000  0.05    1.00
Q5    1   0.0233  0.3053  0.1612  11.00000  0.05    0.90
Q6    1   0.1829  0.4309  0.3028  11.00000  0.05    0.89
Q7    1  -0.1012  0.1936  0.4006  11.00000  0.05    0.88
Q8    1   0.2759  0.7500  0.9440  10.50000  0.05    0.85
Q9    1   0.0270  0.5413  0.3176  11.00000  0.05    0.84
Q10   1   0.5410  0.2500  0.5786  10.50000  0.05    0.84
Q11   1   0.4824  0.4582  0.9593  11.00000  0.05    0.83
Q12   1   0.0456  0.1085  0.4828  11.00000  0.05    0.81
Q13   1  -0.1015  0.2500  0.4909  10.50000  0.05    0.81
Q14   1   0.1503  0.7039  0.3276  11.00000  0.05    0.81
Q15   1  -0.0632  0.3610  0.0862  11.00000  0.05    0.81
Q16   1   0.0000  0.5000  0.0000  10.50000  0.05    0.81
Q17   1   0.0654  0.1813  0.5811  11.00000  0.05    0.79
Q18   1   0.4541  0.2500  0.8444  10.50000  0.05    0.79
Q19   1  -0.0486  0.0826 -0.0737  11.00000  0.05    0.79
Q20   1   0.0092  0.1071  0.0327  11.00000  0.05    0.79
Q21   1  -0.0842  0.1408  0.6201  11.00000  0.05    0.77
Q22   1   0.0803  0.6434  0.1836  11.00000  0.05    0.77
Q23   1   0.1391  0.5185  0.7441  11.00000  0.05    0.76
Q24   1   0.0866  0.2500  0.0366  10.50000  0.05    0.74
Q25   1   0.3111  0.4876  0.3647  11.00000  0.05    0.74
Q26   1   0.6362  0.2500  1.0982  10.50000  0.05    0.74
Q27   1   0.5052  0.1617  0.8154  11.00000  0.05    0.73
Q28   1   0.3708  0.2500  0.2429  10.50000  0.05    0.73
Q29   1   0.3270  0.2500  1.0153  10.50000  0.05    0.73
Q30   1   0.4575  0.1055  0.7091  11.00000  0.05    0.73
Q31   1   0.5998  0.2500  0.8643  10.50000  0.05    0.72
Q32   1   0.5460  0.1088  0.2850  11.00000  0.05    0.72
Q33   1   0.1221  0.3007  0.3279  11.00000  0.05    0.72
Q34   1   0.2919  0.6362  1.0049  11.00000  0.05    0.72
Q35   1   0.4644  0.5561  0.8529  11.00000  0.05    0.71
Q36   1   0.2023  0.6232  0.4118  11.00000  0.05    0.71
Q37   1   0.3027  0.5821  0.2977  11.00000  0.05    0.71
Q38   1   0.0369  0.2500  0.8451  10.50000  0.05    0.71
Q39   1   0.0352  0.1650  0.6695  11.00000  0.05    0.70
Q40   1  -0.2556  0.2500 -0.1048  10.50000  0.05    0.70
Q41   1   0.1833  0.4202  0.3955  11.00000  0.05    0.70
Q42   1   0.4859  0.1543  0.6060  11.00000  0.05    0.70
Q43   1  -0.0612  0.3542  0.1796  11.00000  0.05    0.69
Q44   1  -0.1435  0.2500  0.1041  10.50000  0.05    0.69
Q45   1   0.1610  0.1498  0.0032  11.00000  0.05    0.68
Q46   1   0.3887  0.1430  0.7765  11.00000  0.05    0.68
Q47   1   0.5913  0.2500  0.9853  10.50000  0.05    0.67
Q48   1   0.1580  0.3068  0.4841  11.00000  0.05    0.67
Q49   1   0.1154  0.2500  0.3727  10.50000  0.05    0.67
Q50   1   0.0445  0.5475  0.4346  11.00000  0.05    0.67
Q51   1  -0.0225  0.1047  0.5025  11.00000  0.05    0.67
Q52   1   0.6572  0.0977  0.5040  11.00000  0.05    0.67
Q53   1   0.4295  0.4100  0.1984  11.00000  0.05    0.67
Q54   1   0.5322  0.5023  0.3236  11.00000  0.05    0.67
Q55   1   0.6348  0.1868  0.3072  11.00000  0.05    0.66
Q56   1   0.1380  0.5042  0.4214  11.00000  0.05    0.66
Q57   1   0.3579  0.3524  1.0293  11.00000  0.05    0.66
Q58   1   0.5415  0.2500  0.2119  10.50000  0.05    0.66
Q59   1   0.0185  0.2500  0.7456  10.50000  0.05    0.66
Q60   1   0.5166  0.1749  0.4370  11.00000  0.05    0.65
;
_shelx_res_checksum              26303
_shelx_hkl_file
;
   0   0   1 1378.45   16.95
   0   0   1 1420.16   20.18
   0   0  -2   41.83    5.37
   0   0  -2   37.62    5.62
   0   0   2   37.98    6.42
   0   0   2   41.97    4.98
   0   0  -3 1856.18   40.80
   0   0  -3 1875.28   35.17
   0   0   3 1837.42   33.06
   0   0   4  416.46   18.60
   0   0  -4  413.30   23.12
   0   0  -4  434.94   19.95
   0   0  -5 6168.07   98.29
   0   0  -5 6363.16   83.46
   0   0  -6 3103.29   76.05
   0   0  -6 3207.65   64.96
   0   0  -7   10.66   10.08
   0   0  -8  652.10   42.08
   0   0  -9   21.89   12.62
   0   0 -10  -21.11   16.01
   0   0 -11  822.20   56.86
   0  -1   0   -2.76    2.14
   0   1   0    2.46    1.87
   0   1   0   -1.54    1.47
   0  -1   0   -2.04    2.06
   0   1  -1   11.39    2.41
   0  -1  -1    2.33    3.12
   0   1   1   12.54    2.99
   0   1  -1    8.42    3.04
   0  -1  -1    6.93    2.73
   0  -1   1    8.28    2.22
   0  -1   1    7.49    2.14
   0   1  -2   15.13    4.54
   0  -1   2   24.03    4.41
   0   1   2   25.48    5.56
   0  -1  -2   16.29    5.63
   0  -1  -2   16.71    5.69
   0   1   2   35.52    7.06
   0  -1   3  484.95   13.30
   0  -1  -3  515.15   22.08
   0   1  -3  509.88   20.96
   0  -1  -3  495.01   22.32
   0  -1   4   81.59    7.37
   0   1  -4   86.47   11.80
   0  -1  -4   61.72    9.52
   0  -1  -4  101.02   13.38
   0  -1  -5  244.14   20.64
   0  -1  -5  301.15   20.98
   0   1  -5  301.08   22.33
   0  -1   5  295.95   15.20
   0  -1  -6  346.06   27.01
   0  -1  -6  362.64   24.94
   0   1  -6  406.88   28.68
   0  -1  -7  824.62   43.68
   0   1  -7  751.19   41.25
   0  -1  -7  817.18   40.38
   0  -1  -8   42.31   15.45
   0  -1  -8   59.45   14.55
   0   1  -8   25.55   13.37
   0  -1  -9  385.98   35.60
   0   1  -9  409.86   36.03
   0  -1 -10   22.91   15.99
   0   1 -10   72.55   21.83
   0   1 -11   53.70   23.67
   0  -1 -11   -2.79   17.34
   0  -1  11  -12.28   23.19
   0  -2   0 2483.68   23.14
   0  -2   0 2451.97   34.40
   0   2   0 2411.17   34.77
   0  -2   0 2497.59   34.85
   0   2   0 2485.63   34.15
   0   2   0 2434.62   24.17
   0  -2  -1   70.91    5.48
   0   2   1   69.56    8.00
   0  -2   1   80.09    5.49
   0   2   1   79.46    6.08
   0   2  -1   79.09    5.21
   0   2  -1   85.30    7.95
   0   2  -1   72.12    5.20
   0   2   1   72.79    6.83
   0  -2  -1   80.20    8.69
   0  -2   1   75.69    5.27
   0  -2   1   76.01    7.33
   0  -2  -2 1763.03   33.14
   0  -2  -2 1673.96   39.23
   0  -2   2 1690.52   34.53
   0   2  -2 1681.95   29.61
   0   2   2 1710.89   34.67
   0  -2   2 1669.19   30.25
   0   2  -2 1729.47   16.31
   0  -2   3   12.59    5.25
   0  -2  -3    0.35    5.25
   0  -2  -3    2.65    5.01
   0  -2   4  574.09   11.90
   0  -2  -4  594.87   28.05
   0  -2  -4  570.01   28.83
   0   2  -4  589.21   26.04
   0  -2   4  553.29   29.36
   0  -2   5   22.70    4.36
   0  -2   5   27.03   10.05
   0  -2  -5   31.62   10.34
   0   2  -5   32.76    9.15
   0  -2  -5   16.10    7.79
   0  -2   6  174.06   23.17
   0   2  -6  205.04   20.01
   0  -2  -6  199.14   20.96
   0  -2  -6  180.72   21.29
   0  -2   6  163.51   10.53
   0  -2  -7  295.66   28.09
   0  -2   7  252.71   30.80
   0  -2  -7  275.28   24.91
   0   2  -7  314.63   27.82
   0  -2   8   37.59   20.11
   0   2  -8   -7.46   13.27
   0  -2  -8   14.25   12.18
   0  -2  -8    0.52   10.47
   0  -2  -9  120.69   22.42
   0  -2   9  117.57   28.16
   0  -2  -9   66.58   19.22
   0  -2  10  193.78   36.01
   0  -2 -10  175.75   26.96
   0   2 -10  183.03   27.95
   0   2 -11   21.98   18.66
   0  -2 -11   79.29   24.27
   0  -2  11   75.53   29.65
   0  -3   0    0.90    2.17
   0   3   0    8.21    3.47
   0  -3   0   -0.09    3.73
   0  -3   0    4.02    4.97
   0   3  -1  741.88   20.84
   0   3   1  781.51   19.21
   0   3  -1  724.95   17.35
   0  -3  -1  793.58   28.08
   0  -3  -1  742.69   17.90
   0  -3   1  766.45   21.19
   0  -3   1  739.70   24.61
   0   3  -1  759.69   16.84
   0  -3   2  960.83   22.73
   0  -3   2  972.30   19.86
   0  -3  -2  935.19   25.04
   0  -3   2  975.35   30.43
   0   3   2 1034.86   28.50
   0   3  -2  963.35   23.38
   0   3  -2  881.62   18.63
   0  -3  -2 1017.45   34.93
   0   3  -3  492.34   20.18
   0  -3   3  522.58   24.26
   0  -3  -3  472.33   21.75
   0  -3   3  498.80   10.41
   0  -3  -3  451.52   26.20
   0  -3  -4 1928.94   56.60
   0   3  -4 1868.23   45.96
   0  -3  -4 1788.63   49.15
   0  -3   4 1864.67   51.70
   0  -3  -5   35.84   12.05
   0   3  -5   33.66    9.17
   0  -3   5   21.78    9.97
   0  -3  -5   50.01   12.80
   0  -3  -6   10.24    9.14
   0  -3  -6    3.65   11.00
   0  -3   6   18.81   12.57
   0   3  -6    2.73    9.85
   0  -3  -7 3004.93   85.55
   0   3  -7 3032.74   80.29
   0  -3  -7 2811.25   81.76
   0  -3   8  360.40   39.00
   0   3  -8  492.43   37.49
   0  -3  -8  443.41   36.05
   0  -3  -8  494.65   37.76
   0   3  -9   22.60   14.98
   0  -3  -9   16.05   14.58
   0  -3   9   -4.57   16.44
   0  -3  -9   39.89   20.08
   0  -3  10  371.14   47.50
   0  -3 -10  297.08   36.35
   0  -3 -10  292.03   34.60
   0   3 -10  316.48   36.18
   0   3 -11   34.29   21.27
   0  -3  11   10.64   24.34
   0  -3 -11   63.99   25.17
   0  -4   0 6220.06   51.36
   0  -4   0 6064.59   81.66
   0   4   0 6152.35   53.35
   0   4  -1  228.51   11.59
   0  -4   1  234.45   16.28
   0  -4  -1  233.26   11.18
   0  -4  -1  247.13   18.57
   0  -4   1  262.05   15.72
   0   4   1  259.11   12.57
   0   4  -1  237.02   10.63
   0   4  -2  161.35   10.60
   0  -4  -2  200.40   18.46
   0  -4   2  199.62   16.11
   0   4  -2  198.40   11.71
   0  -4   2  212.25   12.68
   0  -4  -2  197.67   12.47
   0   4  -3  585.81   15.34
   0   4  -3  608.12   23.05
   0  -4   3  635.38   17.48
   0  -4   3  616.39   28.77
   0  -4  -3  622.47   34.08
   0  -4  -3  634.60   25.57
   0  -4  -4  332.65   26.57
   0  -4   4  307.91   22.55
   0   4  -4  316.27   19.49
   0  -4  -4  308.31   22.35
   0  -4  -5  750.62   36.36
   0  -4   5  747.38   39.24
   0   4  -5  728.45   32.75
   0  -4  -5  760.22   41.98
   0  -4  -6  749.98   45.41
   0  -4   6  695.73   41.51
   0   4  -6  677.46   35.48
   0  -4  -6  729.77   40.23
   0   4  -7  109.17   18.80
   0  -4  -7   51.82   15.70
   0  -4   7   80.88   18.79
   0  -4  -7   74.14   18.45
   0  -4  -8  195.66   27.54
   0   4  -8  132.40   22.61
   0  -4  -8  169.77   26.25
   0  -4  -9   13.45   17.01
   0  -4  -9   26.63   17.92
   0  -4   9   18.82   16.73
   0   4  -9   35.11   17.31
   0  -4 -10   69.89   22.48
   0  -4  10   33.68   22.18
   0   4 -10   35.18   18.00
   0  -4 -10   43.94   20.42
   0   4 -11  162.75   33.12
   0  -4 -11  187.98   34.07
   0  -4  11  240.34   45.64
   0   5   0    3.38    5.09
   0  -5   0    4.15    7.57
   0  -5   0   -1.13    5.06
   0  -5   1  146.10   15.24
   0   5  -1  123.34    8.87
   0   5  -1  111.11    9.32
   0  -5  -1  154.88   16.95
   0  -5   1  108.44   12.97
   0   5   1  124.40   10.65
   0  -5  -1  122.91    9.60
   0  -5   2  214.65   15.81
   0  -5  -2  231.92   13.70
   0  -5   2  229.70   18.89
   0  -5  -2  172.49   18.84
   0   5  -2  210.91   12.86
   0  -5  -3  506.63   23.82
   0  -5   3  462.96   27.84
   0   5  -3  442.23   20.85
   0  -5   3  483.93   19.43
   0   5  -3  423.52   16.47
   0  -5  -3  490.64   32.99
   0  -5  -4   56.51   10.73
   0  -5  -4   26.98   10.66
   0   5  -4   35.79    9.30
   0  -5   4   30.15    4.51
   0  -5   4   21.25    9.62
   0  -5  -5  356.47   26.54
   0   5  -5  381.11   25.35
   0  -5   5  434.68   32.62
   0  -5  -5  343.60   32.21
   0  -5  -6  480.77   38.75
   0  -5   6  401.88   33.49
   0  -5  -6  390.63   31.64
   0   5  -6  422.40   28.77
   0  -5   7  119.51   23.81
   0  -5  -7  109.56   21.19
   0  -5  -7  115.83   22.37
   0   5  -7  134.40   20.24
   0   5  -8   14.41   13.48
   0  -5   8   25.69   18.64
   0  -5  -8  -10.34   13.83
   0  -5  -8   14.28   15.81
   0  -5  -9  442.66   44.52
   0   5  -9  514.85   41.76
   0  -5   9  379.37   45.66
   0  -5  -9  446.34   41.58
   0  -5 -10    9.88   19.77
   0  -5  10   30.10   28.00
   0  -5 -10   30.39   22.99
   0   5 -10    5.34   18.65
   0   5 -11   20.81   24.78
   0  -5 -11    8.68   26.19
   0   6   0 8284.97   67.53
   0  -6   0 8244.34  112.91
   0  -6   1  314.11   23.27
   0  -6   1  344.79   24.56
   0  -6  -1  314.53   26.69
   0  -6  -1  329.84   15.46
   0   6  -1  331.12   15.03
   0  -6   2   37.23   10.99
   0  -6  -2   23.44    6.95
   0   6  -2   23.97    6.54
   0  -6   2   19.69    9.84
   0  -6  -2   30.36   12.33
   0  -6  -3  515.08   24.17
   0   6  -3  458.38   21.96
   0  -6   3  515.65   23.95
   0  -6   3  436.27   29.56
   0  -6  -3  479.47   35.19
   0  -6  -4  248.89   20.55
   0  -6  -4  247.56   28.39
   0  -6   4  279.30   24.96
   0   6  -4  198.12   16.89
   0  -6  -5 1596.24   55.18
   0   6  -5 1448.79   48.55
   0  -6   5 1562.90   60.87
   0  -6  -5 1500.99   69.21
   0   6  -6 1006.66   44.69
   0  -6  -6 1100.59   51.49
   0  -6   6 1227.57   59.92
   0  -6  -6 1118.32   62.45
   0  -6  -7   22.55   17.84
   0  -6  -7    6.43   14.13
   0   6  -7   11.31   12.89
   0  -6   7   48.42   20.04
   0  -6  -8  157.18   29.23
   0   6  -8  117.41   22.84
   0  -6   8  196.81   33.96
   0  -6  -8  130.57   25.47
   0  -6  -9   60.32   23.73
   0  -6   9   21.76   22.63
   0  -6  -9   -6.44   18.69
   0   6  -9   10.26   18.91
   0  -6 -10  -25.18   23.57
   0  -6  10   -3.29   26.28
   0  -6 -10   59.14   28.73
   0  -7   0    9.92   11.30
   0  -7   1  357.24   27.82
   0  -7  -1  375.64   31.38
   0  -7   1  376.64   27.69
   0  -7   2  160.67   19.35
   0  -7  -2  140.50   23.44
   0  -7   2  156.26   18.51
   0  -7  -2  145.56   13.18
   0  -7   3  141.11   15.82
   0  -7  -3   99.68   20.50
   0  -7  -3  148.56   14.76
   0  -7   3  169.32   21.30
   0  -7   4  556.55   36.63
   0  -7  -4  548.28   29.84
   0  -7  -4  491.85   42.45
   0  -7  -5   15.82   13.56
   0  -7   5   12.11   10.71
   0  -7  -5   20.20   15.45
   0  -7   6   28.67   15.18
   0  -7  -6   22.85   16.17
   0  -7  -6   -0.15   14.40
   0  -7  -7 1064.79   68.02
   0  -7  -7  955.02   56.01
   0  -7   7 1119.82   64.59
   0  -7  -8   63.89   24.51
   0  -7   8   82.97   27.26
   0  -7  -9    5.08   24.68
   0  -7   9   58.53   29.01
   0  -8   0  400.51   34.35
   0  -8   1   -8.32   12.85
   0  -8   1   -4.43   10.14
   0  -8  -1   -3.02   13.22
   0  -8  -2  653.01   47.51
   0  -8   2  562.51   34.53
   0  -8   2  599.62   37.91
   0  -8   3    5.28   10.88
   0  -8  -3   -7.71   18.30
   0  -8  -4  172.40   29.80
   0  -8   4  202.67   25.89
   0  -8  -5   -6.48   17.44
   0  -8   5   -1.68   13.44
   0  -8   6   25.80   17.45
   0  -8  -6   43.11   22.01
   0  -8   7  132.16   27.11
   0  -8  -7  121.58   30.82
   0  -8   8    6.38   22.46
   0  -8  -8    9.17   21.46
   0  -9   0   11.94   17.91
   0  -9   1   24.33   16.72
   0  -9  -1   90.04   25.53
   0  -9  -2   12.14   20.15
   0  -9   2   61.61   17.03
   0  -9   3  164.02   24.88
   0  -9  -3  127.49   28.96
   0  -9  -4  167.39   32.29
   0  -9   4  173.85   26.55
   0  -9  -5   13.55   21.82
   0  -9   5   91.97   22.93
   0  -9   6   56.12   22.97
   0  -9  -6   12.32   22.47
   0  -9   7  412.46   48.03
   0 -10  -1   38.88   24.77
   0 -10  -2  -10.20   22.97
   0 -10   3  398.00   37.23
   0 -10  -3  436.30   49.18
   0 -10   4   41.21   20.29
   0 -10  -4   65.09   30.25
   0 -10   5  515.38   47.35
   0 -10  -5  411.82   54.14
   0 -11  -2   17.60   26.94
   1   0 -12  224.75   34.65
   1   0 -11  207.06   32.11
   1   0 -10    3.45   15.41
   1   0  -9  658.68   43.54
   1   0  -9  734.75   37.90
   1   0  -8   39.12   14.19
   1   0  -8   50.21   11.92
   1   0  -7   71.01   15.32
   1   0  -7   48.01   10.57
   1   0  -6   27.20    9.39
   1   0  -6   17.87    7.98
   1   0  -5   31.53    8.47
   1   0  -5   28.97    6.74
   1   0  -4 2018.02   36.27
   1   0  -4 1903.27   43.17
  -1   0   4 1925.97   35.69
  -1   0   3 2332.78   33.26
   1   0  -3 2329.83   39.85
   1   0  -3 2361.54   32.47
  -1   0   2  965.15   17.40
  -1   0   2 1004.56   21.21
   1   0  -2  977.08   20.45
   1   0  -2  963.61   17.42
   1   0  -1 2024.32   21.96
   1   0  -1 1998.17   22.81
  -1   0   1 2024.77   22.15
   1   0   0 1291.71   17.83
  -1   0   0 1291.32   15.47
  -1   0  -1  630.03   17.28
   1   0   1  642.63   17.08
  -1   0  -2 7825.23   75.98
   1   0   2 7869.96   71.98
   1   0   2 7936.72   78.72
  -1   0  -3  105.70   12.55
  -1   0  -4   35.34    9.23
  -1   0  -5   82.14   15.73
  -1   0  -6  782.22   41.12
  -1   0  -7 1026.03   50.15
  -1   0  -8   12.41   10.71
  -1   0  -9   18.86   14.35
  -1   0 -10  158.33   27.62
  -1   0 -11  320.92   40.25
   1  -1 -12   -8.81   21.49
   1   1 -12   26.24   21.83
   1   1 -11  196.65   31.34
   1  -1 -11  228.47   33.32
   1  -1 -10  447.47   40.65
   1   1 -10  479.16   41.44
   1  -1 -10  417.18   34.10
   1   1  -9 1076.63   56.00
   1  -1  -9 1049.85   54.93
   1  -1  -9 1081.01   49.46
   1   1  -8   73.06   17.59
   1  -1  -8   48.88   13.65
   1  -1  -8   66.17   15.65
   1  -1  -7  167.66   20.21
   1   1  -7  186.87   20.68
   1  -1  -7  154.99   18.37
   1   1  -7  186.88   15.33
   1   1  -6  160.46   17.15
  -1  -1   6  148.37   11.76
   1  -1  -6  145.32   14.75
   1  -1  -6  151.73   18.08
   1   1  -6  175.70   13.37
   1   1  -5 2497.81   55.62
  -1  -1   5 2437.05   36.31
   1  -1  -5 2408.10   57.56
   1  -1  -5 2390.80   51.85
   1   1  -5 2429.64   39.69
   1  -1  -4  816.00   29.50
  -1  -1   4  906.42   17.86
   1   1  -4  862.53   19.37
   1   1  -4  831.74   28.25
   1  -1  -4  813.45   27.11
   1  -1  -3 1797.31   37.40
  -1   1   3 1871.18   36.84
   1   1  -3 1817.92   20.34
  -1  -1   3 1885.57   19.55
   1   1  -3 1828.69   35.53
   1  -1  -3 1869.98   35.75
   1   1  -2  451.89    8.25
   1   1  -2  478.64   15.03
  -1   1   2  466.39   16.22
   1  -1  -2  457.55   14.36
  -1  -1   2  456.45   14.74
   1  -1  -2  449.66   15.56
  -1   1   2  461.84   14.36
  -1  -1   1   96.02    4.50
   1  -1  -1  100.31    4.53
   1   1  -1  107.99    4.51
   1   1  -1   99.20    6.42
   1  -1  -1   91.21    6.47
  -1   1   1   88.20    3.93
  -1  -1   1   99.85    6.52
  -1   1   1   94.39    6.22
   1  -1   0   67.70    5.15
  -1   1   0   62.48    4.99
  -1   1   0   77.96    6.42
  -1  -1   0   67.59    5.48
   1   1   0   68.69    5.75
   1  -1   0   68.99    5.68
   1  -1   0   67.49    3.47
   1   1   0   70.43    6.60
  -1   1   0   74.35    3.58
   1   1   1   54.89    6.42
  -1  -1  -1   67.17    6.59
   1  -1   1   53.70    5.28
   1   1   1   57.30    8.72
   1  -1   1   56.71    6.31
  -1  -1  -1   69.29    8.23
  -1   1  -1   58.74    7.00
  -1   1  -1   61.70    6.55
   1  -1   1   65.66    6.15
   1  -1   2 2563.81   46.56
   1  -1   2 2518.32   43.56
  -1  -1  -2 2531.74   44.95
  -1  -1  -2 2379.61   46.90
  -1   1  -2 2481.25   42.58
   1  -1   3  152.64   11.04
  -1  -1  -3  139.67   13.74
  -1  -1  -3  136.11   13.02
  -1   1  -3  170.66   13.76
  -1  -1  -4   19.59    8.43
  -1   1  -4   10.21    7.39
  -1  -1  -4   10.84    6.75
  -1  -1  -5 2549.39   63.36
  -1   1  -5 2492.69   64.93
  -1  -1  -6   36.22   11.82
  -1   1  -6   50.37   14.44
  -1   1  -7   22.68   14.61
  -1  -1  -7   -7.90   10.69
  -1  -1  -8  624.67   42.63
  -1   1  -8  564.61   41.33
  -1   1  -9  121.26   22.04
  -1  -1  -9  177.73   27.85
   1  -1  10  329.16   45.57
  -1   1 -10  240.58   34.23
  -1  -1 -10  240.27   33.23
  -1   1 -11  527.77   48.51
   1  -1  11  640.98   64.99
  -1  -1 -11  515.26   50.17
   1   2 -12   51.84   23.39
  -1  -2  12   20.63   30.85
   1  -2 -12   61.81   25.51
  -1  -2  11   14.91   24.45
   1  -2 -11   35.78   19.71
   1   2 -11   25.58   20.60
  -1  -2  10  405.89   47.98
   1  -2 -10  346.67   36.15
   1  -2 -10  350.23   34.01
   1   2 -10  387.84   36.72
   1  -2  -9   53.90   17.01
  -1  -2   9   27.29   20.31
   1  -2  -9   47.31   14.76
   1   2  -9   28.11   15.52
   1   2  -8  248.36   25.53
   1  -2  -8  257.52   27.37
   1  -2  -8  241.89   24.76
   1  -2  -7  968.95   45.79
   1   2  -7 1008.31   44.58
   1  -2  -7 1064.43   45.60
   1   2  -6   21.20    8.96
  -1  -2   6   21.57    3.71
   1  -2  -6   37.16   11.82
   1  -2  -6   21.58    9.79
  -1  -2   5  694.38   35.56
   1   2  -5  788.92   31.79
   1  -2  -5  801.53   34.67
   1  -2  -5  769.20   33.14
  -1  -2   4   59.78    9.88
   1  -2  -4   45.19    9.36
   1  -2  -4   58.99    8.64
   1   2  -4   62.94    8.77
   1  -2  -3   35.77    6.79
  -1  -2   3   38.63    7.10
   1   2  -3   29.87    5.93
   1  -2  -3   37.01    7.54
   1   2  -2 9845.72   75.21
  -1   2   2 9876.08   65.76
  -1  -2   2 9824.83   71.31
   1  -2  -2 9778.08   69.06
   1  -2  -2 9999.00   85.61
   1   2  -2 9930.74   52.20
   1   2  -2 9922.99   72.45
   1  -2  -1   32.50    5.16
  -1   2   1   27.99    5.34
  -1   2   1   33.10    5.14
  -1  -2   1   41.14    4.96
   1   2  -1   39.88    4.98
  -1  -2   1   28.99    4.70
   1   2  -1   35.41    5.43
   1  -2  -1   44.16    6.57
   1   2  -1   36.37    5.39
  -1  -2   1   39.57    5.30
   1  -2   0    4.83    3.19
   1   2   0    8.04    4.60
  -1  -2   0    3.79    2.98
   1  -2   0   10.35    3.19
  -1  -2   0   -0.07    3.98
   1   2   0    8.52    3.79
   1   2   0   12.62    3.50
  -1   2   0   10.53    4.50
  -1   2   0   12.24    4.17
   1  -2   1 2225.52   28.44
   1   2   1 2226.64   36.41
  -1   2  -1 2268.54   30.95
  -1  -2  -1 2227.34   36.18
   1  -2   1 2205.24   30.41
  -1   2  -1 2253.27   30.32
  -1  -2  -1 2111.97   45.03
   1  -2   2  878.93   28.56
  -1   2  -2  848.73   25.27
   1  -2   2  846.21   24.40
   1  -2   2  910.85   19.68
  -1  -2  -2  872.35   32.14
  -1  -2  -2  898.16   27.99
  -1   2  -3 2636.31   52.04
  -1  -2  -3 2603.91   54.73
   1  -2   3 2706.29   57.45
  -1  -2  -3 2582.42   60.15
   1  -2   3 2683.58   36.99
   1  -2   4 3407.22   47.92
  -1   2  -4 3555.54   68.56
   1  -2   4 3508.82   78.15
   1  -2   4 3654.83   47.43
  -1  -2  -4 3597.07   72.36
  -1  -2  -4 3627.90   76.79
   1  -2   5    1.32    5.77
  -1  -2  -5    0.49    7.75
   1  -2   5    9.95    5.58
   1  -2   5   17.80   10.59
  -1   2  -5    3.73    8.44
  -1  -2  -5   -9.14    9.90
   1  -2   6  198.93   15.81
  -1  -2  -6  219.92   23.32
  -1  -2  -6  243.43   24.49
  -1   2  -6  232.46   23.87
   1  -2   6  245.10   27.49
  -1  -2  -7    5.18   11.91
  -1  -2  -7    5.63   12.32
   1  -2   7   18.70   13.82
   1  -2   7   31.56    9.31
  -1   2  -7    9.40    9.76
  -1   2  -8  273.26   29.47
   1  -2   8  272.91   37.35
  -1  -2  -8  272.80   30.17
  -1   2  -9 1322.10   64.46
  -1  -2  -9 1286.16   65.98
   1  -2   9 1507.11   85.70
   1  -2  10   28.75   29.67
  -1  -2 -10   16.63   19.84
  -1   2 -10    6.52   16.13
  -1   2 -11  -11.10   19.37
  -1  -2 -11   34.28   23.92
   1  -2  11   25.94   29.17
   1  -3 -12   61.33   27.26
  -1  -3  12   34.85   30.53
   1   3 -12   57.03   26.34
   1  -3 -11  873.09   56.66
   1  -3 -11  968.27   62.88
   1   3 -11  944.87   60.87
   1  -3 -10  573.81   44.85
   1   3 -10  541.53   44.08
  -1  -3  10  545.75   54.85
   1  -3 -10  548.27   43.98
   1  -3  -9   31.85   15.49
   1   3  -9   72.42   19.43
   1  -3  -9   44.73   17.14
  -1  -3   9   48.23   17.61
   1  -3  -8  840.47   46.92
   1  -3  -8  821.48   46.80
   1   3  -8  796.06   43.82
   1  -3  -7  299.68   27.06
  -1  -3   7  295.84   31.67
   1  -3  -7  323.41   28.03
   1   3  -7  298.28   25.07
   1  -3  -6  310.07   26.53
   1  -3  -6  309.58   26.77
  -1  -3   6  326.93   28.36
   1   3  -6  335.28   23.58
   1  -3  -5 3869.88   77.30
   1   3  -5 4011.25   71.67
  -1  -3   5 3948.32   78.73
   1  -3  -4   77.99   11.33
   1  -3  -4   80.10   12.15
   1   3  -4   93.52   10.55
  -1  -3   4   96.08   11.51
   1  -3  -3  763.44   30.53
   1   3  -3  760.12   24.81
   1   3  -3  693.15   11.43
   1  -3  -3  792.30   25.20
  -1  -3   3  785.33   26.50
   1  -3  -2  266.72   17.36
  -1   3   2  238.88   10.91
   1  -3  -2  225.43   10.20
  -1  -3   2  217.13   13.10
   1   3  -2  237.08   10.68
  -1  -3   2  221.87   10.95
   1   3  -2  228.34   12.22
   1   3  -1  171.31   11.49
  -1  -3   1  171.61   10.96
  -1  -3   1  137.43   10.84
  -1  -3   1  145.13    9.60
   1   3  -1  188.39   11.84
   1  -3  -1  169.64   12.28
   1   3  -1  185.37   11.52
  -1   3   1  172.68    5.73
   1  -3  -1  197.36   13.46
  -1  -3   0   83.72   10.53
   1   3   0   90.36    8.50
  -1  -3   0   88.48    7.75
   1  -3   0   97.51    9.14
   1  -3   0   85.61    9.41
  -1   3  -1    0.23    3.18
  -1  -3  -1    7.87    6.53
   1  -3   1    4.29    3.41
   1  -3   1    8.31    4.02
   1  -3   1    5.80    2.91
  -1  -3  -1    0.56    4.16
  -1   3  -1    4.66    3.85
   1  -3   2  549.84   19.13
  -1  -3  -2  584.65   29.55
  -1   3  -2  547.70   20.00
  -1   3  -2  574.09   17.39
   1  -3   2  569.55   18.30
  -1  -3  -2  552.11   23.02
  -1  -3  -3  931.99   39.87
   1  -3   3  933.08   21.75
   1  -3   3  973.14   36.17
  -1  -3  -3  996.40   35.55
  -1   3  -3  961.58   31.12
   1  -3   4   71.61    7.06
  -1  -3  -4   61.87   12.25
  -1   3  -4   60.20   11.62
  -1  -3  -4   57.38   11.85
   1  -3   4   62.79   11.24
   1  -3   5 1223.83   52.06
   1  -3   5 1122.76   27.22
  -1   3  -5 1307.35   46.39
  -1  -3  -5 1175.56   47.29
   1  -3   5 1282.93   26.57
  -1  -3  -5 1279.31   53.94
  -1   3  -6   74.71   14.84
   1  -3   6   54.56   14.98
  -1  -3  -6   98.47   18.27
   1  -3   6   70.69    8.17
  -1  -3  -6   63.38   15.74
  -1   3  -7  453.42   33.83
   1  -3   7  410.47   38.50
  -1  -3  -7  461.07   35.84
  -1  -3  -7  486.02   36.89
  -1  -3  -8    4.33   12.28
  -1  -3  -8   37.67   17.15
   1  -3   8    6.17   16.89
  -1   3  -8   -0.03   14.24
  -1   3  -9  214.77   30.11
  -1  -3  -9  151.93   25.83
   1  -3   9  243.17   35.85
  -1   3 -10   93.66   25.83
  -1  -3 -10   69.64   22.51
   1  -3  10  103.16   33.10
  -1   3 -11   82.04   27.75
   1  -3  11  140.47   35.97
  -1  -3 -11   76.26   25.55
  -1  -4  11   21.99   26.81
   1  -4 -11  -17.26   21.62
   1  -4 -11   35.71   24.62
   1   4 -11   20.80   18.99
   1  -4 -10   73.64   21.95
   1  -4 -10   51.09   21.60
  -1  -4  10   64.94   27.77
   1   4 -10   55.98   20.67
   1  -4  -9  131.86   23.80
   1  -4  -9  130.50   23.80
   1   4  -9  118.27   21.77
  -1  -4   9   79.31   23.89
   1  -4  -8   46.44   15.34
   1   4  -8   74.16   17.27
  -1  -4   8   52.17   18.30
   1  -4  -8   56.30   17.87
   1  -4  -7  142.95   21.34
   1   4  -7  153.48   20.43
   1  -4  -7  118.92   19.66
  -1  -4   7  163.44   23.57
   1  -4  -6   36.20   13.17
  -1  -4   6   35.13   12.10
   1   4  -6   25.46   10.42
   1  -4  -6   24.40   10.73
  -1  -4   5  109.52   14.72
   1  -4  -5   80.42   13.47
   1   4  -5   81.24   12.29
   1   4  -4  268.87   17.29
   1  -4  -4  252.33   22.24
  -1  -4   4  274.71   20.02
   1  -4  -4  268.15   18.02
  -1  -4   3  196.10   15.58
   1  -4  -3  152.54   11.51
   1   4  -3  168.93   12.45
   1   4  -3  135.41    8.44
   1  -4  -3  176.97   17.79
  -1  -4   2 2947.49   48.09
   1   4  -2 2810.17   45.42
  -1   4   2 2853.25   39.04
   1   4  -2 2774.24   44.07
   1  -4  -2 2809.20   60.70
  -1  -4   2 2850.13   52.88
   1  -4  -2 2841.20   35.14
   1  -4  -1  179.32   14.75
   1  -4  -1  160.55   13.80
  -1  -4   1  181.86   14.83
  -1  -4   1  164.37   11.26
  -1   4   1  161.42    6.49
  -1  -4   1  164.28   12.92
   1  -4   0  151.73   13.99
  -1  -4   0  120.55   13.35
  -1  -4   0  151.48   11.32
   1  -4   0  142.83   12.69
   1  -4   1  128.73   11.32
  -1   4  -1  121.34    7.49
  -1   4  -1  123.80    7.04
  -1  -4  -1  127.58   11.27
   1  -4   1  130.72   13.21
  -1  -4  -1  122.95   15.48
  -1  -4  -2 1832.90   42.60
  -1   4  -2 1782.52   34.81
  -1  -4  -2 1561.38   53.19
   1  -4   2 1616.70   46.94
   1  -4   2 1770.77   36.55
   1  -4   2 1739.15   32.66
  -1   4  -3  636.06   25.58
  -1  -4  -3  645.33   29.71
   1  -4   3  710.68   34.86
  -1  -4  -3  633.80   36.38
  -1   4  -3  647.82   19.80
   1  -4   3  645.32   20.65
   1  -4   4  777.73   38.11
   1  -4   4  740.99   20.06
  -1  -4  -4  683.35   34.63
  -1  -4  -4  823.08   43.57
  -1   4  -4  704.21   31.07
   1  -4   5   15.35    4.57
  -1   4  -5   23.91   10.10
  -1  -4  -5   12.22    9.59
  -1  -4  -5   30.50   12.65
   1  -4   5   20.37   11.18
  -1   4  -6    4.07   10.82
  -1  -4  -6  -11.00   11.65
  -1  -4  -6   -1.59   11.53
   1  -4   6   22.30   11.89
  -1  -4  -7  221.02   26.94
  -1  -4  -7  266.87   30.66
  -1   4  -7  228.27   24.20
   1  -4   7  197.37   28.11
  -1  -4  -8   84.99   20.15
   1  -4   8   96.50   25.70
  -1   4  -8   77.41   19.66
  -1  -4  -8  126.18   24.01
   1  -4   9  297.09   41.39
  -1  -4  -9  290.81   35.47
  -1   4  -9  368.79   35.58
   1  -4  10   44.38   27.23
  -1   4 -10   31.95   21.74
  -1  -4 -10   12.22   20.12
  -1   4 -11   52.97   25.37
   1  -5 -11   26.85   21.34
   1  -5 -11   11.62   22.38
  -1  -5  11   17.13   28.53
   1   5 -11   32.77   24.45
   1  -5 -10  208.97   33.09
  -1  -5  10  156.82   34.57
   1  -5 -10  213.45   32.98
   1   5 -10  288.22   35.12
   1  -5  -9 1171.70   61.80
   1  -5  -9 1282.63   69.13
   1   5  -9 1274.48   61.90
   1  -5  -8   -5.80   15.71
   1  -5  -8   19.78   15.03
  -1  -5   8    7.49   14.17
   1   5  -8   -1.55   12.34
   1   5  -7   48.29   13.79
   1  -5  -7   30.53   15.25
   1  -5  -7   35.82   13.43
  -1  -5   7   30.19   14.52
   1  -5  -6  531.22   38.78
   1  -5  -6  537.40   32.47
   1   5  -6  499.67   29.62
  -1  -5   6  535.86   35.60
   1  -5  -5  735.65   42.57
  -1  -5   5  786.14   38.82
   1  -5  -5  713.32   33.75
   1   5  -5  842.73   35.07
   1   5  -4  846.94   31.32
  -1  -5   4  924.80   38.97
   1  -5  -4  921.07   32.51
   1  -5  -4  801.46   41.94
   1  -5  -3 2360.22   42.11
  -1  -5   3 2384.61   56.61
   1   5  -3 2398.45   48.37
   1   5  -3 2266.58   38.99
   1  -5  -3 2324.29   66.88
  -1  -5   3 2406.46   42.50
   1  -5  -2  140.06   16.91
   1   5  -2  107.99   10.16
  -1  -5   2  129.99   12.66
  -1  -5   2  146.98   14.21
  -1   5   2  119.13    9.32
   1  -5  -2  124.13    8.16
   1  -5  -1  480.87   26.35
   1   5  -1  445.52   18.11
  -1  -5   1  426.05   22.38
   1  -5  -1  433.56   25.74
  -1  -5   1  441.62   25.34
  -1   5   1  432.22   11.09
   1  -5   0  361.18   23.58
  -1  -5   0  398.37   17.87
  -1  -5   0  366.86   26.16
   1  -5   1   74.56   11.04
  -1  -5  -1   71.76   14.02
  -1   5  -1   51.69    5.72
  -1  -5  -1   58.79    8.91
  -1   5  -1   69.19    6.28
   1  -5   1   63.60   10.72
  -1   5  -2 2413.87   40.87
  -1  -5  -2 2394.73   50.44
   1  -5   2 2406.08   49.17
   1  -5   2 2444.46   62.37
  -1  -5  -2 2388.52   71.04
  -1   5  -3    7.79    8.08
  -1  -5  -3   15.18   11.18
   1  -5   3    7.15    6.05
  -1  -5  -3   12.59    7.09
   1  -5   3   -0.41    6.80
  -1   5  -4   20.49    7.88
   1  -5   4   27.62   11.62
  -1  -5  -4   45.12   11.91
   1  -5   4   41.85    6.59
  -1  -5  -4   33.08   12.71
  -1  -5  -5 2410.27   71.05
   1  -5   5 2546.32   81.13
  -1  -5  -5 2531.59   84.55
  -1   5  -5 2430.59   64.57
   1  -5   6   60.47   15.66
  -1   5  -6   79.51   16.40
  -1  -5  -6  100.88   18.51
  -1  -5  -7   26.45   15.14
   1  -5   7   21.84   16.18
  -1  -5  -7   -1.43   13.22
  -1   5  -7   33.59   15.64
  -1   5  -8  789.39   48.37
  -1  -5  -8  732.42   53.85
   1  -5   8  595.64   52.62
  -1  -5  -8  740.97   50.94
  -1  -5  -9   90.97   26.24
   1  -5   9  121.75   31.61
  -1  -5  -9   85.70   24.90
  -1   5  -9   59.89   22.53
  -1   5 -10  210.05   31.44
  -1  -5 -10  239.12   40.28
   1  -5  10  297.61   51.09
   1  -6 -10   39.11   25.43
   1  -6 -10    4.40   19.63
  -1  -6  10    5.99   25.90
   1   6 -10    8.73   19.89
   1  -6  -9  195.76   30.83
   1   6  -9  288.33   32.64
  -1  -6   9  288.59   39.62
   1  -6  -9  299.51   39.40
  -1  -6   8   85.45   21.72
   1  -6  -8   71.59   21.48
   1  -6  -8   34.63   16.52
   1   6  -8   39.91   17.14
  -1  -6   7   -3.65   11.51
   1  -6  -7   27.17   17.97
   1   6  -7    3.00   12.06
   1  -6  -7   22.10   17.32
   1  -6  -6   -2.35   10.22
   1   6  -6   13.05   12.01
  -1  -6   6    9.98   11.14
   1  -6  -6   11.36   14.04
   1  -6  -5   -4.91   10.80
  -1  -6   5   -2.20    8.55
   1   6  -5   12.10    8.98
   1  -6  -5    2.54    8.70
   1  -6  -4  580.63   39.05
   1  -6  -4  579.95   26.00
  -1  -6   4  579.77   33.08
   1   6  -4  580.42   27.68
  -1  -6   3  533.35   29.28
   1  -6  -3  540.36   20.37
  -1  -6   3  526.62   23.76
   1  -6  -3  537.13   35.81
   1   6  -3  504.00   23.68
   1  -6  -2  935.60   20.30
  -1  -6   2 1033.79   38.47
   1  -6  -2  979.75   45.99
  -1  -6   2  985.47   38.67
   1   6  -2  953.27   29.84
   1  -6  -1  333.31   26.46
  -1   6   1  273.38    8.26
  -1  -6   1  340.23   22.90
  -1  -6   1  347.74   24.84
   1   6  -1  311.03   16.94
  -1   6   1  291.28    7.59
  -1  -6   0  357.10   27.25
   1  -6   0  328.90   25.14
  -1  -6   0  320.89   17.59
   1  -6   0  315.61   24.03
   1  -6   1   27.91    9.33
   1  -6   1    6.03    8.15
  -1  -6  -1    9.41    6.59
  -1   6  -1   13.21    4.66
  -1  -6  -1    3.70   10.45
  -1  -6  -2 2002.51   71.34
   1  -6   2 2041.00   51.06
  -1  -6  -2 2082.89   49.79
  -1   6  -2 1927.51   36.58
   1  -6   2 1944.64   60.34
  -1  -6  -3  196.29   18.26
   1  -6   3  226.89   22.78
  -1  -6  -3  227.64   27.75
   1  -6   3  194.30   15.39
  -1   6  -3  194.97   15.45
  -1   6  -4   47.93   10.86
   1  -6   4   76.63   15.19
  -1  -6  -4   71.29   18.84
  -1  -6  -4   68.38   13.95
  -1  -6  -5   18.49   15.21
  -1  -6  -5   23.98   12.94
   1  -6   5   18.74   11.91
  -1   6  -5   12.22    9.89
  -1  -6  -6  111.13   23.45
  -1   6  -6  142.66   19.63
  -1  -6  -6  159.27   24.53
   1  -6   6  155.42   25.96
   1  -6   7  332.68   38.45
  -1  -6  -7  291.05   35.94
  -1   6  -7  304.19   30.08
  -1  -6  -7  248.33   32.26
  -1  -6  -8   22.67   18.90
   1  -6   8   36.17   23.04
  -1  -6  -8   33.28   19.34
  -1  -6  -9   60.50   23.13
  -1  -6  -9   96.02   30.92
   1  -6   9   76.03   29.75
  -1  -6 -10   61.80   31.44
  -1  -7  10  208.34   45.44
  -1  -7   9   96.03   31.18
   1  -7  -9  151.26   33.64
   1  -7  -8  240.99   37.51
  -1  -7   8  269.76   35.57
   1  -7  -7  143.12   30.52
   1   7  -7  135.21   22.40
  -1  -7   7  168.82   25.95
   1   7  -6   53.70   16.08
   1  -7  -6   54.12   19.34
  -1  -7   6   81.26   19.56
   1   7  -5 1529.20   51.14
  -1  -7   5 1608.69   61.68
   1  -7  -5 1547.19   72.20
   1   7  -4   18.37    8.42
  -1  -7   4   11.44    9.42
  -1  -7   3   16.03    9.41
   1   7  -3   14.22    8.21
   1  -7  -3    8.87   13.02
  -1  -7   3   20.00    9.97
  -1  -7   2  167.94   17.96
  -1  -7   2  177.78   19.58
   1  -7  -2  150.47   21.30
   1   7  -2  170.17   14.44
   1   7  -1   52.16    8.37
  -1  -7   1   64.44   13.32
   1  -7  -1   57.66   14.69
   1  -7   0  111.55   17.80
  -1  -7   0   94.76   18.01
   1  -7   0  117.72   16.33
   1  -7   1    5.78    9.08
   1  -7   1   34.24   10.91
  -1  -7  -1   -2.76   10.89
  -1  -7  -1   12.73    7.49
   1  -7   2   19.51    8.27
  -1  -7  -2   31.90   11.13
  -1  -7  -2   27.39   15.16
   1  -7   2   18.34    8.42
   1  -7   3  272.54   26.26
  -1  -7  -3  248.37   21.17
  -1  -7  -3  249.39   30.79
  -1  -7  -4    4.44   10.17
  -1  -7  -4   40.02   17.49
   1  -7   4   21.27   13.44
  -1  -7  -5  414.86   34.04
  -1  -7  -5  348.66   38.49
   1  -7   5  392.73   36.34
  -1  -7  -6   -5.51   16.07
   1  -7   6    3.12   13.53
  -1  -7  -6   10.46   17.02
  -1  -7  -7   69.02   25.03
  -1  -7  -7   72.22   24.00
   1  -7   7  102.93   26.66
   1  -7   8   10.74   22.81
  -1  -7  -8    8.37   21.28
  -1  -7  -8   22.94   24.08
  -1  -7  -9   68.23   28.22
  -1  -8   9   10.33   25.29
   1  -8  -8   83.17   28.84
  -1  -8   8  148.47   31.38
  -1  -8   7  487.70   44.37
   1  -8  -7  414.07   47.64
  -1  -8   6   -3.62   13.76
   1  -8  -6  -27.37   19.01
   1  -8  -5  293.36   37.39
  -1  -8   5  343.01   31.52
  -1  -8   4   45.16   15.36
   1  -8  -4   33.78   16.28
  -1  -8   3   62.26   16.26
   1  -8  -3   55.60   19.64
   1  -8  -2 2457.18   88.70
  -1  -8   2 2644.82   73.97
  -1  -8   2 2585.30   73.34
   1  -8  -1   64.94   17.45
  -1  -8   1   26.25   14.23
  -1  -8   0    0.89   12.03
   1  -8   0   -0.13   11.14
   1  -8   1  704.16   41.65
   1  -8   1  723.14   42.45
  -1  -8  -1  740.32   48.80
   1  -8   2  328.99   29.85
  -1  -8  -2  196.55   29.65
  -1  -8  -3  891.89   58.26
   1  -8   3  858.61   49.78
  -1  -8  -4 1423.51   75.31
   1  -8   4 1518.31   66.84
  -1  -8  -5  -15.73   17.87
   1  -8   5    2.06   13.82
   1  -8   6  162.29   28.77
  -1  -8  -6  186.85   33.53
   1  -8   7   -1.74   19.94
  -1  -8  -7   28.55   26.05
   1  -9  -7   59.22   27.14
  -1  -9   7   35.33   20.98
   1  -9  -6    2.05   21.86
  -1  -9   6   11.90   16.21
  -1  -9   5  694.81   47.38
   1  -9  -5  731.25   59.27
   1  -9  -4   26.17   20.30
  -1  -9   4   18.27   16.42
  -1  -9   3   20.76   13.36
   1  -9  -3   10.27   18.57
   1  -9  -2   40.94   20.07
   1  -9  -1   25.21   18.64
  -1  -9   1   -0.64   14.89
  -1  -9   0   -0.83   14.47
   1  -9   0    9.41   15.96
   1  -9   1   -1.76   12.08
  -1  -9  -1   -4.23   15.89
  -1  -9  -2   56.87   22.48
   1  -9   2   28.07   15.64
  -1  -9  -3   35.32   21.85
   1  -9   3  106.52   21.68
  -1  -9  -4   -6.50   20.10
   1  -9   4   -4.42   14.59
  -1  -9  -5  612.75   57.08
   1  -9   5  705.26   52.36
  -1  -9  -6    3.88   23.42
   1  -9   6   17.63   19.91
   1 -10  -5   19.43   28.44
  -1 -10   5   23.55   22.40
   1 -10  -4  272.06   42.91
  -1 -10   4  300.89   33.53
   1 -10  -3   59.84   26.78
   1 -10  -2  134.58   31.72
   1 -10  -1  131.30   29.51
  -1 -10  -1   58.18   26.04
   1 -10   2  646.38   47.26
  -1 -10  -2  521.48   52.52
   1 -10   3   39.29   21.58
  -1 -10  -3   49.20   27.68
  -1 -10  -4   31.96   26.11
   1 -10   4   14.22   20.45
   1 -11  -3  309.33   50.02
   1 -11  -2   51.11   34.83
  -1 -11  -2  312.18   49.91
   2   0 -12  230.81   35.10
   2   0 -11   39.84   22.18
   2   0 -10    5.81   12.13
   2   0  -9  639.83   33.79
   2   0  -9  665.08   43.03
   2   0  -8   86.10   15.99
   2   0  -8   78.66   11.97
   2   0  -7  180.60   15.10
   2   0  -7  183.56   19.40
   2   0  -6   -0.36    5.98
   2   0  -6    2.48    4.61
   2   0  -5  841.20   30.92
   2   0  -5  848.09   25.59
   2   0  -4 4034.07   50.51
   2   0  -4 3999.74   58.95
  -2   0   4 4133.45   51.04
   2   0  -3  137.42    8.99
  -2   0   3  120.59    8.48
   2   0  -2   32.98    4.79
   2   0  -2   38.11    5.70
  -2   0   2   33.95    5.41
   2   0  -2   38.01    5.38
   2   0  -1 2031.98   31.66
   2   0  -1 1970.06   20.87
  -2   0   1 2029.81   21.44
  -2   0   1 2081.40   30.97
   2   0  -1 2062.52   30.78
  -2   0   1 2007.52   31.99
   2   0   0 3899.88   43.89
   2   0   0 3932.02   36.65
  -2   0   0 3888.87   45.34
  -2   0  -1  979.44   26.36
  -2   0  -2 1694.45   39.58
  -2   0  -3  101.15   12.31
  -2   0  -4  232.55   20.05
  -2   0  -5   59.06   15.18
  -2   0  -6  518.57   36.02
  -2   0  -7  885.67   48.57
  -2   0  -8   36.99   15.31
  -2   0  -9    5.15   14.58
  -2   0 -10  481.73   46.62
   2   1 -12  385.55   42.24
   2  -1 -12  396.64   44.60
   2  -1 -11   30.35   17.36
   2   1 -11   49.89   20.39
   2  -1 -10  256.59   30.03
   2  -1 -10  207.19   24.12
   2   1 -10  251.47   29.95
   2  -1  -9  194.71   25.04
   2   1  -9  192.38   23.42
   2  -1  -9  181.97   21.60
   2  -1  -8  137.99   20.84
   2   1  -8  157.12   19.86
   2   1  -8  168.36   15.43
   2  -1  -7 3366.52   69.45
   2  -1  -7 3429.02   79.83
   2   1  -7 3621.23   58.09
   2   1  -7 3684.75   80.22
  -2  -1   6   78.92    9.07
   2  -1  -6   79.76   10.80
   2  -1  -6   71.57   11.71
   2   1  -6   76.96   11.13
   2   1  -6   73.22    8.42
   2  -1  -5   17.71    5.74
   2   1  -5   19.01    4.46
  -2  -1   5   17.18    4.28
   2   1  -5   26.35    8.15
   2  -1  -5   31.03    7.54
   2   1  -4   88.30    6.76
   2  -1  -4   87.26    9.68
   2  -1  -4   84.14    9.65
  -2  -1   4   89.20    7.02
   2   1  -4   78.90    9.72
   2   1  -3 2011.22   27.70
   2  -1  -3 1997.17   35.32
  -2  -1   3 2024.61   29.31
  -2   1   3 2014.58   35.25
   2   1  -3 2090.35   38.15
   2  -1  -3 2058.93   38.60
   2  -1  -2  925.89   19.40
   2   1  -2  947.06   24.53
   2  -1  -2  918.30   23.62
   2   1  -2  959.14   23.25
   2   1  -2  911.15   19.71
  -2   1   2  942.25   21.78
  -2   1   2  928.78   24.00
   2   1  -1 2856.23   40.94
  -2   1   1 2895.95   30.87
   2  -1  -1 2914.53   30.99
   2  -1  -1 2885.99   36.97
  -2   1   1 2896.50   37.38
   2  -1  -1 2798.17   39.88
  -2   1   1 2895.35   41.42
   2  -1   0    4.30    3.34
  -2   1   0    6.01    3.47
  -2  -1   0    9.54    4.41
   2   1   0    3.43    4.11
  -2   1   0    7.55    3.49
  -2   1   0    7.97    3.88
   2  -1   0    8.05    3.95
   2  -1   0    5.54    3.44
  -2   1  -1   71.79    7.36
   2  -1   1   70.56    8.24
   2  -1   1   77.22    7.75
  -2  -1  -1   53.78    7.92
   2  -1   1   80.36    8.00
  -2   1  -2  635.44   23.73
  -2  -1  -2  601.91   26.09
   2  -1   2  632.64   26.36
  -2   1  -3  193.97   16.24
  -2  -1  -3  204.48   18.09
   2  -1   3  233.98   18.81
  -2   1  -4  796.86   35.12
  -2  -1  -4  685.68   35.54
   2  -1   4  757.99   38.90
  -2   1  -5   66.16   14.48
  -2  -1  -5   64.86   15.73
  -2  -1  -6   82.99   17.32
  -2   1  -6   66.26   15.89
   2  -1   7  613.32   47.87
  -2  -1  -7  566.91   40.59
  -2   1  -7  561.34   38.46
   2  -1   8   36.17   18.85
  -2   1  -8   35.71   17.36
  -2  -1  -8   31.21   15.06
  -2  -1  -9  236.00   33.15
   2  -1   9  291.28   42.19
  -2   1  -9  193.53   28.79
  -2  -1 -10   22.33   21.09
  -2   1 -10    8.99   17.08
   2  -1  10   52.38   29.02
  -2  -2  12   18.08   26.65
   2  -2 -12   -8.04   18.77
   2   2 -12   23.76   21.31
   2   2 -11  388.16   39.37
   2  -2 -11  312.34   32.56
  -2  -2  11  442.57   51.59
   2  -2 -11  387.94   39.72
   2  -2 -10   62.31   18.79
   2   2 -10  115.55   23.06
   2  -2 -10  117.35   20.57
   2  -2  -9  156.20   22.31
   2  -2  -9  108.90   18.17
   2   2  -9  121.57   19.90
   2   2  -8  376.24   29.63
   2  -2  -8  381.84   31.75
   2  -2  -8  400.46   30.11
   2  -2  -7  275.20   24.58
   2   2  -7  309.84   24.03
   2  -2  -7  303.60   24.02
   2  -2  -6 1423.63   45.26
   2   2  -6 1327.90   22.49
   2   2  -6 1420.58   45.29
   2  -2  -6 1410.47   47.89
   2   2  -5 1125.38   17.27
   2  -2  -5 1133.22   37.71
   2  -2  -5 1153.19   38.15
   2   2  -5 1108.59   36.61
   2  -2  -4  443.48   22.14
   2   2  -4  444.34   21.00
   2  -2  -4  461.59   21.15
   2   2  -4  468.47   11.36
  -2  -2   3 1965.38   33.00
   2   2  -3 2031.97   39.84
   2   2  -3 1968.43   26.19
  -2   2   3 1967.53   34.27
   2  -2  -3 1938.06   35.25
   2  -2  -2  315.96   16.33
  -2  -2   2  328.63   15.86
   2  -2  -2  332.66   10.82
  -2   2   2  329.69   10.85
  -2  -2   2  330.55   10.82
   2   2  -1  878.69   27.61
  -2  -2   1  858.85   24.25
   2   2  -1  854.05   15.26
   2  -2  -1  830.46   12.84
   2  -2  -1  865.12   24.88
   2  -2  -1  788.22   24.10
   2  -2   0 9199.69   78.75
  -2   2   0 9245.44   52.70
   2  -2   0 9163.50   85.60
   2  -2   0 9281.82   53.88
  -2  -2   0 9157.30   82.92
   2  -2   1 1011.64   25.15
   2  -2   1  978.51   30.36
  -2   2  -1  978.30   22.82
   2  -2   1  967.15   25.86
  -2  -2  -2   26.63    8.26
   2  -2   2   32.99    6.41
   2  -2   2   17.16    6.91
  -2   2  -2   34.23    7.90
  -2  -2  -3 1476.34   45.83
   2  -2   3 1505.20   36.45
  -2   2  -3 1524.25   41.73
   2  -2   3 1473.15   45.59
   2  -2   4  909.80   41.95
  -2   2  -4  780.69   34.17
  -2  -2  -4  733.86   36.40
   2  -2   4  891.37   30.56
  -2   2  -5 1585.11   53.36
   2  -2   5 1445.19   42.63
   2  -2   5 1610.99   63.96
  -2  -2  -5 1480.75   55.21
   2  -2   6  819.79   35.25
   2  -2   6  922.76   55.31
  -2   2  -6  866.64   43.94
  -2  -2  -6  949.85   47.96
   2  -2   7   84.86   24.97
  -2   2  -7   98.76   19.12
  -2  -2  -7  101.90   20.11
   2  -2   7   76.89   15.31
  -2  -2  -8  311.27   33.69
  -2   2  -8  298.74   31.49
  -2   2  -9   47.77   19.12
  -2  -2  -9   69.35   22.14
   2  -2   9  113.99   30.80
  -2   2 -10   24.38   20.42
  -2  -2 -10   49.49   22.27
   2  -2  10   88.02   30.77
   2  -3 -12   87.93   26.50
  -2  -3  12   36.39   29.78
   2   3 -12   28.66   23.36
  -2  -3  11  198.28   38.94
   2  -3 -11  108.93   23.66
   2  -3 -11  164.50   29.02
   2   3 -11  124.20   24.98
   2   3 -10   24.92   16.58
   2  -3 -10   21.32   15.50
   2  -3 -10    5.50   14.11
  -2  -3  10   19.22   21.41
   2   3  -9   98.59   19.78
   2  -3  -9   94.89   21.14
   2  -3  -9  133.48   21.61
  -2  -3   9  101.27   23.24
   2   3  -8  101.18   17.30
  -2  -3   8   51.05   18.12
   2  -3  -8  101.38   18.30
   2  -3  -8   48.24   14.93
   2   3  -7  398.73   27.94
   2  -3  -7  455.70   31.85
  -2  -3   7  405.57   33.61
   2  -3  -7  466.41   31.56
   2  -3  -6   -3.12    6.84
   2   3  -6   15.18    8.91
   2  -3  -6    6.81    8.83
  -2  -3   6   14.49    9.03
   2   3  -5 2567.50   57.00
   2  -3  -5 2512.94   61.64
  -2  -3   5 2627.93   58.18
   2  -3  -5 2566.21   59.50
   2   3  -4    9.44    2.22
  -2  -3   4    0.05    5.09
   2  -3  -4    5.56    6.65
   2  -3  -4   13.24    6.86
   2   3  -4    8.43    3.07
   2   3  -4    0.79    4.63
  -2  -3   3   19.78    4.63
   2   3  -3   17.76    5.85
   2  -3  -3   17.27    5.88
  -2   3   3    8.07    3.57
   2  -3  -3   23.46    5.94
   2   3  -3   19.61    5.64
   2  -3  -2  658.02   15.13
   2   3  -2  635.05   24.86
  -2  -3   2  636.82   19.03
  -2   3   2  677.52   13.81
   2  -3  -2  696.88   26.93
   2   3  -2  649.24   19.56
  -2  -3   1   27.60    6.37
   2  -3  -1   10.69    4.99
   2   3  -1   10.54    4.32
   2  -3  -1   24.01    7.30
   2  -3   0 2617.70   48.35
   2  -3   0 2602.88   52.67
  -2   3   0 2520.13   20.20
   2  -3   0 2561.73   20.21
  -2  -3   0 2515.68   54.32
   2   3   0 2529.04   39.54
   2  -3   1  632.43   27.54
  -2   3  -1  646.43   17.48
  -2  -3  -1  615.69   29.57
   2  -3   1  613.72   17.92
  -2  -3  -1  593.61   24.63
   2  -3   1  627.43   22.54
   2  -3   2   41.45    8.68
  -2  -3  -2   37.84    8.67
   2  -3   2   29.26    6.78
  -2  -3  -2   28.51    8.66
  -2   3  -2   35.28    6.35
   2  -3   3 2296.57   43.74
  -2   3  -3 2050.45   47.67
  -2  -3  -3 2194.62   57.74
  -2  -3  -3 2171.47   64.59
   2  -3   3 2222.36   59.38
  -2  -3  -4    8.83    9.57
   2  -3   4    0.20    5.09
  -2   3  -4   -8.65    9.58
  -2  -3  -4   17.15   10.88
   2  -3   4   13.80   10.07
   2  -3   5   24.58   10.99
  -2  -3  -5   20.56   13.65
   2  -3   5   19.21    8.02
  -2  -3  -5   17.10   10.61
  -2   3  -5   30.12   12.05
   2  -3   6  944.35   52.36
  -2   3  -6 1356.18   53.46
  -2  -3  -6 1219.03   56.83
   2  -3   6  996.92   34.84
  -2  -3  -7  311.06   33.62
  -2   3  -7  319.08   30.51
   2  -3   7  370.38   38.32
  -2   3  -8  395.86   35.69
  -2  -3  -8  326.75   35.69
  -2   3  -9  621.46   48.05
  -2  -3  -9  630.76   51.19
   2  -3   9  667.64   61.13
  -2  -3 -10   20.00   21.70
   2  -3  10   29.25   26.40
  -2   3 -10   31.24   22.71
   2   4 -12   42.08   23.92
  -2  -4  12   86.25   39.98
   2  -4 -12   35.12   25.08
   2  -4 -12   33.07   24.49
   2  -4 -11  161.40   28.80
   2   4 -11  138.83   28.16
   2  -4 -11  149.32   28.92
  -2  -4  11  145.47   34.74
  -2  -4  10   17.09   19.21
   2  -4 -10   14.94   15.44
   2   4 -10   19.38   15.42
   2  -4 -10   44.43   18.31
   2  -4  -9   10.19   13.14
  -2  -4   9   28.07   18.47
   2   4  -9   34.18   15.89
   2  -4  -9   16.22   14.45
  -2  -4   8  101.53   20.22
   2  -4  -8   81.93   17.38
   2  -4  -8  117.27   21.51
   2   4  -8   97.71   17.30
   2   4  -7    6.61    9.01
   2  -4  -7    9.45   11.62
   2  -4  -7    8.51   10.74
  -2  -4   7    6.19    8.90
   2   4  -6  254.98   20.88
  -2  -4   6  228.43   21.24
   2  -4  -6  282.16   25.73
   2  -4  -5  670.65   31.67
  -2  -4   5  706.95   31.42
   2   4  -5  733.29   31.72
   2  -4  -5  717.06   36.61
   2   4  -4 1251.50   21.00
  -2  -4   4 1258.31   37.73
   2  -4  -4 1283.40   46.13
   2  -4  -4 1303.79   35.57
   2   4  -4 1284.59   38.35
   2   4  -4 1326.62   20.15
   2   4  -3  387.51   17.49
  -2  -4   3  379.29   19.13
   2  -4  -3  434.75   16.10
   2   4  -3  382.64   19.26
  -2   4   3  370.79   14.76
   2  -4  -3  360.80   23.32
   2  -4  -2  146.15   14.57
   2   4  -2  160.66   12.10
  -2  -4   2  169.77   12.31
   2  -4  -1   -7.01    5.20
  -2  -4   1    4.00    5.33
   2  -4  -1    7.46    6.05
  -2  -4   1    5.48    6.57
   2  -4   0 3969.36   71.28
  -2  -4   0 3838.05   60.62
  -2  -4   0 3848.80   74.44
   2  -4   0 3921.33   65.67
   2  -4   1  886.24   30.75
   2  -4   1  805.79   33.64
   2  -4   1  849.00   17.34
  -2  -4  -1  830.43   37.98
  -2   4  -1  892.82   18.23
  -2  -4  -1  897.10   31.55
   2  -4   2  657.44   33.14
  -2  -4  -2  616.41   35.36
  -2   4  -2  611.31   21.68
   2  -4   2  657.25   25.99
  -2  -4  -2  596.38   28.79
  -2   4  -3  425.50   22.54
  -2  -4  -3  442.12   31.81
  -2  -4  -3  423.12   26.99
   2  -4   3  460.16   30.64
   2  -4   3  479.16   21.71
  -2   4  -4  129.14   15.62
   2  -4   4  159.53   19.08
  -2  -4  -4  173.27   20.87
  -2  -4  -4  152.86   22.53
   2  -4   4  131.03   12.33
   2  -4   5  250.71   16.19
  -2  -4  -5  376.38   32.94
   2  -4   5  313.55   29.86
  -2  -4  -5  352.12   29.66
  -2   4  -5  331.05   25.38
  -2   4  -6  615.91   37.06
  -2  -4  -6  678.74   46.28
  -2  -4  -6  512.11   38.31
   2  -4   6  561.65   42.85
  -2   4  -7  381.74   32.98
  -2  -4  -7  371.34   36.33
   2  -4   7  402.99   39.67
  -2   4  -8   34.71   16.57
  -2  -4  -8   63.52   22.95
   2  -4   8   38.91   21.03
  -2  -4  -9   34.66   21.79
  -2   4  -9   24.61   19.98
   2  -4   9   55.41   26.23
  -2  -4 -10   37.36   26.00
  -2   4 -10   32.61   22.66
   2  -4  10    3.45   28.06
   2  -5 -12  290.49   43.24
   2  -5 -12  290.86   42.75
  -2  -5  11   15.74   24.69
   2   5 -11   10.41   20.48
   2  -5 -11   -2.66   22.31
   2  -5 -11   30.07   21.61
   2   5 -10  362.11   36.13
  -2  -5  10  299.36   38.93
   2  -5 -10  428.10   40.92
   2  -5 -10  442.99   44.39
   2  -5  -9  151.91   25.58
  -2  -5   9   69.86   21.92
   2   5  -9  151.20   24.49
   2  -5  -9  115.18   24.22
   2   5  -8  322.90   29.12
   2  -5  -8  356.92   34.72
  -2  -5   8  341.31   34.24
   2  -5  -8  317.53   31.00
   2  -5  -7 3389.35   97.05
  -2  -5   7 3553.04   89.87
   2   5  -7 3418.66   81.81
   2  -5  -6    8.60   11.39
   2   5  -6    6.16    7.67
   2  -5  -6   22.34   11.84
  -2  -5   6   13.62    9.14
   2  -5  -5  133.49   14.91
   2  -5  -5  103.96   17.66
  -2  -5   5  108.27   14.86
   2   5  -5  149.00   15.33
   2   5  -4  316.48   13.86
   2  -5  -4  338.42   26.77
   2  -5  -4  408.28   19.39
   2   5  -4  401.96   22.90
  -2  -5   4  329.63   21.23
  -2  -5   3 1464.72   40.87
   2   5  -3 1398.49   38.61
   2  -5  -3 1455.59   51.35
   2  -5  -3 1541.73   26.23
  -2   5   3 1410.84   26.67
   2   5  -2 1617.77   40.01
   2  -5  -2 1578.94   50.20
  -2  -5   2 1589.19   41.40
  -2  -5   1 1730.63   51.28
  -2  -5   1 1649.55   41.00
   2  -5  -1 1613.91   49.16
   2  -5   0  200.80   17.36
  -2  -5   0  215.03   21.25
  -2  -5   0  223.59   16.29
   2  -5   0  201.40   18.41
   2  -5   1  640.93   28.60
  -2  -5  -1  573.35   26.77
   2  -5   1  569.75   31.50
  -2  -5  -1  580.26   34.93
   2  -5   2  255.61   18.42
  -2   5  -2  267.73   14.20
  -2  -5  -2  237.85   25.59
  -2  -5  -2  249.21   19.04
   2  -5   2  258.50   23.20
  -2  -5  -3   17.31    9.96
  -2   5  -3   20.58    8.40
  -2  -5  -3    8.87   10.28
   2  -5   3    6.65    6.65
   2  -5   3   -2.17    7.81
   2  -5   4  857.32   46.24
  -2   5  -4  866.31   34.65
  -2  -5  -4  904.23   51.13
  -2  -5  -4  949.23   45.13
   2  -5   4  860.98   29.62
  -2   5  -5  131.70   18.03
  -2  -5  -5  126.21   19.55
  -2  -5  -5  170.12   24.79
   2  -5   5  116.32   21.88
  -2  -5  -6   15.94   13.96
  -2   5  -6   38.04   14.92
  -2  -5  -6    5.25   13.47
   2  -5   6   22.88   14.84
  -2   5  -7  469.41   35.39
  -2  -5  -7  459.02   41.69
   2  -5   7  493.12   46.66
  -2  -5  -8   23.33   18.50
  -2   5  -8   22.23   16.89
   2  -5   8   29.64   25.43
  -2   5  -9   53.80   22.86
  -2  -5  -9   45.62   25.07
   2  -5   9   18.91   23.71
   2   6 -11   27.04   22.34
   2  -6 -11   30.39   26.78
  -2  -6  11   34.06   27.13
  -2  -6  10  -11.02   20.66
   2   6 -10  -24.99   20.67
   2  -6 -10   -0.50   21.00
   2   6  -9  135.31   24.55
  -2  -6   9  160.31   31.22
   2  -6  -9  116.86   25.99
   2  -6  -9  182.39   30.76
  -2  -6   8   81.24   21.91
   2   6  -8   68.69   17.32
   2  -6  -8   40.62   18.03
   2  -6  -8   34.33   18.19
  -2  -6   7   30.40   13.46
   2  -6  -7   -9.64   13.42
   2   6  -7   42.31   15.25
   2  -6  -7   31.54   14.34
  -2  -6   6   52.57   13.97
   2  -6  -6   53.72   14.66
   2   6  -6   55.34   13.55
   2  -6  -6   58.66   16.70
   2  -6  -5  374.24   32.26
   2  -6  -5  414.81   23.63
  -2  -6   5  364.72   26.49
   2   6  -5  357.42   24.83
   2  -6  -4 1018.89   28.35
   2  -6  -4  935.72   47.98
   2   6  -4 1041.80   38.17
  -2  -6   4 1028.43   40.21
   2  -6  -3   59.67    5.48
   2  -6  -3   68.66   14.62
  -2  -6   3   96.23   13.08
   2   6  -3   97.16   11.79
   2  -6  -2   -5.27    8.24
   2   6  -2   16.76    6.99
  -2  -6   2   11.15    6.57
  -2  -6   1  251.11   18.30
   2  -6  -1  243.98   22.23
  -2  -6   1  213.80   20.83
   2  -6  -1  247.54   21.58
   2  -6   0 1707.47   54.67
  -2  -6   0 1794.31   62.39
   2  -6   0 1805.92   58.24
  -2  -6   0 1688.07   44.25
   2  -6   1  249.03   20.68
   2  -6   1  301.75   25.26
  -2  -6  -1  295.78   20.65
  -2  -6  -1  274.21   27.81
  -2  -6  -2  634.67   32.44
   2  -6   2  597.27   29.40
  -2  -6  -2  651.95   42.06
   2  -6   2  590.01   35.51
   2  -6   3  107.01   13.64
  -2  -6  -3   97.32   20.55
   2  -6   3  120.57   18.14
  -2  -6  -3   97.24   15.25
  -2  -6  -4   25.71   13.11
   2  -6   4   -0.55    9.05
  -2  -6  -4   13.60   12.31
   2  -6   5    6.92   10.98
  -2  -6  -5   26.81   14.66
  -2  -6  -5    8.42   12.58
  -2  -6  -6  307.76   36.32
   2  -6   6  359.04   38.08
  -2  -6  -6  331.74   34.95
  -2  -6  -7  240.99   32.89
   2  -6   7  395.57   43.32
   2  -6   8   13.57   23.31
  -2  -6  -8   23.65   21.06
  -2  -6  -9   17.08   25.81
  -2  -7  10   38.93   28.82
   2  -7 -10    0.69   23.92
   2   7  -9   73.79   23.28
   2  -7  -9   93.33   28.08
  -2  -7   9  128.74   30.97
   2   7  -8   19.59   16.76
   2  -7  -8   22.89   18.62
  -2  -7   8   23.06   19.76
   2   7  -7  604.15   38.54
   2  -7  -7  670.52   51.46
  -2  -7   7  687.64   45.19
   2   7  -6   37.57   14.28
   2  -7  -6   41.89   18.56
  -2  -7   6   27.90   12.52
   2  -7  -5  570.48   43.29
   2   7  -5  459.42   28.52
  -2  -7   5  537.77   34.00
   2  -7  -4  -14.44   12.34
   2   7  -4    7.13    7.58
  -2  -7   4    3.46    8.08
   2   7  -3  126.42   15.18
  -2  -7   3  155.34   17.65
   2   7  -2    7.99    7.52
  -2  -7   2    6.71    7.66
   2  -7  -2   29.48   12.74
   2  -7  -1  306.17   27.64
  -2  -7   1  288.03   26.21
   2   7  -1  295.21   19.07
   2  -7  -1  304.87   26.50
  -2  -7   0  430.38   33.44
   2  -7   0  361.02   28.62
  -2  -7   0  410.98   24.50
   2  -7   0  383.80   28.89
  -2  -7  -1   87.51   18.86
   2  -7   1   68.51   14.51
  -2  -7  -1   70.77   12.87
   2  -7   1   79.12   15.41
   2  -7   2   38.46   13.80
  -2  -7  -2   27.10   12.38
   2  -7   2   58.86   13.72
  -2  -7  -2   55.25   18.12
  -2  -7  -3  615.95   47.42
   2  -7   3  649.33   42.22
  -2  -7  -3  629.41   36.36
   2  -7   4   52.24   17.57
  -2  -7  -4   60.22   16.58
  -2  -7  -5   22.49   18.59
   2  -7   5    9.29   15.45
  -2  -7  -5    6.89   14.86
  -2  -7  -6  346.52   38.00
   2  -7   6  366.80   41.17
  -2  -7  -6  329.07   41.21
  -2  -7  -7  147.53   30.53
   2  -7   7  194.57   34.19
   2  -7   8   93.33   29.53
  -2  -7  -8   63.66   28.35
  -2  -8   9   72.13   30.58
   2  -8  -8  124.22   30.60
  -2  -8   8  207.71   33.81
   2  -8  -7  163.01   31.34
  -2  -8   7  153.07   26.17
   2  -8  -6  639.54   53.41
  -2  -8   6  571.54   40.29
   2  -8  -5  320.91   37.46
  -2  -8   5  338.56   29.97
  -2  -8   4   52.32   14.42
   2  -8  -4  109.14   21.59
   2  -8  -3  705.17   48.90
  -2  -8   3  728.92   38.51
   2  -8  -2   85.37   19.78
  -2  -8   1  327.78   31.47
   2  -8  -1  278.36   28.99
  -2  -8   0 2377.75   59.91
  -2  -8   0 2488.73   84.16
   2  -8   0 2411.22   78.13
   2  -8   0 2247.51   75.67
   2  -8   1  153.41   21.34
  -2  -8  -1  200.16   28.84
   2  -8   1  167.97   22.99
  -2  -8  -1  146.97   18.03
  -2  -8  -2   17.98   16.58
   2  -8   2    9.86   13.70
  -2  -8  -2   16.74   12.79
  -2  -8  -3  370.79   39.16
   2  -8   3  491.30   38.95
  -2  -8  -3  468.32   35.08
   2  -8   4  391.89   36.41
  -2  -8  -4  345.94   40.19
  -2  -8  -5  634.18   56.52
   2  -8   5  702.70   52.49
  -2  -8  -6  370.16   46.48
   2  -8   6  454.68   46.11
   2  -8   7   21.77   25.84
   2  -9  -7  357.12   47.30
  -2  -9   6    5.36   16.05
   2  -9  -6   44.86   27.67
   2  -9  -5  205.30   34.21
  -2  -9   5  229.82   27.70
  -2  -9   4   55.24   17.11
   2  -9  -4   55.38   24.58
   2  -9  -3   52.13   19.84
   2  -9  -2   -0.68   14.99
   2  -9  -1   61.11   20.62
  -2  -9   0  122.66   26.12
   2  -9   0  113.62   24.84
  -2  -9  -1    3.97   17.54
   2  -9   1    8.44   13.61
   2  -9   2   11.28   15.35
  -2  -9  -2   -0.30   18.84
  -2  -9  -3  195.08   34.77
   2  -9   3  188.87   29.40
  -2  -9  -4   83.19   27.85
   2  -9   4   52.98   21.34
  -2  -9  -5   15.18   22.23
   2  -9   5   -5.82   17.45
   2 -10  -5  115.89   33.04
   2 -10  -4  381.89   49.64
   2 -10  -3   13.46   22.09
   2 -10  -2   24.59   23.87
   2 -10  -1   74.65   27.58
   2 -10   1  284.94   35.19
   2 -10   2  428.06   41.34
  -2 -10  -2  348.87   46.23
   2 -10   3   33.08   20.41
  -2 -10  -3   22.69   24.76
   2 -11  -3  170.06   41.64
   3   0 -13  206.28   36.93
   3   0 -12  200.38   31.74
   3   0 -11  356.97   37.79
   3   0 -10 1288.03   60.76
   3   0  -9  130.79   16.69
   3   0  -9  186.45   23.35
   3   0  -8  680.49   30.40
   3   0  -8  667.09   37.53
   3   0  -7  350.48   20.22
   3   0  -7  338.11   24.70
   3   0  -6  519.52   22.83
   3   0  -6  512.42   26.71
   3   0  -5 4058.76   58.88
   3   0  -5 4066.88   66.91
   3   0  -4   93.54    9.34
   3   0  -4   72.59    9.16
   3   0  -3 2219.37   40.13
   3   0  -3 2238.32   39.27
  -3   0   2 5597.95   62.33
  -3   0   2 5533.21   43.02
   3   0  -2 5410.41   63.50
  -3   0   1  192.90   12.26
  -3   0   1  170.72    8.14
   3   0  -1  185.73    8.69
   3   0  -1  171.48   12.31
  -3   0   0   89.47    9.56
   3   0   0   91.52    9.98
   3   0   0   85.25    7.16
   3   0   1 3493.31   54.36
  -3   0  -1 3403.10   57.82
  -3   0  -2 3263.24   61.96
  -3   0  -3 2530.97   61.66
  -3   0  -4 1454.03   51.54
  -3   0  -5    7.24   10.06
  -3   0  -6  468.66   36.44
  -3   0  -7  101.41   22.39
   3   0   8  490.79   48.78
  -3   0  -8  378.70   37.51
  -3   0  -9  763.21   55.43
   3   0   9  928.85   67.97
   3   0  10   15.95   24.71
  -3   0 -10   19.50   22.27
   3  -1 -13   18.10   25.06
   3   1 -12   62.11   24.43
   3  -1 -12   -3.79   18.49
   3   1 -11  266.78   32.34
   3  -1 -11  316.52   35.48
   3   1 -10  263.65   29.57
   3  -1 -10  228.91   24.34
   3  -1 -10  273.21   29.54
   3  -1  -9  902.09   47.37
   3  -1  -9 1021.31   43.65
   3   1  -9  877.31   46.48
   3  -1  -8  170.42   17.57
   3   1  -8  161.30   14.46
   3   1  -8  118.90   17.14
   3  -1  -8  132.18   17.99
   3   1  -7  303.87   16.68
   3  -1  -7  342.67   25.78
   3  -1  -7  346.88   21.96
   3   1  -7  299.26   22.95
   3  -1  -6    0.32    5.81
   3   1  -6    5.14    4.94
   3   1  -6   -5.77    6.76
   3  -1  -6   -3.06    5.74
   3   1  -5 2161.98   38.42
   3  -1  -5 2070.80   46.82
   3   1  -5 2205.44   50.98
   3  -1  -5 2066.87   46.53
   3   1  -4  139.85   11.99
   3  -1  -4  116.37   11.42
   3  -1  -4  118.89   10.61
   3   1  -4  138.52    9.82
   3  -1  -3  323.22   15.00
   3   1  -3  359.80   15.53
   3  -1  -3  336.95   17.14
  -3   1   2  133.51    9.54
   3  -1  -2  154.37   10.66
   3   1  -2  118.75    9.77
   3  -1  -2  111.62    8.28
  -3   1   2  142.48    9.64
  -3  -1   2  143.43   11.50
   3  -1  -2  124.46   11.19
  -3  -1   1  205.46   13.90
  -3   1   1  221.94   12.08
   3  -1  -1  194.06   11.16
  -3   1   1  194.07   11.64
   3  -1  -1  184.47   11.10
   3  -1  -1  209.33   13.91
   3  -1   0  171.92   11.99
   3  -1   0  175.33   12.96
  -3  -1   0  155.99   12.98
  -3   1   0  155.41   11.12
  -3   1  -1  172.47   13.15
   3  -1   1  166.91   12.81
  -3  -1  -1  147.50   13.25
   3  -1   1  163.64   13.57
  -3   1  -2  369.85   21.14
   3  -1   2  369.75   21.52
   3  -1   2  383.02   21.66
  -3  -1  -2  360.65   22.98
  -3  -1  -3   12.79    8.96
  -3   1  -3   14.60    8.97
   3  -1   3   12.27    8.18
   3  -1   4  374.86   29.17
  -3   1  -4  353.52   25.78
  -3  -1  -4  393.05   29.28
   3  -1   5  358.45   32.24
  -3   1  -5  420.18   30.63
  -3  -1  -5  390.87   31.28
   3  -1   6   17.59   14.96
  -3   1  -6   36.58   14.04
  -3  -1  -6    8.90   11.34
   3  -1   7  294.83   36.06
  -3   1  -7  244.78   29.09
  -3  -1  -7  234.00   28.95
  -3   1  -8  306.55   34.29
  -3  -1  -8  329.32   36.68
   3  -1   8  405.52   44.39
   3  -1   9    3.26   23.48
  -3  -1  -9  -13.08   17.32
  -3   1  -9  -14.62   16.98
   3  -1  10  -15.86   26.86
  -3  -1 -10   14.66   21.25
  -3   1 -10   34.22   26.44
  -3  -2  13   13.53   30.08
  -3  -2  12  248.76   44.56
   3  -2 -12  198.52   34.25
   3   2 -12  188.68   31.85
   3  -2 -11   61.59   19.45
   3   2 -11   43.02   17.51
  -3  -2  11   92.71   28.60
   3  -2 -11   79.83   20.42
   3  -2 -10   42.57   14.09
   3  -2 -10   59.67   17.75
   3   2 -10   40.19   15.51
   3  -2  -9   -8.82   10.14
   3   2  -9   16.67   12.07
   3  -2  -9    2.06   13.01
   3   2  -8  239.79   23.27
   3  -2  -8  235.77   23.11
   3  -2  -8  222.89   21.92
   3  -2  -7  185.85   19.51
   3   2  -7  166.98   10.69
   3   2  -7  210.49   19.70
   3  -2  -7  188.47   18.21
   3   2  -6  297.22   13.07
   3  -2  -6  297.23   21.09
   3  -2  -6  338.83   22.68
   3   2  -6  295.26   21.30
   3   2  -5   -0.31    5.59
   3   2  -5   -3.85    3.27
   3  -2  -5    3.85    6.41
   3  -2  -5    3.69    5.48
   3   2  -4  263.46   16.91
   3  -2  -4  240.33   17.43
  -3  -2   4  278.11   14.21
   3   2  -4  245.34   12.28
   3  -2  -4  235.31   14.08
   3  -2  -3  530.45   23.85
   3  -2  -3  506.84   18.26
  -3  -2   3  528.81   13.09
   3   2  -3  529.57   22.57
   3  -2  -3  525.12   18.10
   3   2  -3  532.04   18.39
   3  -2  -2 3091.40   53.83
   3  -2  -2 3059.76   38.19
   3  -2  -2 2999.48   49.07
   3  -2  -2 2946.25   36.29
  -3  -2   2 3074.36   52.65
   3   2  -1  711.00   11.81
  -3  -2   1  741.35   26.47
   3  -2  -1  704.72   17.74
  -3   2   1  768.83   18.69
   3  -2  -1  717.58   25.03
   3  -2  -1  737.41   26.34
   3  -2   0 1319.04   27.28
   3  -2   0 1306.50   34.84
   3  -2   0 1296.13   35.01
  -3   2   0 1372.43   28.06
   3  -2   1   10.52    5.10
  -3   2  -1    6.11    4.39
  -3  -2  -1    8.68    6.86
   3  -2   1   -1.65    4.47
  -3   2  -2  771.00   28.83
   3  -2   2  798.37   30.74
   3  -2   2  802.82   32.55
  -3   2  -3   85.83   12.74
  -3  -2  -3   88.19   15.59
   3  -2   3  110.19   14.83
   3  -2   3  115.79   13.51
   3  -2   4 1396.49   53.83
  -3   2  -4 1425.31   49.20
  -3  -2  -4 1423.30   54.33
   3  -2   4 1483.84   47.46
   3  -2   5  271.22   27.48
   3  -2   5  202.52   19.35
  -3   2  -5  256.04   24.74
  -3  -2  -5  263.63   27.08
  -3  -2  -6   96.01   20.21
   3  -2   6   73.02   15.30
  -3   2  -6  101.48   17.90
   3  -2   6   78.89   19.09
   3  -2   7  208.21   29.60
  -3  -2  -7  199.83   28.39
  -3   2  -7  231.51   27.28
  -3  -2  -8  -14.89   18.94
  -3   2  -8   25.40   16.45
   3  -2   8  -14.78   19.40
  -3  -2  -9  222.16   35.21
   3  -2   9  234.41   38.91
  -3   2  -9  171.83   28.91
  -3   2 -10   -7.66   20.32
  -3  -3  13   81.38   37.50
   3  -3 -12  183.87   32.55
  -3  -3  12  229.14   43.20
   3   3 -12  224.89   34.24
  -3  -3  11  210.31   36.69
   3   3 -11  109.64   25.35
   3  -3 -11  122.53   26.34
   3  -3 -11  179.73   29.07
   3  -3 -10  515.54   41.10
  -3  -3  10  441.19   47.26
   3  -3 -10  457.79   37.03
   3   3 -10  439.65   37.52
   3  -3  -9 1845.61   70.00
   3  -3  -9 1942.69   69.35
   3   3  -9 1871.69   68.21
   3  -3  -8    7.70    9.25
  -3  -3   8    1.48   11.56
   3   3  -8    5.43    9.75
   3  -3  -8   37.51   14.11
   3  -3  -7  162.52   19.64
  -3  -3   7  124.34   18.22
   3   3  -7  123.99   16.35
   3   3  -6  477.02   10.78
   3  -3  -6  546.71   30.96
   3   3  -6  464.51   14.20
   3   3  -6  577.27   30.10
  -3  -3   6  553.44   29.31
   3  -3  -6  491.64   28.37
   3  -3  -5 2150.56   50.08
   3  -3  -5 2052.85   55.91
   3   3  -5 2050.75   38.52
  -3  -3   5 2218.46   46.52
   3   3  -5 2174.46   30.20
   3   3  -5 2129.38   53.27
   3  -3  -4 1409.60   44.04
   3   3  -4 1226.73   34.88
  -3  -3   4 1349.56   30.21
   3   3  -4 1302.38   38.02
   3   3  -4 1329.18   27.38
   3  -3  -4 1238.77   32.74
   3  -3  -3 3129.95   63.28
   3   3  -3 3179.72   56.41
  -3  -3   3 3143.77   39.36
   3  -3  -3 3171.29   41.34
   3  -3  -3 2975.67   39.58
   3  -3  -2  512.99   13.21
   3   3  -2  564.54   14.92
   3  -3  -2  516.36   24.95
   3  -3  -2  497.42   23.53
  -3  -3   2  512.11   23.32
   3  -3  -2  522.89   13.06
   3  -3  -1 1210.06   36.25
   3  -3  -1 1211.62   18.50
  -3  -3   1 1238.95   36.84
   3   3  -1 1143.44   22.61
   3  -3  -1 1167.01   36.90
  -3  -3   0    3.28    5.73
   3  -3   0   -0.21    4.49
   3  -3   0    3.08    4.05
   3   3   0    1.63    3.77
   3  -3   0    3.64    5.26
  -3   3   0    1.14    3.15
   3  -3   1  794.26   26.39
  -3  -3  -1  827.23   32.82
   3  -3   1  799.54   29.69
  -3   3  -1  817.29   23.73
   3  -3   1  725.84   31.71
  -3   3  -2 3420.94   57.02
   3  -3   2 3583.30   75.75
   3  -3   2 3528.88   62.56
   3  -3   3    2.69    8.12
   3  -3   3   11.26    7.88
  -3  -3  -3   -5.68    8.65
  -3   3  -3    6.00    7.75
  -3   3  -4   90.19   14.61
  -3  -3  -4   59.57   15.70
   3  -3   4   88.19   16.36
   3  -3   4   66.21   13.29
  -3   3  -5 1395.00   52.53
  -3  -3  -5 1260.96   57.32
   3  -3   5 1470.84   62.21
   3  -3   5 1317.01   46.37
   3  -3   6  157.54   25.79
  -3   3  -6  174.05   23.38
  -3  -3  -6  195.05   26.52
  -3  -3  -7   72.97   21.41
  -3   3  -7   94.98   20.00
   3  -3   7   63.82   20.89
   3  -3   8  504.92   50.92
  -3  -3  -8  484.99   45.43
  -3  -3  -9   46.67   25.45
   3  -3   9   36.62   24.34
  -3   3  -9   10.28   19.62
  -3   3 -10  174.88   33.16
   3  -4 -12  143.21   31.79
   3  -4 -12  139.26   31.24
  -3  -4  12  184.95   42.18
   3   4 -12  134.95   31.38
   3  -4 -11   26.89   19.87
   3  -4 -11   17.48   17.73
   3   4 -11   24.56   18.53
  -3  -4  11    2.97   21.36
   3  -4 -10  233.21   30.28
   3   4 -10  216.83   28.23
   3  -4  -9   69.30   19.52
   3  -4  -9   51.84   15.38
   3   4  -9   39.35   14.02
  -3  -4   9   27.65   17.17
   3   4  -8   32.76   12.16
  -3  -4   8   29.11   12.43
   3  -4  -8   26.55   13.71
   3  -4  -8   23.37   13.90
  -3  -4   7  303.74   24.34
   3  -4  -7  285.89   24.80
   3  -4  -7  303.21   26.72
   3   4  -7  257.62   23.50
   3   4  -6    0.33    7.76
   3  -4  -6   17.75   10.96
  -3  -4   6    5.20    6.28
   3  -4  -6   -5.47   10.03
   3  -4  -5  415.61   24.09
   3  -4  -5  485.83   30.39
   3   4  -5  478.76   16.76
   3   4  -5  464.24   26.17
  -3  -4   5  521.22   25.17
   3   4  -5  457.74   13.51
   3  -4  -4   95.60   13.31
  -3  -4   4   86.07   10.10
   3   4  -4   84.75   11.00
   3   4  -4   62.84    7.22
   3  -4  -4   74.39   10.27
   3   4  -3   41.53    8.65
   3  -4  -3   53.88    6.58
   3  -4  -3   61.79   11.23
  -3  -4   3   66.41    8.08
   3  -4  -3   49.23    5.44
   3  -4  -2 3626.35   71.96
   3   4  -2 3665.83   49.98
   3  -4  -2 3698.17   70.67
  -3  -4   2 3595.31   64.20
   3  -4  -1  110.00   14.33
  -3  -4   1  120.85   12.79
   3  -4  -1  118.53   14.33
   3  -4   0  116.21   14.54
  -3  -4   0   87.31   12.04
  -3   4   0   93.12    4.67
   3  -4   0  111.58    5.28
   3  -4   0  117.92   14.11
   3  -4   1  328.16   20.85
   3  -4   1  310.74   23.43
  -3   4  -1  296.40   13.40
   3  -4   1  265.96   13.98
  -3  -4  -1  292.53   21.04
   3  -4   2 1260.72   39.72
  -3   4  -2 1202.93   32.46
   3  -4   2 1330.26   49.33
  -3  -4  -2 1222.30   45.36
   3  -4   3  678.23   29.88
  -3  -4  -3  694.70   37.45
  -3   4  -3  629.40   27.73
   3  -4   3  688.33   38.44
  -3  -4  -4 1356.59   56.41
   3  -4   4 1300.19   42.30
   3  -4   5   16.42   12.87
   3  -4   5   22.92   10.20
  -3  -4  -5    6.60   11.50
  -3   4  -5   29.83   11.97
  -3  -4  -6   14.18   16.35
   3  -4   6    0.06   13.20
  -3   4  -6   40.98   16.15
   3  -4   7  117.96   26.62
  -3  -4  -7  108.80   24.67
  -3   4  -7  172.91   24.80
  -3  -4  -8   39.54   22.06
   3  -4   8   47.78   25.42
  -3   4  -8   56.49   19.98
  -3  -4  -9  332.70   42.33
  -3   4  -9  318.88   38.15
   3  -4   9  334.67   50.29
  -3  -5  12   15.04   29.13
   3  -5 -12   42.36   26.54
   3  -5 -12  109.57   32.51
   3  -5 -11  187.65   34.19
  -3  -5  11  115.99   31.64
   3   5 -11  180.55   32.29
   3  -5 -10   56.06   22.08
   3  -5 -10   48.86   19.54
  -3  -5  10   73.26   24.85
   3   5 -10   97.27   21.63
   3  -5  -9  359.93   34.39
   3  -5  -9  308.57   34.00
  -3  -5   9  328.86   34.87
   3   5  -9  337.14   31.31
  -3  -5   8  126.42   19.95
   3  -5  -8  113.81   20.39
   3  -5  -8  112.78   22.02
   3   5  -8   95.43   18.70
   3  -5  -7  570.95   39.59
   3  -5  -7  519.61   33.34
  -3  -5   7  647.66   36.72
   3   5  -7  576.74   34.32
   3  -5  -6   99.40   15.49
   3   5  -6   89.51   14.12
   3  -5  -6   95.93   15.99
  -3  -5   6   92.14   13.93
   3  -5  -5  951.27   45.21
  -3  -5   5 1091.51   37.46
   3  -5  -5 1084.01   35.73
   3   5  -5  996.12   21.17
   3   5  -5 1062.47   40.80
   3   5  -4   38.69    8.46
   3  -5  -4   33.70   11.24
   3  -5  -4   32.80    7.38
  -3  -5   4   20.59    6.34
  -3  -5   3   47.09    8.18
   3  -5  -3   31.73   10.06
   3   5  -3   53.01   10.10
   3  -5  -2   -1.20    7.56
  -3  -5   2    2.12    7.60
   3  -5  -2    4.04    7.81
   3  -5  -1  734.30   34.89
   3  -5  -1  724.99   35.58
  -3  -5   1  708.49   30.01
   3  -5   0  188.23   18.39
  -3  -5   0  144.09   15.32
   3  -5   0  192.45   19.24
   3  -5   1  333.54   22.84
  -3  -5  -1  351.49   23.77
   3  -5   1  360.71   27.23
   3  -5   1  301.49    9.54
  -3   5  -1  283.53    9.81
  -3  -5  -2   15.35    9.64
  -3   5  -2    3.92    5.86
   3  -5   2   18.27    8.82
   3  -5   2   25.11   10.90
  -3  -5  -3   -0.63    8.93
   3  -5   3    7.68    9.26
   3  -5   3    1.48    8.54
  -3   5  -3    0.91    7.11
  -3  -5  -4  669.64   41.36
   3  -5   4  669.60   31.82
  -3   5  -4  703.49   33.10
   3  -5   4  769.56   46.40
   3  -5   5   95.11   20.77
  -3   5  -5  101.86   16.84
  -3  -5  -5  107.45   21.62
  -3  -5  -6  114.25   23.37
  -3   5  -6   67.35   17.04
   3  -5   6   88.52   23.14
   3  -5   7  530.91   50.14
  -3   5  -7  483.56   38.72
  -3  -5  -7  517.18   46.13
   3  -5   8  118.17   32.75
  -3  -5  -8   82.84   26.60
   3  -6 -11   80.77   29.53
   3   6 -11   15.53   21.39
   3  -6 -10  507.14   49.06
  -3  -6  10  539.86   52.88
   3   6 -10  485.41   42.28
   3  -6  -9  110.54   27.43
   3   6  -9   63.84   19.27
  -3  -6   9   60.02   21.41
   3  -6  -8  193.91   27.64
   3   6  -8  143.41   21.09
  -3  -6   8  126.33   22.99
   3  -6  -7  105.85   20.28
  -3  -6   7  139.90   19.99
   3   6  -7  141.30   20.01
  -3  -6   6   69.51   14.23
   3   6  -6   81.44   15.01
   3  -6  -6  106.87   20.26
   3  -6  -5 1135.57   53.31
  -3  -6   5 1102.91   40.91
   3   6  -5 1075.15   42.92
   3   6  -4   -6.80    7.49
  -3  -6   4   -2.29    6.32
   3  -6  -4   14.78   10.97
  -3  -6   3  389.35   21.98
   3  -6  -3  354.48   28.57
   3   6  -3  318.84   21.44
   3  -6  -2 1955.34   62.29
   3  -6  -1   21.15   10.12
  -3  -6   1   14.21    8.95
   3  -6  -1   17.84   10.51
   3  -6   0   -5.46    8.02
   3  -6   0   24.39   10.94
  -3  -6   0    9.95    8.42
   3  -6   1  731.10   36.25
   3  -6   1  775.04   41.54
  -3  -6  -2 1055.58   45.38
   3  -6   2  904.87   40.21
   3  -6   2  984.36   48.68
   3  -6   3  699.92   43.28
   3  -6   3  671.73   34.10
  -3  -6  -3  788.47   42.14
   3  -6   4  629.31   43.62
  -3  -6  -4  771.55   46.96
   3  -6   5   11.21   15.42
  -3  -6  -5   10.55   15.27
  -3  -6  -6  167.44   29.87
   3  -6   6  135.47   29.16
   3  -6   7   70.36   25.81
  -3  -6  -7   62.94   26.31
   3  -6   8  179.42   38.36
  -3  -6  -8  126.74   33.01
   3  -7 -10  233.59   37.54
   3   7 -10  254.51   35.52
   3  -7  -9  879.02   63.97
   3   7  -9  798.18   50.20
  -3  -7   8   33.53   16.55
   3  -7  -8   25.28   17.70
   3   7  -8   22.45   14.33
  -3  -7   7    7.54   11.60
   3   7  -7    6.10   11.76
   3  -7  -7  -12.30   16.10
  -3  -7   6  156.75   19.56
   3  -7  -6  133.70   23.27
   3   7  -6  189.81   21.74
  -3  -7   5  974.00   42.13
   3   7  -5  898.40   41.63
   3  -7  -4  503.77   38.70
  -3  -7   4  535.77   30.04
   3   7  -4  500.18   29.71
   3  -7  -3  732.47   44.07
   3   7  -3  708.01   33.20
   3  -7  -2  140.89   20.21
   3   7  -2  149.62   15.80
   3  -7  -1  145.95   21.40
   3  -7  -1  108.98   16.88
  -3  -7   1  143.24   16.95
  -3  -7   0   14.20    9.68
   3  -7   0   -0.52   10.35
   3  -7   0   29.37   13.60
  -3  -7  -1   88.22   15.53
   3  -7   1   93.21   17.47
   3  -7   1   76.76   16.59
   3  -7   2  803.81   40.16
  -3  -7  -2  952.11   45.05
   3  -7   2  907.45   49.68
  -3  -7  -3    1.68   13.30
   3  -7   3    2.41   11.59
  -3  -7  -4   -5.39   13.75
   3  -7   4   13.84   12.61
   3  -7   5  714.52   54.35
  -3  -7  -5  516.56   43.49
   3  -7   6    8.34   19.65
  -3  -7  -6   27.43   22.18
   3  -7   7   28.67   26.95
  -3  -7  -7   -1.53   22.41
   3  -8  -8  103.09   29.54
   3  -8  -7   58.51   23.69
   3  -8  -6  154.50   27.21
   3   8  -5   25.74   14.47
   3  -8  -5   -0.74   16.86
  -3  -8   5   29.10   12.05
   3   8  -4   91.29   16.86
   3  -8  -4   48.64   16.84
  -3  -8   4   75.48   14.90
   3  -8  -3  184.57   27.08
   3   8  -3  183.08   19.69
   3  -8  -2  562.68   41.45
   3   8  -2  631.39   32.45
   3  -8  -1  103.13   20.35
   3  -8  -1  110.75   19.49
   3  -8   0  513.05   38.48
   3  -8   0  619.75   41.66
  -3  -8   0  546.24   33.37
  -3  -8  -1    6.94   12.39
   3  -8   1    1.09   13.05
   3  -8   1   15.91   14.49
  -3  -8  -2  205.20   25.54
   3  -8   2  188.86   27.10
  -3  -8  -3   -1.86   14.95
   3  -8   3    8.16   13.81
  -3  -8  -4  516.23   41.36
   3  -8   4  429.62   41.27
   3  -8   5   96.99   26.27
  -3  -8  -5  105.04   27.62
   3  -8   6   88.74   28.71
   3  -9  -7    8.81   24.37
   3  -9  -6   46.11   26.13
   3  -9  -5  489.46   48.85
   3  -9  -4   73.36   22.26
   3  -9  -3  407.38   42.10
   3  -9  -2    7.80   14.96
   3  -9  -1   30.73   19.95
   3  -9   0   16.37   17.84
   3  -9   0   -0.03   14.57
   3  -9   1   20.39   14.92
   3  -9   2  332.39   36.01
   3  -9   3   21.67   18.61
   3  -9   4   16.75   20.35
   3 -10  -5  353.42   47.81
   3 -10  -4   19.49   26.25
   3 -10  -3  160.65   32.19
   3 -10  -2  939.83   65.11
   3 -10   1  240.95   34.38
   3 -10   2  491.01   47.36
   4   0 -13   41.53   25.59
   4   0 -12   31.13   20.87
   4   0 -11  136.77   24.21
   4   0 -10  836.04   38.78
   4   0 -10  884.92   49.66
   4   0  -9  139.26   16.04
   4   0  -9   88.49   16.82
   4   0  -8  288.56   20.41
   4   0  -8  282.15   24.84
   4   0  -7  117.30   12.74
   4   0  -7  127.20   15.22
   4   0  -6 1122.25   35.57
   4   0  -6 1126.03   39.58
   4   0  -5  448.35   23.31
   4   0  -5  451.38   21.63
   4   0  -4   17.21    6.58
   4   0  -4   14.65    5.03
   4   0  -3  384.19   19.36
  -4   0   3  417.30   13.98
  -4   0   2  323.86   11.80
  -4   0   2  304.42   16.88
   4   0  -2  265.20   10.71
   4   0  -2  297.87   18.10
  -4   0   1  312.49   18.08
   4   0  -1  271.36   12.36
   4   0  -1  282.38   18.22
   4   0   0 1619.83   33.90
   4   0   0 1681.31   45.37
  -4   0   0 1651.42   42.20
  -4   0  -1  278.69   19.87
   4   0   1  271.62   16.74
   4   0   2  522.59   28.01
  -4   0  -2  498.43   27.85
  -4   0  -3   22.76   10.45
   4   0   3    6.29    8.16
  -4   0  -4  390.93   30.53
   4   0   4  420.23   31.28
  -4   0  -5  471.59   35.55
   4   0   5  537.93   39.62
  -4   0  -6  120.21   22.74
   4   0   6  126.67   22.76
  -4   0  -7  189.09   29.00
   4   0   7  133.75   25.45
  -4   0  -8   23.16   19.55
   4   0   8   81.21   25.41
   4   0   9  258.54   43.92
  -4   0  -9  203.52   33.92
   4  -1 -13   40.21   24.95
   4   1 -13   53.16   25.54
   4  -1 -12  353.65   40.86
   4   1 -12  371.83   40.61
   4   1 -11  374.69   36.32
   4  -1 -11  444.58   39.60
   4   1 -10  107.93   20.64
   4  -1 -10   77.10   16.15
   4  -1 -10   70.85   16.88
   4  -1  -9   12.37   10.92
   4  -1  -9   -1.54    7.84
   4   1  -9    4.92    7.37
   4   1  -9   29.09   12.68
   4   1  -8    8.68    7.26
   4  -1  -8   17.03    8.00
   4   1  -8   14.88    9.88
   4  -1  -8    7.55    9.25
   4  -1  -7 2390.73   58.25
   4   1  -7 2302.25   48.45
   4   1  -7 2358.36   63.47
   4  -1  -7 2256.98   59.76
   4   1  -6  507.71   22.38
   4  -1  -6  525.91   26.94
   4  -1  -6  456.71   24.93
   4   1  -6  484.00   27.03
   4  -1  -5 1228.42   38.49
   4  -1  -5 1238.40   37.55
   4   1  -5 1171.53   38.47
   4   1  -5 1189.66   32.10
   4   1  -4  268.60   17.23
   4   1  -4  245.96   15.25
   4  -1  -4  256.06   15.42
   4  -1  -4  269.53   17.38
  -4  -1   3  357.17   20.29
   4   1  -3  297.45   17.17
  -4  -1   3  295.69    7.62
   4  -1  -3  343.76   17.74
   4  -1  -3  277.66   18.10
   4  -1  -2    8.10    4.40
   4   1  -2   -0.02    5.13
  -4   1   2   11.57    5.15
   4  -1  -2    7.30    5.42
  -4  -1   2   12.65    5.71
   4   1  -1  857.35   31.11
  -4  -1   1  833.95   30.34
  -4   1   1  811.09   26.63
   4   1  -1  891.00   17.09
   4  -1  -1  872.33   26.41
   4  -1  -1  892.57   32.21
   4   1   0 1169.47   26.72
   4  -1   0 1151.31   37.66
   4  -1   0 1122.75   32.56
  -4  -1   0 1098.38   36.32
  -4   1   0 1107.57   32.71
   4  -1   1    4.77    6.15
  -4   1  -1    3.12    5.57
  -4  -1  -1    0.26    6.03
   4  -1   1   18.88    7.28
  -4   1  -2   40.27   10.94
   4  -1   2   51.71   11.58
  -4  -1  -2   31.87    9.17
   4  -1   2   28.54    8.20
   4  -1   3  911.81   40.53
  -4   1  -3  909.19   39.40
   4  -1   3  949.43   40.98
  -4  -1  -3  872.23   41.35
   4  -1   4   76.99   15.47
   4  -1   4   89.32   16.20
  -4  -1  -4  111.95   18.58
  -4   1  -4  141.49   20.28
  -4   1  -5   25.51   12.50
  -4  -1  -5    6.77   11.97
   4  -1   5   21.43   11.42
   4  -1   5    2.31   11.87
  -4   1  -6  492.28   39.30
  -4  -1  -6  625.08   44.17
   4  -1   6  627.79   48.11
   4  -1   6  618.21   40.79
  -4   1  -7  245.08   30.48
  -4  -1  -7  192.65   27.93
   4  -1   7  225.54   29.32
   4  -1   7  263.50   34.88
  -4   1  -8   54.24   23.14
  -4  -1  -8   99.17   27.49
   4  -1   8  127.33   30.83
   4   1   9  325.29   44.87
  -4   1  -9  374.67   42.06
  -4  -1  -9  237.74   37.13
   4  -1   9  324.37   45.06
   4  -2 -13   13.91   21.92
  -4  -2  13   12.70   29.45
   4   2 -12  284.43   35.89
   4  -2 -12  255.36   35.21
  -4  -2  12  299.84   44.17
   4  -2 -11   90.44   21.64
   4  -2 -11  105.58   21.09
   4   2 -11   40.45   17.49
   4  -2 -10   52.62   16.17
   4   2 -10   32.73   14.37
   4  -2 -10   34.60   14.82
   4  -2  -9  229.58   25.43
   4  -2  -9  210.89   22.56
   4   2  -9  190.20   23.87
   4   2  -8  382.69   28.88
   4   2  -8  359.31   17.70
   4  -2  -8  405.86   27.97
   4  -2  -8  390.50   28.46
   4   2  -7  676.20   23.42
   4  -2  -7  669.39   33.75
   4   2  -7  692.86   35.52
   4  -2  -7  648.65   32.79
   4   2  -6   16.35    9.08
   4   2  -6   21.70    6.14
   4  -2  -6   10.14    7.79
   4  -2  -6   16.83    7.29
   4  -2  -5 1180.33   41.02
   4  -2  -5 1116.03   34.51
  -4  -2   5 1171.21   31.27
   4   2  -5 1156.11   30.10
   4   2  -5 1217.84   40.41
   4  -2  -4 3190.33   64.88
  -4  -2   4 3378.10   34.74
   4   2  -4 3562.66   64.41
   4  -2  -4 3346.39   53.19
   4   2  -4 3425.30   53.78
  -4  -2   3  342.49   21.19
   4  -2  -3  312.45   15.12
   4   2  -3  327.73   17.64
   4  -2  -3  357.51   21.01
  -4   2   2  712.77   22.11
  -4  -2   2  652.34   27.58
   4  -2  -2  627.67   24.62
   4  -2  -2  717.21   29.64
  -4   2   1 1880.07   37.13
   4   2  -1 1778.75   20.50
   4  -2  -1 1749.07   42.32
   4  -2  -1 1769.70   45.58
   4  -2   0 3384.82   61.69
   4  -2   0 3416.32   65.13
  -4   2   0 3388.25   53.25
   4  -2   1 2152.38   55.65
   4  -2   1 2039.63   53.40
  -4   2  -1 2083.94   46.85
  -4   2  -2 1243.76   40.57
   4  -2   2 1216.47   43.47
  -4  -2  -2 1246.24   47.10
   4  -2   2 1207.69   42.99
  -4   2  -3  795.62   36.10
   4  -2   3  908.66   41.69
  -4  -2  -3  869.80   42.87
   4  -2   3  826.35   37.74
   4  -2   4  225.63   22.70
  -4  -2  -4  211.39   24.38
  -4   2  -4  219.82   21.90
   4  -2   4  182.18   22.02
   4  -2   5   96.94   18.22
  -4  -2  -5  110.42   20.76
   4  -2   5  136.33   21.75
  -4   2  -5  114.02   20.76
   4  -2   6  894.38   55.39
  -4   2  -6  785.61   47.51
  -4  -2  -6  928.90   54.97
   4  -2   6  860.49   48.07
  -4   2  -7  823.59   51.53
  -4  -2  -7  821.90   55.80
   4  -2   7  916.98   61.50
  -4  -2  -8   23.69   21.35
   4  -2   8   -1.26   19.62
  -4   2  -8   30.52   18.41
  -4   2  -9   22.58   20.95
  -4  -2  -9    5.18   21.86
   4  -2   9   11.77   24.38
   4  -3 -13  179.32   35.23
  -4  -3  13  193.63   45.63
   4  -3 -12  117.41   29.23
   4  -3 -12   49.18   21.39
  -4  -3  12  102.45   31.79
   4   3 -12   98.11   26.33
   4  -3 -11   29.43   18.51
   4  -3 -11   57.80   20.62
  -4  -3  11   34.73   24.27
   4   3 -11   59.91   19.95
   4  -3 -10  141.77   25.42
   4  -3 -10  136.04   22.03
  -4  -3  10   96.05   25.38
   4   3 -10  159.60   24.02
   4  -3  -9  410.96   33.59
   4  -3  -9  433.56   32.96
   4   3  -9  491.07   35.43
   4  -3  -8  473.02   32.46
   4  -3  -8  490.21   33.26
  -4  -3   8  498.68   34.86
   4   3  -8  486.00   32.72
   4   3  -7 1957.59   33.45
   4  -3  -7 2168.17   63.98
  -4  -3   7 2129.26   58.93
   4   3  -7 2069.56   62.18
   4  -3  -7 2053.47   59.20
  -4  -3   6   10.81    6.42
   4  -3  -6   10.09    7.73
   4   3  -6   -4.05    7.17
   4   3  -6    7.00    5.79
   4  -3  -6    2.77    9.23
   4  -3  -5  533.81   30.14
  -4  -3   5  600.54   20.81
   4   3  -5  563.33   28.67
   4   3  -5  565.11   20.99
   4  -3  -5  568.41   24.84
   4   3  -4   12.20    5.93
   4   3  -4    3.75    5.18
   4  -3  -4    9.65    6.75
   4  -3  -4   13.65    5.59
  -4  -3   4   15.77    4.34
   4  -3  -3 2520.92   60.80
  -4  -3   3 2444.25   56.74
   4  -3  -3 2335.76   38.93
   4  -3  -3 2475.03   38.37
   4  -3  -2 1513.13   43.26
   4  -3  -2 1555.89   28.97
  -4  -3   2 1562.54   43.86
   4  -3  -2 1585.83   27.27
   4  -3  -2 1588.96   46.32
   4  -3  -1  153.16    9.91
  -4  -3   1  161.46   16.30
  -4   3   1  158.07   10.04
   4   3  -1  138.77    7.49
   4  -3  -1  172.08   15.72
   4  -3  -1  150.87   14.69
  -4   3   0  147.86   11.43
  -4  -3   0  136.68   14.35
   4  -3   0  149.68   15.36
   4  -3   0  115.37   13.86
   4  -3   1  -11.76    8.03
  -4   3  -1    3.45    6.97
   4  -3   1   -0.46    6.63
  -4  -3  -1    4.52    8.36
  -4   3  -2  555.35   26.69
  -4  -3  -2  500.29   33.12
   4  -3   2  556.94   33.46
   4  -3   2  525.46   28.74
  -4   3  -3  132.27   16.09
   4  -3   3  129.18   17.41
  -4  -3  -3  163.47   21.82
   4  -3   3  153.33   16.84
  -4   3  -4  189.43   20.98
   4  -3   4  160.91   21.41
  -4  -3  -4  177.76   23.20
   4  -3   4  187.19   21.29
  -4   3  -5  356.50   30.25
   4  -3   5  385.82   35.43
  -4  -3  -5  372.36   35.42
   4  -3   5  268.93   26.61
  -4  -3  -6  202.35   29.55
  -4   3  -6  162.94   24.02
   4  -3   6  257.21   31.43
   4  -3   7   70.93   23.29
  -4  -3  -7   86.27   23.65
  -4   3  -7   61.17   20.08
   4  -3   8  107.94   27.56
  -4  -3  -8  100.52   27.12
  -4   3  -8   81.23   25.15
  -4   3  -9   32.23   24.04
   4  -4 -12   27.19   23.39
   4  -4 -12   24.57   23.09
  -4  -4  12   -2.33   23.79
   4   4 -12   40.68   22.66
   4  -4 -11  116.56   28.58
   4   4 -11  108.44   24.76
   4  -4 -11   79.16   22.73
  -4  -4  11   70.01   26.87
   4  -4 -10   31.73   16.88
   4  -4 -10   23.57   15.45
   4   4 -10   61.68   18.48
  -4  -4  10   34.97   17.97
   4  -4  -9    6.85   13.58
   4   4  -9   21.75   11.98
   4  -4  -9   26.34   13.47
  -4  -4   9   13.02   13.09
   4   4  -8  245.71   24.71
   4  -4  -8  220.97   25.01
  -4  -4   8  193.18   21.29
   4  -4  -8  217.26   24.65
   4   4  -7   39.79   11.63
   4  -4  -7   40.54   14.18
  -4  -4   7   31.99    9.57
   4  -4  -7   29.09   11.58
   4   4  -6   92.97   13.94
  -4  -4   6   85.17   11.14
   4  -4  -6   75.41   13.80
   4  -4  -6   87.99   13.90
   4   4  -6   94.48    8.41
   4  -4  -5  158.16   15.73
   4   4  -5  137.85   15.49
   4  -4  -5  141.97   18.00
  -4  -4   5  152.98   11.94
   4   4  -5  155.06   11.91
   4  -4  -4  668.60   35.00
  -4  -4   4  685.53   21.01
   4   4  -4  683.36   30.90
   4   4  -4  711.12   26.05
   4  -4  -4  641.07   23.63
   4  -4  -3  361.88   25.10
  -4  -4   3  346.21   22.83
   4  -4  -3  320.85   12.34
   4  -4  -3  380.38   14.12
   4  -4  -2   18.49   10.31
   4  -4  -2    9.93    3.51
   4  -4  -2    7.66    3.64
   4   4  -2   -1.42    4.24
   4  -4  -2   -5.77    6.13
  -4  -4   2   -6.87    7.06
   4  -4  -1  221.49   19.73
   4  -4  -1  254.19   10.95
   4  -4  -1  236.79   20.30
  -4  -4   1  239.54   20.40
   4   4  -1  195.13   11.83
   4  -4   0 1854.44   35.57
  -4  -4   0 1733.80   51.74
  -4   4   0 1884.36   31.06
   4  -4   0 1816.43   55.24
   4  -4   0 1952.49   54.52
  -4  -4  -1  210.68   21.19
   4  -4   1  236.40   21.74
  -4   4  -1  236.28   14.43
   4  -4   1  247.52   20.17
  -4   4  -2  496.61   23.91
   4  -4   2  497.07   32.84
  -4  -4  -2  434.82   29.77
   4  -4   2  522.72   29.97
   4  -4   3  244.24   25.39
  -4   4  -3  222.51   19.05
  -4  -4  -3  208.56   24.78
   4  -4   3  217.21   20.79
  -4   4  -4    2.93   11.64
   4  -4   4   -4.10    9.68
  -4  -4  -4   -6.11   12.32
   4  -4   4   18.76   14.11
  -4   4  -5  119.78   20.50
  -4  -4  -5  141.18   25.11
  -4   4  -6  261.22   29.49
  -4  -4  -6  256.91   33.84
  -4   4  -7  289.63   32.74
   4  -4   7  264.99   37.85
  -4  -4  -7  286.13   38.65
   4  -4   8   -0.99   20.91
  -4  -4  -8   19.62   23.68
  -4   4  -8  -23.53   20.92
   4  -5 -12  422.51   48.67
   4   5 -11  611.62   49.53
   4  -5 -11  458.43   44.15
   4  -5 -11  557.03   50.24
   4  -5 -10   56.96   22.90
   4  -5 -10   49.31   20.69
   4   5 -10   25.98   16.43
  -4  -5  10   30.45   19.06
   4  -5  -9   11.48   14.52
   4  -5  -9   14.58   14.08
   4   5  -9   34.31   14.70
  -4  -5   9   15.44   14.59
   4  -5  -8   98.12   20.32
   4  -5  -8   98.54   19.82
  -4  -5   8  122.71   19.05
   4   5  -8  135.83   21.06
   4  -5  -7 1530.64   54.38
   4  -5  -7 1624.47   64.64
  -4  -5   7 1559.37   50.55
   4   5  -7 1574.64   57.55
   4  -5  -6  711.01   33.82
   4   5  -6  792.64   38.81
  -4  -5   6  768.61   30.74
   4  -5  -5 1197.40   51.57
   4  -5  -5 1114.87   35.38
  -4  -5   5 1208.44   34.85
   4   5  -5 1122.11   42.96
   4   5  -5 1146.69   31.04
   4  -5  -4  238.71   23.57
  -4  -5   4  249.88   15.05
   4   5  -4  236.56   19.38
   4  -5  -3   13.24    8.17
   4  -5  -2   22.52   10.13
  -4  -5   2   41.19   11.68
   4  -5  -2   40.41   10.26
  -4  -5   1  927.86   37.58
   4  -5  -1  982.96   43.47
   4  -5   0 1366.78   50.90
   4  -5   0 1462.01   53.65
  -4  -5   0 1443.21   49.30
  -4   5  -1   36.10    6.57
  -4  -5  -1   28.01    9.96
   4  -5   1   31.16   10.08
   4  -5   1   43.30   12.05
  -4  -5  -2    2.80    9.07
   4  -5   2   17.96    8.26
  -4   5  -2   18.93    7.55
  -4   5  -3 1191.19   39.42
   4  -5   3 1258.77   57.57
  -4  -5  -3 1198.04   54.36
   4  -5   3 1156.31   46.42
  -4   5  -4   82.43   15.01
   4  -5   4   71.72   15.29
   4  -5   4  120.19   22.98
  -4  -5  -4   64.45   17.98
   4  -5   5  145.44   25.59
  -4  -5  -5  113.16   25.13
  -4  -5  -6  607.44   49.95
   4  -5   6  733.68   58.65
  -4  -5  -7  163.76   31.50
   4  -5   7  272.01   40.95
  -4  -5  -8  175.84   37.14
   4  -6 -11   -4.84   22.05
   4   6 -11   95.35   27.96
   4  -6 -10  280.04   37.51
   4   6 -10  224.69   31.19
   4  -6  -9    6.44   15.38
   4   6  -9  -11.50   15.41
   4  -6  -8  209.75   29.56
   4   6  -8  209.70   25.90
   4   6  -7   13.01   11.05
   4  -6  -7   -5.22   12.57
  -4  -6   7   12.78   11.51
   4  -6  -6  312.03   31.62
   4   6  -6  274.14   24.55
  -4  -6   6  262.42   20.81
   4   6  -5   25.07   10.72
   4  -6  -5   38.36   14.98
  -4  -6   5   30.41    9.84
   4   6  -4   73.63   12.70
   4  -6  -4   70.99   16.36
  -4  -6   4   66.86   10.37
   4  -6  -3  203.81   23.32
   4   6  -3  180.82   17.63
  -4  -6   2   45.69   12.87
   4  -6  -2   33.81   11.81
   4  -6  -2   71.74   14.23
   4  -6  -1    1.15    9.23
  -4  -6   1    4.27    9.03
   4  -6  -1    0.91    8.71
   4  -6   0  973.66   45.61
  -4  -6   0 1060.35   45.77
   4  -6   0  999.77   48.65
   4  -6   1   -5.67    9.75
  -4  -6  -1   -9.22   10.61
   4  -6   1   -1.22    9.08
   4  -6   2  328.51   27.92
  -4  -6  -2  375.22   30.98
   4  -6   2  390.81   34.50
  -4  -6  -3   34.69   15.10
   4  -6   3   43.65   15.79
   4  -6   3    9.11   12.05
   4  -6   4   91.96   22.13
  -4  -6  -4   75.08   18.83
   4  -6   5  290.35   37.00
  -4  -6  -5  279.57   35.72
  -4  -6  -6  127.61   29.82
   4  -6   6  152.80   31.29
  -4  -6  -7  147.15   34.82
   4  -6   7   80.99   29.33
   4  -7 -10   70.93   28.98
   4   7 -10   53.84   23.61
   4  -7  -9   94.88   25.68
   4   7  -9   83.37   20.92
   4   7  -8  100.34   20.03
   4  -7  -8   46.88   21.63
   4  -7  -7  974.63   59.14
   4   7  -7 1051.60   50.74
   4   7  -6    2.40   10.74
   4  -7  -6    7.19   12.29
   4  -7  -5  151.42   23.27
   4   7  -5  132.72   18.75
   4   7  -4   32.83   11.78
   4  -7  -4   17.57   12.54
   4  -7  -3  528.59   38.68
   4   7  -3  515.89   31.25
   4  -7  -2  209.54   24.74
  -4  -7   2  206.78   20.54
   4  -7  -1  124.65   19.75
  -4  -7   1  141.54   18.72
   4  -7  -1  112.16   18.85
  -4  -7   0   75.98   16.39
   4  -7   0   61.72   15.31
   4  -7   0   43.08   13.58
   4  -7   1   14.63   12.29
  -4  -7  -1   -3.50   11.30
   4  -7   1    0.91   11.31
   4  -7   2  139.51   20.84
  -4  -7  -2  156.54   23.13
   4  -7   2  191.16   25.65
  -4  -7  -3   11.30   14.29
   4  -7   3   17.18   15.51
  -4  -7  -4   79.92   23.24
   4  -7   4   58.42   21.13
   4  -7   5  108.15   27.26
  -4  -7  -5   47.31   22.66
   4  -7   6  143.62   34.50
  -4  -7  -6   78.28   29.39
   4   8  -8  182.95   28.47
   4  -8  -8  124.83   29.24
   4  -8  -7  312.83   39.77
   4   8  -7  278.59   29.66
   4   8  -6    5.54   14.76
   4  -8  -6  -11.74   17.63
   4  -8  -5  425.53   40.52
   4   8  -5  477.37   33.70
   4  -8  -4 1296.27   66.15
   4   8  -4 1271.93   51.30
   4   8  -3  113.30   17.43
   4  -8  -3  132.17   24.99
   4   8  -2  239.55   23.39
   4  -8  -2  289.19   32.68
  -4  -8   1  631.91   37.91
   4  -8  -1  566.58   42.37
   4  -8  -1  508.55   39.01
   4  -8   0 1019.77   54.84
   4  -8   0 1115.05   57.64
  -4  -8   0 1112.08   49.42
  -4  -8  -1  852.44   45.40
   4  -8   1  899.32   53.47
  -4  -8  -2  507.42   40.66
   4  -8   2  614.94   46.99
  -4  -8  -3  416.57   40.04
   4  -8   3  399.50   40.03
  -4  -8  -4  163.21   30.68
   4  -8   4  166.15   30.06
  -4  -8  -5   29.75   27.64
   4  -8   5   20.04   22.14
   4  -9  -7  555.34   55.92
   4  -9  -6   24.36   21.00
   4  -9  -5  307.52   39.69
   4  -9  -4   65.62   22.65
   4  -9  -3  169.81   30.23
   4  -9  -2  153.33   28.04
   4  -9  -1  190.79   30.04
   4  -9   0  225.90   31.19
   4  -9   1    0.44   15.02
   4  -9   2   31.01   19.00
   4  -9   3   37.25   22.06
   4 -10  -4   31.99   27.57
   4 -10  -3  106.78   32.02
   4 -10  -2   64.00   29.22
   5   0 -13  -12.86   20.43
   5   0 -12   34.70   20.95
   5   0 -11   58.70   18.95
   5   0 -10  659.55   34.66
   5   0 -10  600.74   40.85
   5   0  -9  178.28   18.41
   5   0  -9  167.52   21.27
   5   0  -8  266.83   21.17
   5   0  -8  262.22   23.77
   5   0  -7  366.04   23.54
   5   0  -7  352.03   24.80
   5   0  -6 1368.23   42.57
   5   0  -6 1340.16   44.75
   5   0  -5   19.08    7.86
   5   0  -5   40.73    9.12
  -5   0   4  322.81   14.19
   5   0  -4  353.25   21.64
   5   0  -4  357.32   21.13
  -5   0   3  980.72   22.94
  -5   0   3 1022.62   35.27
  -5   0   2 2091.05   35.70
  -5   0   2 2185.94   49.90
   5   0  -2 2071.34   33.74
   5   0  -2 2150.89   53.46
  -5   0   1 1972.12   50.20
   5   0  -1 1824.56   35.99
   5   0  -1 1844.93   52.02
   5   0   0 3480.44   56.14
   5   0   0 3626.42   75.69
   5   0   1 1061.14   34.91
  -5   0  -1 1107.67   42.78
   5   0   1 1117.34   44.49
   5   0   2   60.72   12.50
  -5   0  -2   45.77   12.78
   5   0   2   57.17   11.55
  -5   0  -3   96.73   16.59
   5   0   3  104.31   15.51
   5   0   4 1646.23   63.39
  -5   0  -4 1631.65   64.38
   5   0   5 1247.83   62.12
  -5   0  -5 1233.23   59.84
   5   0   6   28.47   20.11
  -5   0  -6    8.01   16.13
   5   0   7   78.26   24.11
  -5   0  -7   75.36   22.72
   5   0   7   67.95   21.26
  -5   0  -8  -16.47   20.06
   5   0   8  -24.72   22.28
   5   1 -13   40.22   24.34
   5  -1 -13   78.89   27.16
   5   1 -12  176.34   30.39
   5  -1 -12  131.20   26.34
   5   1 -11   86.15   21.71
   5  -1 -11  117.21   23.51
   5  -1 -10  315.30   27.07
   5   1 -10  370.11   33.28
   5  -1 -10  380.58   33.71
   5   1  -9 1166.19   39.43
   5  -1  -9 1210.43   47.58
   5   1  -9 1202.24   52.95
   5  -1  -9 1213.22   52.92
   5   1  -8  158.54   15.82
   5  -1  -8  197.29   19.93
   5   1  -8  162.40   20.37
   5  -1  -8  134.98   17.44
   5   1  -7   10.51    7.99
   5   1  -7   20.04    7.39
   5  -1  -7   18.00    8.30
   5  -1  -7   12.73    7.69
   5  -1  -6  241.67   20.00
   5   1  -6  233.46   20.08
   5  -1  -6  251.07   19.34
   5   1  -6  241.28   17.25
   5   1  -5 2143.11   53.81
   5  -1  -5 2043.18   49.68
   5   1  -5 2068.76   48.21
   5  -1  -5 2174.73   54.52
   5  -1  -4  907.82   31.24
  -5  -1   4  826.31   16.06
   5   1  -4  870.80   33.43
   5   1  -4  871.84   32.30
   5  -1  -4  795.05   32.78
  -5   1   3  645.60   26.71
   5   1  -3  576.38   27.07
  -5  -1   3  683.86   30.28
   5  -1  -3  574.17   27.47
   5   1  -2   35.24    9.87
  -5  -1   2   20.82    7.58
   5  -1  -2   10.31    5.65
  -5   1   2   20.23    5.49
   5  -1  -2   20.13    5.50
   5   1  -1    6.06    6.41
   5  -1  -1   16.10    8.76
  -5  -1   1   -1.52    6.44
  -5   1   1   13.62    5.93
   5   1  -1    7.35    3.89
   5  -1  -1    8.86    5.29
  -5  -1   0  179.46   17.86
   5   1   0  179.89   11.91
   5  -1   0  192.57   15.32
   5  -1   0  160.83   17.41
  -5   1   0  183.60   16.58
  -5   1  -1  369.83   24.27
   5   1   1  318.30   19.35
   5  -1   1  310.17   20.11
  -5  -1  -1  322.65   24.45
   5  -1   1  327.19   25.14
   5   1   2  816.03   35.56
   5  -1   2  865.69   37.39
   5  -1   2  831.79   40.72
  -5  -1  -2  867.01   42.84
  -5   1  -2  910.62   40.72
   5  -1   3    6.68   10.14
  -5   1  -3   25.07   12.37
  -5  -1  -3   14.83   11.94
   5   1   3    9.93   10.24
   5  -1   3    1.12    8.17
   5   1   4  275.75   27.72
   5  -1   4  304.43   28.36
  -5   1  -4  285.60   28.21
  -5  -1  -4  284.66   29.57
   5  -1   4  294.31   28.65
   5   1   5  268.48   30.65
  -5   1  -5  209.40   27.49
   5  -1   5  236.28   28.79
  -5  -1  -5  262.09   30.14
   5  -1   5  265.37   30.34
   5  -1   6   69.51   22.08
  -5   1  -6   79.61   19.10
  -5  -1  -6  121.38   25.80
   5   1   6   91.47   22.89
   5  -1   6   63.67   18.26
   5  -1   7    8.69   19.59
  -5   1  -7   38.68   20.22
  -5  -1  -7   20.31   17.44
   5   1   7   43.19   22.34
   5  -1   7   -0.04   17.58
  -5   1  -8  175.99   33.06
  -5  -1  -8  153.07   31.53
   5   1   8  224.91   37.34
   5  -1   8  150.75   32.08
   5  -2 -13   39.30   25.92
   5  -2 -12  501.34   46.56
  -5  -2  12  512.64   52.86
   5   2 -12  535.37   46.74
   5  -2 -11   93.45   19.87
   5   2 -11  119.18   23.05
   5  -2 -11  128.71   25.29
   5  -2 -10  586.42   41.70
   5  -2 -10  594.84   38.07
   5   2 -10  544.40   40.11
   5  -2  -9   63.38   15.01
   5  -2  -9   69.88   15.68
   5   2  -9  109.41   19.13
   5   2  -8  138.97   13.53
   5  -2  -8  134.86   17.62
   5   2  -8  121.83   17.57
   5  -2  -8  184.88   20.43
   5   2  -7   35.32   10.67
   5   2  -7   23.15    8.19
   5  -2  -7   31.50   11.07
   5  -2  -7   19.81    9.12
   5  -2  -6  117.01   15.19
   5  -2  -6  150.82   16.16
   5   2  -6  110.49   12.07
   5   2  -6  116.88   14.84
   5  -2  -5 1109.13   42.45
  -5  -2   5 1033.29   21.28
   5  -2  -5 1109.78   35.68
   5   2  -5 1061.82   33.81
   5   2  -4   15.05    6.77
   5   2  -4   17.75    6.50
   5  -2  -4    8.97    5.92
   5  -2  -4   22.44    9.12
   5  -2  -3  222.77   14.86
   5   2  -3  199.89   16.75
  -5  -2   3  196.73   18.17
   5  -2  -3  225.90   19.17
  -5  -2   2 2756.99   61.59
   5  -2  -2 2740.08   54.76
  -5   2   2 2788.59   50.33
   5   2  -2 2747.77   61.50
   5  -2  -2 2826.90   63.56
  -5  -2   1  129.61   15.07
  -5   2   1  166.22   14.15
   5   2  -1  131.39    6.58
   5  -2  -1  126.64   13.39
   5  -2  -1  134.49   16.07
  -5   2   0   10.52    7.29
   5  -2   0   -7.76    7.98
  -5  -2   0    5.51    6.96
   5   2   0    1.46    4.73
   5  -2   0    7.83    5.47
   5  -2   1  587.06   31.01
  -5   2  -1  590.72   28.86
   5  -2   1  546.67   31.72
  -5  -2  -1  584.05   33.39
   5  -2   2  919.41   41.42
  -5   2  -2  878.47   38.90
  -5  -2  -2 1008.11   47.77
   5  -2   2  957.76   43.67
   5  -2   3  613.86   36.59
  -5   2  -3  605.11   34.66
  -5  -2  -3  632.10   40.80
   5  -2   3  606.76   37.86
  -5   2  -4  323.08   29.00
   5  -2   4  410.31   34.13
  -5  -2  -4  350.63   33.36
   5  -2   4  360.14   31.91
   5  -2   5   22.60   14.67
  -5   2  -5   20.99   13.90
  -5  -2  -5   19.58   16.36
   5  -2   5    6.15   12.89
   5  -2   6   28.47   20.30
  -5   2  -6   14.56   15.33
  -5  -2  -6  -11.42   16.86
   5  -2   6   36.69   18.55
  -5   2  -7  146.71   28.51
  -5  -2  -7  125.30   27.16
   5  -2   7  162.30   30.28
  -5   2  -8   63.74   25.87
  -5  -2  -8   60.22   26.43
   5   2   8   45.06   25.04
   5  -2   8   41.30   26.67
   5  -3 -13  102.20   31.68
   5  -3 -12   -6.55   20.16
   5  -3 -12    1.53   18.66
   5   3 -12   22.92   20.04
   5  -3 -11   30.44   18.56
   5  -3 -11    6.65   14.68
   5   3 -11    6.42   15.11
  -5  -3  11   30.94   20.09
   5  -3 -10   11.89   11.83
   5   3 -10   14.96   13.35
  -5  -3  10    5.34   17.29
   5  -3 -10    3.36   13.67
   5  -3  -9  734.32   43.00
   5  -3  -9  796.20   44.37
   5   3  -9  810.46   45.57
   5  -3  -8  425.31   31.47
  -5  -3   8  398.43   27.57
   5   3  -8  433.73   31.54
   5  -3  -8  412.39   30.07
   5  -3  -7  684.61   37.78
  -5  -3   7  621.40   27.50
   5   3  -7  723.47   38.31
   5  -3  -7  636.81   32.36
   5   3  -7  642.08   24.92
   5  -3  -6  220.06   21.50
  -5  -3   6  221.66   13.32
   5   3  -6  218.01   20.62
   5  -3  -6  205.45   17.43
   5   3  -6  209.33   15.05
   5  -3  -5  546.35   31.83
   5   3  -5  564.27   30.38
   5  -3  -5  599.18   25.73
   5   3  -5  580.38   25.55
   5   3  -4   -6.46    5.87
   5   3  -4   16.28    7.40
   5  -3  -4   12.34    6.33
   5  -3  -4    8.45    9.94
   5  -3  -3 2613.34   43.84
   5   3  -3 2557.16   58.09
  -5  -3   3 2624.28   63.72
   5  -3  -3 2425.40   62.55
  -5   3   2  922.30   26.97
   5  -3  -2  876.55   37.63
  -5  -3   2  933.97   37.63
   5  -3  -2  914.72   35.84
  -5   3   1   46.88    8.35
   5  -3  -1   22.02    9.48
  -5  -3   1   25.58    9.89
   5   3  -1   19.19    4.00
   5  -3  -1   48.49   10.72
   5  -3   0   36.26    9.98
   5  -3   0   57.95   12.39
  -5   3   0   57.07    9.41
  -5  -3   0   44.33   10.71
   5  -3   1   73.36   13.92
  -5   3  -1  109.73   12.65
   5  -3   1   93.57   15.15
   5  -3   2  525.62   33.60
  -5   3  -2  521.06   29.05
  -5  -3  -2  502.76   34.25
   5  -3   2  534.42   33.32
   5  -3   3  550.55   37.20
  -5   3  -3  467.41   30.42
  -5  -3  -3  543.84   39.33
   5  -3   3  468.73   33.58
  -5   3  -4  773.96   42.25
  -5  -3  -4  813.57   50.34
   5  -3   4  724.03   42.98
   5  -3   5  142.92   22.74
  -5   3  -5  210.17   26.37
   5  -3   5  198.44   28.42
  -5   3  -6   25.01   17.60
  -5  -3  -6   54.80   24.26
   5  -3   6   24.84   18.47
  -5   3  -7  225.69   32.79
   5  -3   7  347.25   43.08
  -5  -3  -7  314.55   41.86
  -5   3  -8  157.56   31.07
   5  -3   8  240.38   42.14
   5  -4 -12  140.40   31.40
   5  -4 -12   98.44   27.54
   5   4 -12  141.11   29.19
   5  -4 -11   34.40   19.64
   5  -4 -11  -10.85   16.30
   5   4 -11   -1.75   16.24
   5  -4 -10  483.80   40.62
   5  -4 -10  418.38   37.61
   5   4 -10  473.36   39.25
   5   4  -9   29.26   14.64
   5  -4  -9   15.95   13.33
   5  -4  -9   39.28   16.25
   5   4  -8   11.11   10.69
   5  -4  -8   -1.31   10.51
  -5  -4   8   11.40    9.16
   5  -4  -8   31.28   14.23
   5   4  -7   75.77   15.28
   5  -4  -7   99.64   17.04
  -5  -4   7   87.27   12.12
   5  -4  -7   86.73   15.76
   5   4  -6   36.09   11.50
   5  -4  -6   70.31   14.34
   5  -4  -6   62.02   12.72
  -5  -4   6   51.55    8.03
   5   4  -6   69.64    9.82
   5  -4  -5  330.93   27.16
   5   4  -5  381.85   26.40
   5   4  -5  303.34   19.26
   5  -4  -5  367.60   20.57
   5  -4  -4   78.05   14.55
   5   4  -4   90.90   13.45
   5   4  -4   87.46   11.90
   5  -4  -4   74.78    8.56
  -5  -4   3   45.64   11.67
   5  -4  -3   53.57   13.33
   5  -4  -3   64.54    7.36
   5  -4  -2 1756.29   56.51
   5  -4  -2 1693.28   53.48
  -5  -4   2 1633.27   51.70
   5  -4  -2 1713.66   28.92
   5  -4  -1   65.42   13.18
   5  -4  -1   75.42   14.48
  -5  -4   1   43.12   11.23
  -5   4   1   62.31    7.87
  -5  -4   0  291.71   24.22
  -5   4   0  339.34   17.45
   5  -4   0  379.37   27.31
   5  -4   0  343.87   25.72
  -5  -4  -1  648.55   38.79
   5  -4   1  611.26   36.77
  -5   4  -1  625.79   26.47
   5  -4   1  654.07   36.40
   5  -4   2   93.74   16.73
  -5   4  -2   97.91   13.87
  -5  -4  -2  110.17   18.38
   5  -4   2  106.32   17.60
  -5   4  -3  173.50   19.65
   5  -4   3  142.63   21.45
  -5  -4  -3  161.32   24.35
   5  -4   3  181.83   22.45
  -5   4  -4  541.25   35.56
   5  -4   4  692.03   47.53
  -5  -4  -4  652.82   48.48
   5  -4   4  601.61   39.53
  -5   4  -5  101.56   21.41
  -5  -4  -5  124.45   26.81
   5  -4   5   68.93   20.94
  -5   4  -6  -26.80   17.25
  -5  -4  -6   28.21   22.36
   5  -4   6   -0.12   17.24
  -5  -4  -7   45.88   26.89
   5  -4   7  -20.28   21.08
   5  -5 -12  159.99   34.13
   5  -5 -11   84.93   25.82
   5   5 -11   62.24   23.19
   5  -5 -10  502.59   43.53
   5   5 -10  555.64   42.71
   5  -5  -9  934.87   54.88
   5   5  -9  950.68   51.06
   5  -5  -8  334.90   30.08
   5  -5  -8  413.50   35.61
   5   5  -8  378.51   32.14
   5  -5  -7   64.95   15.82
   5   5  -7   73.43   16.62
   5  -5  -7   59.37   15.40
   5  -5  -6  130.35   20.10
   5   5  -6  128.07   18.23
   5  -5  -5 2096.01   70.06
   5   5  -5 2118.55   61.87
   5   5  -5 2187.13   50.89
   5  -5  -4 1043.77   48.85
   5   5  -4 1008.37   42.57
   5  -5  -3  248.50   23.41
  -5  -5   3  191.18   20.22
   5  -5  -2  229.14   23.33
   5  -5  -2  194.86   20.82
  -5  -5   2  215.33   20.46
  -5  -5   1   12.59   10.11
   5  -5  -1   25.40   11.91
   5  -5  -1   25.25    9.84
   5  -5   0  301.97   26.58
  -5  -5   0  288.10   25.57
   5  -5   0  287.78   26.13
   5  -5   1  586.28   36.34
  -5  -5  -1  533.26   34.95
   5  -5   1  538.17   36.57
  -5  -5  -2  746.75   47.26
   5  -5   2  700.98   43.24
   5  -5   2  660.66   39.65
   5  -5   3   26.23   12.64
   5  -5   3   46.77   16.12
  -5  -5  -3   46.26   16.68
   5  -5   4   92.16   22.14
  -5  -5  -4   77.26   21.80
   5  -5   5  169.85   29.48
  -5  -5  -5  176.57   32.98
  -5  -5  -6  144.41   32.32
   5  -5   6  196.07   34.96
  -5  -5  -7   45.91   27.10
   5  -6 -11   15.84   22.85
   5   6 -11    9.45   20.83
   5  -6 -10  317.24   39.16
   5   6 -10  283.31   33.97
   5   6  -9    0.92   15.46
   5  -6  -9   20.09   15.99
   5   6  -8   55.98   17.49
   5  -6  -8   73.62   20.80
   5   6  -7  126.41   20.05
   5  -6  -7  128.09   22.47
   5  -6  -6  343.62   33.02
   5   6  -6  324.18   28.05
   5  -6  -5   75.24   15.78
   5   6  -5  103.00   16.35
   5   6  -4   53.38   12.92
   5  -6  -4   66.40   16.32
   5  -6  -3  167.69   22.27
  -5  -6   3  153.38   19.15
   5  -6  -2 1167.25   53.65
   5  -6  -2 1120.97   51.30
  -5  -6   2 1086.07   46.86
   5  -6  -1  425.12   33.16
  -5  -6   1  426.30   30.22
   5  -6  -1  399.54   32.41
   5  -6   0  956.82   48.84
  -5  -6   0  939.71   47.86
   5  -6   0  997.92   50.97
   5  -6   1  426.40   33.97
  -5  -6  -1  478.92   36.29
   5  -6   1  504.22   37.72
  -5  -6  -2    3.92   11.47
   5  -6   2    9.31   12.88
   5  -6   2    4.09   11.33
  -5  -6  -3  176.29   27.79
   5  -6   3  133.31   24.39
   5  -6   4  753.52   54.28
  -5  -6  -4  727.11   53.47
   5  -6   5  383.71   41.89
  -5  -6  -5  388.68   43.95
   5  -6   6   -9.70   22.55
  -5  -6  -6    1.81   23.53
   5   7 -10   48.70   24.33
   5  -7  -9  364.71   42.17
   5   7  -9  371.40   36.84
   5   7  -8   39.70   18.18
   5  -7  -8   22.17   17.35
   5  -7  -7  217.10   30.69
   5   7  -7  168.81   24.25
   5   7  -6  102.58   18.99
   5  -7  -6   87.97   21.45
   5  -7  -5  290.41   31.75
   5   7  -5  264.80   25.70
   5   7  -4   55.71   13.41
   5  -7  -4   32.86   14.08
   5   7  -3  688.44   37.30
   5  -7  -3  705.93   46.63
  -5  -7   2  189.62   22.59
   5  -7  -2  157.68   23.53
   5  -7  -2  190.43   24.45
  -5  -7   1   20.27   11.88
   5  -7  -1   44.84   15.08
   5  -7  -1   43.74   15.29
  -5  -7   0   -0.76   11.59
   5  -7   0   -8.28   13.33
   5  -7   0   -6.62   10.96
   5  -7   1   25.04   16.16
  -5  -7  -1   -6.64   13.49
   5  -7   1   -2.96   12.97
  -5  -7  -2  328.01   33.39
   5  -7   2  327.19   33.66
  -5  -7  -3   93.88   22.19
   5  -7   3  133.02   25.94
  -5  -7  -4  354.66   41.02
   5  -7   4  415.25   44.46
  -5  -7  -5   91.04   29.68
   5  -7   5  162.86   35.72
   5   8  -9   21.39   19.18
   5   8  -8   65.36   21.08
   5  -8  -8   65.39   25.69
   5   8  -7   23.34   17.83
   5  -8  -7    1.44   18.19
   5   8  -6  137.02   23.21
   5  -8  -6  175.33   29.14
   5  -8  -5  412.02   40.42
   5   8  -5  414.83   32.53
   5   8  -4    9.82   12.51
   5  -8  -4   46.31   21.03
   5   8  -3   99.10   18.83
   5  -8  -3  145.70   26.26
   5  -8  -2  948.15   55.56
   5  -8  -1  101.91   22.68
   5  -8  -1  113.53   22.00
  -5  -8   1  133.83   21.88
   5  -8   0    6.71   15.63
   5  -8   0   27.89   19.27
  -5  -8   0   15.42   15.01
  -5  -8  -1  163.45   26.23
   5  -8   1  151.46   26.12
  -5  -8  -2  456.88   41.85
   5  -8   2  450.76   43.27
  -5  -8  -3  269.99   37.28
   5  -8   3  271.97   35.51
  -5  -8  -4   72.31   30.48
   5  -9  -6   79.91   28.36
   5  -9  -5  368.11   43.56
   5  -9  -4   82.43   25.66
   5  -9  -3  503.24   48.26
   5  -9  -2   30.62   20.14
   5  -9  -1    4.73   20.35
   5  -9   0   36.07   18.55
   5  -9   1    0.52   18.30
   5 -10  -4   87.92   31.69
   5 -10  -3  196.88   39.73
   5 -10  -2  179.15   37.61
   6   0 -13   91.75   28.34
   6   0 -12  167.15   30.24
   6   0 -11  445.80   39.18
   6   0 -10   11.83   10.73
   6   0 -10   27.23   14.84
   6   0  -9    0.15    9.46
   6   0  -9   -1.14    9.74
   6   0  -8  910.22   40.11
   6   0  -8  924.94   44.05
   6   0  -7 1038.17   41.42
   6   0  -7  967.47   42.49
   6   0  -6  121.68   14.98
   6   0  -6  108.78   14.94
   6   0  -5  597.89   30.09
   6   0  -5  522.74   28.83
  -6   0   4 1357.11   30.22
   6   0  -4 1392.69   43.77
   6   0  -4 1291.02   44.67
  -6   0   3  325.79   14.81
  -6   0   3  338.64   23.12
   6   0  -3  345.46   24.13
   6   0  -2  745.22   22.67
   6   0  -2  814.75   37.57
  -6   0   1 1003.59   40.29
   6   0  -1  937.08   28.88
  -6   0   0 2916.99   71.42
   6   0   0 2982.20   58.19
   6   0   1 1160.92   39.82
   6   0   1 1036.14   48.14
  -6   0  -1 1122.18   47.26
   6   0   2  917.96   39.79
  -6   0  -2  993.06   49.13
   6   0   2  894.37   47.69
   6   0   3  622.31   36.60
  -6   0  -3  673.88   42.66
   6   0   3  707.45   44.65
   6   0   4  187.77   27.33
   6   0   4  217.00   25.31
  -6   0  -4  226.18   28.77
   6   0   5  266.78   29.81
  -6   0  -5  293.05   33.89
   6   0   5  373.14   36.25
   6   0   6  843.06   55.91
  -6   0  -6  831.48   57.72
   6   0   6  952.19   61.96
   6   0   7  455.24   46.88
  -6   0  -7  502.01   50.08
   6   0   7  459.07   49.01
   6   1 -13   54.84   23.33
   6  -1 -13   72.46   27.63
   6   1 -12  135.92   27.07
   6  -1 -12   84.66   22.72
   6  -1 -11  210.05   25.16
   6   1 -11  229.97   30.01
   6  -1 -11  184.93   28.37
   6  -1 -10    3.41   10.83
   6   1 -10    2.43   10.64
   6  -1 -10   17.68   13.01
   6  -1  -9  126.44   17.88
   6   1  -9   84.83   14.29
   6  -1  -9   70.99   14.38
   6   1  -9  122.54   19.66
   6   1  -8   10.76    9.66
   6   1  -8    0.85    7.58
   6  -1  -8   17.32    8.92
   6  -1  -8   28.56   11.16
   6  -1  -7 1488.89   52.36
   6   1  -7 1452.25   53.40
   6  -1  -7 1479.04   51.11
   6   1  -7 1462.52   46.26
   6   1  -6   14.15    7.25
   6  -1  -6    8.38    6.51
   6   1  -6   24.31    9.78
   6  -1  -6   10.66    8.27
   6  -1  -5 1142.68   39.11
   6   1  -5 1056.57   40.66
   6   1  -5 1066.27   38.95
   6  -1  -5 1001.15   40.35
   6  -1  -4   19.47    7.02
   6   1  -4   35.40   11.04
  -6  -1   4   12.32    9.66
   6  -1  -4   47.33   12.07
  -6  -1   3  287.29   22.07
   6   1  -3  262.37   20.95
   6  -1  -3  234.15   20.46
  -6   1   3  292.03   20.67
  -6  -1   2   64.82   11.26
   6   1  -2   65.44   12.24
   6  -1  -2   59.85   11.89
  -6   1   2   80.37   11.96
   6  -1  -2   64.10   10.08
  -6  -1   1  191.85   19.17
  -6   1   1  174.93   16.86
   6   1  -1  157.28   10.89
   6  -1  -1  155.91   14.79
   6   1  -1  166.06   18.42
   6  -1  -1  165.72   18.15
  -6  -1   0  405.44   28.74
   6   1   0  382.34   19.13
   6  -1   0  358.84   22.76
   6   1   0  422.64   30.24
   6  -1   0  403.10   29.62
   6   1   1  235.99   17.98
   6  -1   1  273.42   22.19
   6   1   1  246.46   25.74
   6  -1   1  261.32   25.26
  -6   1  -1  274.14   23.56
  -6  -1  -1  255.57   24.42
   6   1   2  450.31   27.31
   6  -1   2  417.73   27.90
  -6   1  -2  518.04   34.28
  -6  -1  -2  463.54   35.84
   6  -1   2  468.91   34.13
   6   1   3  138.53   18.67
   6  -1   3  174.93   20.86
  -6   1  -3  163.64   21.81
  -6  -1  -3  166.63   22.04
   6  -1   3  149.03   23.30
   6  -1   4   97.52   22.40
  -6   1  -4   86.76   18.84
  -6  -1  -4  100.45   21.64
   6   1   4   74.33   18.36
   6  -1   4   94.66   19.69
   6  -1   5   21.67   17.33
  -6   1  -5   12.26   15.68
  -6  -1  -5   39.57   18.40
   6   1   5   26.28   15.70
   6  -1   5   45.12   18.54
   6   1   6  380.81   39.88
   6  -1   6  445.71   44.29
  -6   1  -6  468.40   43.48
  -6  -1  -6  406.22   42.96
   6  -1   6  436.24   43.89
  -6   1  -7    4.18   21.17
  -6  -1  -7   31.45   25.14
   6   1   7    4.04   19.60
   6  -1   7   22.97   22.46
   6  -2 -13   14.75   21.66
   6  -2 -12  205.66   31.77
   6   2 -12  247.09   33.93
   6  -2 -11   26.83   14.73
   6   2 -11   44.05   18.23
   6  -2 -11   20.38   17.79
   6  -2 -10  387.18   32.50
   6   2 -10  376.23   33.91
   6  -2 -10  348.77   32.46
   6   2  -9   -0.67   10.08
   6  -2  -9    7.90   11.28
   6  -2  -9   25.83   12.35
   6   2  -8   48.69   13.28
   6   2  -8   34.24    8.70
   6  -2  -8   42.01   13.32
   6  -2  -8   54.76   13.66
   6  -2  -7  107.91   17.25
  -6  -2   7  109.86   12.46
   6   2  -7  131.91   17.36
   6  -2  -7  114.95   15.51
   6   2  -7  131.14   14.34
   6  -2  -6  286.44   24.07
   6   2  -6  282.66   24.00
   6  -2  -6  283.67   21.29
   6   2  -6  304.35   20.97
   6   2  -5  177.04   18.84
   6  -2  -5  185.20   15.98
   6   2  -5  192.00   17.75
   6  -2  -5  161.71   19.29
  -6  -2   4  187.55   19.20
   6  -2  -4  186.45   15.83
   6   2  -4  188.09   17.66
   6  -2  -4  165.46   18.77
  -6   2   3  108.33   13.01
   6  -2  -3  122.94   13.70
  -6  -2   3   99.47   14.22
   6   2  -3  122.11   15.38
   6  -2  -3  119.89   16.41
  -6  -2   2  276.04   22.76
   6  -2  -2  269.61   19.49
  -6   2   2  275.64   18.89
   6   2  -2  279.48   23.28
   6  -2  -2  230.60   21.15
  -6  -2   1  888.68   40.52
   6  -2  -1  885.02   35.43
  -6   2   1  942.95   35.37
   6   2  -1  928.55   42.39
   6  -2  -1  859.62   40.79
  -6   2   0  130.00   15.18
  -6  -2   0  182.88   19.90
   6   2   0  160.33   11.93
   6  -2   0  165.51   17.06
   6  -2   0  184.01   21.42
  -6  -2  -1    1.74   10.28
   6  -2   1   22.05   12.13
   6   2   1   17.66    8.00
   6  -2   1   26.12    9.97
  -6   2  -1   12.16    8.60
   6   2   2  500.13   30.03
   6  -2   2  550.10   35.31
  -6   2  -2  577.03   35.55
  -6  -2  -2  513.05   37.14
   6  -2   2  551.16   37.72
   6  -2   3   55.14   16.69
  -6   2  -3   55.25   15.56
   6   2   3   53.44   15.18
  -6  -2  -3   26.83   13.32
   6  -2   3   53.03   13.93
   6  -2   4   48.56   16.83
  -6   2  -4   46.67   16.63
  -6  -2  -4   50.23   17.68
   6   2   4   22.14   13.69
   6  -2   4   30.89   14.81
   6  -2   5   26.20   21.01
  -6   2  -5   13.29   16.38
  -6  -2  -5    0.24   15.88
   6   2   5   -1.12   14.88
   6  -2   5   29.76   18.41
  -6   2  -6   61.50   22.57
  -6  -2  -6   23.97   20.64
   6   2   6   30.44   19.33
   6  -2   6   39.38   23.51
  -6   2  -7  156.38   31.98
  -6  -2  -7  147.76   33.75
   6   2   7  236.52   37.89
   6  -2   7  210.72   37.81
   6  -3 -13   38.89   26.49
   6  -3 -12  592.66   49.41
   6  -3 -12  572.12   47.61
   6   3 -12  647.83   51.80
   6  -3 -11  808.49   52.05
   6  -3 -11  907.87   53.56
   6   3 -11  990.45   58.19
   6  -3 -10  184.31   26.09
   6  -3 -10  136.91   22.11
   6   3 -10  173.56   25.27
   6  -3  -9  147.36   21.65
   6   3  -9  133.23   22.49
   6  -3  -9  136.47   21.25
   6  -3  -8   97.96   17.49
   6   3  -8  112.05   19.15
   6  -3  -8  138.32   19.34
   6  -3  -7 2560.38   75.81
   6   3  -7 2560.69   74.12
   6  -3  -7 2442.10   62.35
   6   3  -7 2511.25   56.20
   6  -3  -6 1344.63   53.70
   6   3  -6 1363.24   51.11
   6  -3  -6 1230.98   41.35
   6   3  -6 1375.40   42.21
   6  -3  -5  659.97   37.06
   6   3  -5  704.63   36.88
   6  -3  -5  639.89   28.15
   6   3  -5  685.20   31.43
   6  -3  -4 1180.94   48.24
  -6  -3   4 1158.28   46.58
   6  -3  -4 1137.12   34.04
   6   3  -4 1111.54   41.41
   6   3  -3   32.44   10.41
   6  -3  -3   29.88    7.64
   6  -3  -3   34.55   10.43
  -6  -3   3   24.66    9.71
   6  -3  -3   20.46    7.54
  -6  -3   2  318.22   24.97
   6  -3  -2  276.57   22.10
  -6   3   2  310.98   18.90
   6  -3  -2  297.23   24.52
  -6  -3   1 1446.40   53.75
  -6   3   1 1469.67   40.52
   6  -3  -1 1373.37   47.78
   6  -3  -1 1454.02   54.03
  -6  -3   0  691.65   38.68
   6   3   0  638.41   23.13
   6  -3   0  654.67   35.44
   6  -3   0  612.59   36.34
  -6   3  -1   71.05   14.42
  -6  -3  -1   80.71   17.96
   6  -3   1   87.08   17.10
   6   3   1   81.80   12.17
   6  -3   1   80.23   14.10
   6  -3   2   17.53   10.76
  -6   3  -2    6.47    9.62
   6  -3   2   30.63   12.76
  -6  -3  -2   -4.57   10.67
   6  -3   3  150.82   22.58
   6  -3   3  202.33   25.74
  -6   3  -3  173.43   21.87
  -6  -3  -3  167.36   24.88
   6  -3   4  421.10   38.45
  -6   3  -4  425.64   34.76
  -6  -3  -4  403.54   39.68
   6  -3   4  357.05   35.47
   6  -3   5   27.82   19.65
  -6   3  -5   27.22   17.89
  -6  -3  -5   77.02   25.45
   6  -3   5    3.93   16.59
   6   3   6  242.77   34.05
   6  -3   6  305.07   40.60
  -6   3  -6  263.52   34.96
  -6  -3  -6  236.86   36.61
  -6   3  -7   42.98   24.71
   6  -3   7  121.55   32.14
   6  -4 -12  192.67   34.35
   6  -4 -12  172.02   31.90
   6   4 -12  265.51   37.40
   6  -4 -11   29.97   21.26
   6  -4 -11   32.38   18.20
   6   4 -11   56.46   19.51
   6   4 -10   70.91   19.01
   6  -4 -10   83.59   21.78
   6  -4 -10   64.31   21.81
   6   4  -9   38.71   15.56
   6  -4  -9   14.57   14.36
   6  -4  -9   10.81   14.87
   6  -4  -8  314.71   30.63
   6   4  -8  299.63   28.50
   6  -4  -8  315.04   27.32
   6  -4  -7  363.13   31.50
   6   4  -7  418.09   31.46
   6  -4  -7  374.31   25.83
   6   4  -6   37.89   11.99
   6   4  -6   56.43   10.95
   6  -4  -6   35.08   12.80
   6  -4  -6   63.75   12.78
   6   4  -5    5.97    9.88
   6   4  -5   13.99    7.88
   6  -4  -5   17.82   10.36
   6  -4  -5   18.11    8.10
   6  -4  -4  413.55   31.07
  -6  -4   4  474.52   31.74
   6  -4  -4  426.45   20.47
   6   4  -4  452.43   27.75
   6  -4  -3  310.88   26.81
   6  -4  -3  286.74   23.28
   6  -4  -3  283.41   15.41
   6   4  -3  291.47   23.33
  -6  -4   3  319.69   25.43
   6  -4  -2   15.55    6.03
   6  -4  -2   12.54   10.21
  -6  -4   2   20.14    9.49
   6  -4  -2   15.16    7.60
  -6  -4   1  781.42   42.11
   6  -4  -1  756.56   39.50
  -6   4   1  757.66   26.33
   6  -4  -1  746.36   40.65
  -6  -4   0  664.04   39.55
  -6   4   0  648.68   27.75
   6  -4   0  687.14   38.70
   6  -4   0  699.81   40.14
  -6   4  -1  254.00   20.33
  -6  -4  -1  258.16   27.53
   6  -4   1  263.20   25.61
   6  -4   1  246.65   27.15
  -6  -4  -2  414.43   37.83
   6  -4   2  399.92   32.69
  -6   4  -2  393.03   26.88
   6  -4   2  403.81   33.55
   6  -4   3   47.23   16.02
  -6   4  -3   43.80   14.71
   6  -4   3   47.21   15.23
  -6  -4  -3   72.93   21.13
   6  -4   4   11.21   14.50
   6  -4   4    9.64   14.83
  -6  -4  -4   55.57   21.98
  -6  -4  -5   45.83   24.00
   6  -4   5   17.85   19.68
   6  -4   6  256.80   40.41
  -6  -4  -6  194.60   35.85
   6  -5 -12   48.33   27.68
   6  -5 -11   12.22   19.95
   6   5 -11   68.56   23.21
   6   5 -10   -7.27   15.34
   6  -5 -10   46.23   19.66
   6  -5  -9  329.23   34.10
   6   5  -9  306.78   31.56
   6   5  -8   -4.92   10.97
   6  -5  -8   20.98   16.09
   6  -5  -7  520.74   39.68
   6   5  -7  481.04   34.88
   6   5  -6   63.57   13.80
   6  -5  -6   87.39   18.81
   6  -5  -5  693.60   42.90
   6   5  -5  691.93   37.70
   6   5  -5  732.97   34.09
   6  -5  -4  192.17   23.04
   6   5  -4  225.07   22.10
   6  -5  -3  416.06   32.55
  -6  -5   3  465.72   32.31
   6  -5  -2    0.36   11.26
  -6  -5   2   20.36    9.91
   6  -5  -2  -16.20    9.76
  -6  -5   1   -5.97   10.64
   6  -5  -1   26.33   13.91
   6  -5  -1    0.67    9.59
  -6  -5   0  147.40   22.68
   6  -5   0  119.64   20.14
   6  -5   0  165.16   22.87
  -6  -5  -1  439.06   36.13
   6  -5   1  478.03   36.04
   6  -5   1  421.38   33.92
  -6  -5  -2  615.06   46.06
   6  -5   2  728.92   46.75
   6  -5   2  674.44   44.47
  -6  -5  -3   95.61   24.14
   6  -5   3   67.04   20.76
   6  -5   3   84.71   21.19
   6  -5   4   11.04   16.29
  -6  -5  -4   10.94   17.80
   6  -5   5   93.28   28.49
  -6  -5  -5   43.95   21.93
   6   6 -10  -11.25   17.15
   6  -6 -10   24.68   21.24
   6   6  -9  -27.08   17.65
   6  -6  -9   18.45   17.93
   6  -6  -8  404.37   40.32
   6   6  -8  300.03   30.70
   6  -6  -7  283.18   32.18
   6   6  -7  302.96   28.79
   6   6  -6    9.52   11.28
   6  -6  -6   39.08   15.79
   6  -6  -5  135.95   22.16
   6   6  -5  151.90   20.01
   6  -6  -4  536.54   40.09
   6   6  -4  472.31   33.00
   6   6  -4  578.48   34.26
  -6  -6   3  142.37   20.80
   6  -6  -3  120.31   21.86
   6  -6  -2  154.73   23.97
  -6  -6   2  118.46   19.15
   6  -6  -2  189.35   23.32
   6  -6  -1  492.38   38.62
  -6  -6   1  479.85   35.49
   6  -6  -1  517.36   38.97
   6  -6   0  990.61   55.57
  -6  -6   0  998.48   53.35
   6  -6   0 1070.18   55.30
   6  -6   1  365.31   34.67
  -6  -6  -1  388.47   35.64
   6  -6   1  403.76   35.55
   6  -6   2  442.20   40.70
  -6  -6  -2  520.36   43.55
   6  -6   2  460.90   40.34
  -6  -6  -3  186.30   30.28
   6  -6   3  174.96   29.49
  -6  -6  -4   59.83   25.74
   6  -6   4   81.51   25.56
  -6  -6  -5  179.73   37.25
   6  -6   5  107.25   29.70
   6   7 -10   24.58   21.87
   6   7  -9   15.47   17.54
   6  -7  -9   22.19   17.87
   6   7  -8   27.53   15.89
   6  -7  -8   84.14   24.06
   6  -7  -7 1093.97   63.82
   6   7  -7 1160.64   57.79
   6  -7  -6  285.64   33.60
   6   7  -6  278.16   28.29
   6  -7  -5  466.68   41.32
   6   7  -5  429.76   33.21
   6   7  -4  120.52   19.65
   6  -7  -4  118.93   22.46
   6  -7  -3   21.51   17.20
   6  -7  -2  125.96   24.67
   6  -7  -2  148.13   22.81
  -6  -7   2  120.70   20.54
   6  -7  -1  614.97   47.50
   6  -7  -1  586.08   42.71
  -6  -7   1  555.45   39.46
   6  -7   0  341.09   36.01
  -6  -7   0  372.69   33.69
   6  -7   0  406.77   38.64
   6  -7   1    8.54   16.59
   6  -7   1  -14.54   15.48
  -6  -7  -1    2.95   19.40
  -6  -7  -2  -19.67   18.82
   6  -7   2   13.80   14.64
  -6  -7  -3  121.91   31.43
   6  -7   3   83.00   24.44
  -6  -7  -4  218.82   38.18
   6   8  -9   33.73   23.07
   6   8  -8    3.34   18.91
   6   8  -7   26.54   17.51
   6  -8  -7   14.76   18.75
   6   8  -6  129.53   24.30
   6  -8  -6  155.12   30.98
   6   8  -5  132.49   22.12
   6  -8  -5   82.18   23.52
   6   8  -4   68.28   17.93
   6  -8  -4   73.57   24.87
   6   8  -3   29.57   15.97
   6  -8  -3   30.71   19.89
   6  -8  -2  141.75   29.57
  -6  -8   2  160.83   26.30
   6  -8  -1  243.50   35.08
   6  -8  -1  304.60   34.11
  -6  -8   1  302.44   33.53
   6  -8   0    6.55   18.85
  -6  -8   0   12.38   17.08
   6  -8   0   37.34   17.96
  -6  -8  -1    9.88   21.25
   6  -8   1   19.69   19.32
   6  -8   2  244.52   35.77
  -6  -8  -2  223.34   38.24
  -6  -8  -3   23.87   25.21
   6  -9  -5  231.78   35.99
   6   9  -4   55.95   22.06
   6  -9  -4   62.99   26.80
   6   9  -3   10.65   16.64
   6  -9  -3    5.55   20.21
   6   9  -2   21.51   18.94
   6  -9  -2   18.67   20.02
   6  -9  -1   86.18   29.87
   6  -9  -1  101.46   26.75
  -6  -9   1  117.41   26.29
  -6  -9   0  150.54   32.67
  -6  -9  -1    7.67   23.83
   7   0 -12  590.46   48.27
   7   0 -11   58.17   18.94
   7   0 -10   69.53   15.72
   7   0 -10   66.50   16.94
   7   0  -9  103.23   17.06
   7   0  -9  126.89   20.55
   7   0  -8  189.61   21.22
   7   0  -8  208.89   23.68
   7   0  -7   92.03   15.72
   7   0  -7  119.77   17.64
   7   0  -6    2.76    8.02
   7   0  -6   22.05    9.75
   7   0  -5  216.69   20.42
   7   0  -5  216.42   20.93
  -7   0   4  169.55   18.28
   7   0  -4  165.18   18.25
  -7   0   3  377.38   26.32
   7   0  -3  405.64   29.13
  -7   0   2  148.20   17.57
   7   0  -2  141.65   11.66
   7   0  -2  144.01   18.51
   7   0  -1   64.38   15.12
  -7   0   1   71.01   13.82
   7   0  -1   55.05   10.28
   7   0   0   98.89   18.03
  -7   0   0  112.94   17.61
   7   0   0  100.78   13.13
  -7   0  -1  156.31   23.50
   7   0   1  167.76   18.06
   7   0   1  149.44   21.95
   7   0   2  114.78   20.79
   7   0   2   80.52   14.92
  -7   0  -2  106.40   20.89
   7   0   3    8.09   12.18
   7   0   3    8.33   10.96
  -7   0  -3   25.33   15.52
   7   0   4   89.97   23.41
  -7   0  -4   63.18   21.04
   7   0   4   65.48   18.92
   7   0   5   -2.51   17.77
  -7   0  -5    7.31   21.08
   7   0   5   10.21   18.73
   7   0   6  -12.45   22.91
  -7   0  -6   -3.33   20.97
   7   0   6   -7.53   19.96
   7  -1 -13   23.29   23.83
   7   1 -12   60.97   22.65
   7  -1 -12  106.03   25.25
   7  -1 -11   17.57   14.38
   7   1 -11   32.02   16.61
   7  -1 -11   13.55   16.61
   7  -1 -10    9.26   12.80
   7   1 -10    3.92   13.58
   7  -1 -10   19.40   15.04
   7   1  -9 1312.59   50.71
   7  -1  -9 1231.99   54.03
   7   1  -9 1283.00   57.91
   7  -1  -9 1270.61   54.98
   7   1  -8   68.98   16.83
   7   1  -8   80.15   14.43
   7  -1  -8   91.55   16.58
   7  -1  -8  120.41   18.65
   7  -1  -7  389.26   28.68
   7   1  -7  326.86   27.04
   7  -1  -7  339.10   26.16
   7   1  -7  367.08   25.57
   7   1  -6  373.02   27.15
   7  -1  -6  340.40   24.67
   7   1  -6  276.85   22.63
   7  -1  -6  333.37   26.29
   7   1  -5  297.28   24.16
   7  -1  -5  284.76   21.98
   7   1  -5  336.54   24.81
   7  -1  -5  313.22   25.33
  -7  -1   4  549.99   32.77
   7  -1  -4  516.66   27.75
   7   1  -4  551.02   32.61
   7  -1  -4  505.91   31.73
  -7  -1   3 1875.53   58.15
   7   1  -3 1766.03   58.62
  -7   1   3 1886.30   54.91
   7  -1  -3 1792.12   59.44
  -7  -1   2  408.35   28.43
  -7   1   2  350.36   24.21
   7  -1  -2  323.40   19.93
   7   1  -2  306.52   26.61
   7  -1  -2  374.75   29.12
   7   1  -1   87.17   16.97
   7  -1  -1   83.52   16.23
  -7  -1   1   76.35   14.87
   7   1  -1   67.36    8.86
   7  -1  -1   80.78   12.70
  -7   1   1   70.97   13.36
   7   1   0    7.11   10.31
   7  -1   0    6.69   10.05
  -7   1   0    1.35    9.18
  -7  -1   0    1.07    9.87
   7   1   0    1.81    7.49
   7  -1   0    4.07    7.45
   7   1   1    5.68   10.34
  -7   1  -1   -1.38    9.82
   7  -1   1   13.16   10.76
  -7  -1  -1    2.70   11.32
   7   1   1    0.89    7.76
   7  -1   1    2.27    9.00
   7   1   2  909.17   41.20
   7  -1   2 1084.20   50.32
   7   1   2 1020.92   55.38
   7  -1   2  985.55   54.56
  -7   1  -2  889.59   48.32
  -7  -1  -2 1062.61   55.46
   7   1   3   70.58   19.03
   7  -1   3  104.30   22.75
   7   1   3   67.38   15.76
   7  -1   3   91.05   17.90
  -7   1  -3   95.81   20.87
  -7  -1  -3   68.98   20.07
   7   1   4  344.23   32.63
   7  -1   4  436.13   37.85
  -7   1  -4  541.26   44.80
  -7  -1  -4  534.18   47.29
   7   1   4  426.70   41.50
   7  -1   4  517.94   44.60
   7   1   5  148.48   28.79
   7  -1   5  125.55   28.66
  -7   1  -5   63.14   22.54
  -7  -1  -5   84.60   26.15
   7   1   5  108.98   24.05
   7  -1   5  109.78   25.93
   7   1   6   -2.40   20.32
   7  -1   6   30.47   25.55
  -7   1  -6  -22.70   22.31
  -7  -1  -6   24.68   22.44
   7   1   6   12.00   21.11
   7  -1   6   18.94   19.83
   7  -2 -13  111.20   32.74
   7   2 -12   46.40   20.18
   7  -2 -12   47.89   21.88
   7  -2 -11   21.91   16.72
   7   2 -11    4.15   15.22
   7  -2 -11   15.74   17.72
   7  -2 -10  949.06   50.96
   7   2 -10 1029.63   56.16
   7  -2 -10  849.99   49.19
   7  -2  -9  509.29   36.69
   7   2  -9  516.22   38.72
   7  -2  -9  464.64   33.59
   7   2  -8   -9.31   10.34
   7   2  -8   -1.13    8.25
   7  -2  -8   -9.44   12.07
   7  -2  -8    5.51   11.15
   7  -2  -7  442.88   33.22
   7   2  -7  392.93   30.18
   7  -2  -7  352.69   26.01
   7   2  -7  404.49   26.80
   7  -2  -6  107.98   16.64
   7   2  -6  117.48   16.87
   7  -2  -6  117.64   15.26
   7   2  -6  115.46   16.26
   7   2  -5  630.18   35.43
   7  -2  -5  576.21   29.25
   7   2  -5  647.31   34.25
   7  -2  -5  651.82   37.10
  -7  -2   4  778.34   40.29
   7  -2  -4  789.80   34.45
   7   2  -4  662.00   35.56
   7  -2  -4  693.29   38.21
  -7   2   3  756.34   33.81
   7  -2  -3  631.86   29.02
  -7  -2   3  672.00   36.79
   7   2  -3  718.22   37.79
   7  -2  -3  669.27   37.21
  -7  -2   2 1733.83   58.87
   7  -2  -2 1770.95   50.84
  -7   2   2 1853.09   52.01
   7   2  -2 1790.39   61.20
   7  -2  -2 1710.36   60.41
  -7  -2   1  251.58   24.44
  -7   2   1  290.15   23.70
   7  -2  -1  251.12   21.20
   7   2  -1  243.76   24.96
   7  -2  -1  289.08   27.32
  -7  -2   0  320.51   29.21
  -7   2   0  288.48   23.98
   7  -2   0  320.99   25.52
   7   2   0  268.30   27.73
   7  -2   0  339.57   30.82
  -7   2  -1 1057.91   48.05
  -7  -2  -1 1017.24   53.09
   7  -2   1  926.25   44.13
   7  -2   1 1063.77   54.99
  -7  -2  -2   86.28   20.31
   7  -2   2  121.90   22.79
   7  -2   2   97.41   18.34
  -7   2  -2   97.39   18.59
   7  -2   3   51.59   19.50
   7  -2   3   43.41   16.36
  -7   2  -3   80.74   19.56
  -7  -2  -3   19.72   15.92
   7  -2   4  904.99   55.54
  -7   2  -4  877.57   54.12
  -7  -2  -4  910.92   61.36
   7  -2   4  788.30   56.87
   7  -2   5  196.52   30.78
  -7   2  -5  198.86   32.78
  -7  -2  -5  280.85   41.23
   7  -2   5  231.33   36.26
  -7   2  -6   15.84   23.15
  -7  -2  -6   30.09   25.74
   7  -2   6   35.62   23.65
   7  -3 -12   73.78   22.92
   7   3 -12   34.99   20.99
   7  -3 -12   72.73   25.37
   7  -3 -11   46.99   18.41
   7   3 -11   68.22   23.49
   7  -3 -11   71.40   22.17
   7   3 -10   95.98   22.41
   7  -3 -10   86.71   20.26
   7  -3 -10   68.90   18.61
   7  -3  -9  637.29   42.71
   7   3  -9  580.99   41.57
   7  -3  -9  536.36   36.70
   7  -3  -8  227.32   25.97
   7   3  -8  254.78   26.92
   7  -3  -8  178.87   20.86
   7   3  -7   19.74   12.57
   7   3  -7    2.39    8.64
   7  -3  -7    3.86   10.44
   7  -3  -7   17.12   10.58
   7   3  -6    5.25    9.11
   7   3  -6   17.06   10.36
   7  -3  -6   21.48    9.15
   7  -3  -6   13.17   11.15
   7  -3  -5 1429.14   57.36
   7   3  -5 1359.68   52.85
   7  -3  -5 1560.30   45.74
   7   3  -5 1563.90   52.95
   7  -3  -4  215.76   17.06
   7   3  -4  208.68   21.66
   7  -3  -4  188.82   21.57
   7  -3  -3   82.96   14.56
   7  -3  -3  109.41   15.02
   7  -3  -3  115.17   12.78
  -7  -3   3  131.10   18.04
   7   3  -3  128.12   17.70
   7   3  -2   62.42   14.40
   7  -3  -2   42.29   13.77
  -7  -3   2   63.63   15.33
  -7   3   2   43.74   10.09
   7  -3  -2   80.31   14.47
   7   3  -1   54.54   14.85
  -7   3   1   54.87   11.05
   7  -3  -1   57.34   15.70
  -7  -3   1   86.69   18.31
   7  -3  -1   86.75   15.35
  -7  -3   0  833.94   46.33
  -7   3   0  826.60   37.41
   7  -3   0  806.74   41.75
   7  -3   0  738.01   44.32
   7  -3   1   92.84   18.65
  -7   3  -1   53.30   15.23
  -7  -3  -1   30.33   15.11
   7  -3   1   72.54   16.60
  -7   3  -2   87.77   18.50
  -7  -3  -2   90.05   21.14
   7  -3   2   66.46   19.53
   7  -3   2   66.92   16.84
   7  -3   3   23.53   19.08
   7  -3   3   49.94   17.77
  -7   3  -3   47.98   17.98
  -7  -3  -3   75.75   20.14
   7  -3   4  287.52   35.21
  -7   3  -4  254.77   30.65
  -7  -3  -4  252.80   36.92
   7  -3   4  239.86   34.54
  -7   3  -5    4.52   20.00
   7  -3   5   24.82   19.98
  -7  -3  -5   12.30   22.50
   7  -3   6  115.71   36.08
   7  -4 -12  124.19   29.96
   7  -4 -11    0.20   16.96
   7   4 -11   38.46   20.49
   7  -4 -10  366.56   37.07
   7   4 -10  339.15   35.62
   7   4  -9   17.65   14.79
   7  -4  -9   33.66   15.21
   7   4  -8    6.13   12.02
   7  -4  -8   41.54   16.70
   7  -4  -8    6.02   11.84
   7   4  -7   42.34   14.02
   7   4  -7   30.49   11.54
   7  -4  -7   20.63   13.28
   7  -4  -7    2.58    9.23
   7   4  -6   13.21   12.26
   7   4  -6   15.35   10.00
   7  -4  -6    6.69   10.65
   7  -4  -6    2.27    8.49
   7  -4  -5  231.37   25.86
   7   4  -5  245.47   24.73
   7  -4  -5  218.40   17.75
   7   4  -5  245.45   22.66
   7   4  -4   56.99   13.68
   7  -4  -4   53.63   10.40
   7  -4  -4   63.06   16.40
  -7  -4   4   28.76   11.46
   7  -4  -3  321.72   26.25
  -7  -4   3  391.22   30.71
   7   4  -3  376.58   29.58
   7  -4  -3  356.76   31.57
  -7  -4   2  702.95   40.01
   7  -4  -2  711.03   38.86
   7  -4  -2  649.85   40.52
   7  -4  -1    1.20   10.03
   7  -4  -1    2.75   10.21
  -7  -4   1   15.36   12.67
  -7  -4   0  200.09   25.27
   7  -4   0  207.62   24.24
   7  -4   0  188.70   26.30
  -7  -4  -1  324.59   32.82
   7  -4   1  307.67   30.42
   7  -4   1  278.88   31.18
  -7  -4  -2  -15.05   14.45
   7  -4   2   -7.77   14.68
   7  -4   2   10.14   13.96
  -7  -4  -3   17.77   19.33
   7  -4   3   22.03   19.12
   7  -4   3   -0.53   14.43
   7  -4   4  288.48   36.05
  -7  -4  -4  293.43   39.77
   7  -4   5   92.42   27.82
  -7  -4  -5   57.31   26.20
   7   5 -11  107.09   27.68
   7  -5 -11   80.90   25.72
   7   5 -10  -23.60   18.18
   7  -5 -10   40.55   20.89
   7  -5  -9 1086.96   61.84
   7   5  -9 1122.25   60.38
   7  -5  -8  252.12   30.72
   7   5  -8  259.79   30.48
   7  -5  -7  397.38   36.40
   7   5  -7  355.94   31.74
   7  -5  -6  400.27   35.79
   7   5  -6  429.86   33.27
   7   5  -6  405.31   27.59
   7   5  -5   27.77   12.97
   7   5  -5   17.44   12.11
   7  -5  -5    7.35   12.79
   7  -5  -4  297.90   30.47
  -7  -5   4  299.32   28.29
   7   5  -4  335.23   27.16
   7  -5  -3 2122.69   77.96
   7  -5  -3 1942.29   67.36
   7   5  -3 1896.73   66.72
  -7  -5   3 1963.83   68.66
   7  -5  -2  654.97   43.84
   7  -5  -2  610.64   38.78
  -7  -5   2  563.66   37.90
  -7  -5   1    9.53   10.76
   7  -5  -1    7.53   12.21
   7  -5  -1   26.62   13.83
   7  -5   0  106.66   20.80
  -7  -5   0  113.54   23.22
   7  -5   0   85.87   19.04
   7  -5   1   16.40   15.48
  -7  -5  -1   25.35   19.48
   7  -5   1   -4.04   11.67
  -7  -5  -2 1056.18   62.22
   7  -5   2 1104.07   60.96
   7  -5   2  984.32   58.51
  -7  -5  -3  260.80   34.85
   7  -5   3  247.08   34.06
  -7  -5  -4  429.87   48.97
   7  -5   4  371.85   42.65
   7   6 -10   84.65   23.55
   7  -6 -10   74.78   25.17
   7   6  -9   -1.67   14.76
   7  -6  -9    8.31   18.83
   7   6  -8   73.44   20.10
   7  -6  -8   59.11   20.81
   7   6  -7    0.93   12.11
   7  -6  -7   18.32   20.12
   7   6  -6   13.22   14.55
   7  -6  -6   -6.82   13.07
   7  -6  -5  208.56   29.27
   7   6  -5  183.28   22.83
   7   6  -5  171.79   21.36
   7   6  -4   15.45   13.45
   7   6  -4    2.87   11.14
   7  -6  -4   -4.39   13.50
  -7  -6   3  223.58   26.27
   7  -6  -3  283.16   31.76
   7  -6  -2  177.22   28.30
   7  -6  -2  173.20   23.76
  -7  -6   2  168.30   24.52
   7  -6  -1    7.10   14.12
  -7  -6   1   15.87   14.82
   7  -6  -1   14.38   13.78
   7  -6   0  117.99   26.22
   7  -6   0   96.76   23.65
  -7  -6   0   64.68   21.97
   7  -6   1  185.19   31.18
   7  -6   1  182.52   27.17
  -7  -6  -1  170.98   29.86
  -7  -6  -2    0.76   19.64
   7  -6   2   35.85   19.45
  -7  -6  -3   24.36   21.11
   7  -6   3    7.84   18.70
   7   7  -9  332.48   37.70
   7   7  -8   16.57   18.32
   7  -7  -8   10.13   20.27
   7   7  -7   57.08   20.04
   7  -7  -7   14.80   18.10
   7   7  -6   21.80   14.79
   7  -7  -6   13.96   16.13
   7  -7  -5  610.57   49.61
   7   7  -5  547.13   39.32
   7  -7  -4  192.93   29.83
   7   7  -4  188.91   25.57
   7  -7  -3  307.50   36.71
  -7  -7   3  234.24   28.42
   7  -7  -2   16.13   18.07
  -7  -7   2   11.12   16.53
   7  -7  -2   19.69   14.08
   7  -7  -1   85.32   24.99
   7  -7  -1   32.45   16.89
  -7  -7   1   31.34   16.92
   7  -7   0  180.49   32.38
  -7  -7   0  199.47   30.65
   7  -7   0  168.69   27.28
   7  -7   1   12.13   17.89
  -7  -7  -1   71.67   26.42
   7  -7   2  246.22   35.77
  -7  -7  -2  193.57   36.35
   7   8  -8   10.91   22.78
   7   8  -7  193.27   29.74
   7   8  -6   37.63   17.78
   7  -8  -6   38.87   19.37
   7  -8  -5  270.05   37.16
   7   8  -5  237.47   28.94
   7  -8  -4  378.65   42.51
   7   8  -4  339.35   34.19
   7  -8  -3  274.79   38.00
   7   8  -3  263.56   29.52
  -7  -8   2  813.53   53.59
   7  -8  -2  728.84   56.72
   7  -8  -1  166.36   34.70
  -7  -8   1  105.53   26.69
   7  -8  -1  155.57   27.48
  -7  -8   0   90.60   25.57
   7  -8   0   91.11   25.03
  -7  -8  -1  471.17   47.63
   7   9  -4   48.85   21.40
   7   9  -3  176.44   31.35
   7  -9  -3  138.11   36.11
   7  -9  -2    1.72   26.75
   8   0 -12  493.13   46.48
   8   0 -11  308.49   34.49
   8   0 -10  201.68   25.87
   8   0 -10  194.54   28.04
   8   0  -9  147.77   21.57
   8   0  -9  179.20   23.65
   8   0  -8   23.23   14.47
   8   0  -8   24.66   12.80
   8   0  -7  508.33   34.72
   8   0  -7  529.55   34.36
   8   0  -6 1250.54   50.89
   8   0  -6 1248.09   52.23
   8   0  -5  644.94   37.04
   8   0  -5  580.23   36.20
  -8   0   4  982.97   45.05
   8   0  -4  958.79   46.38
   8   0  -3   39.06   12.85
  -8   0   3   77.61   14.67
   8   0  -2    3.21   10.46
  -8   0   2    3.24    9.87
  -8   0   1 1977.22   68.43
   8   0  -1 1870.28   71.38
   8   0   0    3.07   11.46
  -8   0   0   58.80   16.03
   8   0   1   21.66   15.85
  -8   0  -1   67.28   17.93
  -8   0  -2 1331.82   67.87
   8   0   2 1146.30   63.90
   8   0   3   14.27   21.49
  -8   0  -3   -2.68   16.68
   8   0   4   45.47   24.17
  -8   0  -4  123.87   29.07
   8   0   5   91.39   31.36
  -8   0  -5   77.18   29.54
   8   1 -12  172.72   30.97
   8  -1 -12   93.06   26.08
   8  -1 -11  265.00   30.20
   8  -1 -11  240.36   32.17
   8   1 -10   88.81   20.24
   8  -1 -10  112.59   21.02
   8  -1 -10   78.83   18.42
   8   1  -9   -0.90   11.28
   8   1  -9   -8.46   11.21
   8  -1  -9   -1.16   11.11
   8  -1  -8  233.12   26.70
   8   1  -8  217.32   25.13
   8  -1  -8  197.38   23.41
   8   1  -8  157.39   20.30
   8   1  -7 1032.73   49.51
   8  -1  -7 1024.37   46.86
   8   1  -7 1007.86   45.98
   8  -1  -7 1104.07   51.04
   8   1  -6  218.13   23.02
   8  -1  -6  215.96   21.35
   8   1  -6  224.60   23.00
   8  -1  -6  194.92   23.38
   8   1  -5  449.85   31.63
   8  -1  -5  422.01   28.19
   8   1  -5  459.95   31.75
   8  -1  -5  442.55   32.45
   8   1  -4   96.37   17.27
   8  -1  -4   97.53   17.58
  -8  -1   4   95.66   18.30
   8   1  -3   17.54   13.24
  -8  -1   3   31.86   11.47
   8  -1  -3   41.34   14.77
  -8   1   3   22.58   10.87
   8   1  -2   77.78   16.43
   8  -1  -2   72.72   16.20
  -8  -1   2  105.37   17.25
  -8   1   2  104.68   16.46
   8  -1  -2  107.79   13.80
  -8  -1   1  550.32   38.33
  -8   1   1  556.63   36.54
   8  -1  -1  459.71   26.98
   8   1  -1  538.49   39.25
   8  -1  -1  440.36   36.09
  -8  -1   0  409.65   34.42
  -8   1   0  363.65   31.23
   8  -1   0  340.08   26.14
   8   1   0  387.93   35.14
   8  -1   0  399.56   36.08
   8   1   1    6.01   13.21
   8  -1   1   -5.49   14.25
  -8   1  -1   16.33   14.22
  -8  -1  -1   16.32   14.93
   8  -1   1   17.51   11.22
  -8   1  -2  188.16   27.75
   8   1   2  164.50   27.02
   8  -1   2  155.00   27.84
   8  -1   2  135.60   21.41
  -8  -1  -3   14.37   20.12
   8   1   3   21.74   19.31
   8  -1   3   15.93   19.12
   8  -1   3   15.76   17.10
  -8   1  -3   34.75   21.58
   8  -1   4  200.52   35.81
   8  -1   4  201.97   32.14
   8   1   4  218.97   36.46
  -8   1  -4  199.14   32.79
  -8  -1  -4  163.11   31.99
   8   1   5   -0.17   23.44
   8  -1   5   11.77   23.55
  -8   1  -5  -12.72   22.49
  -8  -1  -5   -8.75   23.05
   8   2 -12  141.46   29.20
   8  -2 -12  134.70   30.38
   8  -2 -11  102.67   22.36
   8   2 -11  113.39   24.58
   8  -2 -11   87.58   23.04
   8   2 -10   48.77   18.63
   8  -2 -10   97.33   22.75
   8  -2 -10   43.72   18.08
   8  -2  -9  169.09   24.81
   8   2  -9  142.75   24.36
   8  -2  -9  142.98   21.83
   8  -2  -8  609.77   41.34
   8   2  -8  735.38   45.00
   8  -2  -8  609.12   37.11
   8   2  -8  597.04   35.55
   8  -2  -7  278.00   29.42
   8   2  -7  243.97   26.08
   8  -2  -7  231.49   23.14
   8   2  -7  202.14   21.76
   8   2  -6   30.94   12.31
   8   2  -6   42.60   13.61
   8  -2  -6   18.92   10.87
   8  -2  -6   37.32   14.88
   8   2  -5    8.99    9.35
   8  -2  -5    5.23    7.68
   8   2  -5   -8.74    9.98
   8  -2  -5   16.71   11.56
  -8  -2   4  222.95   25.16
   8  -2  -4  148.13   17.65
   8   2  -4  190.31   21.70
   8  -2  -4  181.78   23.03
  -8   2   3  540.19   32.06
  -8  -2   3  481.48   34.24
   8   2  -3  502.19   35.60
   8  -2  -3  432.40   34.13
   8   2  -2   14.32   13.38
   8  -2  -2    5.45   10.97
  -8  -2   2    9.83   10.02
  -8   2   2   12.49   10.46
   8  -2  -2    3.19    8.13
  -8  -2   1  232.87   27.79
  -8   2   1  218.99   23.53
   8  -2  -1  204.02   21.31
   8   2  -1  207.43   25.66
   8  -2  -1  240.46   28.16
  -8  -2   0  444.40   37.19
  -8   2   0  487.68   33.80
   8  -2   0  457.73   32.24
   8   2   0  414.49   36.64
   8  -2   0  448.11   37.76
   8   2   1   74.01   20.17
   8  -2   1   88.02   20.14
  -8   2  -1   51.39   15.33
  -8  -2  -1   52.24   17.93
   8  -2   1   73.65   17.88
   8   2   2  157.92   27.81
  -8  -2  -2  177.47   29.66
  -8   2  -2  129.91   23.63
   8  -2   2  166.68   28.49
   8  -2   2  148.97   22.67
  -8   2  -3   58.32   21.59
   8   2   3   51.69   22.00
  -8  -2  -3   88.83   26.26
   8  -2   3   75.36   26.02
   8  -2   3   73.88   21.14
   8   2   4   12.79   22.19
   8  -2   4   47.71   28.28
   8  -2   4   -0.14   17.82
  -8   2  -4   35.78   22.64
  -8  -2  -4   -7.78   20.10
   8  -2   5   40.41   26.72
  -8   2  -5   64.36   28.28
   8  -3 -12    6.04   21.05
   8  -3 -11  444.57   41.62
   8   3 -11  428.88   42.38
   8  -3 -11  340.66   37.54
   8   3 -10   -3.01   14.40
   8  -3 -10   -5.51   14.20
   8  -3 -10   12.02   15.21
   8   3  -9   42.50   17.18
   8  -3  -9   18.93   13.69
   8  -3  -8  443.08   37.02
   8   3  -8  411.79   35.18
   8  -3  -8  434.72   31.33
   8   3  -8  393.84   28.58
   8   3  -7   32.55   14.03
   8   3  -7   43.72   12.97
   8  -3  -7   16.36   11.42
   8  -3  -7   43.66   13.32
   8   3  -6   97.21   16.93
   8   3  -6   77.05   16.05
   8  -3  -6   75.94   14.40
   8  -3  -6   77.71   17.03
   8   3  -5 1103.32   50.94
   8  -3  -5 1039.68   40.68
   8   3  -5 1060.71   48.61
   8  -3  -5 1001.35   51.66
   8  -3  -4   26.54    9.98
   8   3  -4   16.42   11.24
   8  -3  -4   18.18   13.73
  -8  -3   4    7.15   11.52
   8   3  -3  102.23   18.32
  -8  -3   3   92.01   17.56
   8  -3  -3   99.54   20.38
   8  -3  -3  107.81   17.21
  -8  -3   2  132.07   20.83
   8  -3  -2  150.75   20.25
   8   3  -2  181.94   24.73
  -8   3   2  153.49   18.67
   8  -3  -2  142.72   23.05
   8   3  -1   24.73   16.51
   8  -3  -1   28.40   16.26
  -8   3   1    7.94   11.18
   8  -3  -1   10.48   10.46
  -8  -3   1   11.64   14.90
  -8  -3   0  770.89   48.91
  -8   3   0  816.85   42.06
   8  -3   0  880.30   46.09
   8   3   0  749.63   49.83
   8  -3   0  840.71   52.36
  -8  -3  -1  333.95   36.84
  -8   3  -1  347.07   31.14
   8  -3   1  380.77   33.68
   8   3   1  304.97   35.09
   8  -3   1  396.25   38.73
  -8  -3  -2  528.12   45.51
   8  -3   2  554.92   42.65
   8  -3   2  578.46   47.74
  -8  -3  -3  100.86   27.66
   8  -3   3  114.59   30.81
   8  -3   3   77.12   22.49
  -8  -3  -4   55.52   27.92
   8  -3   4    8.45   23.81
   8  -3   4    4.41   19.98
   8  -3   5    3.68   23.89
   8   4 -11   37.15   22.51
   8  -4 -11   -8.66   18.28
   8   4 -10   57.16   20.99
   8  -4 -10   69.70   21.48
   8   4  -9   10.28   16.17
   8  -4  -9   17.73   15.47
   8   4  -8  133.57   23.46
   8  -4  -8  144.97   24.95
   8  -4  -7  281.51   31.40
   8   4  -7  253.03   28.06
   8   4  -7  219.69   22.59
   8  -4  -6  125.20   22.02
   8   4  -6  162.34   21.94
   8   4  -6  135.00   19.66
   8   4  -5   71.19   16.50
   8   4  -5   38.15   13.35
   8  -4  -5   57.25   15.91
   8  -4  -4  359.01   33.95
  -8  -4   4  371.39   32.00
   8   4  -4  310.50   28.58
   8   4  -3   33.75   13.81
   8  -4  -3   19.40   12.51
  -8  -4   3   31.71   15.27
   8  -4  -3   33.51   12.85
   8   4  -2   19.64   13.97
   8  -4  -2   18.44   14.29
  -8  -4   2   14.93   14.08
   8  -4  -2    7.19    9.69
  -8  -4   1  541.90   41.36
   8  -4  -1  540.32   37.75
   8   4  -1  568.73   43.38
   8  -4  -1  552.11   42.75
   8  -4   0   77.74   21.50
  -8  -4   0   69.19   20.32
   8  -4   0   64.66   18.71
   8  -4   1   58.56   21.23
  -8  -4  -1   42.13   20.54
   8  -4   1   94.03   22.27
  -8  -4  -2  427.35   42.09
   8  -4   2  395.60   42.66
   8  -4   3    8.97   22.73
  -8  -4  -3    0.40   19.10
   8  -4   3  -10.47   20.15
   8  -4   4    7.59   20.60
   8   5 -10  161.83   29.35
   8  -5 -10  201.69   32.84
   8   5  -9   24.43   17.40
   8  -5  -9   26.82   20.63
   8   5  -8   46.97   15.86
   8  -5  -8   56.78   19.27
   8  -5  -7 1250.85   65.32
   8   5  -7 1262.38   60.41
   8  -5  -6  163.97   26.21
   8   5  -6  194.30   24.82
   8   5  -6  163.94   21.38
   8  -5  -5  188.43   26.86
   8   5  -5  113.45   20.74
   8   5  -5  157.42   21.92
   8  -5  -4  183.73   27.44
  -8  -5   4  228.63   27.49
   8   5  -4  225.31   25.93
   8   5  -3    5.84   12.97
   8  -5  -3   -2.55   14.14
  -8  -5   3   -3.23   13.47
   8  -5  -2  341.65   35.62
   8  -5  -2  224.51   26.73
  -8  -5   2  230.60   28.23
   8   5  -2  300.50   32.45
  -8  -5   1  622.46   45.23
   8  -5  -1  614.86   43.35
   8  -5  -1  561.28   45.86
   8  -5   0  190.07   29.53
   8  -5   0  198.34   27.98
  -8  -5   0  157.48   26.66
   8  -5   1   31.74   23.52
  -8  -5  -1   17.76   17.33
   8  -5   1   45.76   19.52
   8  -5   2   22.07   23.79
  -8  -5  -2   96.42   28.38
   8  -5   2   46.22   21.38
   8  -5   3   -3.15   20.04
   8   6  -9   19.68   19.04
   8  -6  -9   39.18   22.77
   8   6  -8   48.39   20.28
   8  -6  -8   35.53   19.45
   8  -6  -7  200.89   31.14
   8   6  -7  237.73   30.48
   8  -6  -6  358.75   38.83
   8   6  -6  380.32   34.68
   8  -6  -5  225.92   32.53
   8   6  -5  240.56   29.97
   8   6  -5  219.44   26.94
   8  -6  -4  386.23   40.26
   8   6  -4  362.03   32.82
   8   6  -3   11.75   14.50
  -8  -6   3   -3.70   17.07
   8  -6  -3   -9.82   17.35
  -8  -6   2   22.91   16.89
   8  -6  -2  -17.38   17.85
   8  -6  -2   14.74   16.51
   8  -6  -1  761.42   56.77
   8  -6  -1  818.27   52.54
  -8  -6   1  784.79   52.03
  -8  -6   0    5.06   18.98
   8  -6   0   15.27   23.22
   8  -6   0   28.18   18.28
   8  -6   1   22.23   25.64
  -8  -6  -1   27.60   22.92
   8  -6   1   26.64   17.81
   8  -6   2  422.56   44.82
   8   7  -8  228.57   32.55
   8   7  -7   79.70   22.52
   8  -7  -7  135.80   28.96
   8   7  -6   62.83   19.79
   8  -7  -6   18.56   18.63
   8  -7  -5  463.51   45.74
   8   7  -5  483.31   39.44
   8   7  -4   -1.07   13.73
   8  -7  -4  -10.90   21.29
   8   7  -3    2.38   15.91
   8  -7  -3   31.99   20.75
  -8  -7   3   19.24   19.87
   8  -7  -2   35.05   21.77
  -8  -7   2  -20.62   19.17
   8  -7  -2   14.15   17.17
   8  -7  -1   42.57   26.79
   8  -7  -1   69.56   20.86
  -8  -7   1   46.94   22.27
   8  -7   0  219.23   39.13
  -8  -7   0  294.18   37.91
   8  -7   0  242.17   33.90
   8   8  -5  -13.54   18.44
   8   8  -4   27.47   20.46
   8  -8  -4   31.96   26.66
   8  -8  -3  215.06   38.78
   8  -8  -2   31.04   27.14
  -8  -8   2  -10.62   21.64
   8  -8  -1   26.53   29.65
   9   0 -12   55.71   24.35
   9   0 -11  131.40   25.86
   9   0 -10 1176.44   59.29
   9   0 -10 1323.85   65.99
   9   0  -9  193.61   26.19
   9   0  -9  247.56   29.60
   9   0  -8    4.29   11.41
   9   0  -8   24.17   14.20
   9   0  -7   82.48   17.98
   9   0  -7  130.52   20.37
   9   0  -6   12.42   10.76
   9   0  -6   32.44   15.80
   9   0  -5 1811.61   64.07
   9   0  -5 1699.69   66.48
  -9   0   4  685.51   41.70
   9   0  -4  640.26   41.38
  -9   0   3  341.25   31.17
   9   0  -3  341.30   31.97
  -9   0   2  606.13   40.22
   9   0  -2  605.99   44.13
   9   0  -1   56.82   18.27
  -9   0   1  117.16   22.00
   9   0   0   14.90   17.34
  -9   0   0   14.17   15.25
  -9   0  -1 1106.96   61.50
   9   0   1 1130.09   66.63
   9   0   2    3.51   20.42
  -9   0  -2    2.31   18.12
   9   0   3   32.90   22.70
  -9   0  -3   45.92   23.82
   9  -1 -12   55.86   24.49
   9  -1 -11  -20.84   18.85
   9   1 -11   -6.97   17.13
   9  -1 -11   11.38   17.19
   9   1 -10   48.04   19.68
   9  -1 -10   33.16   18.23
   9  -1 -10   56.12   21.13
   9   1  -9  321.45   30.69
   9  -1  -9  275.41   30.73
   9   1  -9  267.85   31.64
   9  -1  -9  271.33   30.36
   9   1  -8   10.44   13.58
   9  -1  -8   14.54   13.30
   9   1  -8   21.92   12.87
   9  -1  -8   18.95   13.28
   9   1  -7  187.73   24.47
   9  -1  -7  250.02   26.10
   9   1  -7  285.02   27.79
   9  -1  -7  222.79   26.05
   9   1  -6  128.27   19.48
   9  -1  -6  104.09   17.36
   9   1  -6  130.56   19.96
   9  -1  -6  128.79   20.30
   9   1  -5  172.39   22.54
   9  -1  -5  189.01   22.70
   9   1  -5  174.67   22.66
   9  -1  -5  197.35   25.21
   9   1  -4   10.19   11.51
   9  -1  -4   -5.22   12.16
  -9  -1   4   31.93   15.68
  -9  -1   3  345.49   31.02
   9   1  -3  333.26   32.57
  -9   1   3  398.44   31.98
   9  -1  -3  370.30   34.30
   9   1  -2  108.36   21.96
   9  -1  -2  136.47   22.78
  -9   1   2  134.76   20.53
  -9  -1   2  165.76   23.51
  -9   1   1   28.04   15.21
   9   1  -1   79.63   22.05
   9  -1  -1   64.77   20.74
  -9  -1   1   46.77   17.82
   9   1   0  102.06   23.57
   9  -1   0   94.21   22.64
  -9  -1   0  138.81   24.47
  -9   1   0  121.94   23.44
   9   1   1   18.30   18.15
   9  -1   1   28.23   19.75
  -9  -1  -1  -14.49   17.30
  -9   1  -1   -4.99   15.46
   9   1   2   85.73   26.04
   9  -1   2  108.83   27.93
  -9   1  -2   89.02   24.17
  -9  -1  -2  123.41   28.18
   9   1   3    3.98   22.09
   9  -1   3   -2.61   22.99
  -9   1  -3  -27.26   22.95
  -9  -1  -3   19.70   22.69
  -9   1  -4  242.23   40.46
   9  -2 -12  129.08   30.72
   9   2 -11   12.44   17.13
   9  -2 -11   32.11   20.05
   9  -2 -11   19.71   18.34
   9   2 -10  113.64   25.50
   9  -2 -10   86.50   22.14
   9  -2 -10   90.21   21.63
   9   2  -9   52.11   19.31
   9  -2  -9   65.06   19.55
   9  -2  -9   41.88   16.83
   9  -2  -8  273.09   31.88
   9   2  -8  355.42   33.70
   9  -2  -8  295.22   29.43
   9   2  -8  274.26   27.25
   9  -2  -7  136.48   23.02
   9   2  -7   87.13   19.49
   9   2  -7  110.55   18.91
   9  -2  -7   81.39   17.17
   9   2  -6   35.20   15.24
   9  -2  -6   53.15   13.88
   9   2  -6   47.26   14.63
   9  -2  -6   47.98   14.87
   9   2  -5   33.79   13.45
   9  -2  -5   22.80   10.86
   9   2  -5   17.50   11.64
   9  -2  -5    8.06   13.76
   9  -2  -4   24.45   12.67
   9   2  -4   25.06   11.67
   9  -2  -4  -12.95   14.82
  -9  -2   4   21.36   15.23
  -9   2   3 1009.49   47.42
  -9  -2   3 1042.29   53.89
   9   2  -3  994.78   54.57
   9  -2  -3 1004.28   54.20
  -9   2   2  -13.59   13.04
   9   2  -2    7.11   13.05
   9  -2  -2    1.00   11.66
  -9  -2   2    8.73   11.77
   9   2  -1    2.24   13.16
   9  -2  -1   17.85   16.82
  -9   2   1   16.32   14.24
  -9  -2   1   13.16   14.36
  -9  -2   0  551.90   44.65
  -9   2   0  422.52   36.61
   9   2   0  441.09   42.31
   9  -2   0  527.91   44.37
   9   2   1   52.68   22.07
   9  -2   1   85.91   25.47
  -9  -2  -1   19.25   20.39
  -9   2  -1   17.65   17.20
   9   2   2   42.73   21.47
   9  -2   2   40.92   24.80
  -9  -2  -2   46.80   22.19
  -9   2  -2   46.75   19.58
   9   2   3   66.58   25.66
   9  -2   3  140.49   34.78
  -9   2  -3   71.95   26.41
  -9  -2  -3  131.18   33.93
   9  -3 -11   68.53   24.32
   9   3 -10   10.83   17.89
   9  -3 -10   -9.48   16.17
   9  -3  -9 1254.83   66.63
   9   3  -9 1311.03   67.13
   9   3  -8  130.80   23.31
   9  -3  -8   99.21   22.78
   9   3  -7    0.35   12.35
   9   3  -7   14.14   12.92
   9  -3  -7   -0.25   14.55
   9  -3  -6  412.03   36.92
   9   3  -6  419.32   34.99
   9   3  -6  444.19   34.86
   9   3  -5   80.50   16.83
   9  -3  -5   74.45   18.71
   9   3  -4  348.05   33.39
   9  -3  -4  292.02   31.44
  -9  -3   3 1405.57   64.45
   9  -3  -3 1402.26   66.80
   9   3  -2  106.03   22.51
   9  -3  -2   69.04   20.84
   9  -3  -2   69.75   15.69
  -9  -3   1   30.45   17.48
   9   3  -1    6.69   14.24
   9  -3  -1   15.47   15.40
   9  -3  -1    6.64   13.20
   9   3   0   53.28   22.92
   9  -3   0   47.32   20.93
  -9  -3   0   31.56   18.97
   9  -3   0   21.13   15.37
   9   3   1   14.05   19.93
   9  -3   1   11.71   18.44
  -9  -3  -1   21.30   18.53
  -9  -3  -2  626.22   54.96
   9   3   2  644.81   56.13
   9  -3   2  567.82   53.61
   9  -3   3  103.45   33.96
   9  -4 -10  315.71   39.13
   9   4 -10  341.72   38.97
   9   4  -9   78.84   22.27
   9  -4  -9    5.62   16.81
   9   4  -8   40.90   18.69
   9  -4  -8   72.33   20.38
   9   4  -7    6.41   14.04
   9   4  -7  -21.13   14.37
   9  -4  -7    7.53   16.14
   9   4  -6   34.94   15.36
   9   4  -6   56.39   18.54
   9  -4  -6   42.79   17.52
   9  -4  -5  295.50   33.83
   9   4  -5  323.17   31.65
   9   4  -5  252.74   28.29
  -9  -4   4  182.68   27.36
   9   4  -4  122.23   22.99
   9  -4  -4  138.60   24.74
  -9  -4   3  525.65   42.71
   9   4  -3  554.31   43.18
   9  -4  -3  556.45   45.28
   9   4  -2  150.23   25.69
   9  -4  -2  126.98   24.65
  -9  -4   2  142.16   25.20
   9  -4  -2  131.96   21.72
   9   4  -1  -10.22   16.68
  -9  -4   1   -4.39   15.84
   9  -4  -1    0.94   16.70
   9  -4  -1   -6.48   15.14
   9   4   0  137.13   28.20
   9  -4   0  122.51   28.23
   9  -4   0   97.91   23.83
  -9  -4   0  174.36   31.37
  -9  -4  -1  306.90   39.40
   9  -4   1  216.32   30.50
   9   4   1  290.26   39.92
   9  -4   1  297.60   42.05
   9  -4   2    2.49   23.69
   9  -4   2    8.57   20.10
   9   5  -9   47.90   21.46
   9  -5  -9   53.26   23.86
   9   5  -8   28.75   18.18
   9  -5  -8    8.74   16.98
   9  -5  -7  269.02   35.01
   9   5  -7  297.78   32.76
   9   5  -6   15.23   16.41
   9   5  -6    3.53   13.20
   9  -5  -6   23.33   18.63
   9   5  -5  147.28   24.19
   9   5  -5  136.28   22.97
   9  -5  -5  174.69   29.93
   9   5  -4   14.12   15.32
  -9  -5   4   21.78   19.33
   9  -5  -4   48.84   21.22
   9   5  -3   66.49   20.58
   9  -5  -3   99.01   24.02
  -9  -5   3   88.55   23.19
   9   5  -2  114.01   24.95
   9  -5  -2   75.04   23.69
   9  -5  -2   86.31   21.18
  -9  -5   2   83.79   24.38
   9   5  -1  104.55   26.08
   9  -5  -1   99.11   27.34
  -9  -5   1  100.25   24.95
   9  -5  -1  141.31   26.10
   9   5   0  113.38   28.89
   9  -5   0  160.76   33.11
   9  -5   0   94.79   23.26
   9  -5   1   53.40   28.08
   9  -5   1   12.74   21.87
   9  -5   2   26.80   26.81
   9   6  -7   17.36   18.39
   9  -6  -7   27.37   18.90
   9   6  -6   14.56   15.28
   9  -6  -6   30.29   20.86
   9  -6  -5  704.38   55.68
   9   6  -5  627.96   47.16
   9  -6  -4  192.83   32.28
   9   6  -4  197.89   29.44
   9  -6  -3  229.35   37.38
   9   6  -3  222.02   32.70
  -9  -6   3  258.58   35.71
   9   6  -2  102.51   27.01
  -9  -6   2  132.68   27.09
   9  -6  -2  153.74   26.23
   9   6  -1   29.86   23.80
   9  -6  -1   -7.66   23.84
  -9  -6   1   30.17   22.72
   9  -6  -1   18.94   18.41
   9  -6   0   27.97   28.51
   9  -6   0    7.17   20.49
   9  -7  -4  111.58   30.68
   9  -7  -3  430.94   50.57
   9   7  -3  344.10   39.59
   9   7  -2   34.36   22.47
   9  -7  -2   45.56   30.81
  10   0 -11   21.49   19.45
  10   0 -10  234.33   31.77
  10   0 -10  243.79   33.49
  10   0  -9   47.31   19.37
  10   0  -9   85.09   22.64
  10   0  -8  160.86   26.29
  10   0  -8  174.78   26.74
  10   0  -7   48.89   18.33
  10   0  -7   34.12   16.40
  10   0  -6    5.50   12.09
  10   0  -6    7.45   13.79
  10   0  -5  250.67   27.84
  10   0  -5  226.82   30.91
  10   0  -4  -22.47   15.89
 -10   0   4   18.71   14.45
 -10   0   3  246.94   30.13
  10   0  -3  285.68   33.72
  10   0  -2   32.72   17.28
 -10   0   2   97.68   21.61
  10   0  -1   74.18   25.12
 -10   0   1   54.89   20.40
  10   0   0   75.40   25.83
 -10   0   0   -1.69   20.71
  10   0   1   41.56   23.94
 -10   0  -1   74.11   25.32
 -10   0  -2   19.57   26.59
  10  -1 -11  279.90   36.75
  10  -1 -11  217.78   33.39
  10   1 -10   -0.83   18.00
  10  -1 -10   -3.76   17.32
  10  -1 -10   20.69   19.50
  10   1  -9    2.19   15.31
  10   1  -9   36.34   17.36
  10  -1  -9   53.20   19.08
  10  -1  -9   46.11   21.34
  10  -1  -8  552.90   43.53
  10   1  -8  620.04   44.75
  10  -1  -8  637.37   43.74
  10   1  -8  589.30   42.58
  10   1  -7   95.69   21.41
  10  -1  -7   96.09   20.40
  10   1  -7   98.65   21.12
  10  -1  -7   82.50   20.83
  10   1  -6   55.94   17.45
  10  -1  -6   75.27   18.53
  10   1  -6  124.40   23.14
  10  -1  -6  113.65   22.53
  10   1  -5  712.85   44.49
  10  -1  -5  853.85   48.81
  10   1  -5  757.75   48.46
  10  -1  -5  681.08   47.42
  10   1  -4   29.76   18.49
  10  -1  -4   16.38   16.54
 -10  -1   4   -1.95   14.23
 -10   1   3   26.36   16.25
  10   1  -3   28.08   16.72
  10  -1  -3   12.74   16.86
 -10  -1   3   24.32   17.97
  10   1  -2  -12.57   15.98
  10  -1  -2   41.55   20.46
 -10  -1   2   27.06   17.49
 -10   1   2   24.75   16.66
  10   1  -1   60.69   23.62
 -10  -1   1   87.64   23.35
  10  -1  -1   90.00   25.76
 -10   1   1   71.45   21.03
 -10  -1   0  479.91   46.39
 -10   1   0  425.75   41.44
  10   1   0  368.38   43.25
  10  -1   0  330.76   41.47
  10   1   1   40.58   25.15
  10  -1   1  118.09   30.43
 -10  -1  -1  100.75   29.49
 -10   1  -1   79.41   25.91
 -10   1  -2   55.36   26.92
  10  -2 -11   22.73   21.21
  10   2 -10   46.94   22.74
  10  -2 -10   41.52   23.19
  10  -2 -10   47.09   24.94
  10   2  -9   61.33   20.64
  10  -2  -9   25.65   18.55
  10  -2  -9   11.99   15.73
  10   2  -8   24.44   16.24
  10   2  -8   32.71   16.65
  10  -2  -8   24.03   16.70
  10  -2  -8   31.56   19.07
  10  -2  -7  589.17   44.95
  10   2  -7  615.32   44.89
  10  -2  -7  517.65   37.80
  10   2  -7  571.44   41.54
  10   2  -6  328.95   34.07
  10  -2  -6  299.46   28.55
  10   2  -6  359.77   33.81
  10  -2  -6  359.95   36.13
  10  -2  -5  124.60   20.50
  10   2  -5  118.39   23.24
  10  -2  -5  124.74   24.91
  10   2  -5  165.17   24.75
 -10  -2   4  287.57   32.67
  10  -2  -4  273.58   27.14
  10   2  -4  287.57   34.44
  10  -2  -4  296.61   35.03
 -10   2   3   29.20   16.88
  10   2  -3   16.63   16.09
  10  -2  -3   10.42   15.01
 -10  -2   3   12.99   15.93
  10   2  -2   -0.11   15.63
  10  -2  -2   10.44   17.38
 -10   2   2    7.09   15.66
 -10  -2   2   23.60   18.24
 -10  -2   1 1287.73   68.18
  10   2  -1 1230.15   71.08
  10  -2  -1 1218.75   70.43
  10   2   0    8.67   20.22
  10  -2   0  -17.53   21.93
 -10  -2   0   46.66   25.74
  10  -2   1   -7.54   22.72
 -10  -2  -1   27.49   23.13
  10  -3 -10   77.74   23.77
  10   3  -9   27.02   20.18
  10  -3  -9   -6.06   17.20
  10   3  -8   34.04   19.05
  10  -3  -8   34.45   19.67
  10  -3  -7  309.97   36.05
  10   3  -7  342.02   35.07
  10   3  -7  291.07   31.34
  10   3  -6   -3.99   14.52
  10   3  -6  -16.25   16.22
  10  -3  -6    8.57   14.89
  10   3  -5  147.62   24.32
  10   3  -5  147.70   27.01
  10  -3  -5  159.89   27.91
  10   3  -4   20.28   16.45
  10  -3  -4   -7.12   16.50
 -10  -3   4  -21.92   19.04
  10   3  -3  173.33   28.78
 -10  -3   3  273.83   34.27
  10  -3  -3  250.08   33.66
  10   3  -2  101.52   25.08
  10  -3  -2  152.64   30.28
 -10  -3   2  143.87   26.79
  10   3  -1   69.67   23.29
  10  -3  -1   15.32   20.18
 -10  -3   1   51.26   22.32
  10   3   0  114.38   29.08
  10  -3   0  120.63   30.36
 -10  -3   0  117.30   30.31
  10  -3   1   -5.35   23.31
  10  -4  -9   20.15   20.12
  10   4  -8   48.98   21.00
  10  -4  -8   25.93   19.72
  10  -4  -7  183.59   31.67
  10   4  -7  192.21   29.53
  10   4  -6   87.01   22.92
  10   4  -6   80.02   22.30
  10  -4  -6   45.67   21.85
  10   4  -5  129.01   23.63
  10   4  -5  119.79   24.12
  10  -4  -5  131.16   26.82
  10   4  -4   52.34   22.99
 -10  -4   4   58.72   22.80
  10  -4  -4   66.71   23.79
  10   4  -3   26.43   19.02
  10  -4  -3   55.30   22.57
 -10  -4   3   52.01   22.02
  10   4  -2   25.32   20.85
  10  -4  -2   26.20   21.84
 -10  -4   2   19.94   21.57
 -10  -4   1  511.66   48.18
  10   4  -1  462.75   48.20
  10  -4  -1  485.18   51.15
  10  -4   0    6.77   23.37
  10   5  -6  166.26   26.81
  10  -5  -6  107.01   28.23
  10  -5  -5  789.30   61.45
  10   5  -5  926.26   57.58
  10   5  -5  737.63   50.82
  10   5  -4    0.34   18.58
  10  -5  -4   -8.06   19.96
 -10  -5   4   34.16   22.10
 -10  -5   3   92.69   26.23
  10   5  -3   76.24   25.28
  10  -5  -3  120.67   31.75
  10   5  -2   39.63   23.13
  10  -5  -2   21.91   25.25
  10   6  -4    5.36   20.09
  11   0 -10  105.03   27.45
  11   0  -9  337.51   38.91
  11   0  -9  323.64   39.47
  11   0  -8  327.85   35.98
  11   0  -8  332.32   37.62
  11   0  -7   11.01   17.65
  11   0  -7    4.00   16.50
  11   0  -6  193.44   27.79
  11   0  -6  216.96   30.79
  11   0  -5   11.52   17.28
  11   0  -5   38.56   21.03
  11   0  -4   66.47   22.18
 -11   0   4   60.67   21.80
  11   0  -3 1132.06   67.69
 -11   0   3 1197.42   65.61
 -11   0   2   31.12   20.61
  11   0  -2   -3.56   18.47
 -11   0   1   65.70   26.35
  11  -1 -10   26.43   23.55
  11  -1 -10   39.30   24.44
  11  -1  -9  230.80   35.64
  11   1  -9  204.07   31.31
  11  -1  -9  183.02   30.42
  11   1  -9  224.21   34.91
  11   1  -8    1.70   16.95
  11  -1  -8   -0.15   17.59
  11   1  -8   -5.40   16.69
  11  -1  -8   -3.95   17.11
  11   1  -7   62.73   21.81
  11  -1  -7   75.73   22.22
  11   1  -7   74.57   22.77
  11  -1  -7   69.12   22.61
  11   1  -6  306.97   33.41
  11  -1  -6  332.14   34.16
  11   1  -6  304.50   36.05
  11  -1  -6  318.39   36.96
  11   1  -5   71.53   22.02
  11  -1  -5   36.14   19.34
  11   1  -5   38.91   20.65
  11  -1  -5   56.32   23.23
 -11  -1   4   47.90   23.02
  11   1  -4   45.09   21.18
  11  -1  -4   -6.33   17.26
  11   1  -3  118.66   27.79
  11  -1  -3  117.11   26.74
 -11   1   3  166.52   29.31
 -11  -1   3  144.82   28.98
 -11  -1   2   36.56   23.79
  11   1  -2   20.48   22.51
  11  -1  -2   58.92   24.94
 -11   1   2  -18.06   20.58
 -11  -1   1   24.49   22.48
 -11   1   1  -25.42   23.12
  11   2  -8   18.58   18.45
  11   2  -8  -11.59   17.37
  11  -2  -8   12.44   18.60
  11   2  -7   55.08   22.10
  11   2  -7   74.24   22.59
  11  -2  -7   22.16   20.36
  11   2  -6   25.39   20.01
  11   2  -6   17.04   18.14
  11  -2  -6   23.46   18.91
  11   2  -5  281.02   33.41
  11   2  -5  286.10   35.17
  11  -2  -5  315.51   37.80
  11   2  -4   31.08   19.89
  11  -2  -4   58.59   21.82
 -11  -2   4   94.30   26.45
  11  -2  -3  224.61   34.36
  11   2  -3  301.61   38.65
 -11  -2   3  312.47   39.38
 -11  -2   2   71.03   26.81
  11   3  -7  353.54   36.34
  11   3  -6   46.12   21.77
  11   3  -6    6.68   17.61
  11  -3  -6   27.74   20.54
  11   3  -5   10.69   16.42
  11   3  -5   11.62   18.81
  11  -3  -5   16.32   21.11
  11   3  -4  107.46   28.31
  11  -3  -4  161.93   31.90
 -11  -3   4  130.22   28.82
  11   3  -3  111.45   30.32
  11   4  -6   12.27   19.77
  11   4  -5   44.40   24.62
  12   0  -6   46.91   24.09
  12   0  -5   33.42   22.09
   0   0   0    0.00    0.00


TITL hx5 in P2(1)/m
REM P2(1)/m (#11 in standard setting)
CELL 0.71073   7.856794   7.373372   8.969688  90.0000 114.2754  90.0000
ZERR    2.00   0.000391   0.000310   0.000555   0.0000   0.0067   0.0000
LATT  1
SYMM -x, y+1/2,-z
SFAC C H N O
UNIT 22.00 20.00 2.00 2.00
TREF
HKLF 4
END
_computing_structure_solution     'SHELXT 2014/5 (Sheldrick, 2014)'
;
_shelx_hkl_checksum              78149
_olex2_submission_special_instructions 'No special instructions were received'
_oxdiff_exptl_absorpt_empirical_details
;
Empirical correction (ABSPACK) includes:
- Absorption correction using spherical harmonics
- Frame scaling
- Detector area scaling
;
_oxdiff_exptl_absorpt_empirical_full_max 1.557
_oxdiff_exptl_absorpt_empirical_full_min 0.754
loop_
_space_group_symop_operation_xyz
'x, y, z'
'-x, y+1/2, -z'
'-x, -y, -z'
'x, -y-1/2, z'
loop_
_atom_site_label
_atom_site_type_symbol
_atom_site_fract_x
_atom_site_fract_y
_atom_site_fract_z
_atom_site_U_iso_or_equiv
_atom_site_adp_type
_atom_site_occupancy
_atom_site_site_symmetry_order
_atom_site_calc_flag
_atom_site_refinement_flags_posn
_atom_site_refinement_flags_adp
_atom_site_refinement_flags_occupancy
_atom_site_disorder_assembly
_atom_site_disorder_group
Ni1 Ni 0.17975(7) 0.55845(7) 0.31611(6) 0.00893(12) Uani 1 1 d . . . . .
Se1 Se 0.00672(7) 0.250000 0.04154(7) 0.00857(12) Uani 1 2 d S T P . .
Se2 Se 0.03048(7) 0.250000 0.48045(7) 0.00930(12) Uani 1 2 d S T P A .
Se3 Se 0.53317(7) 0.250000 0.32773(7) 0.00841(12) Uani 1 2 d S T P . .
O1 O -0.0364(4) 0.4251(4) 0.1436(4) 0.0130(6) Uani 1 1 d . . . . .
O2 O -0.1935(5) 0.250000 -0.1401(5) 0.0091(7) Uani 1 2 d S T P . .
O3 O 0.1895(4) 0.4219(4) 0.5170(4) 0.0129(6) Uani 1 1 d . . . . .
O4 O 0.0065(6) 0.250000 0.6623(5) 0.0101(8) Uani 1 2 d S T P . .
O5 O 0.3930(4) 0.4331(4) 0.2798(4) 0.0130(6) Uani 1 1 d . . . . .
O6 O 0.6197(5) 0.250000 0.5395(5) 0.0114(8) Uani 1 2 d S T P A .
Ca1 Ca 0.46176(16) 0.250000 0.71296(16) 0.0152(2) Uani 1 2 d DS T P . .
O1W O 0.3616(6) 0.4291(7) 0.8918(6) 0.0385(14) Uani 0.885(9) 1 d D U . A 1
H1WA H 0.393(2) 0.398(3) 0.9882(14) 0.058 Uiso 0.885(9) 1 d DR . . A 1
H1WB H 0.264(6) 0.489(8) 0.855(3) 0.058 Uiso 0.885(9) 1 d DR . . A 1
O1B O 0.382(6) 0.250000 0.917(4) 0.087(14) Uani 0.229(18) 2 d DS TU P A 2
H1BA H 0.268679 0.250000 0.865647 0.131 Uiso 0.229(18) 2 d DRS T P A 2
H1BB H 0.420089 0.230130 1.015677 0.131 Uiso 0.115(9) 1 d DR . . A 2
loop_
_atom_site_aniso_label
_atom_site_aniso_U_11
_atom_site_aniso_U_22
_atom_site_aniso_U_33
_atom_site_aniso_U_23
_atom_site_aniso_U_13
_atom_site_aniso_U_12
Ni1 0.0102(2) 0.0063(2) 0.0110(3) -0.00015(19) 0.00496(19) -0.00057(18)
Se1 0.0083(2) 0.0078(3) 0.0095(3) 0.000 0.0036(2) 0.000
Se2 0.0099(2) 0.0079(3) 0.0117(3) 0.000 0.0061(2) 0.000
Se3 0.0083(2) 0.0070(3) 0.0104(3) 0.000 0.0043(2) 0.000
O1 0.0142(13) 0.0104(15) 0.0157(16) -0.0040(11) 0.0073(12) -0.0020(11)
O2 0.0089(17) 0.0081(19) 0.0077(18) 0.000 0.0005(14) 0.000
O3 0.0127(13) 0.0109(15) 0.0162(15) 0.0043(11) 0.0071(12) -0.0011(11)
O4 0.0170(19) 0.0026(18) 0.014(2) 0.000 0.0093(17) 0.000
O5 0.0134(13) 0.0100(15) 0.0152(15) 0.0040(11) 0.0056(12) 0.0057(11)
O6 0.0130(18) 0.011(2) 0.0088(19) 0.000 0.0032(16) 0.000
Ca1 0.0123(5) 0.0156(6) 0.0171(6) 0.000 0.0054(5) 0.000
O1W 0.040(3) 0.047(4) 0.035(3) 0.003(2) 0.023(2) 0.013(2)
O1B 0.10(2) 0.09(3) 0.043(19) 0.000 0.000(18) 0.000
loop_
_atom_type_symbol
_atom_type_description
_atom_type_scat_dispersion_real
_atom_type_scat_dispersion_imag
_atom_type_scat_source
Ca Ca 0.2262 0.3064 'International Tables Vol C Tables 4.2.6.8 and 6.1.1.4'
H H 0.0000 0.0000 'International Tables Vol C Tables 4.2.6.8 and 6.1.1.4'
Ni Ni 0.3393 1.1124 'International Tables Vol C Tables 4.2.6.8 and 6.1.1.4'
O O 0.0106 0.0060 'International Tables Vol C Tables 4.2.6.8 and 6.1.1.4'
Se Se -0.0929 2.2259 'International Tables Vol C Tables 4.2.6.8 and 6.1.1.4'
loop_
_geom_angle_atom_site_label_1
_geom_angle_atom_site_label_2
_geom_angle_atom_site_label_3
_geom_angle
_geom_angle_site_symmetry_1
_geom_angle_site_symmetry_3
_geom_angle_publ_flag
O1 Ni1 O2 92.14(12) . 3_565 ?
O1 Ni1 O3 98.68(12) . . ?
O1 Ni1 O4 90.00(13) . 3_566 ?
O1 Ni1 O5 98.22(11) . . ?
O1 Ni1 O6 166.73(12) . 3_666 ?
O3 Ni1 O2 167.72(12) . 3_565 ?
O3 Ni1 O4 91.43(12) . 3_566 ?
O3 Ni1 O5 100.45(12) . . ?
O3 Ni1 O6 92.34(13) . 3_666 ?
O4 Ni1 O2 82.72(12) 3_566 3_565 ?
O4 Ni1 O6 82.32(13) 3_566 3_666 ?
O5 Ni1 O2 83.63(12) . 3_565 ?
O5 Ni1 O4 164.30(11) . 3_566 ?
O5 Ni1 O6 86.94(12) . 3_666 ?
O6 Ni1 O2 76.22(13) 3_666 3_565 ?
O1 Se1 O1 99.21(19) . 4_565 ?
O1 Se1 O2 101.62(13) . . ?
O1 Se1 O2 101.62(13) 4_565 . ?
O3 Se2 O3 95.37(19) 4_565 . ?
O3 Se2 O4 100.03(14) 4_565 . ?
O3 Se2 O4 100.03(14) . . ?
O3 Se2 Ca1 51.34(10) 4_565 . ?
O3 Se2 Ca1 51.34(10) . . ?
O4 Se2 Ca1 83.11(14) . . ?
O5 Se3 O5 106.7(2) 4_565 . ?
O5 Se3 O6 101.56(13) 4_565 . ?
O5 Se3 O6 101.56(13) . . ?
Se1 O1 Ni1 119.51(15) . . ?
Ni1 O2 Ni1 81.96(14) 2_545 3_565 ?
Ni1 O2 Ca1 89.05(12) 3_565 1_454 ?
Ni1 O2 Ca1 89.05(12) 2_545 1_454 ?
Se1 O2 Ni1 112.85(15) . 3_565 ?
Se1 O2 Ni1 112.85(15) . 2_545 ?
Se1 O2 Ca1 150.3(2) . 1_454 ?
Ni1 O3 Ca1 125.84(13) . . ?
Se2 O3 Ni1 115.89(16) . . ?
Se2 O3 Ca1 96.09(12) . . ?
Ni1 O4 Ni1 84.57(14) 2_546 3_566 ?
Se2 O4 Ni1 116.14(16) . 3_566 ?
Se2 O4 Ni1 116.14(16) . 2_546 ?
Ni1 O5 Ca1 88.26(10) . 3_666 ?
Se3 O5 Ni1 144.27(17) . . ?
Se3 O5 Ca1 118.83(14) . 3_666 ?
Ni1 O6 Ni1 83.75(15) 3_666 2_646 ?
Ni1 O6 Ca1 93.31(13) 3_666 . ?
Ni1 O6 Ca1 93.31(13) 2_646 . ?
Se3 O6 Ni1 121.88(15) . 2_646 ?
Se3 O6 Ni1 121.88(15) . 3_666 ?
Se3 O6 Ca1 130.4(2) . . ?
Ni1 Ca1 Ni1 51.42(3) 3_666 2_646 ?
Se2 Ca1 Ni1 132.39(4) . 3_666 ?
Se2 Ca1 Ni1 132.39(4) . 2_646 ?
O2 Ca1 Ni1 41.41(7) 1_656 2_646 ?
O2 Ca1 Ni1 41.41(7) 1_656 3_666 ?
O2 Ca1 Se2 172.09(10) 1_656 . ?
O2 Ca1 O3 144.19(8) 1_656 4_565 ?
O2 Ca1 O3 144.19(8) 1_656 . ?
O2 Ca1 O5 67.21(7) 1_656 3_666 ?
O2 Ca1 O5 67.21(7) 1_656 2_646 ?
O3 Ca1 Ni1 133.31(8) 4_565 3_666 ?
O3 Ca1 Ni1 104.10(7) 4_565 2_646 ?
O3 Ca1 Ni1 133.31(8) . 2_646 ?
O3 Ca1 Ni1 104.10(7) . 3_666 ?
O3 Ca1 Se2 32.57(6) 4_565 . ?
O3 Ca1 Se2 32.57(6) . . ?
O3 Ca1 O3 61.30(13) 4_565 . ?
O3 Ca1 O5 78.46(9) . 3_666 ?
O3 Ca1 O5 78.46(9) 4_565 2_646 ?
O3 Ca1 O5 136.05(11) . 2_646 ?
O3 Ca1 O5 136.05(11) 4_565 3_666 ?
O5 Ca1 Ni1 39.08(6) 3_666 3_666 ?
O5 Ca1 Ni1 39.08(6) 2_646 2_646 ?
O5 Ca1 Ni1 90.38(7) 3_666 2_646 ?
O5 Ca1 Ni1 90.38(7) 2_646 3_666 ?
O5 Ca1 Se2 110.96(7) 3_666 . ?
O5 Ca1 Se2 110.96(7) 2_646 . ?
O5 Ca1 O5 128.95(13) 3_666 2_646 ?
O6 Ca1 Ni1 40.45(7) . 2_646 ?
O6 Ca1 Ni1 40.45(7) . 3_666 ?
O6 Ca1 Se2 106.06(11) . . ?
O6 Ca1 O2 66.03(14) . 1_656 ?
O6 Ca1 O3 93.84(11) . 4_565 ?
O6 Ca1 O3 93.84(11) . . ?
O6 Ca1 O5 70.74(7) . 2_646 ?
O6 Ca1 O5 70.74(7) . 3_666 ?
O6 Ca1 O1W 146.38(12) . 4_565 ?
O6 Ca1 O1W 146.38(12) . . ?
O1W Ca1 Ni1 144.05(12) 4_565 3_666 ?
O1W Ca1 Ni1 144.05(12) . 2_646 ?
O1W Ca1 Ni1 109.92(12) 4_565 2_646 ?
O1W Ca1 Ni1 109.92(12) . 3_666 ?
O1W Ca1 Se2 83.46(12) 4_565 . ?
O1W Ca1 Se2 83.46(12) . . ?
O1W Ca1 O2 103.15(14) 4_565 1_656 ?
O1W Ca1 O2 103.15(14) . 1_656 ?
O1W Ca1 O3 108.88(14) 4_565 . ?
O1W Ca1 O3 108.88(14) . 4_565 ?
O1W Ca1 O3 76.87(14) 4_565 4_565 ?
O1W Ca1 O3 76.87(13) . . ?
O1W Ca1 O5 136.77(14) 4_565 3_666 ?
O1W Ca1 O5 75.73(14) . 3_666 ?
O1W Ca1 O5 136.76(14) . 2_646 ?
O1W Ca1 O5 75.73(14) 4_565 2_646 ?
O1W Ca1 O1W 65.4(2) . 4_565 ?
O1B Ca1 Se2 87.4(10) . . ?
O1B Ca1 O3 97.8(9) . . ?
O1B Ca1 O6 166.5(10) . . ?
O1B Ca1 O1W 33.07(19) . 4_565 ?
loop_
_geom_bond_atom_site_label_1
_geom_bond_atom_site_label_2
_geom_bond_distance
_geom_bond_site_symmetry_2
_geom_bond_publ_flag
Ni1 O1 2.021(3) . ?
Ni1 O2 2.154(3) 3_565 ?
Ni1 O3 2.038(3) . ?
Ni1 O4 2.099(3) 3_566 ?
Ni1 O5 2.053(3) . ?
Ni1 O6 2.116(3) 3_666 ?
Se1 O1 1.695(3) 4_565 ?
Se1 O1 1.695(3) . ?
Se1 O2 1.738(4) . ?
Se2 O3 1.714(3) . ?
Se2 O3 1.714(3) 4_565 ?
Se2 O4 1.717(4) . ?
Se2 Ca1 3.1656(13) . ?
Se3 O5 1.682(3) 4_565 ?
Se3 O5 1.682(3) . ?
Se3 O6 1.735(4) . ?
O2 Ca1 2.477(4) 1_454 ?
O3 Ca1 2.486(3) . ?
O5 Ca1 2.590(3) 3_666 ?
O6 Ca1 2.355(4) . ?
Ca1 O1W 2.445(4) 4_565 ?
Ca1 O1W 2.445(4) . ?
Ca1 O1B 2.17(4) . ?
