#------------------------------------------------------------------------------
#$Date: 2021-06-05 21:12:04 +0300 (Sat, 05 Jun 2021) $
#$Revision: 265964 $
#$URL: file:///home/coder/svn-repositories/cod/cif/7/24/26/7242660.cif $
#------------------------------------------------------------------------------
#
# This file is available in the Crystallography Open Database (COD),
# http://www.crystallography.net/
#
# All data on this site have been placed in the public domain by the
# contributors.
#
data_7242660
loop_
_publ_author_name
'Jin, Jian-Ce'
'Lin, Yang-Peng'
'Lin, Li-Fang'
'Xiao, Cao'
'Song, Ying'
'Shen, Nan-Nan'
'Gong, Liao-Kuo'
'Zhang, Zhi-Zhuan'
'Du, Ke-Zhao'
'Huang, Xiao-Ying'
_publ_section_title
;
 2,2&#x2032;-Bipyridyl-1,1&#x2032;-dioxide based bismuth(iii) bromide
 hybrids: studies on crystal structure and luminescence
;
_journal_issue                   20
_journal_name_full               CrystEngComm
_journal_page_first              3744
_journal_page_last               3752
_journal_paper_doi               10.1039/D1CE00362C
_journal_volume                  23
_journal_year                    2021
_chemical_formula_sum            'C20 H16 Bi2 Br6 N4 O4'
_chemical_formula_weight         1273.79
_space_group_crystal_system      triclinic
_space_group_IT_number           2
_space_group_name_Hall           '-P 1'
_space_group_name_H-M_alt        'P -1'
_atom_sites_solution_hydrogens   geom
_audit_creation_method           SHELXL-2018/3
_audit_update_record
;
2021-01-07 deposited with the CCDC.	2021-04-15 downloaded from the CCDC.
;
_cell_angle_alpha                67.643(6)
_cell_angle_beta                 88.319(5)
_cell_angle_gamma                61.421(5)
_cell_formula_units_Z            1
_cell_length_a                   9.5836(5)
_cell_length_b                   9.5888(5)
_cell_length_c                   10.0923(6)
_cell_measurement_reflns_used    6964
_cell_measurement_temperature    100(2)
_cell_measurement_theta_max      29.4210
_cell_measurement_theta_min      2.2670
_cell_volume                     739.79(9)
_computing_structure_refinement  'SHELXL-2018/3 (Sheldrick, 2018)'
_computing_structure_solution    'SHELXT 2014/5 (Sheldrick, 2014)'
_diffrn_ambient_temperature      100(2)
_diffrn_measured_fraction_theta_full 1.000
_diffrn_measured_fraction_theta_max 1.000
_diffrn_measurement_device_type  'SuperNova, Dual, Cu at home/near, Atlas'
_diffrn_radiation_type           MoK\a
_diffrn_radiation_wavelength     0.71073
_diffrn_reflns_av_R_equivalents  0.0878
_diffrn_reflns_av_unetI/netI     0.0565
_diffrn_reflns_Laue_measured_fraction_full 1.000
_diffrn_reflns_Laue_measured_fraction_max 1.000
_diffrn_reflns_limit_h_max       11
_diffrn_reflns_limit_h_min       -11
_diffrn_reflns_limit_k_max       11
_diffrn_reflns_limit_k_min       -11
_diffrn_reflns_limit_l_max       12
_diffrn_reflns_limit_l_min       -12
_diffrn_reflns_number            13912
_diffrn_reflns_point_group_measured_fraction_full 1.000
_diffrn_reflns_point_group_measured_fraction_max 1.000
_diffrn_reflns_theta_full        25.000
_diffrn_reflns_theta_max         25.027
_diffrn_reflns_theta_min         2.222
_exptl_absorpt_coefficient_mu    20.012
_exptl_absorpt_correction_T_max  1.00000
_exptl_absorpt_correction_T_min  0.38029
_exptl_absorpt_correction_type   multi-scan
_exptl_crystal_colour            yellow
_exptl_crystal_density_diffrn    2.859
_exptl_crystal_description       block
_exptl_crystal_F_000             572
_exptl_crystal_size_max          0.300
_exptl_crystal_size_mid          0.250
_exptl_crystal_size_min          0.200
_refine_diff_density_max         1.977
_refine_diff_density_min         -2.134
_refine_diff_density_rms         0.235
_refine_ls_extinction_coef       0.00153(13)
_refine_ls_extinction_expression Fc^*^=kFc[1+0.001xFc^2^\l^3^/sin(2\q)]^-1/4^
_refine_ls_extinction_method     'SHELXL-2018/3 (Sheldrick 2018)'
_refine_ls_goodness_of_fit_ref   1.031
_refine_ls_hydrogen_treatment    constr
_refine_ls_matrix_type           full
_refine_ls_number_parameters     164
_refine_ls_number_reflns         2617
_refine_ls_number_restraints     18
_refine_ls_restrained_S_all      1.028
_refine_ls_R_factor_all          0.0331
_refine_ls_R_factor_gt           0.0290
_refine_ls_shift/su_max          0.001
_refine_ls_shift/su_mean         0.000
_refine_ls_structure_factor_coef Fsqd
_refine_ls_weighting_details
'w=1/[\s^2^(Fo^2^)+2.8000P] where P=(Fo^2^+2Fc^2^)/3'
_refine_ls_weighting_scheme      calc
_refine_ls_wR_factor_gt          0.0570
_refine_ls_wR_factor_ref         0.0600
_reflns_Friedel_coverage         0.000
_reflns_number_gt                2397
_reflns_number_total             2617
_reflns_threshold_expression     'I > 2\s(I)'
_cod_data_source_file            d1ce00362c2.cif
_cod_data_source_block           x
_cod_depositor_comments
'Adding full bibliography for 7242660--7242662.cif.'
_cod_original_cell_volume        739.79(8)
_cod_database_code               7242660
_shelx_shelxl_version_number     2018/3
_shelx_space_group_comment
;
The symmetry employed for this shelxl refinement is uniquely defined
by the following loop, which should always be used as a source of
symmetry information in preference to the above space-group names.
They are only intended as comments.
;
_shelx_estimated_absorpt_t_min   0.065
_shelx_estimated_absorpt_t_max   0.108
_shelx_res_file
;
TITL ck_a.res in P-1
    x.res
    created by SHELXL-2018/3 at 18:26:19 on 11-Sep-2020
REM Old TITL ck_a.res in P-1
REM SHELXT solution in P-1
REM R1 0.065, Rweak 0.005, Alpha 0.031, Orientation as input
REM Formula found by SHELXT: C12 O2 Br3 Bi
CELL 0.71073 9.5836 9.5888 10.0923 67.643 88.319 61.421
ZERR 1 0.0005 0.0005 0.0006 0.006 0.005 0.005
LATT 1
SFAC C H Bi Br N O
UNIT 20 16 2 6 4 4
L.S. 10
PLAN  20
HTAB
CONF
SIZE 0.30 0.25 0.20
TEMP -173.15
BOND $H
isor 0.001 c5 c4 c6
list 4
ACTA 50
shel 999 0.84
fmap 2
rem acta
REM <olex2.extras>
REM <HklSrc "%.\\ck.hkl">
REM </olex2.extras>
EQIV $2 -x+1, -y, -z+2
HTAB C1 Br1_$2
HTAB C2 Br2_$2
EQIV $3 -x+1, -y+1, -z+1
HTAB C7 Br2_$3
EQIV $1 -x, -y+1, -z+1
HTAB C10 Br2_$1
WGHT    0.000000    2.800000
EXTI    0.001534
FVAR       0.31637
BI1   3    0.223230    0.295698    0.650601    11.00000    0.00951    0.00534 =
         0.00716   -0.00065    0.00229   -0.00452
BR1   4    0.372157   -0.049498    0.829342    11.00000    0.02976    0.00662 =
         0.01001   -0.00080    0.00327   -0.00604
BR2   4    0.167026    0.411235    0.872172    11.00000    0.01512    0.01092 =
         0.00907   -0.00266    0.00413   -0.00764
BR3   4    0.101775    0.664531    0.430331    11.00000    0.01353    0.00806 =
         0.01212   -0.00264    0.00279   -0.00732
O1    6    0.460045    0.295273    0.660154    11.00000    0.00637    0.01410 =
         0.01604   -0.00987    0.00434   -0.00402
O2    6    0.341533    0.207261    0.464710    11.00000    0.01775    0.01078 =
         0.01522   -0.00457    0.00423   -0.01147
N1    5    0.597700    0.160101    0.660074    11.00000    0.01200    0.00590 =
         0.00693   -0.00073    0.00144   -0.00489
N2    5    0.383494    0.312035    0.364999    11.00000    0.01422    0.01064 =
         0.01300   -0.00896    0.00731   -0.00911
C1    1    0.694780    0.038252    0.789001    11.00000    0.01798    0.01734 =
         0.00780    0.00392   -0.00077   -0.00863
AFIX  43
H1    2    0.661348    0.044617    0.877084    11.00000   -1.20000
AFIX   0
C2    1    0.843378   -0.096300    0.792972    11.00000    0.01890    0.01335 =
         0.01285    0.00228    0.00354   -0.01113
AFIX  43
H2    2    0.911570   -0.184345    0.884109    11.00000   -1.20000
AFIX   0
C3    1    0.893282   -0.103402    0.664967    11.00000    0.00969    0.00659 =
         0.01832   -0.00205    0.00427   -0.00587
AFIX  43
H3    2    0.996417   -0.194636    0.667080    11.00000   -1.20000
AFIX   0
C4    1    0.790631    0.024687    0.532997    11.00000    0.00950    0.00941 =
         0.01030   -0.00379    0.00192   -0.00562
AFIX  43
H4    2    0.823101    0.021737    0.443801    11.00000   -1.20000
AFIX   0
C5    1    0.640291    0.157165    0.531843    11.00000    0.00651    0.00635 =
         0.00688   -0.00244    0.00098   -0.00428
C6    1    0.527943    0.297229    0.393000    11.00000    0.00788    0.00668 =
         0.00674   -0.00332    0.00172   -0.00323
C7    1    0.572062    0.404975    0.289843    11.00000    0.01408    0.00374 =
         0.01191   -0.00107    0.00263   -0.00517
AFIX  43
H7    2    0.673594    0.395187    0.308903    11.00000   -1.20000
AFIX   0
C8    1    0.467341    0.527059    0.158754    11.00000    0.02403    0.01336 =
         0.00922   -0.00432    0.00554   -0.01130
AFIX  43
H8    2    0.494546    0.604778    0.088103    11.00000   -1.20000
AFIX   0
C9    1    0.324429    0.535266    0.131415    11.00000    0.01661    0.01164 =
         0.00904   -0.00156   -0.00219   -0.00396
AFIX  43
H9    2    0.253350    0.616363    0.040129    11.00000   -1.20000
AFIX   0
C10   1    0.282759    0.425686    0.236394    11.00000    0.01196    0.01288 =
         0.01224   -0.00642   -0.00453   -0.00193
AFIX  43
H10   2    0.183414    0.431023    0.217391    11.00000   -1.20000

AFIX   0
HKLF 4




REM  ck_a.res in P-1
REM wR2 = 0.0600, GooF = S = 1.031, Restrained GooF = 1.028 for all data
REM R1 = 0.0290 for 2397 Fo > 4sig(Fo) and 0.0331 for all 2617 data
REM 164 parameters refined using 18 restraints

END

WGHT      0.0170      0.0000

REM Instructions for potential hydrogen bonds
HTAB C1 Br1_$2
HTAB C2 Br2_$2
HTAB C7 Br2_$3
HTAB C10 Br2_$1

REM Highest difference peak  1.977,  deepest hole -2.134,  1-sigma level  0.235
Q1    1   0.2370  0.3774  0.5516  11.00000  0.05    1.98
Q2    1   0.2045  0.2196  0.7457  11.00000  0.05    1.92
Q3    1   0.1115  0.3959  0.6191  11.00000  0.05    1.51
Q4    1   0.3242  0.2028  0.6848  11.00000  0.05    1.38
Q5    1   0.1306  0.3052  0.6124  11.00000  0.05    1.30
Q6    1   0.0962  0.5583  0.5423  11.00000  0.05    1.25
Q7    1   0.4766 -0.1020  0.8616  11.00000  0.05    1.07
Q8    1   0.2642  0.3313  0.7171  11.00000  0.05    1.03
Q9    1   0.1477  0.3461  0.9644  11.00000  0.05    0.99
Q10   1   0.1717  0.6842  0.4994  11.00000  0.05    0.87
Q11   1   0.1843  0.3025  1.0003  11.00000  0.05    0.86
Q12   1   0.2241  0.0190  0.7646  11.00000  0.05    0.85
Q13   1   0.1700  0.5006  0.7606  11.00000  0.05    0.85
Q14   1   0.2746  0.3337  0.8992  11.00000  0.05    0.84
Q15   1   0.3827  0.3615  0.7382  11.00000  0.05    0.84
Q16   1   0.0783  0.4941  0.8610  11.00000  0.05    0.76
Q17   1   0.2718  0.1884  0.4250  11.00000  0.05    0.75
Q18   1   0.0092  0.6606  0.2129  11.00000  0.05    0.73
Q19   1   0.2724 -0.0777  0.7915  11.00000  0.05    0.73
Q20   1  -0.0622  0.7638  0.4384  11.00000  0.05    0.72
;
_shelx_res_checksum              69353
_shelx_hkl_file
;
 -12  -9  -4  449.40   84.74
 -12  -9  -3  248.00   62.87
 -12  -9  -2  155.23   49.08
 -12  -8  -4  214.39   56.22
 -12  -8  -3  448.61   85.40
 -12  -8  -2  100.55   35.69
 -12  -8  -1   11.19   18.31
 -12  -8   0  208.11   58.26
 -12  -7  -3   61.39   29.56
 -12  -7  -2  150.90   48.12
 -12  -7  -1  131.64   44.77
 -12  -7   0   48.34   30.83
 -12  -7   1  200.84   57.68
 -12  -6  -3  269.93   61.79
 -12  -6  -2   77.44   33.34
 -12  -6  -1   86.36   33.90
 -12  -6   0  312.74   71.33
 -12  -6   1   -7.64   19.09
 -12  -6   2   -4.53   19.20
 -12  -5  -2  375.90   73.50
 -12  -5  -1  279.40   65.18
 -12  -5   0  149.94   48.24
 -12  -5   1  125.87   47.71
 -12  -5   2   17.72   16.27
 -12  -4  -1  516.59   87.99
 -12  -4   0   75.10   32.00
 -12  -4   1    4.53    4.10
 -12  -4   2   43.11   24.23
 -12  -4   3  167.16   53.09
 -12  -3   0  400.78   77.50
 -12  -3   1  125.80   44.33
 -12  -3   2  138.16   46.34
 -12  -3   3  106.55   46.06
 -11 -11  -6  160.58   42.70
 -11 -11  -5   71.57   29.91
 -11 -11  -4   29.94   20.91
 -11 -11  -3   12.40   17.54
 -11 -11  -2  392.01   75.44
 -11 -11  -1   29.82   19.90
 -11 -10  -7  263.25   56.10
 -11 -10  -6  159.26   45.16
 -11 -10  -5   42.47   21.76
 -11 -10  -4   27.80   17.25
 -11 -10  -3   59.65   26.95
 -11 -10  -2  115.04   39.60
 -11 -10  -1  326.10   67.29
 -11 -10   0  141.39   44.54
 -11 -10   2  555.00   86.94
 -11  -9  -7  104.44   35.26
 -11  -9  -6  163.06   45.24
 -11  -9  -5   59.66   30.20
 -11  -9  -4   17.76   14.94
 -11  -9  -3  402.32   75.79
 -11  -9  -2  192.32   50.97
 -11  -9  -1  217.22   56.08
 -11  -9   0   87.37   32.89
 -11  -9   1  470.15   84.28
 -11  -8  -7  408.11   72.19
 -11  -8  -6   20.40   20.22
 -11  -8  -5   58.14   26.39
 -11  -8  -4  140.13   43.08
 -11  -8  -3   24.84   18.58
 -11  -8  -2  213.24   53.79
 -11  -8  -1  133.90   44.95
 -11  -8   0   20.07   17.52
 -11  -8   1  380.32   75.04
 -11  -8   2  558.36   93.97
 -11  -7  -6  222.71   51.79
 -11  -7  -5  305.30   63.01
 -11  -7  -4  190.39   47.14
 -11  -7  -3  182.12   49.05
 -11  -7  -2   24.50   20.14
 -11  -7  -1   18.00   17.53
 -11  -7   0  295.84   66.34
 -11  -7   1  279.83   65.15
 -11  -7   2  365.63   76.08
 -11  -7   3  308.86   70.25
 -11  -6  -6   39.17   21.22
 -11  -6  -5  400.22   71.50
 -11  -6  -4  456.81   77.09
 -11  -6  -3   44.11   22.77
 -11  -6  -2   62.34   28.36
 -11  -6  -1   56.82   27.40
 -11  -6   0  102.07   39.41
 -11  -6   1  497.40   87.58
 -11  -6   2  206.20   56.80
 -11  -6   3   15.81   13.35
 -11  -6   4  413.88   85.31
 -11  -5  -5  -13.34    6.18
 -11  -5  -4  173.34   47.62
 -11  -5  -3   27.19   20.04
 -11  -5  -2   44.39   23.27
 -11  -5  -1  253.31   58.72
 -11  -5   0  285.74   65.63
 -11  -5   1  280.37   64.37
 -11  -5   2  109.53   38.83
 -11  -5   3  244.81   61.63
 -11  -5   4  288.70   69.47
 -11  -5   5  158.26   53.65
 -11  -4  -4   27.67   23.25
 -11  -4  -3   64.23   27.81
 -11  -4  -2  108.34   36.46
 -11  -4  -1    0.87   14.12
 -11  -4   0  255.97   59.27
 -11  -4   1  219.68   58.31
 -11  -4   2   23.57   22.45
 -11  -4   3  149.02   48.67
 -11  -4   4  461.61   88.09
 -11  -4   5  104.40   42.51
 -11  -3  -3  206.20   50.26
 -11  -3  -2   69.56   30.62
 -11  -3  -1  328.84   64.04
 -11  -3   0  -29.89   23.84
 -11  -3   1    1.41    4.19
 -11  -3   2  192.77   51.26
 -11  -3   3  339.61   70.14
 -11  -3   4  196.96   55.62
 -11  -3   5  365.24   78.34
 -11  -3   6  196.09   58.35
 -11  -2  -3  141.71   40.48
 -11  -2  -2  484.91   77.54
 -11  -2  -1   61.86   29.72
 -11  -2   0  216.38   53.24
 -11  -2   1  -16.70    8.85
 -11  -2   2   31.38   20.08
 -11  -2   3  418.30   77.59
 -11  -2   4  165.15   49.54
 -11  -2   5   36.35   21.94
 -11  -2   6  117.18   42.48
 -11  -1  -1   65.56   28.92
 -11  -1   0   16.96   14.36
 -11  -1   1   35.80   17.74
 -11  -1   2  301.66   61.48
 -11  -1   3   20.67   17.67
 -11  -1   4  257.88   60.98
 -11  -1   5  171.64   52.21
 -11  -1   6  277.13   66.72
 -11  -1   7   49.54   29.43
 -11   0  -1   38.33   26.39
 -11   0   0   33.66   19.63
 -11   0   1  107.67   37.76
 -11   0   2   63.04   27.18
 -11   0   3  296.55   63.27
 -11   0   4  -16.68   16.05
 -11   0   5   57.49   27.54
 -11   0   6  359.98   73.79
 -11   1   1  273.36   59.48
 -11   1   2   25.72   15.87
 -11   1   3   58.91   28.09
 -11   1   4  111.56   37.91
 -10 -12  -1  379.50   83.62
 -10 -11  -5  179.19   44.43
 -10 -11  -5  150.49   54.53
 -10 -11  -4  155.28   43.27
 -10 -11  -3  452.40   74.93
 -10 -11  -2  193.93   57.52
 -10 -11  -2  259.69   57.28
 -10 -11  -1  266.29   65.70
 -10 -11  -1  389.71   70.53
 -10 -11   0  276.99   67.49
 -10 -11   0  237.16   55.39
 -10 -11   1  112.17   37.81
 -10 -11   1   78.03   32.43
 -10 -10  -8   36.72   16.92
 -10 -10  -7   10.19   11.48
 -10 -10  -6  463.40   71.15
 -10 -10  -5  141.99   39.38
 -10 -10  -4   10.51   10.49
 -10 -10  -3  157.89   44.39
 -10 -10  -2  762.60   99.72
 -10 -10  -1  281.51   59.85
 -10 -10   0   45.22   26.95
 -10 -10   0   28.01   17.54
 -10 -10   1  317.87   67.26
 -10 -10   1  327.12   63.32
 -10 -10   2  238.29   58.13
 -10 -10   2  293.52   61.46
 -10  -9  -9   42.48   21.63
 -10  -9  -8   43.14   17.79
 -10  -9  -7  146.86   38.68
 -10  -9  -6   19.60   11.74
 -10  -9  -5   70.39   27.00
 -10  -9  -4  380.00   66.93
 -10  -9  -3  139.22   39.28
 -10  -9  -2  508.99   81.91
 -10  -9  -1  584.56   88.10
 -10  -9   0  309.97   64.41
 -10  -9   0  371.87   62.35
 -10  -9   1  349.48   70.63
 -10  -9   1  340.51   61.04
 -10  -9   2  273.76   64.61
 -10  -9   2  319.70   60.52
 -10  -9   3  270.47   66.31
 -10  -9   3  247.20   56.46
 -10  -8  -9  132.55   38.93
 -10  -8  -8  205.96   46.16
 -10  -8  -7  251.54   51.39
 -10  -8  -6  142.45   38.56
 -10  -8  -5   46.03   22.96
 -10  -8  -4   21.42   11.40
 -10  -8  -3  823.94  102.95
 -10  -8  -2  486.00   79.52
 -10  -8  -1   23.01    7.93
 -10  -8   0  183.99   49.85
 -10  -8   1  723.40  101.08
 -10  -8   2  139.76   43.48
 -10  -8   2  187.77   44.73
 -10  -8   3   35.64   19.71
 -10  -8   3   14.98   16.91
 -10  -8   4  168.14   52.28
 -10  -8   4  179.38   47.99
 -10  -7  -8  219.21   49.21
 -10  -7  -7   39.73   20.12
 -10  -7  -6   19.39   12.30
 -10  -7  -5  148.74   38.92
 -10  -7  -4  228.20   51.87
 -10  -7  -3  185.18   48.38
 -10  -7  -2  499.03   79.16
 -10  -7  -1  500.20   81.08
 -10  -7   0  356.47   69.45
 -10  -7   1  426.03   76.75
 -10  -7   2  621.68   94.48
 -10  -7   3   65.44   32.90
 -10  -7   4   84.15   38.33
 -10  -7   5  234.96   63.06
 -10  -6  -8   -4.32    7.10
 -10  -6  -7   59.91   25.55
 -10  -6  -6    8.22   11.48
 -10  -6  -5   68.47   27.37
 -10  -6  -4  603.77   83.60
 -10  -6  -3  627.01   86.75
 -10  -6  -2   60.02   25.61
 -10  -6  -1  117.32   39.47
 -10  -6   0  924.51  112.43
 -10  -6   1  564.05   87.33
 -10  -6   2   54.30   29.72
 -10  -6   3  192.49   52.75
 -10  -6   4  276.09   64.17
 -10  -6   5   59.36   35.92
 -10  -5  -7   22.90    2.49
 -10  -5  -6   66.54   27.59
 -10  -5  -5  302.36   56.46
 -10  -5  -4   10.44   13.42
 -10  -5  -3  299.13   57.68
 -10  -5  -2  301.70   60.02
 -10  -5  -1  374.27   67.92
 -10  -5   0  148.22   41.73
 -10  -5   1  684.61   97.27
 -10  -5   2  281.31   61.34
 -10  -5   3  301.15   65.16
 -10  -5   4  296.64   68.15
 -10  -5   5  675.77  109.53
 -10  -5   6   -1.07   11.29
 -10  -5   7   28.49   20.18
 -10  -4  -6  239.18   51.31
 -10  -4  -5  135.42   40.37
 -10  -4  -4  341.81   61.62
 -10  -4  -3   23.48   18.68
 -10  -4  -2    0.97   11.26
 -10  -4  -1  613.12   86.39
 -10  -4   0  908.85  108.77
 -10  -4   1   23.46    1.97
 -10  -4   2  163.42   45.91
 -10  -4   3  521.33   86.72
 -10  -4   4  450.68   82.62
 -10  -4   5   31.79   16.97
 -10  -4   6  117.15   44.38
 -10  -4   7   85.04   39.09
 -10  -3  -6  174.11   45.59
 -10  -3  -5  141.01   37.60
 -10  -3  -5  167.10   42.43
 -10  -3  -4    8.22    4.43
 -10  -3  -4    7.24    6.95
 -10  -3  -3  102.52   28.39
 -10  -3  -3  150.21   40.69
 -10  -3  -2  331.99   49.71
 -10  -3  -2  239.16   51.89
 -10  -3  -1   70.08   29.79
 -10  -3   0  772.30   97.67
 -10  -3   1  496.46   78.39
 -10  -3   2  493.17   80.19
 -10  -3   3   69.27   27.61
 -10  -3   4  557.16   91.02
 -10  -3   5   42.76   29.44
 -10  -3   6   83.72   38.01
 -10  -3   7   55.83   30.57
 -10  -2  -6   31.37   21.22
 -10  -2  -5  180.25   45.64
 -10  -2  -5  222.19   52.40
 -10  -2  -4   -0.77    8.36
 -10  -2  -4    0.91    7.94
 -10  -2  -3   21.17   19.71
 -10  -2  -3   64.10   25.50
 -10  -2  -2  334.97   55.79
 -10  -2  -2  350.18   61.72
 -10  -2  -1  956.53   93.88
 -10  -2  -1  786.17   95.85
 -10  -2   0   14.73   10.89
 -10  -2   1   56.55   22.11
 -10  -2   2  374.61   69.37
 -10  -2   3  708.83   96.65
 -10  -2   4    7.14   13.41
 -10  -2   5  156.34   46.39
 -10  -2   6   47.96   22.19
 -10  -2   7   69.23   33.01
 -10  -2   8  116.29   43.59
 -10  -1  -5    1.50    4.46
 -10  -1  -4   12.11   10.20
 -10  -1  -4    9.40   11.34
 -10  -1  -3  146.28   40.83
 -10  -1  -3   49.24   21.90
 -10  -1  -2   26.76   12.17
 -10  -1  -2   27.29   17.95
 -10  -1  -1  283.82   53.71
 -10  -1  -1  243.75   52.40
 -10  -1   0  305.78   58.32
 -10  -1   1  431.74   69.19
 -10  -1   2    0.61    3.27
 -10  -1   3  680.25   94.07
 -10  -1   4  166.79   46.15
 -10  -1   4  255.46   50.00
 -10  -1   5  140.63   43.58
 -10  -1   5  230.01   49.40
 -10  -1   6   32.87   21.71
 -10  -1   7  376.40   76.59
 -10  -1   8   -7.25    4.32
 -10   0  -4  252.58   60.77
 -10   0  -3   38.32   24.61
 -10   0  -3   35.10   20.12
 -10   0  -2  516.67   81.00
 -10   0  -2  497.31   76.48
 -10   0  -1  -16.33   13.41
 -10   0  -1   14.95   15.58
 -10   0   0   37.82   24.10
 -10   0   0   21.96   17.00
 -10   0   1  279.17   56.06
 -10   0   2  894.30  104.91
 -10   0   3   32.47   21.92
 -10   0   4  208.01   51.22
 -10   0   4  352.39   59.07
 -10   0   5  241.68   57.78
 -10   0   5  319.60   61.14
 -10   0   6  354.07   70.27
 -10   0   6  411.01   72.55
 -10   0   7   10.29    6.45
 -10   0   8  109.11   43.18
 -10   1  -2   13.06   13.85
 -10   1  -2   60.76   27.28
 -10   1  -1  290.82   63.30
 -10   1  -1  243.12   53.41
 -10   1   0  214.27   53.34
 -10   1   0  198.26   46.08
 -10   1   1   16.53   17.10
 -10   1   2  430.88   70.76
 -10   1   3  337.91   62.70
 -10   1   4  209.23   49.48
 -10   1   5   -6.31    9.07
 -10   1   5    3.95    5.80
 -10   1   6  491.77   80.08
 -10   1   6  507.60   83.20
 -10   1   7   65.70   27.77
 -10   1   7   77.14   32.36
 -10   1   8   12.17   13.58
 -10   2   0   43.18   22.91
 -10   2   0   30.97   17.59
 -10   2   1  602.93   84.83
 -10   2   2   15.72   11.73
 -10   2   3  138.35   38.66
 -10   2   4  275.23   56.14
 -10   2   6   28.97   17.18
  -9 -12  -4   94.20   45.32
  -9 -12  -3   82.28   40.59
  -9 -12  -2   82.09   35.07
  -9 -12  -1   42.21   31.52
  -9 -11  -6  100.50   44.47
  -9 -11  -5  606.45  107.51
  -9 -11  -4  249.65   66.39
  -9 -11  -4  228.43   48.67
  -9 -11  -3   20.47   16.73
  -9 -11  -3   20.50   12.93
  -9 -11  -2  272.45   68.89
  -9 -11  -2  324.80   60.48
  -9 -11  -1  255.73   54.59
  -9 -11  -1  177.37   54.78
  -9 -11  -1  340.14   64.75
  -9 -11   0    8.12    9.11
  -9 -11   0   55.21   26.89
  -9 -11   0   60.19   28.64
  -9 -11   1   -0.69   14.22
  -9 -11   1   65.49   30.44
  -9 -10  -8   14.17    3.26
  -9 -10  -7  739.25   84.16
  -9 -10  -7  898.28  129.56
  -9 -10  -6  657.24   79.68
  -9 -10  -5  130.39   35.03
  -9 -10  -4  195.90   45.10
  -9 -10  -3  648.54   85.41
  -9 -10  -2  454.46   71.54
  -9 -10  -2  470.71   68.18
  -9 -10  -1  274.34   57.40
  -9 -10  -1  461.13   70.24
  -9 -10   0  141.78   44.55
  -9 -10   0  103.25   35.75
  -9 -10   0  159.93   41.89
  -9 -10   1    7.97   11.82
  -9 -10   1   -1.73   13.56
  -9 -10   1   -5.25   10.65
  -9 -10   2   13.30    9.46
  -9 -10   2  104.79   39.77
  -9 -10   3  469.60   87.83
  -9 -10   3  544.86   89.80
  -9  -9 -10  125.21   35.82
  -9  -9  -9  128.74   52.49
  -9  -9  -9  177.89   41.93
  -9  -9  -8   60.87   22.97
  -9  -9  -7   60.43   22.95
  -9  -9  -6  989.89   99.48
  -9  -9  -5  677.20   82.58
  -9  -9  -4  113.09   34.12
  -9  -9  -3  197.89   46.49
  -9  -9  -2  690.03   89.77
  -9  -9  -2  739.83   80.57
  -9  -9  -1  105.87   33.31
  -9  -9  -1  116.69   31.56
  -9  -9   0   43.86   22.82
  -9  -9   0   11.33    9.46
  -9  -9   1  227.61   51.26
  -9  -9   1  237.65   50.84
  -9  -9   2  195.65   52.74
  -9  -9   2  186.21   46.52
  -9  -9   3  516.13   88.69
  -9  -9   3  477.99   78.69
  -9  -9   4  223.78   62.65
  -9  -9   4  293.17   63.30
  -9  -8 -10   23.16   15.87
  -9  -8  -9   -5.37    6.31
  -9  -8  -8  502.85   70.34
  -9  -8  -7  622.30   77.00
  -9  -8  -6   46.87   20.66
  -9  -8  -5   67.21   23.99
  -9  -8  -4  763.96   91.08
  -9  -8  -3  949.18  104.36
  -9  -8  -2  265.05   53.81
  -9  -8  -1  161.48   41.33
  -9  -8  -1  160.46   35.97
  -9  -8   0   78.48   30.45
  -9  -8   0   48.43   18.39
  -9  -8   1   46.65   18.10
  -9  -8   1  109.29   31.72
  -9  -8   2  487.04   82.62
  -9  -8   2  542.81   75.95
  -9  -8   3  218.48   56.07
  -9  -8   3  234.74   52.19
  -9  -8   4   81.81   30.84
  -9  -8   4   68.94   30.69
  -9  -8   5  244.29   67.99
  -9  -8   5  229.96   54.51
  -9  -7 -10   21.70   11.38
  -9  -7  -9   27.78   16.39
  -9  -7  -8   15.41    6.87
  -9  -7  -7  508.71   71.00
  -9  -7  -6  601.74   76.39
  -9  -7  -5  112.85   31.46
  -9  -7  -4   53.51   20.09
  -9  -7  -3 1047.83  109.06
  -9  -7  -2  628.90   85.35
  -9  -7  -1  193.71   46.36
  -9  -7   0  102.21   33.58
  -9  -7   1  537.27   81.70
  -9  -7   1  502.15   68.04
  -9  -7   2   59.09   29.67
  -9  -7   2   15.04   10.33
  -9  -7   3   50.89   28.58
  -9  -7   3   63.60   26.07
  -9  -7   4  238.26   61.04
  -9  -7   4  197.82   48.43
  -9  -7   5  291.09   70.46
  -9  -7   5  255.01   55.04
  -9  -7   6  593.95   90.85
  -9  -6  -9  150.42   41.83
  -9  -6  -8  388.82   64.23
  -9  -6  -7    0.91    7.91
  -9  -6  -6   74.80   25.79
  -9  -6  -5  779.24   88.16
  -9  -6  -4 1201.41  113.14
  -9  -6  -3  214.66   44.98
  -9  -6  -2  241.73   50.46
  -9  -6  -1  264.36   53.72
  -9  -6   0  521.97   78.92
  -9  -6   1  351.43   66.44
  -9  -6   2  285.30   61.25
  -9  -6   3   29.48   23.67
  -9  -6   4   37.47   17.63
  -9  -6   4    0.64    5.99
  -9  -6   5  533.09   94.29
  -9  -6   5  527.81   75.50
  -9  -6   6  179.54   56.19
  -9  -6   6  199.03   47.43
  -9  -6   7  170.24   46.59
  -9  -5  -8  309.24   58.47
  -9  -5  -7  443.08   67.37
  -9  -5  -7  386.91   59.91
  -9  -5  -6   55.07   23.44
  -9  -5  -6   41.17   17.98
  -9  -5  -5    1.76    6.55
  -9  -5  -5    5.08    3.86
  -9  -5  -4  846.59   93.71
  -9  -5  -4 1000.09   75.43
  -9  -5  -3 1128.12  111.16
  -9  -5  -2  224.53   47.42
  -9  -5  -1   80.05   27.47
  -9  -5   0  560.88   79.59
  -9  -5   1   58.41   23.49
  -9  -5   2    4.32    9.09
  -9  -5   3   98.01   36.62
  -9  -5   4  326.43   68.55
  -9  -5   5  312.95   70.84
  -9  -5   5  372.97   62.87
  -9  -5   6  535.99   96.86
  -9  -5   6  512.65   78.41
  -9  -5   7  118.75   47.46
  -9  -5   7  146.07   43.49
  -9  -5   8  132.54   42.16
  -9  -4  -9  144.88   43.78
  -9  -4  -8   27.04   17.43
  -9  -4  -8   32.47   18.83
  -9  -4  -7    0.63    8.28
  -9  -4  -7   11.58   13.68
  -9  -4  -6  412.58   64.65
  -9  -4  -6  432.66   62.36
  -9  -4  -5  992.12  101.76
  -9  -4  -5 1014.94   92.66
  -9  -4  -4   52.81   23.63
  -9  -4  -4   61.58   19.52
  -9  -4  -3  363.87   59.14
  -9  -4  -3  419.35   48.72
  -9  -4  -2  684.33   84.94
  -9  -4  -2  859.34   67.77
  -9  -4  -1 1537.45  133.88
  -9  -4   0  123.21   36.55
  -9  -4   1  572.88   80.05
  -9  -4   2   35.80   18.99
  -9  -4   3  145.98   44.58
  -9  -4   4  258.35   60.34
  -9  -4   5  322.74   69.84
  -9  -4   6  105.67   46.20
  -9  -4   6  131.95   38.80
  -9  -4   7  310.78   75.33
  -9  -4   7  312.13   64.24
  -9  -4   8  618.45  108.86
  -9  -4   8  603.63   92.85
  -9  -4   9  203.59   53.89
  -9  -3  -8   86.57   36.00
  -9  -3  -7   17.53   17.00
  -9  -3  -7   54.34   25.96
  -9  -3  -6   79.20   27.78
  -9  -3  -6   86.52   29.06
  -9  -3  -5  705.76   83.02
  -9  -3  -5  710.11   85.72
  -9  -3  -4 1598.90  121.77
  -9  -3  -4 1487.98  128.70
  -9  -3  -3  153.23   31.84
  -9  -3  -3  124.89   34.05
  -9  -3  -2   37.17   14.79
  -9  -3  -2   53.85   23.07
  -9  -3  -1 1068.40   83.98
  -9  -3  -1  805.63   93.23
  -9  -3   0  827.82   94.88
  -9  -3   1   76.52   28.34
  -9  -3   1   70.43   16.46
  -9  -3   2   79.66   30.52
  -9  -3   3  284.30   57.84
  -9  -3   4   58.50   28.02
  -9  -3   5  312.80   67.43
  -9  -3   6  147.83   47.27
  -9  -3   7  216.89   60.33
  -9  -3   8  269.66   69.81
  -9  -3   8  238.27   58.13
  -9  -3   9  758.80  108.77
  -9  -2  -8   11.68   15.05
  -9  -2  -7   98.57   34.45
  -9  -2  -6  444.60   73.74
  -9  -2  -6  481.58   75.27
  -9  -2  -5   10.73    7.93
  -9  -2  -5  -32.57   21.03
  -9  -2  -4   62.85   24.63
  -9  -2  -4   50.63   21.37
  -9  -2  -3  491.48   66.25
  -9  -2  -3  515.71   70.72
  -9  -2  -2 2042.45  139.12
  -9  -2  -2 1711.55  141.11
  -9  -2  -1   -5.39    6.81
  -9  -2  -1  -10.73   16.01
  -9  -2   0  598.92   77.87
  -9  -2   1  275.22   54.48
  -9  -2   1  238.74   34.02
  -9  -2   2  652.08   86.80
  -9  -2   2  792.07   71.15
  -9  -2   3   45.65   21.33
  -9  -2   4  425.87   71.76
  -9  -2   5   -0.10   11.01
  -9  -2   6   -3.81   13.59
  -9  -2   7  285.32   69.47
  -9  -2   8  309.29   73.11
  -9  -2   9   35.63   37.27
  -9  -1  -7  155.70   49.06
  -9  -1  -6  145.86   44.64
  -9  -1  -5  560.87   85.22
  -9  -1  -5  692.96   90.18
  -9  -1  -4   57.03   26.53
  -9  -1  -4   42.43   20.53
  -9  -1  -3    9.45    6.19
  -9  -1  -3   -2.63   12.76
  -9  -1  -2  488.46   67.93
  -9  -1  -2  468.30   68.30
  -9  -1  -1 1571.14  126.93
  -9  -1  -1 1418.87  124.95
  -9  -1   0  124.07   32.80
  -9  -1   0   86.71   26.05
  -9  -1   1   51.73   21.89
  -9  -1   1   71.25   19.99
  -9  -1   2  538.61   76.09
  -9  -1   2  595.71   64.38
  -9  -1   3  231.73   50.16
  -9  -1   3  313.06   48.18
  -9  -1   4   -2.55    9.56
  -9  -1   5   81.28   30.25
  -9  -1   6  211.79   53.03
  -9  -1   7   28.45   21.67
  -9  -1   8  441.76   87.23
  -9  -1   9  125.71   46.65
  -9   0  -5   18.44   14.09
  -9   0  -4  187.47   49.04
  -9   0  -4  252.99   52.81
  -9   0  -3  804.23  103.15
  -9   0  -3  985.04  105.12
  -9   0  -2    6.28    9.17
  -9   0  -2  -14.04   12.89
  -9   0  -1  319.41   58.52
  -9   0  -1  407.52   63.32
  -9   0   0  480.67   70.38
  -9   0   0  379.64   61.34
  -9   0   1 1052.37  107.00
  -9   0   1 1271.27  100.32
  -9   0   2   -3.12   10.70
  -9   0   2   -7.26    6.55
  -9   0   3  477.02   72.05
  -9   0   3  658.15   74.50
  -9   0   4   -3.11   14.04
  -9   0   4   29.44   15.50
  -9   0   5   55.39   23.94
  -9   0   5   16.64    7.64
  -9   0   6   29.46   18.96
  -9   0   7  244.99   57.60
  -9   0   8   24.32   16.59
  -9   0   9  186.28   54.19
  -9   0  10  234.34   62.83
  -9   1  -4   47.80   29.00
  -9   1  -3  153.06   45.99
  -9   1  -3  271.60   56.58
  -9   1  -2  897.16  110.89
  -9   1  -2 1053.67  110.41
  -9   1  -1   55.95   24.64
  -9   1  -1   88.64   29.21
  -9   1   0  -16.28   19.56
  -9   1   0   -1.58    6.53
  -9   1   1  340.04   63.98
  -9   1   1  310.28   55.76
  -9   1   1  388.36   57.87
  -9   1   2  727.14   87.35
  -9   1   2  921.97   92.95
  -9   1   3   50.43   21.51
  -9   1   3   75.14   26.26
  -9   1   4   90.51   30.45
  -9   1   4   75.80   28.20
  -9   1   5  261.82   53.61
  -9   1   5  259.47   53.14
  -9   1   6   46.98   20.67
  -9   1   6   72.12   28.83
  -9   1   7   72.00   30.30
  -9   1   8   79.37   32.24
  -9   1   9  101.86   39.35
  -9   2  -2  155.89   50.29
  -9   2  -2  139.14   41.11
  -9   2  -1  333.79   70.65
  -9   2  -1  369.60   63.90
  -9   2   0  898.93  113.75
  -9   2   0  816.59   96.11
  -9   2   1   35.36   23.69
  -9   2   1   29.67   18.32
  -9   2   2  461.36   68.03
  -9   2   2  528.26   74.04
  -9   2   3  133.34   36.03
  -9   2   3  142.66   39.11
  -9   2   4  275.36   52.83
  -9   2   4  286.06   57.61
  -9   2   5   -4.72   12.49
  -9   2   5    5.20   13.87
  -9   2   6  404.73   66.72
  -9   2   6  502.74   80.89
  -9   2   7   -2.32   13.50
  -9   2   8  117.78   41.14
  -9   3  -1   -7.82    4.31
  -9   3   0  222.84   59.38
  -9   3   0  227.70   50.86
  -9   3   1 1169.77  138.36
  -9   3   1 1092.76  112.11
  -9   3   2   79.55   28.67
  -9   3   2  143.67   40.88
  -9   3   3   40.17   20.51
  -9   3   4  172.11   45.19
  -9   3   5  319.85   64.55
  -9   3   6   24.58   19.13
  -9   3   7  136.34   43.42
  -9   4   3  381.05   71.13
  -9   4   4    5.99    5.38
  -9   4   5  388.36   74.19
  -9   4   6   49.59   27.38
  -8 -12  -5  433.22   96.27
  -8 -12  -4  102.29   46.13
  -8 -12  -3   89.16   39.78
  -8 -12  -2   14.11    5.71
  -8 -12  -2   46.41   25.28
  -8 -12  -1  605.63  110.36
  -8 -12  -1  682.36  103.58
  -8 -12   0  108.39   42.34
  -8 -11  -8  -47.95   31.81
  -8 -11  -7   69.60   37.87
  -8 -11  -6  373.83   87.61
  -8 -11  -5   84.23   38.95
  -8 -11  -4  144.55   48.31
  -8 -11  -3  138.16   36.37
  -8 -11  -3   85.76   38.53
  -8 -11  -3  146.94   40.30
  -8 -11  -2    5.00    7.79
  -8 -11  -2    6.95    8.98
  -8 -11  -2   -2.78   11.30
  -8 -11  -1  285.30   69.65
  -8 -11  -1  305.10   58.35
  -8 -11  -1  367.93   70.14
  -8 -11   0  520.89   94.50
  -8 -11   0  522.96   79.60
  -8 -11   0  670.22   99.79
  -8 -11   1  168.17   46.15
  -8 -11   1  230.05   58.70
  -8 -11   2    4.61    8.32
  -8 -10  -9  284.03   73.79
  -8 -10  -8  573.00  105.56
  -8 -10  -7  381.74   83.49
  -8 -10  -7  308.11   47.64
  -8 -10  -6  234.28   41.73
  -8 -10  -6  164.20   56.36
  -8 -10  -5  254.07   64.81
  -8 -10  -5  260.82   46.25
  -8 -10  -4  -18.74   13.27
  -8 -10  -4   17.14   19.66
  -8 -10  -3   19.50   13.08
  -8 -10  -3   40.55   21.78
  -8 -10  -3    5.33    7.36
  -8 -10  -2  569.12   94.84
  -8 -10  -2  565.33   77.16
  -8 -10  -2  750.96   89.02
  -8 -10  -1  236.78   49.59
  -8 -10  -1  227.72   59.23
  -8 -10  -1  309.82   59.75
  -8 -10   0  364.00   73.60
  -8 -10   0  475.17   74.85
  -8 -10   0  493.65   78.05
  -8 -10   1  301.80   61.15
  -8 -10   1  286.62   64.04
  -8 -10   1  371.88   69.70
  -8 -10   2  602.69   91.21
  -8 -10   2  686.84   99.68
  -8 -10   3  259.83   60.96
  -8 -10   3  248.24   60.38
  -8  -9 -10  559.15  103.62
  -8  -9  -9    7.26   10.04
  -8  -9  -9   -1.16    6.66
  -8  -9  -8  -10.15    6.04
  -8  -9  -8   15.72   10.53
  -8  -9  -7  649.10   72.59
  -8  -9  -6  665.49   73.90
  -8  -9  -5   52.04   18.60
  -8  -9  -4  134.52   34.03
  -8  -9  -3   25.18   15.18
  -8  -9  -3   33.64   18.37
  -8  -9  -2   97.39   30.59
  -8  -9  -2   81.05   26.13
  -8  -9  -1  659.25   83.93
  -8  -9  -1  745.93   86.34
  -8  -9   0  371.44   63.79
  -8  -9   0  424.63   66.18
  -8  -9   1   12.04    5.58
  -8  -9   1    6.93    9.79
  -8  -9   2  492.03   79.64
  -8  -9   2  541.40   84.98
  -8  -9   2  627.70   88.70
  -8  -9   3  810.27  111.32
  -8  -9   3  896.81  111.95
  -8  -9   4  121.03   43.97
  -8  -9   4  118.41   41.14
  -8  -8 -11    1.41   12.30
  -8  -8 -10  231.94   48.18
  -8  -8 -10  176.87   53.51
  -8  -8  -9  702.43   81.77
  -8  -8  -8  603.25   71.44
  -8  -8  -7   55.06   21.97
  -8  -8  -6  462.14   61.50
  -8  -8  -5  257.83   45.44
  -8  -8  -4  319.90   52.71
  -8  -8  -3  370.86   58.80
  -8  -8  -3  436.49   51.80
  -8  -8  -2  666.27   82.07
  -8  -8  -2  707.82   73.87
  -8  -8  -1   84.70   29.92
  -8  -8  -1   79.55   25.12
  -8  -8   0   27.83   18.08
  -8  -8   0   98.98   29.26
  -8  -8   1  691.35   92.34
  -8  -8   1  703.53   84.99
  -8  -8   2  481.56   78.74
  -8  -8   2  527.86   76.58
  -8  -8   3  701.32  100.92
  -8  -8   3  654.74   89.82
  -8  -8   4  766.56  110.99
  -8  -8   4  656.12   92.91
  -8  -8   5  425.93   86.57
  -8  -8   5  361.98   73.63
  -8  -7 -11  241.77   62.84
  -8  -7 -10   20.31   16.25
  -8  -7  -9    4.94    5.46
  -8  -7  -8  741.79   82.23
  -8  -7  -7 1270.83  108.06
  -8  -7  -6   18.64   14.80
  -8  -7  -5   78.41   23.29
  -8  -7  -4  236.03   44.91
  -8  -7  -3  356.59   57.60
  -8  -7  -2  333.22   57.28
  -8  -7  -2  401.91   49.42
  -8  -7  -1  429.00   65.27
  -8  -7  -1  489.77   59.15
  -8  -7   0   10.76    7.34
  -8  -7   0   -3.44    6.43
  -8  -7   1  307.16   58.52
  -8  -7   1  296.76   35.15
  -8  -7   1  318.30   52.26
  -8  -7   2 1342.31  133.71
  -8  -7   2 1347.66   97.70
  -8  -7   2 1077.11  107.96
  -8  -7   3  480.82   80.43
  -8  -7   3  568.21   67.19
  -8  -7   3  418.61   66.55
  -8  -7   4   -0.54   11.86
  -8  -7   4   17.00    5.00
  -8  -7   4   -0.33    7.83
  -8  -7   5  551.35   96.86
  -8  -7   5  661.40   84.30
  -8  -7   5  457.40   74.38
  -8  -7   6  847.66  125.19
  -8  -7   6  951.86  108.61
  -8  -7   6  810.25  106.56
  -8  -7   7   77.36   32.38
  -8  -6 -10  324.54   63.69
  -8  -6 -10  368.45   66.89
  -8  -6  -9  412.32   66.57
  -8  -6  -9  460.88   69.36
  -8  -6  -8   10.94   11.85
  -8  -6  -8   -4.19    9.50
  -8  -6  -7  434.53   56.65
  -8  -6  -7  470.78   63.38
  -8  -6  -6  806.44   72.27
  -8  -6  -6  822.67   84.32
  -8  -6  -5  814.34   63.83
  -8  -6  -5  806.72   83.07
  -8  -6  -4   55.97   12.69
  -8  -6  -4   58.56   20.53
  -8  -6  -3  661.60   78.29
  -8  -6  -2    4.53    1.83
  -8  -6  -1   21.53   17.73
  -8  -6   0  310.91   56.51
  -8  -6   1  709.74   88.58
  -8  -6   1  682.37   76.57
  -8  -6   2  435.82   73.01
  -8  -6   2  550.20   57.31
  -8  -6   2  452.95   63.03
  -8  -6   3  700.07   96.16
  -8  -6   3  774.16   78.46
  -8  -6   3  611.08   78.16
  -8  -6   4  687.70  100.22
  -8  -6   4  748.86   83.99
  -8  -6   4  673.77   85.85
  -8  -6   5  682.55  106.85
  -8  -6   5  877.12   98.19
  -8  -6   5  737.78   93.40
  -8  -6   6  375.46   79.66
  -8  -6   6  367.99   65.16
  -8  -6   6  435.18   73.25
  -8  -6   7  670.44  114.10
  -8  -6   7  753.13   98.66
  -8  -6   7  679.67   97.33
  -8  -6   8   46.56   26.57
  -8  -5 -10    1.50    0.72
  -8  -5 -10   48.41   24.93
  -8  -5  -9  475.34   75.10
  -8  -5  -9  509.66   76.52
  -8  -5  -8 1176.32  113.51
  -8  -5  -8 1282.56  118.90
  -8  -5  -7   -1.07    2.73
  -8  -5  -7   -1.46    2.73
  -8  -5  -6    2.66    5.76
  -8  -5  -6    5.24    4.28
  -8  -5  -5  476.08   52.64
  -8  -5  -5  436.19   60.23
  -8  -5  -4 1588.63   94.78
  -8  -5  -4 1455.26  118.46
  -8  -5  -3   93.20   16.27
  -8  -5  -3   88.69   25.40
  -8  -5  -2  233.49   44.68
  -8  -5  -1   50.45   21.92
  -8  -5   0   73.99   26.39
  -8  -5   0   74.45   14.60
  -8  -5   1  607.65   79.33
  -8  -5   1  525.55   48.34
  -8  -5   2  811.78   97.42
  -8  -5   3    3.31    4.31
  -8  -5   3   29.26   14.86
  -8  -5   4  378.84   71.86
  -8  -5   4  362.56   56.82
  -8  -5   5 1188.51  139.73
  -8  -5   5 1356.11  122.55
  -8  -5   6  340.57   75.72
  -8  -5   6  355.10   63.09
  -8  -5   7   21.96   18.63
  -8  -5   7    9.19    2.46
  -8  -5   8  162.51   57.07
  -8  -5   8  183.88   47.80
  -8  -5   9  515.14   86.66
  -8  -4 -10  128.69   43.77
  -8  -4  -9   84.55   33.16
  -8  -4  -9   25.35   17.54
  -8  -4  -8  399.45   66.31
  -8  -4  -8  339.53   61.83
  -8  -4  -7  725.26   84.74
  -8  -4  -7  721.13   84.07
  -8  -4  -6  578.27   73.41
  -8  -4  -6  544.45   67.56
  -8  -4  -5   14.95   10.43
  -8  -4  -5    1.26    3.45
  -8  -4  -4  676.46   75.72
  -8  -4  -4  639.64   62.40
  -8  -4  -3  266.29   45.78
  -8  -4  -3  373.64   41.64
  -8  -4  -2  260.53   47.03
  -8  -4  -2  311.54   34.88
  -8  -4  -1  124.02   32.37
  -8  -4   0  541.75   72.46
  -8  -4   1  249.17   49.04
  -8  -4   2  402.05   66.71
  -8  -4   3  481.13   74.93
  -8  -4   4  967.00  116.31
  -8  -4   4 1011.48   97.90
  -8  -4   5  410.06   78.88
  -8  -4   5  481.41   71.19
  -8  -4   6 1010.67  128.59
  -8  -4   6 1053.74  112.30
  -8  -4   7  228.29   59.80
  -8  -4   7  179.51   45.38
  -8  -4   8  334.11   78.10
  -8  -4   8  381.58   70.33
  -8  -4   9  118.77   40.82
  -8  -3  -9  606.16   93.97
  -8  -3  -8   21.42   14.40
  -8  -3  -8   57.41   25.86
  -8  -3  -7    1.40   11.32
  -8  -3  -7   24.75   14.21
  -8  -3  -6  432.18   64.86
  -8  -3  -6  512.76   70.24
  -8  -3  -5 2227.95  150.06
  -8  -3  -5 1964.92  146.33
  -8  -3  -4   -7.27   10.19
  -8  -3  -4    8.21    8.97
  -8  -3  -3   88.76   22.71
  -8  -3  -3   78.51   24.31
  -8  -3  -2  122.30   24.92
  -8  -3  -2  114.46   29.65
  -8  -3  -1  624.33   73.35
  -8  -3  -1  545.82   29.63
  -8  -3   0  276.03   49.95
  -8  -3   0  373.80   31.94
  -8  -3   1  607.14   76.40
  -8  -3   2   20.86   11.00
  -8  -3   3   13.00    9.75
  -8  -3   4  551.36   84.70
  -8  -3   5  751.74  105.00
  -8  -3   5  844.01   95.01
  -8  -3   6   10.51   15.69
  -8  -3   6    5.34    8.18
  -8  -3   7  213.50   56.53
  -8  -3   7  329.71   64.67
  -8  -3   8  888.68  126.62
  -8  -3   8  910.87  113.28
  -8  -3   9   46.60   26.92
  -8  -3   9   52.49   26.02
  -8  -2  -9  142.97   47.64
  -8  -2  -8  429.30   78.13
  -8  -2  -8  455.28   79.09
  -8  -2  -7  286.21   59.57
  -8  -2  -7  439.07   72.01
  -8  -2  -6   60.67   26.38
  -8  -2  -6   58.05   24.56
  -8  -2  -5  599.63   77.64
  -8  -2  -5  595.45   75.58
  -8  -2  -4  718.13   79.99
  -8  -2  -4  740.78   82.16
  -8  -2  -3  306.68   47.50
  -8  -2  -3  375.54   56.07
  -8  -2  -2   -3.99    8.65
  -8  -2  -2   26.58   14.07
  -8  -2  -1  868.24   76.09
  -8  -2  -1  719.31   78.84
  -8  -2  -1  656.37   46.93
  -8  -2   0   31.34   13.18
  -8  -2   0   21.58   14.70
  -8  -2   0    6.81    3.17
  -8  -2   1   17.87    7.69
  -8  -2   1    8.79    6.96
  -8  -2   2  235.25   46.36
  -8  -2   3  698.84   85.60
  -8  -2   4  200.84   46.60
  -8  -2   5  852.46  106.37
  -8  -2   6  317.79   66.50
  -8  -2   7  712.99  108.58
  -8  -2   7  915.89  109.10
  -8  -2   8  134.69   47.28
  -8  -2   8  123.28   40.50
  -8  -2   9  999.77  134.75
  -8  -2   9 1020.60  124.94
  -8  -2  10   16.64   13.58
  -8  -1  -8   29.56   23.97
  -8  -1  -7  229.74   57.80
  -8  -1  -7  239.94   56.12
  -8  -1  -6 1191.86  130.32
  -8  -1  -6 1741.83  147.26
  -8  -1  -5   47.00   21.58
  -8  -1  -5   38.28   21.42
  -8  -1  -4   36.43   14.76
  -8  -1  -4   46.87   23.38
  -8  -1  -3  263.65   48.85
  -8  -1  -3  306.84   51.83
  -8  -1  -2 1697.50  126.91
  -8  -1  -2 1638.54  127.34
  -8  -1  -2 1639.60   99.26
  -8  -1  -1    9.76    5.32
  -8  -1  -1    0.11   10.22
  -8  -1  -1   27.77   10.62
  -8  -1   0  566.01   65.24
  -8  -1   0  412.34   59.43
  -8  -1   0  468.77   47.38
  -8  -1   1    9.84    5.25
  -8  -1   1    6.31    2.92
  -8  -1   2   56.16   20.35
  -8  -1   2   54.68   16.63
  -8  -1   3  426.63   64.50
  -8  -1   4  622.31   81.23
  -8  -1   5   42.17   19.41
  -8  -1   6  234.78   55.28
  -8  -1   7  629.57   98.64
  -8  -1   8  380.05   77.47
  -8  -1   9   10.27    9.29
  -8  -1   9   -8.87   13.92
  -8  -1  10  138.83   46.04
  -8   0  -7   81.85   36.38
  -8   0  -6  249.09   60.53
  -8   0  -6  361.70   67.74
  -8   0  -5  887.72  110.88
  -8   0  -5 1075.19  113.36
  -8   0  -4  543.24   81.25
  -8   0  -4  653.86   83.15
  -8   0  -3   90.57   30.12
  -8   0  -3  106.95   31.47
  -8   0  -2  520.57   72.25
  -8   0  -2  462.86   64.37
  -8   0  -2  511.62   56.97
  -8   0  -1  499.43   68.27
  -8   0  -1  481.65   65.15
  -8   0  -1  425.77   50.89
  -8   0   0  120.95   33.42
  -8   0   0   90.71   25.52
  -8   0   0  146.91   28.78
  -8   0   1   52.31   22.56
  -8   0   1   45.67   18.11
  -8   0   1   44.83   15.37
  -8   0   2  726.12   82.00
  -8   0   2  839.24   76.81
  -8   0   3   28.12   16.97
  -8   0   3   25.75   12.87
  -8   0   4  298.62   52.28
  -8   0   4  379.69   55.77
  -8   0   5  161.76   42.53
  -8   0   6  749.27   94.51
  -8   0   7    4.58   13.03
  -8   0   8  668.37   99.34
  -8   0   9   83.03   35.89
  -8   0  10  136.58   47.14
  -8   0  11   20.99   22.77
  -8   1  -5   -3.16   11.32
  -8   1  -5   17.50   15.85
  -8   1  -4  137.50   42.39
  -8   1  -4  191.23   47.80
  -8   1  -3 1384.21  139.73
  -8   1  -3 1646.16  137.59
  -8   1  -2   28.47   18.75
  -8   1  -2   19.63   14.31
  -8   1  -2   19.66    5.99
  -8   1  -1  203.59   45.99
  -8   1  -1  216.32   43.04
  -8   1  -1  209.58   38.16
  -8   1   0   24.79   14.59
  -8   1   0   40.74   20.35
  -8   1   0   22.59    8.85
  -8   1   1  396.84   59.51
  -8   1   1  495.95   61.87
  -8   1   2  113.23   30.03
  -8   1   2   95.75   25.76
  -8   1   3  753.03   85.06
  -8   1   3  988.00   92.44
  -8   1   4   -4.02    4.08
  -8   1   4   -4.28    5.24
  -8   1   5   41.93   22.78
  -8   1   5   64.51   24.60
  -8   1   6  504.31   72.16
  -8   1   7  639.89   85.94
  -8   1   8   27.04   19.89
  -8   1   9  172.11   48.07
  -8   1  10  356.88   73.34
  -8   2  -4  225.30   58.31
  -8   2  -4  146.73   43.22
  -8   2  -3  125.54   41.38
  -8   2  -3  163.51   43.14
  -8   2  -2  698.90   99.11
  -8   2  -2  710.74   87.68
  -8   2  -1  398.93   71.01
  -8   2  -1  395.74   61.50
  -8   2  -1  437.68   63.97
  -8   2   0   32.24   16.39
  -8   2   0   32.32   16.03
  -8   2   0   28.35   15.84
  -8   2   1  405.61   69.03
  -8   2   1  369.10   56.83
  -8   2   1  434.96   62.82
  -8   2   2   96.19   29.01
  -8   2   2  107.40   31.22
  -8   2   3   26.53   11.98
  -8   2   3   32.99   17.49
  -8   2   4   89.11   27.95
  -8   2   4  129.69   34.46
  -8   2   5  704.57   82.72
  -8   2   5  809.85   94.50
  -8   2   6   10.13    8.54
  -8   2   6    0.51    4.60
  -8   2   7  546.94   74.89
  -8   2   7  631.98   89.73
  -8   2   8   72.70   27.67
  -8   3  -3   98.97   36.47
  -8   3  -2  105.64   39.25
  -8   3  -2   71.73   27.13
  -8   3  -1   62.85   27.96
  -8   3  -1   34.65   19.30
  -8   3  -1   48.53   22.82
  -8   3   0  990.34  120.77
  -8   3   0  836.03   93.87
  -8   3   0  936.81  104.53
  -8   3   1   33.34   19.47
  -8   3   1   29.11   14.18
  -8   3   1   23.59   17.33
  -8   3   2  569.70   71.05
  -8   3   2  535.79   74.90
  -8   3   3   27.52   14.31
  -8   3   3   -0.15    4.98
  -8   3   4   36.00   16.61
  -8   3   4   30.51   17.59
  -8   3   5  145.13   35.21
  -8   3   5  111.18   35.07
  -8   3   6  727.80   96.72
  -8   3   7   49.68   28.40
  -8   3   8   68.74   31.53
  -8   3   9  353.34   73.11
  -8   4  -1   36.24   25.38
  -8   4   0  192.43   56.50
  -8   4   0  190.27   45.84
  -8   4   0  149.50   43.01
  -8   4   1  271.27   64.50
  -8   4   1  180.23   47.14
  -8   4   2   18.00   11.64
  -8   4   3   26.99   16.99
  -8   4   4  427.32   72.77
  -8   4   5    4.28    8.30
  -8   4   6  306.36   64.95
  -8   4   7  155.08   48.00
  -8   4   8  363.76   75.52
  -8   4   9    9.29    6.14
  -8   5   2   42.79   26.84
  -8   5   3  244.84   57.08
  -8   5   4  -13.27   12.77
  -8   5   5  461.03   81.04
  -8   5   6   22.76   14.19
  -7 -12  -6  340.16   86.04
  -7 -12  -5  151.02   57.15
  -7 -12  -4  433.37   96.51
  -7 -12  -3  448.29   99.02
  -7 -12  -3  418.67   78.97
  -7 -12  -2  457.52   99.46
  -7 -12  -2  558.74   93.45
  -7 -12  -1  163.87   61.72
  -7 -12  -1  255.76   64.82
  -7 -12   0  568.55  100.59
  -7 -11  -9  182.92   60.14
  -7 -11  -8   63.70   39.73
  -7 -11  -7  -12.44   15.48
  -7 -11  -6   11.45   16.34
  -7 -11  -5 1332.06  165.19
  -7 -11  -4  595.75  107.65
  -7 -11  -4  692.05   89.22
  -7 -11  -3  112.80   44.66
  -7 -11  -3  112.07   36.43
  -7 -11  -2  166.65   50.64
  -7 -11  -2  229.28   54.14
  -7 -11  -1  846.52   96.51
  -7 -11  -1  869.18  128.44
  -7 -11  -1 1020.67  121.72
  -7 -11   0  450.74   90.67
  -7 -11   0  414.10   68.51
  -7 -11   0  492.95   85.93
  -7 -11   1   49.15   22.37
  -7 -11   1  119.85   45.11
  -7 -11   2  171.26   47.19
  -7 -10 -10  310.37   78.61
  -7 -10  -9  125.20   47.59
  -7 -10  -8  -10.05   20.40
  -7 -10  -7  152.51   51.98
  -7 -10  -6  113.14   42.24
  -7 -10  -6  124.85   26.76
  -7 -10  -5  183.56   34.87
  -7 -10  -5  251.83   66.10
  -7 -10  -4  452.97   58.94
  -7 -10  -4  370.16   79.90
  -7 -10  -4  570.19   72.48
  -7 -10  -3  435.16   85.86
  -7 -10  -3  590.95   70.46
  -7 -10  -2  363.37   57.04
  -7 -10  -2  257.73   64.56
  -7 -10  -2  369.18   63.32
  -7 -10  -1  595.82   77.50
  -7 -10  -1  562.96   94.62
  -7 -10  -1  683.57   90.65
  -7 -10   0  386.24   78.32
  -7 -10   0  528.76   76.66
  -7 -10   0  664.44   93.50
  -7 -10   1  160.76   47.50
  -7 -10   1  142.20   41.22
  -7 -10   1  199.72   52.62
  -7 -10   2  225.51   54.19
  -7 -10   2  336.61   71.39
  -7 -10   3  367.23   73.90
  -7 -10   3  411.57   81.11
  -7 -10   4  246.88   63.21
  -7  -9 -11  509.48   98.88
  -7  -9 -10   15.48   17.48
  -7  -9  -9   30.28   15.76
  -7  -9  -9   -2.18   10.04
  -7  -9  -8   58.22   34.25
  -7  -9  -8   64.00   18.78
  -7  -9  -7  203.98   45.75
  -7  -9  -7  190.83   33.93
  -7  -9  -7  188.94   50.69
  -7  -9  -6  957.20   93.79
  -7  -9  -6  694.36  107.27
  -7  -9  -6  873.95   77.76
  -7  -9  -5  396.18   77.68
  -7  -9  -5  361.31   49.82
  -7  -9  -4   45.45   17.50
  -7  -9  -4   48.00   27.03
  -7  -9  -4   61.91   20.08
  -7  -9  -3   16.38   18.59
  -7  -9  -3    7.50    6.07
  -7  -9  -3   -3.06    2.39
  -7  -9  -2 1084.68  126.74
  -7  -9  -2 1339.06  114.40
  -7  -9  -2 1510.24  123.14
  -7  -9  -1 1033.59  120.98
  -7  -9  -1 1117.59  107.67
  -7  -9  -1 1246.30  116.27
  -7  -9   0  115.54   33.21
  -7  -9   0  135.38   43.00
  -7  -9   0  124.27   35.15
  -7  -9   1  225.08   49.83
  -7  -9   1  217.96   52.26
  -7  -9   1  300.11   59.44
  -7  -9   2  509.28   79.84
  -7  -9   2  406.16   74.69
  -7  -9   2  479.47   79.62
  -7  -9   3  162.91   47.46
  -7  -9   3  193.68   54.37
  -7  -9   4   95.26   38.59
  -7  -9   4  117.84   39.94
  -7  -9   5  137.02   45.92
  -7  -8 -12    3.14   11.63
  -7  -8 -11  236.73   62.71
  -7  -8 -10  294.28   63.22
  -7  -8 -10  324.83   54.08
  -7  -8 -10  241.19   66.59
  -7  -8  -9   10.68    7.55
  -7  -8  -9    2.40    5.71
  -7  -8  -9    7.88    8.73
  -7  -8  -8    6.02    6.34
  -7  -8  -8   23.94   15.26
  -7  -8  -8   14.46    3.99
  -7  -8  -7  230.69   46.21
  -7  -8  -7  290.69   44.79
  -7  -8  -7  281.58   43.13
  -7  -8  -6   22.28   10.84
  -7  -8  -6   18.80   11.88
  -7  -8  -6   21.23    7.39
  -7  -8  -5  211.05   35.20
  -7  -8  -5  221.09   38.96
  -7  -8  -4  507.02   50.09
  -7  -8  -4  528.33   62.64
  -7  -8  -4  566.49   56.77
  -7  -8  -3  292.62   32.68
  -7  -8  -3  289.55   47.53
  -7  -8  -3  325.22   46.31
  -7  -8  -2  758.41   52.41
  -7  -8  -2  744.27   80.65
  -7  -8  -2  706.73   75.15
  -7  -8  -1 1134.04   67.22
  -7  -8  -1 1016.48  101.27
  -7  -8  -1 1191.71  104.95
  -7  -8   0  570.08   45.41
  -7  -8   0  632.50   80.76
  -7  -8   0  678.91   81.62
  -7  -8   1  711.51   90.04
  -7  -8   1  843.16   75.14
  -7  -8   1  756.92   90.40
  -7  -8   2  463.07   74.21
  -7  -8   2  483.63   73.61
  -7  -8   2  712.24   74.94
  -7  -8   2  575.52   81.59
  -7  -8   3  730.21   88.92
  -7  -8   3  608.55   92.77
  -7  -8   3  930.59   93.63
  -7  -8   3  806.36  101.16
  -7  -8   4   -5.05    1.81
  -7  -8   4   14.74   16.68
  -7  -8   4    8.70   12.29
  -7  -8   5   52.35   24.03
  -7  -8   5  141.40   39.34
  -7  -8   5  140.14   44.73
  -7  -8   6  146.62   42.69
  -7  -7 -11   25.90   15.26
  -7  -7 -11   -3.01   11.37
  -7  -7 -10   20.29   14.67
  -7  -7 -10   58.37   23.79
  -7  -7 -10   39.73   23.97
  -7  -7  -9  275.01   54.72
  -7  -7  -9  282.77   49.03
  -7  -7  -8  742.45   83.30
  -7  -7  -8  766.94   78.03
  -7  -7  -7  243.85   41.14
  -7  -7  -7  232.00   39.79
  -7  -7  -6  227.32   34.43
  -7  -7  -6  218.64   38.18
  -7  -7  -5   44.15   12.86
  -7  -7  -5   30.16   14.73
  -7  -7  -4   27.87    6.68
  -7  -7  -4   19.63    7.39
  -7  -7  -3 1457.01  113.85
  -7  -7  -3 1475.99   96.79
  -7  -7  -2  927.89   90.94
  -7  -7  -2 1022.67   82.76
  -7  -7  -2  806.49   59.25
  -7  -7  -1  520.85   67.64
  -7  -7  -1  344.84   40.68
  -7  -7  -1  452.78   57.02
  -7  -7   0  187.41   40.97
  -7  -7   0  206.23   17.66
  -7  -7   0  185.25   22.58
  -7  -7   0  191.36   38.14
  -7  -7   1  909.94   99.39
  -7  -7   1  790.43   52.91
  -7  -7   1 1068.70   78.25
  -7  -7   1  954.23   94.59
  -7  -7   2 1065.17  112.43
  -7  -7   2  768.58   61.70
  -7  -7   2 1267.66   97.37
  -7  -7   2  968.62  100.25
  -7  -7   3   89.97   33.18
  -7  -7   3  199.55   40.34
  -7  -7   3  133.88   37.51
  -7  -7   4  262.29   62.94
  -7  -7   4  295.70   52.89
  -7  -7   4  330.56   62.92
  -7  -7   5   95.88   38.48
  -7  -7   5  114.63   33.79
  -7  -7   5  105.96   35.28
  -7  -7   6   -8.54    3.33
  -7  -7   6   21.91   20.62
  -7  -7   6    6.48   14.11
  -7  -7   7  237.99   56.82
  -7  -7   8   53.00   30.93
  -7  -6 -12  313.16   77.87
  -7  -6 -11  563.12   94.93
  -7  -6 -11  420.01   77.82
  -7  -6 -10   94.32   33.72
  -7  -6 -10   78.60   30.92
  -7  -6  -9   27.22   21.18
  -7  -6  -9   18.87   10.55
  -7  -6  -8  448.54   64.92
  -7  -6  -8  478.29   62.70
  -7  -6  -7  349.10   50.50
  -7  -6  -7  425.09   55.71
  -7  -6  -6   47.89   16.94
  -7  -6  -6   30.26   12.87
  -7  -6  -5  186.02   28.01
  -7  -6  -5  226.54   38.59
  -7  -6  -4  266.39   26.96
  -7  -6  -4  233.70   40.30
  -7  -6  -3   80.62   23.74
  -7  -6  -2  881.00   85.79
  -7  -6  -2  814.86   45.93
  -7  -6  -2  893.02   68.84
  -7  -6  -1 1169.61  102.48
  -7  -6  -1  976.87   63.55
  -7  -6  -1 1235.05   90.90
  -7  -6   0 1136.71  106.93
  -7  -6   0 1143.31   93.11
  -7  -6   0 1050.78   76.24
  -7  -6   1  330.74   58.62
  -7  -6   1  349.79   23.15
  -7  -6   1  301.92   19.66
  -7  -6   1  335.81   38.32
  -7  -6   1  310.67   48.51
  -7  -6   2 1276.91  123.30
  -7  -6   2 1481.99  104.54
  -7  -6   2 1203.86  107.91
  -7  -6   3  163.81   43.38
  -7  -6   3  204.68   39.78
  -7  -6   3  150.52   36.65
  -7  -6   4  462.04   79.02
  -7  -6   4  595.15   73.80
  -7  -6   4  430.06   67.84
  -7  -6   5  209.59   55.62
  -7  -6   5  300.53   53.95
  -7  -6   5  154.56   41.65
  -7  -6   6  605.49  101.83
  -7  -6   6  855.45   98.74
  -7  -6   6  618.38   89.34
  -7  -6   7  204.56   60.85
  -7  -6   7  237.96   54.83
  -7  -6   7  216.65   53.13
  -7  -6   8   71.30   32.66
  -7  -5 -11   -7.19   16.95
  -7  -5 -10  250.39   59.15
  -7  -5  -9  708.31   93.34
  -7  -5  -9  945.53   99.83
  -7  -5  -8   12.93   11.77
  -7  -5  -8   14.17    9.24
  -7  -5  -7  113.81   29.27
  -7  -5  -7  132.65   30.41
  -7  -5  -6   26.68   12.41
  -7  -5  -6   32.30   16.05
  -7  -5  -5  293.80   39.01
  -7  -5  -5  322.49   47.35
  -7  -5  -4  907.32   62.70
  -7  -5  -4  813.76   78.03
  -7  -5  -3 1402.33   71.52
  -7  -5  -3 1174.92   99.67
  -7  -5  -2  237.98   42.33
  -7  -5  -1   83.78   25.67
  -7  -5  -1  106.90   12.83
  -7  -5   0 1329.55  113.00
  -7  -5   0 1300.25   78.46
  -7  -5   0 1429.08  100.00
  -7  -5   1 1634.75  131.14
  -7  -5   1 1657.86  113.96
  -7  -5   2  460.12   69.42
  -7  -5   2  411.65   33.55
  -7  -5   2  448.95   51.31
  -7  -5   2  431.27   57.45
  -7  -5   3  574.55   80.90
  -7  -5   3  513.07   49.28
  -7  -5   3  632.82   69.22
  -7  -5   3  616.82   71.72
  -7  -5   4  426.61   74.72
  -7  -5   4  561.24   70.91
  -7  -5   4  504.89   69.03
  -7  -5   5  414.54   77.04
  -7  -5   5  471.33   68.90
  -7  -5   5  386.30   63.61
  -7  -5   6  172.45   53.34
  -7  -5   6  214.35   47.95
  -7  -5   6  102.91   35.54
  -7  -5   7  213.88   60.38
  -7  -5   7  312.08   61.39
  -7  -5   7  287.43   59.51
  -7  -5   8   26.20   22.61
  -7  -5   8   25.98   13.90
  -7  -5   8    9.80   14.32
  -7  -5   9  171.04   49.53
  -7  -4 -11   94.49   40.63
  -7  -4 -10   88.55   37.56
  -7  -4  -9  231.47   53.52
  -7  -4  -9  341.23   61.79
  -7  -4  -8  957.09  105.21
  -7  -4  -8 1222.02  113.65
  -7  -4  -7   82.11   26.37
  -7  -4  -7  104.15   29.79
  -7  -4  -6    7.10    6.10
  -7  -4  -6   -6.26    6.98
  -7  -4  -5  262.34   39.93
  -7  -4  -5  307.65   47.06
  -7  -4  -4  154.72   26.94
  -7  -4  -4  134.83   29.70
  -7  -4  -3  402.49   39.81
  -7  -4  -3  342.15   48.92
  -7  -4  -2 1012.00   60.87
  -7  -4  -2  856.64   83.09
  -7  -4  -1  646.49   72.53
  -7  -4   0  121.51   30.46
  -7  -4   0  121.77   16.72
  -7  -4   1 1012.34   98.73
  -7  -4   2  670.55   82.37
  -7  -4   2  665.97   40.12
  -7  -4   3 1005.24  106.49
  -7  -4   3 1043.28   89.83
  -7  -4   3  846.47   63.33
  -7  -4   4  156.29   41.37
  -7  -4   4  138.35   33.42
  -7  -4   4  155.73   29.41
  -7  -4   5 1207.35  133.99
  -7  -4   5 1276.03  116.59
  -7  -4   6    0.54    8.68
  -7  -4   6   13.90    8.01
  -7  -4   7   14.35   10.97
  -7  -4   7    9.45    3.88
  -7  -4   8   92.54   36.48
  -7  -4   8  152.14   41.16
  -7  -4   9  421.92   90.07
  -7  -4   9  544.85   86.34
  -7  -3 -10  579.75   96.43
  -7  -3  -9   39.79   23.77
  -7  -3  -8   65.61   22.90
  -7  -3  -8   20.14   12.69
  -7  -3  -7  164.96   38.27
  -7  -3  -7  133.32   36.50
  -7  -3  -6  749.62   80.56
  -7  -3  -6  705.48   80.31
  -7  -3  -5  160.66   34.01
  -7  -3  -5  161.89   32.57
  -7  -3  -4  786.40   76.66
  -7  -3  -4  754.36   71.21
  -7  -3  -3   46.68   16.37
  -7  -3  -3   73.63   18.80
  -7  -3  -2   25.55   12.81
  -7  -3  -2   12.60    5.15
  -7  -3  -1  716.62   75.61
  -7  -3  -1  922.88   62.68
  -7  -3   0 1992.10  137.46
  -7  -3   1   53.69   18.41
  -7  -3   2  337.04   55.57
  -7  -3   2  383.28   32.47
  -7  -3   3  931.74  100.11
  -7  -3   3  936.41   65.15
  -7  -3   4 1768.33  151.48
  -7  -3   4 1675.97  117.15
  -7  -3   4 1872.05  133.94
  -7  -3   4 1415.94   99.62
  -7  -3   5   31.98   19.15
  -7  -3   5   65.44   25.32
  -7  -3   6  374.27   72.97
  -7  -3   6  344.25   61.43
  -7  -3   7   73.01   32.87
  -7  -3   7  142.35   39.87
  -7  -3   8   79.98   32.23
  -7  -3   8   69.18   26.07
  -7  -3   9  149.39   50.55
  -7  -3   9  281.84   61.04
  -7  -3  10  143.10   44.76
  -7  -2  -9  745.91  107.14
  -7  -2  -8   62.30   26.23
  -7  -2  -8  130.96   40.27
  -7  -2  -7    2.35    3.28
  -7  -2  -7   44.09   22.81
  -7  -2  -6   65.73   23.40
  -7  -2  -6   77.55   23.01
  -7  -2  -5  489.14   66.05
  -7  -2  -5  519.07   65.56
  -7  -2  -4    8.18    9.24
  -7  -2  -4    6.78    4.94
  -7  -2  -3  229.64   38.59
  -7  -2  -3  242.32   40.40
  -7  -2  -2  325.05   42.47
  -7  -2  -2  265.48   42.12
  -7  -2  -1   10.05    8.42
  -7  -2  -1    7.21    3.47
  -7  -2   0  886.59   85.27
  -7  -2   0  953.14   60.38
  -7  -2   1  807.66   81.43
  -7  -2   2  475.25   63.86
  -7  -2   2  586.29   48.29
  -7  -2   3   88.97   27.30
  -7  -2   3  164.20   26.61
  -7  -2   4 1114.38  113.67
  -7  -2   4 1191.78   87.11
  -7  -2   5  199.31   48.42
  -7  -2   5  178.04   40.98
  -7  -2   6  144.11   41.86
  -7  -2   6  192.27   44.87
  -7  -2   7   48.01   24.64
  -7  -2   7   53.13   22.37
  -7  -2   8  679.94  105.17
  -7  -2   8  801.01  102.84
  -7  -2   9   66.16   25.65
  -7  -2   9   55.21   27.10
  -7  -2  10  148.05   47.80
  -7  -2  10  124.22   41.78
  -7  -1  -8  290.91   64.58
  -7  -1  -7  705.95   98.76
  -7  -1  -7 1054.57  113.05
  -7  -1  -6   25.93   21.15
  -7  -1  -6   24.87   19.61
  -7  -1  -5  217.83   47.52
  -7  -1  -5  313.31   52.98
  -7  -1  -4   55.78   22.72
  -7  -1  -4   38.78   17.71
  -7  -1  -3  344.49   51.59
  -7  -1  -3  350.60   52.28
  -7  -1  -2  123.74   28.98
  -7  -1  -2  119.39   28.35
  -7  -1  -2  135.42   22.13
  -7  -1  -1 1765.91  114.91
  -7  -1  -1 1543.41  113.09
  -7  -1  -1 1441.42   85.75
  -7  -1   0  102.85   24.30
  -7  -1   0   80.91   22.90
  -7  -1   0   78.63   16.83
  -7  -1   1  259.26   43.67
  -7  -1   1  322.29   37.52
  -7  -1   2  613.10   70.70
  -7  -1   3 1706.09  133.44
  -7  -1   3 2173.75  123.56
  -7  -1   4    8.81   10.62
  -7  -1   4    7.64    6.66
  -7  -1   5  157.63   39.77
  -7  -1   6  176.08   47.57
  -7  -1   7  412.60   75.04
  -7  -1   7  619.10   87.86
  -7  -1   8   49.67   20.23
  -7  -1   8   10.58    9.88
  -7  -1   9  223.78   59.66
  -7  -1   9  256.55   59.95
  -7  -1  10   26.23   17.84
  -7  -1  10   21.32   16.66
  -7  -1  11   20.08   28.49
  -7   0  -8   50.64   29.61
  -7   0  -7   59.73   29.49
  -7   0  -6  955.29  117.17
  -7   0  -6 1369.28  130.29
  -7   0  -5   29.02   18.92
  -7   0  -5   22.88   10.52
  -7   0  -4   96.04   31.23
  -7   0  -4   99.91   28.38
  -7   0  -3   27.58   16.13
  -7   0  -3   20.36    9.22
  -7   0  -2   21.62   11.09
  -7   0  -2   12.17    5.29
  -7   0  -2   24.22   11.61
  -7   0  -1  436.15   57.63
  -7   0  -1  420.91   55.62
  -7   0  -1  357.32   43.46
  -7   0   0 1030.61   90.75
  -7   0   0  866.73   82.97
  -7   0   0  936.33   73.46
  -7   0   1  552.66   64.43
  -7   0   1  438.06   56.89
  -7   0   1  517.35   52.97
  -7   0   2   20.36   15.34
  -7   0   2   20.98   11.56
  -7   0   3 1013.54   93.62
  -7   0   3 1138.15   91.34
  -7   0   4  499.46   65.73
  -7   0   4  565.83   47.91
  -7   0   5  227.26   46.20
  -7   0   6   38.63   21.41
  -7   0   7  677.44   94.27
  -7   0   8   36.37   21.09
  -7   0   9    0.21   12.46
  -7   0   9   19.32   17.39
  -7   0  10   40.37   24.60
  -7   0  10   45.94   26.36
  -7   0  11  397.00   80.46
  -7   1  -6   54.97   27.83
  -7   1  -5  142.82   43.03
  -7   1  -5  154.65   42.07
  -7   1  -4  430.37   73.35
  -7   1  -4  546.50   74.93
  -7   1  -3   13.00   10.15
  -7   1  -3  -15.43   12.58
  -7   1  -3   12.82    9.74
  -7   1  -2  669.97   83.27
  -7   1  -2  656.98   74.69
  -7   1  -2  756.15   73.88
  -7   1  -1   -2.84    2.74
  -7   1  -1    6.67    7.03
  -7   1  -1   14.36    9.57
  -7   1   0    3.22    4.29
  -7   1   0    1.55    7.50
  -7   1   0    0.09    1.25
  -7   1   1  267.74   47.80
  -7   1   1  203.58   38.80
  -7   1   1  290.59   42.99
  -7   1   2 1841.18  130.48
  -7   1   2 2125.97  132.72
  -7   1   3    3.73    7.82
  -7   1   3   -3.09    8.04
  -7   1   4  487.73   63.04
  -7   1   4  591.33   69.72
  -7   1   5  232.26   43.65
  -7   1   6  665.61   80.55
  -7   1   7    2.46   11.11
  -7   1   8  232.02   53.24
  -7   1   9   25.74   13.95
  -7   1  10   -9.74    9.33
  -7   1  11   89.94   36.78
  -7   2  -5   -0.57   13.36
  -7   2  -4   58.57   30.45
  -7   2  -4   16.62   15.65
  -7   2  -3  649.35   93.11
  -7   2  -3  600.84   79.16
  -7   2  -3  664.59   80.23
  -7   2  -2    3.12    4.95
  -7   2  -2    0.90    2.87
  -7   2  -1  548.48   77.79
  -7   2  -1  549.87   67.74
  -7   2  -1  668.25   74.59
  -7   2   0  164.20   39.58
  -7   2   0  171.74   34.92
  -7   2   0  204.74   39.04
  -7   2   1   -5.87    7.80
  -7   2   1    3.64    4.57
  -7   2   1    2.72    5.81
  -7   2   2  474.62   59.82
  -7   2   2  596.23   69.00
  -7   2   3  932.58   87.54
  -7   2   3 1059.91   96.02
  -7   2   4  380.77   54.43
  -7   2   4  426.45   61.06
  -7   2   5   16.13   11.24
  -7   2   5    1.64    7.10
  -7   2   6  677.26   76.75
  -7   2   6  819.98   94.26
  -7   2   7  346.16   56.27
  -7   2   8  103.71   31.89
  -7   2   9    3.46    3.42
  -7   2  10  291.86   61.15
  -7   3  -4  141.72   45.65
  -7   3  -3  181.83   50.31
  -7   3  -3  180.28   46.42
  -7   3  -3  163.00   42.38
  -7   3  -2   52.02   26.42
  -7   3  -2   75.33   27.97
  -7   3  -2   89.49   31.56
  -7   3  -1   64.85   30.37
  -7   3  -1   44.26   20.42
  -7   3  -1   28.24   16.10
  -7   3   0    5.39   13.53
  -7   3   0   36.93   17.29
  -7   3   0   50.41   20.50
  -7   3   1 1032.14  115.11
  -7   3   1 1055.71   94.49
  -7   3   1 1028.47  100.79
  -7   3   2   -0.43    9.21
  -7   3   2    1.39    3.98
  -7   3   2   -7.56    6.83
  -7   3   3  390.66   53.37
  -7   3   3  337.47   54.83
  -7   3   4  347.76   50.50
  -7   3   4  326.81   56.40
  -7   3   5 1506.37  115.81
  -7   3   5 1522.70  133.50
  -7   3   6   18.68    7.99
  -7   3   6   47.52   23.83
  -7   3   7  472.97   62.79
  -7   3   7  592.89   85.22
  -7   3   8   49.25   24.01
  -7   4  -2  100.17   38.27
  -7   4  -2   94.44   32.24
  -7   4  -1   33.81   19.04
  -7   4  -1   25.59   16.16
  -7   4  -1   18.00   15.39
  -7   4   0  283.97   63.80
  -7   4   0  315.63   54.15
  -7   4   0  300.84   60.33
  -7   4   1   14.70   16.83
  -7   4   1   -2.10   12.65
  -7   4   1   -1.01    8.99
  -7   4   2  857.99  110.09
  -7   4   2  729.96   77.15
  -7   4   2  747.60   90.54
  -7   4   3  290.10   44.88
  -7   4   3  283.98   53.98
  -7   4   4   14.75   11.49
  -7   4   4    5.92    4.77
  -7   4   5  459.89   72.51
  -7   4   6  774.58  100.41
  -7   4   7  235.49   55.28
  -7   4   8    6.87    4.56
  -7   4   9  369.06   65.94
  -7   4   9  412.10   78.73
  -7   4  10  116.91   38.23
  -7   5  -1   14.43   14.30
  -7   5   0  354.83   67.79
  -7   5   1   54.51   32.09
  -7   5   1   32.97   19.57
  -7   5   2  107.09   37.94
  -7   5   2   96.89   32.92
  -7   5   3  179.72   45.94
  -7   5   4 1197.25  125.90
  -7   5   5   68.93   28.25
  -7   5   6  552.69   98.14
  -7   5   6  416.93   75.65
  -7   5   7  152.04   46.90
  -7   5   8  525.26   90.59
  -7   5   9   50.86   21.92
  -7   6   2   35.83   22.26
  -7   6   3   19.55   15.28
  -7   6   4   44.78   30.88
  -7   6   4   66.15   29.49
  -7   6   5  807.51  129.51
  -7   6   5  652.85   97.71
  -6 -13  -4  378.04   79.45
  -6 -13  -3  258.21   65.10
  -6 -12  -7  583.60  118.81
  -6 -12  -6   35.92   28.48
  -6 -12  -5  180.23   66.48
  -6 -12  -5  178.31   46.98
  -6 -12  -4  366.93   91.71
  -6 -12  -4  567.69   89.44
  -6 -12  -3  175.57   61.26
  -6 -12  -3  277.20   65.43
  -6 -12  -2   -7.69   16.66
  -6 -12  -2   59.65   32.60
  -6 -12  -1  211.31   66.55
  -6 -12  -1  290.79   69.82
  -6 -11  -9  354.81   88.22
  -6 -11  -8   48.19   32.97
  -6 -11  -7   98.88   40.54
  -6 -11  -6 1101.41  155.20
  -6 -11  -5  563.42  108.32
  -6 -11  -5  611.89   83.14
  -6 -11  -4  495.02  101.45
  -6 -11  -4  467.58   75.66
  -6 -11  -3   85.94   43.46
  -6 -11  -3  107.50   37.03
  -6 -11  -2  104.78   47.52
  -6 -11  -2  208.24   51.58
  -6 -11  -1  189.31   60.54
  -6 -11  -1  176.98   51.21
  -6 -11   0  491.50   97.71
  -6 -11   0  455.65   84.54
  -6 -11   1   78.64   29.32
  -6 -11   1  132.15   43.30
  -6 -11   2   66.82   28.97
  -6 -10 -11  145.08   52.66
  -6 -10 -11  119.04   50.04
  -6 -10 -10  114.88   44.90
  -6 -10 -10   50.84   28.74
  -6 -10  -9  613.76   98.40
  -6 -10  -9  695.01  119.57
  -6 -10  -8  748.93  101.12
  -6 -10  -8  502.64   99.01
  -6 -10  -7   78.70   29.68
  -6 -10  -7   82.39   39.50
  -6 -10  -6   58.61   23.39
  -6 -10  -6   40.25   28.41
  -6 -10  -5 1073.77   99.88
  -6 -10  -5  964.31  133.60
  -6 -10  -5 1134.47  104.69
  -6 -10  -4 1145.41   97.79
  -6 -10  -4  920.62  128.32
  -6 -10  -4  864.29   77.78
  -6 -10  -4 1098.37  106.63
  -6 -10  -3  153.48   33.01
  -6 -10  -3  139.28   47.06
  -6 -10  -3  185.63   34.96
  -6 -10  -3  248.12   50.35
  -6 -10  -2  142.58   30.41
  -6 -10  -2  194.03   56.01
  -6 -10  -2  139.95   34.26
  -6 -10  -2  216.85   48.52
  -6 -10  -1  349.73   49.14
  -6 -10  -1  390.34   79.35
  -6 -10  -1  360.21   56.80
  -6 -10  -1  477.48   76.85
  -6 -10   0   12.86    8.99
  -6 -10   0   21.53   14.21
  -6 -10   0   -2.20   13.60
  -6 -10   0   -8.70   11.64
  -6 -10   1   15.18   13.06
  -6 -10   1   44.05   27.71
  -6 -10   1   25.96   22.86
  -6 -10   2  277.01   59.32
  -6 -10   2  379.53   75.57
  -6 -10   3  108.05   39.50
  -6 -10   3  152.25   48.36
  -6 -10   4  393.69   79.47
  -6  -9 -12   13.98    3.25
  -6  -9 -11  151.48   54.86
  -6  -9 -11  197.53   58.35
  -6  -9 -11  110.36   45.30
  -6  -9 -10  197.53   54.64
  -6  -9 -10  227.23   63.32
  -6  -9 -10  125.04   47.81
  -6  -9  -9  -19.07   17.93
  -6  -9  -9    9.95    6.09
  -6  -9  -9    1.02   14.84
  -6  -9  -8   -8.46   12.11
  -6  -9  -8  -12.60   16.49
  -6  -9  -8   12.49    8.32
  -6  -9  -7 1177.95  113.85
  -6  -9  -7 1200.62  119.67
  -6  -9  -7  852.02  120.93
  -6  -9  -7  859.30   70.33
  -6  -9  -6 1234.06  111.99
  -6  -9  -6 1051.73  132.70
  -6  -9  -6 1056.17   79.36
  -6  -9  -6 1176.12   89.70
  -6  -9  -5  197.98   39.35
  -6  -9  -5  168.38   48.81
  -6  -9  -5  182.60   30.52
  -6  -9  -5  207.42   37.18
  -6  -9  -4  259.90   41.27
  -6  -9  -4  232.52   59.08
  -6  -9  -4  239.01   37.96
  -6  -9  -4  290.64   47.22
  -6  -9  -3  965.25   80.26
  -6  -9  -3  674.72  102.05
  -6  -9  -3  849.04   79.36
  -6  -9  -3 1002.49   96.07
  -6  -9  -2 1026.72   80.86
  -6  -9  -2 1029.83   93.59
  -6  -9  -2  815.24  111.99
  -6  -9  -1  366.63   45.56
  -6  -9  -1  401.09   74.08
  -6  -9  -1  407.10   59.73
  -6  -9  -1  439.60   68.16
  -6  -9   0  347.95   56.98
  -6  -9   0  251.24   60.54
  -6  -9   0  271.56   41.35
  -6  -9   0  435.20   52.52
  -6  -9   0  389.85   66.62
  -6  -9   1   -9.09   10.70
  -6  -9   1    9.66   16.48
  -6  -9   1   -0.39    2.18
  -6  -9   1    7.54    8.36
  -6  -9   1   -7.62   15.47
  -6  -9   2   54.58   20.98
  -6  -9   2   72.41   30.33
  -6  -9   2   28.38   15.43
  -6  -9   2   76.51   25.84
  -6  -9   2   42.07   23.96
  -6  -9   3  461.70   79.54
  -6  -9   3  402.33   59.63
  -6  -9   3  678.85   86.38
  -6  -9   3  583.59   92.94
  -6  -9   4  191.95   54.11
  -6  -9   4  262.84   56.29
  -6  -9   4  221.90   60.90
  -6  -9   5  166.11   52.89
  -6  -9   5  285.22   62.44
  -6  -8 -12   77.44   35.02
  -6  -8 -12   74.08   38.16
  -6  -8 -11  446.77   91.09
  -6  -8 -11  315.19   73.59
  -6  -8 -10   49.58   25.47
  -6  -8 -10  101.73   38.93
  -6  -8 -10   66.29   30.49
  -6  -8  -9  172.09   50.00
  -6  -8  -9  229.50   53.89
  -6  -8  -9  134.96   44.15
  -6  -8  -9  197.53   36.17
  -6  -8  -8   38.95   19.85
  -6  -8  -8   13.15    4.52
  -6  -8  -8   51.88   27.68
  -6  -8  -8   26.91   10.65
  -6  -8  -7   20.26    5.20
  -6  -8  -7   13.17    2.58
  -6  -8  -7   15.15    9.13
  -6  -8  -7   20.40   12.87
  -6  -8  -6 1217.07  111.88
  -6  -8  -6 1369.48  108.04
  -6  -8  -6 1146.50   85.96
  -6  -8  -6 1299.95   78.34
  -6  -8  -5 1548.37  117.33
  -6  -8  -5 1703.15  109.62
  -6  -8  -5 1252.03  136.25
  -6  -8  -5 1482.30  101.85
  -6  -8  -5 1549.54   98.73
  -6  -8  -4  122.13   27.09
  -6  -8  -4   80.48   21.24
  -6  -8  -4  137.67   28.50
  -6  -8  -3   94.24   20.35
  -6  -8  -3   96.72   13.61
  -6  -8  -3   98.66   26.62
  -6  -8  -3  124.13   28.98
  -6  -8  -2  884.28   67.84
  -6  -8  -2  849.04  102.86
  -6  -8  -2  854.62   83.22
  -6  -8  -2  975.68   90.13
  -6  -8  -1  501.41   76.93
  -6  -8  -1  531.76   66.82
  -6  -8  -1  459.41   45.93
  -6  -8  -1  644.13   50.77
  -6  -8  -1  503.49   67.37
  -6  -8   0   35.42   16.49
  -6  -8   0    8.78   16.83
  -6  -8   0   44.30   13.35
  -6  -8   0   33.50   12.74
  -6  -8   0    8.81    8.80
  -6  -8   1  148.20   42.05
  -6  -8   1  175.22   40.44
  -6  -8   1  160.02   29.16
  -6  -8   1  207.21   37.14
  -6  -8   1  196.23   44.37
  -6  -8   2  239.99   52.02
  -6  -8   2  163.58   39.41
  -6  -8   2  141.64   30.22
  -6  -8   2  279.12   46.99
  -6  -8   2  198.44   48.39
  -6  -8   3  278.23   54.44
  -6  -8   3  216.60   52.49
  -6  -8   3  316.24   53.75
  -6  -8   3  254.95   58.51
  -6  -8   4  273.28   62.75
  -6  -8   4  265.43   54.40
  -6  -8   4  304.63   66.34
  -6  -8   5  340.80   73.85
  -6  -8   5  359.91   67.79
  -6  -8   5  313.52   67.59
  -6  -8   6  170.25   52.85
  -6  -8   6  193.70   52.61
  -6  -8   7  526.00   91.12
  -6  -7 -12   -7.91   15.21
  -6  -7 -11  112.36   44.54
  -6  -7 -11   78.88   30.80
  -6  -7 -10  107.81   39.93
  -6  -7 -10   52.22   27.81
  -6  -7  -9   -4.17    8.88
  -6  -7  -9    0.59   15.66
  -6  -7  -9   -8.03    9.57
  -6  -7  -8  518.77   72.51
  -6  -7  -8  417.09   71.26
  -6  -7  -8  406.37   74.50
  -6  -7  -8  440.73   53.90
  -6  -7  -7  787.86   82.98
  -6  -7  -7  769.87   90.20
  -6  -7  -7  749.52   68.85
  -6  -7  -6   44.47   16.30
  -6  -7  -6   48.25   19.46
  -6  -7  -6   50.36   14.52
  -6  -7  -5  237.94   33.01
  -6  -7  -5  181.55   34.94
  -6  -7  -5  214.07   34.34
  -6  -7  -5  226.80   25.33
  -6  -7  -4 1098.73   84.22
  -6  -7  -4 1259.93   70.82
  -6  -7  -4 1023.50   61.60
  -6  -7  -4 1209.24   90.31
  -6  -7  -4 1189.45   79.57
  -6  -7  -3 2350.54   95.41
  -6  -7  -3 2601.64   98.15
  -6  -7  -3 2487.98  127.90
  -6  -7  -3 2498.87  146.80
  -6  -7  -3 2554.12  140.70
  -6  -7  -2   28.95    8.34
  -6  -7  -2   39.93   16.71
  -6  -7  -2   61.63   19.54
  -6  -7  -2   39.35   12.40
  -6  -7  -1  361.29   54.43
  -6  -7  -1  355.06   33.59
  -6  -7  -1  409.88   28.69
  -6  -7  -1  356.66   51.01
  -6  -7   0  252.17   45.62
  -6  -7   0  194.65   25.67
  -6  -7   0  298.51   35.76
  -6  -7   0  228.92   42.09
  -6  -7   1  859.82   92.10
  -6  -7   1  666.69   57.23
  -6  -7   1  686.55   81.82
  -6  -7   2  289.63   54.97
  -6  -7   2  430.88   55.01
  -6  -7   2  285.80   54.01
  -6  -7   3  426.88   71.81
  -6  -7   3  467.29   65.43
  -6  -7   3  532.54   67.72
  -6  -7   3  432.02   71.97
  -6  -7   4  118.36   39.59
  -6  -7   4  122.58   33.45
  -6  -7   4  123.80   37.81
  -6  -7   5   73.71   30.54
  -6  -7   5   43.34   20.29
  -6  -7   5   37.77   19.03
  -6  -7   6  664.05  107.16
  -6  -7   6  649.70   91.81
  -6  -7   6  778.29  105.98
  -6  -7   7  365.09   81.23
  -6  -7   7  493.36   84.03
  -6  -7   7  482.65   86.46
  -6  -7   8  153.81   49.57
  -6  -6 -12  524.10  104.47
  -6  -6 -11   24.26   20.76
  -6  -6 -11   39.02   24.06
  -6  -6 -10    9.55   10.19
  -6  -6 -10   41.28   23.84
  -6  -6  -9   26.39   16.29
  -6  -6  -9    4.07    8.93
  -6  -6  -9   16.85   12.19
  -6  -6  -8   89.11   29.20
  -6  -6  -8   73.97   22.08
  -6  -6  -7  741.80   79.49
  -6  -6  -7  785.74   72.55
  -6  -6  -6 1308.56   97.90
  -6  -6  -6 1247.55   93.25
  -6  -6  -5   42.85   14.12
  -6  -6  -5   48.17   16.73
  -6  -6  -4   -0.11    2.88
  -6  -6  -4   -1.92    5.00
  -6  -6  -4    4.86    4.58
  -6  -6  -4    2.55    0.68
  -6  -6  -3 1113.18   48.57
  -6  -6  -3  970.13   59.42
  -6  -6  -3 1050.92   47.88
  -6  -6  -3 1046.54   84.97
  -6  -6  -3 1070.74   71.09
  -6  -6  -2 1213.86   55.98
  -6  -6  -2 1345.61  100.12
  -6  -6  -2 1119.08   67.97
  -6  -6  -2 1410.06   91.84
  -6  -6  -1   37.38    6.63
  -6  -6  -1   26.13   14.03
  -6  -6  -1   30.83   10.18
  -6  -6  -1   51.17   17.24
  -6  -6   0  119.56   30.56
  -6  -6   0  118.04   15.33
  -6  -6   0  129.93   15.38
  -6  -6   0  134.52   19.98
  -6  -6   0  103.78   22.59
  -6  -6   0  125.72   28.10
  -6  -6   1  568.04   70.87
  -6  -6   1  449.73   40.68
  -6  -6   1  471.70   39.09
  -6  -6   1  505.73   62.77
  -6  -6   2   31.07   16.24
  -6  -6   2   36.74   13.13
  -6  -6   2   57.37   18.48
  -6  -6   2   33.26   15.48
  -6  -6   3  129.17   37.67
  -6  -6   3  117.69   30.60
  -6  -6   3   55.40   23.01
  -6  -6   4  283.01   60.64
  -6  -6   4  383.51   59.05
  -6  -6   4  350.50   60.47
  -6  -6   5  253.70   59.52
  -6  -6   5  285.29   54.39
  -6  -6   5  300.92   59.25
  -6  -6   6  318.12   71.42
  -6  -6   6  433.66   70.09
  -6  -6   6  427.98   72.98
  -6  -6   7  464.94   91.05
  -6  -6   7  599.98   87.58
  -6  -6   7  536.73   86.15
  -6  -6   8  115.77   39.59
  -6  -5 -12   24.21   25.98
  -6  -5 -11  226.37   61.78
  -6  -5 -10   47.61   20.88
  -6  -5 -10   30.30   16.73
  -6  -5  -9   24.84   18.65
  -6  -5  -9   14.07   10.27
  -6  -5  -8  359.48   60.67
  -6  -5  -8  483.14   62.30
  -6  -5  -7   51.35   19.17
  -6  -5  -7   48.20   18.44
  -6  -5  -6   32.76   16.00
  -6  -5  -6   30.33   11.38
  -6  -5  -5  744.18   63.61
  -6  -5  -5  788.28   70.95
  -6  -5  -4 1975.93  103.42
  -6  -5  -4 2019.73  122.94
  -6  -5  -3   87.68   13.06
  -6  -5  -3  100.49   23.60
  -6  -5  -2  745.78   69.94
  -6  -5  -2  631.58   50.92
  -6  -5  -1  512.92   59.72
  -6  -5  -1  445.01   34.86
  -6  -5  -1  518.60   50.12
  -6  -5   0 1991.76  135.12
  -6  -5   0 1850.53  115.50
  -6  -5   0 1618.83   94.43
  -6  -5   1  104.78   29.64
  -6  -5   1   68.89   11.40
  -6  -5   1   56.97    8.98
  -6  -5   1   45.30   12.83
  -6  -5   1   65.68   19.64
  -6  -5   1   56.00   15.09
  -6  -5   2  642.72   78.82
  -6  -5   2  488.98   44.61
  -6  -5   2  734.00   69.13
  -6  -5   2  565.08   66.16
  -6  -5   3   59.62   24.16
  -6  -5   3   23.36    9.80
  -6  -5   3   42.27   17.06
  -6  -5   3   27.47   11.59
  -6  -5   4   38.00   17.68
  -6  -5   4   55.86   22.25
  -6  -5   4   54.80   21.95
  -6  -5   5  272.25   61.31
  -6  -5   5  477.56   68.73
  -6  -5   5  351.23   59.81
  -6  -5   6  488.60   86.53
  -6  -5   6  733.10   89.32
  -6  -5   6  559.33   80.27
  -6  -5   7  333.01   75.32
  -6  -5   7  410.15   68.89
  -6  -5   7  351.23   67.13
  -6  -5   8  489.40   94.72
  -6  -5   8  538.63   85.42
  -6  -5   8  435.68   76.92
  -6  -5   9  587.19   93.38
  -6  -4 -11  -21.75   16.37
  -6  -4 -10   33.38   22.26
  -6  -4  -9  423.17   72.64
  -6  -4  -9  593.63   77.62
  -6  -4  -8  262.36   51.74
  -6  -4  -8  342.58   54.57
  -6  -4  -7  755.80   83.44
  -6  -4  -7  911.60   85.04
  -6  -4  -6   19.46   11.04
  -6  -4  -6    1.84    9.29
  -6  -4  -6    7.72    4.81
  -6  -4  -5   13.27    7.50
  -6  -4  -5   25.07   11.33
  -6  -4  -5   13.24    7.22
  -6  -4  -4 1175.34   78.08
  -6  -4  -4 1160.44   87.83
  -6  -4  -4  963.33   77.57
  -6  -4  -3 2913.48  132.02
  -6  -4  -3 2865.73  157.52
  -6  -4  -2  108.05   14.14
  -6  -4  -2  115.43   26.33
  -6  -4  -1   16.10    7.59
  -6  -4  -1   29.20    5.05
  -6  -4   0  778.05   77.29
  -6  -4   0  699.75   47.52
  -6  -4   1 1067.35   99.30
  -6  -4   1 1206.60   75.50
  -6  -4   1 1164.45   87.71
  -6  -4   2    7.44    8.06
  -6  -4   2    4.79    3.22
  -6  -4   2    7.02    2.08
  -6  -4   2   11.44   10.18
  -6  -4   3  219.75   46.95
  -6  -4   3  196.56   29.39
  -6  -4   3  188.94   36.66
  -6  -4   3  185.23   36.78
  -6  -4   4  283.19   56.16
  -6  -4   4  302.06   40.92
  -6  -4   4  359.92   54.05
  -6  -4   4  294.96   48.15
  -6  -4   4  379.21   55.02
  -6  -4   5   52.74   26.17
  -6  -4   5   38.49   18.20
  -6  -4   5   16.00   12.53
  -6  -4   6  342.09   70.73
  -6  -4   6  460.81   69.53
  -6  -4   6  367.90   61.22
  -6  -4   7  307.88   69.72
  -6  -4   7  300.77   58.84
  -6  -4   7  367.76   64.27
  -6  -4   8  259.35   67.73
  -6  -4   8  321.87   62.95
  -6  -4   8  329.92   63.31
  -6  -4   9  451.71   92.23
  -6  -4   9  569.17   89.48
  -6  -4   9  418.33   75.12
  -6  -3 -11  103.44   41.18
  -6  -3 -10   54.97   25.50
  -6  -3  -9  119.33   37.90
  -6  -3  -8  179.18   40.93
  -6  -3  -8   84.54   30.46
  -6  -3  -7   14.27   14.21
  -6  -3  -7   14.23   12.70
  -6  -3  -6  276.76   44.05
  -6  -3  -6  235.29   42.85
  -6  -3  -5  943.20   81.47
  -6  -3  -5  880.71   80.29
  -6  -3  -4    0.92    7.19
  -6  -3  -4   -2.08    3.84
  -6  -3  -3  548.12   58.28
  -6  -3  -3  657.38   55.06
  -6  -3  -2  982.38   83.50
  -6  -3  -2 1221.07   71.71
  -6  -3  -1 2701.69  162.53
  -6  -3  -1 3446.32  139.57
  -6  -3   0    0.81    7.20
  -6  -3   1  948.41   86.97
  -6  -3   2   32.63   13.22
  -6  -3   2   32.03    8.64
  -6  -3   3  546.40   72.16
  -6  -3   3  507.33   58.48
  -6  -3   3  448.88   54.37
  -6  -3   3  442.49   44.97
  -6  -3   4  120.14   35.21
  -6  -3   4  180.69   37.47
  -6  -3   4  130.34   28.59
  -6  -3   4  126.31   26.65
  -6  -3   5 1003.78  113.36
  -6  -3   5 1242.30  110.00
  -6  -3   5  997.44   83.14
  -6  -3   6  230.78   55.88
  -6  -3   6  370.68   60.32
  -6  -3   7  274.42   63.47
  -6  -3   7  423.57   68.93
  -6  -3   8  404.10   82.06
  -6  -3   8  606.85   85.23
  -6  -3   9  531.89   97.84
  -6  -3   9  747.34   99.55
  -6  -3  10  104.09   45.19
  -6  -3  10  157.76   47.33
  -6  -2 -10  606.60  101.50
  -6  -2  -9   -5.66    7.29
  -6  -2  -8   76.48   29.29
  -6  -2  -7    1.20   10.13
  -6  -2  -7   10.77   13.20
  -6  -2  -6  446.44   65.03
  -6  -2  -6  654.99   72.54
  -6  -2  -5  390.87   55.66
  -6  -2  -5  447.25   56.68
  -6  -2  -4 2800.19  159.78
  -6  -2  -4 2723.22  157.05
  -6  -2  -3   92.27   22.68
  -6  -2  -3   45.22   16.28
  -6  -2  -2   13.58    7.31
  -6  -2  -2   24.15   11.91
  -6  -2  -1  810.23   60.16
  -6  -2  -1  757.41   70.25
  -6  -2  -1  695.70   39.71
  -6  -2   0 3690.17  190.63
  -6  -2   0 3510.95  150.93
  -6  -2   1  150.78   30.08
  -6  -2   2   99.21   26.44
  -6  -2   2  118.19   22.47
  -6  -2   2  106.44   17.95
  -6  -2   3  361.61   57.36
  -6  -2   3  351.01   41.83
  -6  -2   3  389.64   40.40
  -6  -2   4  233.61   47.07
  -6  -2   4  277.75   37.58
  -6  -2   4  343.72   50.63
  -6  -2   4  287.98   40.11
  -6  -2   5   31.03   14.04
  -6  -2   5   86.80   20.27
  -6  -2   5  110.16   31.28
  -6  -2   6  233.67   55.49
  -6  -2   6  268.43   51.84
  -6  -2   7  202.06   50.30
  -6  -2   7  290.21   55.81
  -6  -2   8  181.39   51.21
  -6  -2   8  268.45   56.55
  -6  -2   9  839.49  120.53
  -6  -2   9 1165.11  124.89
  -6  -2  10  219.98   62.58
  -6  -2  10  242.60   56.07
  -6  -1  -9  336.13   71.95
  -6  -1  -8   36.78   18.54
  -6  -1  -7    4.31    5.27
  -6  -1  -7   40.03   22.80
  -6  -1  -6  233.80   48.28
  -6  -1  -6  347.44   56.12
  -6  -1  -5   43.61   18.61
  -6  -1  -5   62.51   22.00
  -6  -1  -4  341.40   52.32
  -6  -1  -4  420.25   53.60
  -6  -1  -3 1071.95   89.89
  -6  -1  -3 1034.16   85.74
  -6  -1  -2 2279.16  132.80
  -6  -1  -2 2258.53  133.92
  -6  -1  -2 2056.86  106.60
  -6  -1  -1   25.19   12.12
  -6  -1  -1   14.79   10.66
  -6  -1  -1   17.63    6.42
  -6  -1   0  961.37   73.16
  -6  -1   0  811.04   74.28
  -6  -1   0  829.32   56.01
  -6  -1   1  352.26   46.37
  -6  -1   1  377.48   37.58
  -6  -1   2 1653.00  117.60
  -6  -1   2 1906.54  105.53
  -6  -1   3    4.07    1.33
  -6  -1   3    3.27    2.46
  -6  -1   4  947.43   98.13
  -6  -1   4 1066.33   76.06
  -6  -1   4 1181.34   87.03
  -6  -1   5   36.81   19.93
  -6  -1   5   41.12   21.04
  -6  -1   6    2.82   14.94
  -6  -1   6    3.93    3.28
  -6  -1   6    3.61    3.80
  -6  -1   7  142.42   43.13
  -6  -1   7  143.75   40.18
  -6  -1   8  995.51  124.03
  -6  -1   8 1472.85  135.62
  -6  -1   9   52.09   23.82
  -6  -1   9   29.97   16.59
  -6  -1  10  418.95   83.16
  -6  -1  10  702.68   97.22
  -6  -1  11  286.47   68.61
  -6   0  -8   10.10   12.87
  -6   0  -7  440.72   76.00
  -6   0  -6   33.43   19.44
  -6   0  -6   75.22   26.95
  -6   0  -5  838.38   96.62
  -6   0  -5  960.47   95.20
  -6   0  -4    3.86    4.77
  -6   0  -4    5.76    7.24
  -6   0  -3  276.68   46.54
  -6   0  -3  339.25   47.99
  -6   0  -2  194.52   36.21
  -6   0  -2  193.07   34.25
  -6   0  -2  192.26   29.15
  -6   0  -1 3676.76  189.12
  -6   0  -1 3460.59  181.05
  -6   0  -1 3347.86  162.09
  -6   0   0  163.85   31.56
  -6   0   0  118.07   26.89
  -6   0   0  133.59   23.67
  -6   0   1   45.98   16.72
  -6   0   1   37.24   16.85
  -6   0   1   41.66   13.11
  -6   0   2  258.21   37.14
  -6   0   2  255.34   38.59
  -6   0   2  257.59   35.15
  -6   0   3 1237.01   99.67
  -6   0   3 1481.21   77.86
  -6   0   4   29.60   13.53
  -6   0   4   38.10   11.20
  -6   0   5  164.96   37.24
  -6   0   6  225.42   48.41
  -6   0   7   -3.16    7.87
  -6   0   7   18.53   18.70
  -6   0   8  312.89   66.72
  -6   0   8  468.57   76.03
  -6   0   9  225.05   55.15
  -6   0   9  317.08   64.36
  -6   0  10   32.81   23.40
  -6   0  10  100.85   37.61
  -6   0  11  118.07   36.57
  -6   0  11  173.32   51.42
  -6   0  11  184.04   51.82
  -6   0  12  789.39  116.84
  -6   1  -7   64.14   31.37
  -6   1  -6  216.42   54.67
  -6   1  -5    0.62   11.93
  -6   1  -5   17.71   12.49
  -6   1  -4  253.01   52.78
  -6   1  -4  294.55   50.45
  -6   1  -3  764.78   89.11
  -6   1  -3  915.27   86.79
  -6   1  -3  912.51   82.16
  -6   1  -2  118.04   32.09
  -6   1  -2  139.46   30.06
  -6   1  -2  123.32   26.46
  -6   1  -1  417.34   58.45
  -6   1  -1  414.71   51.72
  -6   1  -1  482.59   52.27
  -6   1   0  831.94   81.62
  -6   1   0  696.11   68.49
  -6   1   0  801.96   68.52
  -6   1   1 2570.09  156.37
  -6   1   1 2073.96  134.46
  -6   1   1 2421.34  134.89
  -6   1   2  117.52   26.75
  -6   1   2  139.17   27.25
  -6   1   3  832.52   76.06
  -6   1   3 1006.01   83.49
  -6   1   4   23.99   11.01
  -6   1   4   58.41   11.62
  -6   1   5  272.53   45.72
  -6   1   6   22.83   13.95
  -6   1   7  771.50   92.81
  -6   1   8   14.73    8.56
  -6   1   9  189.66   49.71
  -6   1   9  308.11   64.60
  -6   1  10  119.46   41.12
  -6   1  10  168.86   48.23
  -6   1  11  739.04   99.36
  -6   1  11  570.37   95.10
  -6   1  11  904.93  116.82
  -6   1  12  -13.31   11.98
  -6   2  -6  203.64   55.95
  -6   2  -5   -2.42    8.44
  -6   2  -4  212.06   51.26
  -6   2  -4  268.92   52.70
  -6   2  -3  112.54   34.94
  -6   2  -3  148.91   36.26
  -6   2  -3  113.43   29.17
  -6   2  -2 1904.36  151.27
  -6   2  -2 1857.35  133.25
  -6   2  -2 2041.36  137.28
  -6   2  -1    2.72    3.03
  -6   2  -1    1.45    4.31
  -6   2  -1   13.65   10.84
  -6   2   0    7.29    2.44
  -6   2   0    9.23    3.12
  -6   2   1  205.89   41.95
  -6   2   1  184.77   33.87
  -6   2   1  192.49   35.07
  -6   2   2 2875.95  178.89
  -6   2   2 2488.93  148.22
  -6   2   2 2663.37  156.36
  -6   2   3  170.68   32.08
  -6   2   3  207.69   38.15
  -6   2   4  146.95   30.23
  -6   2   4  161.03   34.48
  -6   2   5   78.96   22.04
  -6   2   5   70.42   23.36
  -6   2   6  128.40   29.74
  -6   2   7   42.46   17.68
  -6   2   8  176.27   42.10
  -6   2   9  108.97   36.54
  -6   2  10   36.62   27.38
  -6   2  11  677.06   98.04
  -6   2  11  756.74   99.77
  -6   3  -5   19.36   12.72
  -6   3  -4  188.11   52.31
  -6   3  -3  157.05   45.77
  -6   3  -3  190.77   43.54
  -6   3  -3  174.67   42.32
  -6   3  -2   45.41   22.26
  -6   3  -2   49.56   19.61
  -6   3  -2   79.32   26.70
  -6   3  -1  547.13   78.13
  -6   3  -1  543.58   66.45
  -6   3  -1  549.71   69.85
  -6   3   0 1422.55  130.83
  -6   3   0 1438.51  108.90
  -6   3   0 1532.76  120.26
  -6   3   1  311.88   56.34
  -6   3   1  269.28   40.77
  -6   3   1  323.36   50.38
  -6   3   2  441.98   68.20
  -6   3   2  412.66   51.50
  -6   3   2  413.87   57.46
  -6   3   3  274.51   40.06
  -6   3   3  266.14   46.35
  -6   3   4  811.71   73.97
  -6   3   4  822.04   87.35
  -6   3   5   95.39   23.99
  -6   3   5  100.90   30.78
  -6   3   6  889.61   81.37
  -6   3   6  973.03  102.74
  -6   3   7   11.57    9.66
  -6   3   8   -1.93    8.18
  -6   3   9   -7.82   10.94
  -6   3  10  705.53   92.46
  -6   3  11   14.08   16.35
  -6   4  -3  949.86  123.90
  -6   4  -3  882.78  105.94
  -6   4  -2   24.87   15.58
  -6   4  -2   27.51   13.44
  -6   4  -1  -24.89   17.62
  -6   4  -1    7.93   10.60
  -6   4  -1    6.83   12.35
  -6   4   0  133.61   41.22
  -6   4   0  123.14   30.93
  -6   4   0  183.90   41.57
  -6   4   1 2438.15  189.07
  -6   4   1 2523.16  154.02
  -6   4   1 2414.11  169.20
  -6   4   2  162.70   43.13
  -6   4   2  209.15   35.88
  -6   4   2  185.74   40.20
  -6   4   3  111.58   25.18
  -6   4   3  101.71   28.29
  -6   4   4  103.75   23.91
  -6   4   4  114.77   31.89
  -6   4   5  957.90   79.18
  -6   4   5  991.99  104.78
  -6   4   6   50.45   14.54
  -6   4   6   46.50   20.42
  -6   4   7  178.36   45.22
  -6   4   8   47.75   21.33
  -6   4   9  -24.16   16.85
  -6   4  10  186.93   45.69
  -6   4  11  247.73   55.62
  -6   5  -2  244.03   63.73
  -6   5  -2  265.32   58.18
  -6   5  -1  545.59   93.16
  -6   5  -1  648.60   89.92
  -6   5   0  117.65   38.87
  -6   5   0  211.66   49.21
  -6   5   1  173.37   48.67
  -6   5   1  206.01   40.74
  -6   5   1  137.87   38.29
  -6   5   2  421.22   77.20
  -6   5   2  433.04   56.02
  -6   5   2  392.48   64.84
  -6   5   3  840.85   96.53
  -6   5   4  152.23   41.97
  -6   5   5  575.77   81.97
  -6   5   6   97.62   25.32
  -6   5   6  121.41   40.36
  -6   5   6  131.76   39.52
  -6   5   7   34.81   16.85
  -6   5   7   79.65   32.03
  -6   5   8   18.40   11.63
  -6   5   8   36.04   25.28
  -6   5   9  574.78   76.66
  -6   5   9  608.60   94.94
  -6   5  10   -7.88    6.20
  -6   5  11  268.27   57.07
  -6   6  -1   13.97   19.01
  -6   6   0 1262.81  135.13
  -6   6   1  279.53   67.24
  -6   6   1  284.54   61.49
  -6   6   2   10.95   15.28
  -6   6   2    5.85    5.85
  -6   6   3   55.97   22.74
  -6   6   4 1588.26  171.58
  -6   6   4 1340.04  136.03
  -6   6   5  372.50   80.80
  -6   6   5  339.27   65.48
  -6   6   6  162.39   51.89
  -6   6   6  132.35   42.80
  -6   6   7   62.26   24.16
  -6   6   8  215.35   54.64
  -6   7   4  386.49   88.11
  -6   7   5  352.86   84.28
  -6   7   6  385.20   88.25
  -5 -13  -5   59.29   31.50
  -5 -13  -4  492.32   90.89
  -5 -12  -9  802.15  115.67
  -5 -12  -8  571.58   91.61
  -5 -12  -7   48.44   26.47
  -5 -12  -7   16.91   30.79
  -5 -12  -6   38.43   21.68
  -5 -12  -6   40.68   26.26
  -5 -12  -6   33.52   23.03
  -5 -12  -5  120.05   36.46
  -5 -12  -5   88.49   42.51
  -5 -12  -5  162.80   45.44
  -5 -12  -4   34.43   18.22
  -5 -12  -4   54.96   36.08
  -5 -12  -4   26.80   23.06
  -5 -12  -3  376.62   92.32
  -5 -12  -3  377.15   76.42
  -5 -12  -2  209.44   66.57
  -5 -12  -2  256.10   64.04
  -5 -12  -1   14.19   18.59
  -5 -12  -1   31.45   24.29
  -5 -11 -11  590.42  109.28
  -5 -11 -10  495.18   94.46
  -5 -11 -10  456.39  105.87
  -5 -11  -9   -7.02   11.50
  -5 -11  -9   26.53   22.29
  -5 -11  -8  393.02   73.80
  -5 -11  -8  252.03   72.70
  -5 -11  -7  450.77   75.17
  -5 -11  -7  448.56   99.48
  -5 -11  -6  414.95   69.09
  -5 -11  -6  442.98   98.30
  -5 -11  -5  207.31   46.93
  -5 -11  -5  144.09   56.69
  -5 -11  -5  217.95   49.44
  -5 -11  -4  210.23   45.16
  -5 -11  -4  210.30   69.18
  -5 -11  -4  238.58   53.91
  -5 -11  -3    7.74    8.83
  -5 -11  -3   15.95   12.04
  -5 -11  -3   11.88    6.28
  -5 -11  -2    5.89    1.89
  -5 -11  -2  -17.50   18.55
  -5 -11  -2  -30.46   24.02
  -5 -11  -1  517.37   72.67
  -5 -11  -1  501.63  101.97
  -5 -11  -1  580.21   92.47
  -5 -11   0  242.71   50.64
  -5 -11   0  285.71   70.90
  -5 -11   0  289.91   67.70
  -5 -11   1  404.17   69.28
  -5 -11   1  609.16  102.19
  -5 -10 -12  -15.82   21.51
  -5 -10 -12    3.18   13.56
  -5 -10 -11   20.86   17.09
  -5 -10 -11   15.29   11.98
  -5 -10 -11   42.90   23.51
  -5 -10 -10 1141.01  143.80
  -5 -10 -10 1271.19  155.54
  -5 -10 -10  797.57  131.79
  -5 -10  -9 1245.67  142.19
  -5 -10  -9 1053.36  150.02
  -5 -10  -8   13.99   13.34
  -5 -10  -8   -8.69   15.43
  -5 -10  -7   -3.76    7.92
  -5 -10  -7   -3.46   12.91
  -5 -10  -6  485.40   70.09
  -5 -10  -6  403.29   87.05
  -5 -10  -5  760.19   86.01
  -5 -10  -5  659.74  110.48
  -5 -10  -5  815.42   89.40
  -5 -10  -4  219.31   42.93
  -5 -10  -4  280.80   71.61
  -5 -10  -4  255.15   49.95
  -5 -10  -3  135.79   31.98
  -5 -10  -3  144.55   28.73
  -5 -10  -3  156.80   52.67
  -5 -10  -3  141.70   38.52
  -5 -10  -2   -3.81    6.64
  -5 -10  -2   21.25   12.79
  -5 -10  -2   22.50   27.82
  -5 -10  -2   19.37   14.14
  -5 -10  -1    1.12    2.17
  -5 -10  -1    9.67    9.12
  -5 -10  -1   -0.67    6.52
  -5 -10   0  762.19   86.42
  -5 -10   0  813.07  122.42
  -5 -10   0  779.77   87.39
  -5 -10   0  873.90  111.25
  -5 -10   1  477.13   70.81
  -5 -10   1  510.48   73.92
  -5 -10   1  674.13  103.72
  -5 -10   1  609.63   94.64
  -5 -10   2    6.40    7.63
  -5 -10   2   26.86   23.70
  -5 -10   2   -4.37    9.26
  -5 -10   3  334.12   61.30
  -5 -10   3  344.01   66.93
  -5 -10   3  436.67   86.46
  -5 -10   4  441.01   83.22
  -5  -9 -12  215.99   69.86
  -5  -9 -12  139.71   53.27
  -5  -9 -12  112.98   47.80
  -5  -9 -11  295.12   76.13
  -5  -9 -11  420.83   92.61
  -5  -9 -11  225.07   65.18
  -5  -9 -10   38.42   23.21
  -5  -9 -10   45.98   28.54
  -5  -9 -10   45.82   27.77
  -5  -9  -9  533.23   93.90
  -5  -9  -9  470.03   84.18
  -5  -9  -9  484.08   94.14
  -5  -9  -8  848.59  106.92
  -5  -9  -8  789.28  117.85
  -5  -9  -7  681.86   87.47
  -5  -9  -7  537.80   94.63
  -5  -9  -6   92.80   29.73
  -5  -9  -6   47.35   29.15
  -5  -9  -6   63.30   14.54
  -5  -9  -5  441.07   59.90
  -5  -9  -5  417.18   41.94
  -5  -9  -5  362.32   74.70
  -5  -9  -5  453.48   58.86
  -5  -9  -4   78.01   18.72
  -5  -9  -4   71.95   37.60
  -5  -9  -4  101.50   27.16
  -5  -9  -4   74.40   15.39
  -5  -9  -4   76.59   23.44
  -5  -9  -3  156.94   29.34
  -5  -9  -3  141.83   46.71
  -5  -9  -3  131.23   29.73
  -5  -9  -3  183.79   26.60
  -5  -9  -3  166.14   38.04
  -5  -9  -2  435.03   81.13
  -5  -9  -2  547.65   62.41
  -5  -9  -2  434.65   54.78
  -5  -9  -2  664.72   58.59
  -5  -9  -2  536.84   74.40
  -5  -9  -1  402.24   78.17
  -5  -9  -1  514.41   63.38
  -5  -9  -1  362.07   50.57
  -5  -9  -1  550.63   58.31
  -5  -9  -1  428.18   67.78
  -5  -9   0  581.39   98.61
  -5  -9   0  715.59   80.70
  -5  -9   0  586.63   69.10
  -5  -9   0  785.18   77.92
  -5  -9   0  719.43   93.12
  -5  -9   1  304.72   66.11
  -5  -9   1  324.51   56.75
  -5  -9   1  261.28   47.33
  -5  -9   1  375.14   56.75
  -5  -9   1  309.91   63.30
  -5  -9   2  668.99   88.92
  -5  -9   2  722.82   98.29
  -5  -9   2  544.52   74.19
  -5  -9   2  873.46   95.63
  -5  -9   2  688.13   99.72
  -5  -9   3  537.29   85.72
  -5  -9   3  558.80   75.55
  -5  -9   3  755.27   95.13
  -5  -9   3  746.07  106.52
  -5  -9   4  484.80   84.92
  -5  -9   4  646.84   94.26
  -5  -9   4  591.10   97.85
  -5  -9   5  430.64   85.50
  -5  -9   5  375.59   74.59
  -5  -8 -12  112.30   50.68
  -5  -8 -12   62.74   31.08
  -5  -8 -11  566.83  107.52
  -5  -8 -11  896.14  134.86
  -5  -8 -11  689.21  108.62
  -5  -8 -10 1037.80  137.24
  -5  -8 -10 1348.94  157.29
  -5  -8 -10  921.80  124.81
  -5  -8  -9  -13.78   22.76
  -5  -8  -9   -8.68    8.79
  -5  -8  -9   16.58   20.26
  -5  -8  -8   11.21    8.17
  -5  -8  -8    8.61    6.76
  -5  -8  -8   13.30   18.01
  -5  -8  -8   29.32   11.69
  -5  -8  -7 1039.66  110.09
  -5  -8  -7 1045.39   73.02
  -5  -8  -7  967.96  121.10
  -5  -8  -6 2368.68  163.35
  -5  -8  -6 2055.08  183.21
  -5  -8  -6 2344.73  120.61
  -5  -8  -5   58.24   19.21
  -5  -8  -5   78.66   32.91
  -5  -8  -5   67.99   16.11
  -5  -8  -5   93.11   23.00
  -5  -8  -4   49.24   15.39
  -5  -8  -4   54.61   27.30
  -5  -8  -4   56.94   18.91
  -5  -8  -4   43.82   12.98
  -5  -8  -4   68.76   10.47
  -5  -8  -4   65.49   11.87
  -5  -8  -4   61.92   19.59
  -5  -8  -3   78.17   18.91
  -5  -8  -3   75.87   27.68
  -5  -8  -3  111.90   25.17
  -5  -8  -3   78.79   16.76
  -5  -8  -3   99.77   14.76
  -5  -8  -3   83.45   13.17
  -5  -8  -3   63.67   20.93
  -5  -8  -2  293.44   59.52
  -5  -8  -2  330.98   45.91
  -5  -8  -2  289.67   32.53
  -5  -8  -2  287.05   39.28
  -5  -8  -2  390.96   37.36
  -5  -8  -2  352.86   53.46
  -5  -8  -1  643.00   89.73
  -5  -8  -1  817.74   80.14
  -5  -8  -1  718.90   65.06
  -5  -8  -1  684.38   55.49
  -5  -8  -1  910.96   68.12
  -5  -8  -1  870.44   90.61
  -5  -8   0  709.45   96.48
  -5  -8   0  848.22   85.37
  -5  -8   0  622.21   65.24
  -5  -8   0 1024.44   80.60
  -5  -8   0  873.41   95.83
  -5  -8   1    0.93    3.93
  -5  -8   1    0.35   14.17
  -5  -8   1    1.88    4.15
  -5  -8   1   18.96   11.86
  -5  -8   1   -9.83    9.24
  -5  -8   2  193.39   45.32
  -5  -8   2  270.46   56.10
  -5  -8   2  175.72   37.42
  -5  -8   2  242.42   45.43
  -5  -8   2  222.25   51.95
  -5  -8   3 1067.31  121.24
  -5  -8   3 1347.12  121.96
  -5  -8   3 1257.35  133.44
  -5  -8   4  571.87   91.10
  -5  -8   4  797.49   97.58
  -5  -8   4  679.81  100.11
  -5  -8   5   24.61   21.42
  -5  -8   5   26.70   14.25
  -5  -8   6  457.98   83.35
  -5  -8   7  591.42   98.49
  -5  -7 -12  176.79   63.26
  -5  -7 -12  135.70   43.82
  -5  -7 -11   55.47   31.60
  -5  -7 -11   88.15   36.66
  -5  -7 -10  416.73   85.08
  -5  -7 -10  611.51  101.36
  -5  -7 -10  428.43   76.90
  -5  -7  -9  792.38  111.05
  -5  -7  -9  735.82  107.72
  -5  -7  -9  867.15   78.55
  -5  -7  -9  517.24   88.29
  -5  -7  -8  625.52   90.60
  -5  -7  -8  572.17   88.62
  -5  -7  -8  643.50   61.93
  -5  -7  -8  519.76   85.30
  -5  -7  -7   23.00   13.31
  -5  -7  -7   15.14    5.22
  -5  -7  -7   16.90    8.52
  -5  -7  -7   49.00   25.16
  -5  -7  -7   26.29    6.79
  -5  -7  -6  503.46   77.79
  -5  -7  -6  595.44   53.99
  -5  -7  -6  580.99   74.89
  -5  -7  -6  641.77   78.15
  -5  -7  -6  589.17   46.98
  -5  -7  -6  704.50   48.79
  -5  -7  -5  694.66   91.96
  -5  -7  -5  786.25   61.96
  -5  -7  -5  761.09   77.20
  -5  -7  -5  749.02   40.88
  -5  -7  -5  828.63   60.21
  -5  -7  -4  545.07   58.12
  -5  -7  -4  533.47   45.49
  -5  -7  -4  659.20   57.01
  -5  -7  -4  627.59   56.46
  -5  -7  -3  186.87   22.81
  -5  -7  -3  220.68   32.23
  -5  -7  -3  182.90   29.80
  -5  -7  -3  144.79   25.64
  -5  -7  -3  231.85   35.25
  -5  -7  -2  655.22   65.58
  -5  -7  -2  694.93   57.42
  -5  -7  -2  637.59   43.90
  -5  -7  -2  805.82   44.35
  -5  -7  -2  728.80   71.50
  -5  -7  -1  158.47   39.39
  -5  -7  -1  171.30   33.45
  -5  -7  -1  158.14   24.77
  -5  -7  -1  190.27   22.14
  -5  -7  -1  190.64   25.30
  -5  -7  -1  178.15   35.71
  -5  -7   0   42.03   18.49
  -5  -7   0    4.22    6.16
  -5  -7   0   45.06   11.98
  -5  -7   0   31.57   10.86
  -5  -7   0   44.31   14.69
  -5  -7   0   52.62   19.83
  -5  -7   1  742.52   89.49
  -5  -7   1  957.21   94.92
  -5  -7   1  817.63   72.33
  -5  -7   1  926.92   69.57
  -5  -7   1 1107.47   85.69
  -5  -7   1  939.19   96.48
  -5  -7   2 1504.60  130.95
  -5  -7   2 1352.56  127.08
  -5  -7   2 1802.29  124.72
  -5  -7   2 1689.17  139.97
  -5  -7   3  802.03   88.21
  -5  -7   3  637.12   89.15
  -5  -7   3  813.18   86.63
  -5  -7   3  721.98   93.31
  -5  -7   4 1106.40  110.14
  -5  -7   4  810.00  104.96
  -5  -7   5  421.06   70.49
  -5  -7   5  405.35   75.18
  -5  -7   6  684.05   96.59
  -5  -7   6  612.86   95.47
  -5  -7   7  284.78   63.84
  -5  -7   7  357.42   73.92
  -5  -6 -12  185.11   67.10
  -5  -6 -11  325.82   64.94
  -5  -6 -11  545.70  101.57
  -5  -6 -10   65.76   29.15
  -5  -6 -10   18.75   13.90
  -5  -6  -9  166.69   44.26
  -5  -6  -9  276.89   45.00
  -5  -6  -9  189.13   51.97
  -5  -6  -8  700.51   92.04
  -5  -6  -8  946.04   80.07
  -5  -6  -8  854.14  102.15
  -5  -6  -8  907.55  107.62
  -5  -6  -7 2809.76  146.60
  -5  -6  -7 2485.21  141.23
  -5  -6  -7 2490.19  180.07
  -5  -6  -7 2633.44  177.84
  -5  -6  -6    1.02    3.94
  -5  -6  -6    4.62    4.94
  -5  -6  -6    2.89    4.52
  -5  -6  -6    4.52    4.60
  -5  -6  -5    4.63    6.06
  -5  -6  -5   -3.98   10.17
  -5  -6  -5   -0.92    3.33
  -5  -6  -5   10.56    4.05
  -5  -6  -5   13.15    4.72
  -5  -6  -4  262.76   37.97
  -5  -6  -4  347.19   39.00
  -5  -6  -4  333.63   39.68
  -5  -6  -4  318.30   32.06
  -5  -6  -3 2231.68   98.58
  -5  -6  -3 2384.78  110.22
  -5  -6  -3 2183.44  118.40
  -5  -6  -3 2325.51  127.37
  -5  -6  -3 2242.44  120.24
  -5  -6  -2  379.23   22.95
  -5  -6  -2  389.93   35.82
  -5  -6  -2  359.97   45.46
  -5  -6  -2  352.32   43.27
  -5  -6  -2  296.83   33.52
  -5  -6  -1 1133.18   89.87
  -5  -6  -1 1032.22   45.40
  -5  -6  -1  858.24   57.21
  -5  -6  -1 1136.08   59.46
  -5  -6  -1  778.33   64.29
  -5  -6  -1  957.83   80.36
  -5  -6   0   13.45    8.37
  -5  -6   0   22.62    8.63
  -5  -6   0   16.09    5.95
  -5  -6   0   10.39    5.03
  -5  -6   0   29.64   13.99
  -5  -6   1    3.67    2.45
  -5  -6   1    1.94    3.38
  -5  -6   1   -0.28    3.80
  -5  -6   2 1137.24  109.11
  -5  -6   2 1262.26   97.15
  -5  -6   2 1108.51  104.67
  -5  -6   3 1127.84   98.09
  -5  -6   3 1000.94  110.16
  -5  -6   3 1177.39  101.49
  -5  -6   3 1186.76  113.34
  -5  -6   4    0.56    2.93
  -5  -6   4   -3.27   11.98
  -5  -6   5  730.87   89.21
  -5  -6   5  621.64   88.28
  -5  -6   6 1391.92  135.77
  -5  -6   6 1364.14  138.93
  -5  -6   7  341.71   67.08
  -5  -6   7  372.08   71.97
  -5  -6   8  -13.36    9.42
  -5  -6   8   24.45   18.91
  -5  -5 -12  327.44   82.68
  -5  -5 -11  102.39   41.28
  -5  -5 -10  267.49   53.86
  -5  -5 -10  250.77   62.68
  -5  -5  -9  273.26   53.46
  -5  -5  -9  313.03   63.67
  -5  -5  -8  194.26   36.03
  -5  -5  -8  115.72   33.76
  -5  -5  -7  671.77   64.67
  -5  -5  -7  663.14   65.05
  -5  -5  -7  622.26   76.35
  -5  -5  -6 1664.77  102.82
  -5  -5  -6 1402.14   91.48
  -5  -5  -6 1520.43  112.61
  -5  -5  -5 1189.71   80.41
  -5  -5  -5 1016.03   62.70
  -5  -5  -5 1034.54   80.21
  -5  -5  -5  974.36   82.78
  -5  -5  -4   10.60    5.25
  -5  -5  -4    5.97    4.58
  -5  -5  -4   17.62    9.13
  -5  -5  -3  758.82   46.17
  -5  -5  -3  655.06   50.00
  -5  -5  -3  786.09   63.57
  -5  -5  -3  719.79   48.27
  -5  -5  -2  243.38   22.61
  -5  -5  -2  269.47   36.96
  -5  -5  -2  208.22   21.53
  -5  -5  -2  245.13   30.60
  -5  -5  -1  416.08   26.44
  -5  -5  -1  360.11   47.55
  -5  -5  -1  369.92   42.57
  -5  -5  -1  330.79   32.18
  -5  -5   0  331.03   47.35
  -5  -5   0  281.86   23.24
  -5  -5   0  307.30   31.19
  -5  -5   0  233.95   30.70
  -5  -5   0  251.82   38.13
  -5  -5   1 1467.42  114.49
  -5  -5   1 1408.10   79.32
  -5  -5   1 1681.92  100.40
  -5  -5   1 1309.37   90.61
  -5  -5   1 1450.45  106.57
  -5  -5   2  551.22   69.67
  -5  -5   2  475.34   46.95
  -5  -5   2  583.54   60.23
  -5  -5   2  531.74   64.38
  -5  -5   3  731.59   87.24
  -5  -5   3  567.79   58.37
  -5  -5   3  687.77   72.17
  -5  -5   3  645.93   75.63
  -5  -5   4  681.86   90.93
  -5  -5   4  847.27   86.00
  -5  -5   4  668.99   81.29
  -5  -5   5 2412.54  132.22
  -5  -5   5 2345.54  164.45
  -5  -5   5 2037.54  162.29
  -5  -5   6  250.43   50.45
  -5  -5   6  198.50   47.09
  -5  -5   7 1145.69  122.76
  -5  -5   7 1075.17  119.94
  -5  -5   8  193.70   51.92
  -5  -5   8  126.23   38.63
  -5  -5   9  200.82   53.28
  -5  -5   9  209.50   53.36
  -5  -4 -12  176.92   61.57
  -5  -4 -11   10.08   10.33
  -5  -4 -10   58.67   29.53
  -5  -4 -10   45.27   21.15
  -5  -4  -9  360.06   68.21
  -5  -4  -8 1173.98  120.18
  -5  -4  -8 1654.36  120.16
  -5  -4  -7   -4.14    5.58
  -5  -4  -7    6.67    7.50
  -5  -4  -7   -0.43    1.22
  -5  -4  -6   36.16   11.59
  -5  -4  -6   29.11   13.75
  -5  -4  -6   30.22   12.04
  -5  -4  -6   34.38   12.15
  -5  -4  -5  546.02   54.11
  -5  -4  -5  511.32   54.14
  -5  -4  -5  466.72   45.08
  -5  -4  -5  457.13   47.83
  -5  -4  -4 3647.82  168.24
  -5  -4  -4 4034.82  179.90
  -5  -4  -3   52.25   11.88
  -5  -4  -3   60.34   15.27
  -5  -4  -3   39.83   13.39
  -5  -4  -2  249.51   18.65
  -5  -4  -2  220.54   32.66
  -5  -4  -2  197.67   31.86
  -5  -4  -1   11.66    3.08
  -5  -4  -1    8.87    5.90
  -5  -4  -1   15.26    4.41
  -5  -4   0  714.82   68.61
  -5  -4   0  602.29   67.69
  -5  -4   0  652.86   41.12
  -5  -4   0  587.06   44.49
  -5  -4   0  638.59   55.82
  -5  -4   1  532.43   62.59
  -5  -4   1  463.12   33.13
  -5  -4   1  522.01   46.99
  -5  -4   1  511.99   63.04
  -5  -4   1  424.05   41.25
  -5  -4   1  546.26   55.36
  -5  -4   2 1848.27  131.02
  -5  -4   2 1392.64   82.77
  -5  -4   2 1851.83  112.85
  -5  -4   2 1747.59  125.69
  -5  -4   2 1279.34   88.14
  -5  -4   2 1659.23  111.87
  -5  -4   3   -0.80    3.86
  -5  -4   3   -2.25    3.65
  -5  -4   3   -5.13    3.78
  -5  -4   3    9.17    8.15
  -5  -4   4  270.83   52.85
  -5  -4   4  305.31   48.68
  -5  -4   4  236.20   41.95
  -5  -4   4  281.31   48.24
  -5  -4   5 1761.28  133.21
  -5  -4   5 1468.47  124.77
  -5  -4   6 1301.53  118.37
  -5  -4   6  990.18  104.79
  -5  -4   7   10.18    3.32
  -5  -4   7   -0.08    4.51
  -5  -4   8  292.48   60.42
  -5  -4   8  323.13   61.02
  -5  -4   9  815.41  107.82
  -5  -4   9  632.50   92.15
  -5  -4  10   32.30   20.98
  -5  -3 -11   57.83   32.32
  -5  -3 -10  101.32   36.86
  -5  -3  -9  281.72   60.82
  -5  -3  -8  253.74   52.65
  -5  -3  -8  345.83   54.85
  -5  -3  -7 1297.36  116.97
  -5  -3  -7 1677.98  119.65
  -5  -3  -6 1047.18   93.35
  -5  -3  -6 1061.88   86.44
  -5  -3  -6 1057.15   64.66
  -5  -3  -5  349.54   45.84
  -5  -3  -5  385.08   46.15
  -5  -3  -5  355.36   36.23
  -5  -3  -4  379.37   43.30
  -5  -3  -4  413.44   45.72
  -5  -3  -4  349.25   37.96
  -5  -3  -3 1176.20   72.48
  -5  -3  -3 1206.97   82.62
  -5  -3  -3  977.61   71.81
  -5  -3  -2 1083.39   60.23
  -5  -3  -2 1091.83   77.76
  -5  -3  -2  893.96   69.94
  -5  -3  -1   14.93    5.19
  -5  -3  -1   14.08    7.80
  -5  -3   0 1051.79   77.43
  -5  -3   1   24.83    5.03
  -5  -3   1   27.72    9.95
  -5  -3   1   20.50    9.48
  -5  -3   1   22.58   11.04
  -5  -3   2  111.49   18.10
  -5  -3   2  103.73   24.26
  -5  -3   2   90.09   20.35
  -5  -3   2  109.10   21.85
  -5  -3   2  109.87   24.83
  -5  -3   3  649.24   76.61
  -5  -3   3  527.90   50.58
  -5  -3   3  684.15   68.80
  -5  -3   3  627.32   64.00
  -5  -3   3  659.10   65.61
  -5  -3   4 2228.74  163.15
  -5  -3   4 2000.87  124.12
  -5  -3   4 2209.50  133.56
  -5  -3   4 2034.97  137.86
  -5  -3   5  253.92   52.57
  -5  -3   5  228.90   43.67
  -5  -3   5  214.20   33.45
  -5  -3   5  232.52   42.03
  -5  -3   6 1520.28  126.02
  -5  -3   6 1177.17  110.07
  -5  -3   7  277.63   54.66
  -5  -3   7  282.05   52.51
  -5  -3   8 1086.12  116.08
  -5  -3   8  875.90  103.30
  -5  -3   9  107.61   37.61
  -5  -3   9   79.64   31.33
  -5  -3  10  727.22   94.07
  -5  -3  10 1162.07  131.96
  -5  -2 -11  100.17   41.95
  -5  -2 -10  143.58   45.29
  -5  -2  -9  581.66   91.07
  -5  -2  -8   43.18   23.74
  -5  -2  -7    9.31    3.35
  -5  -2  -7   22.92   13.73
  -5  -2  -6  570.04   70.97
  -5  -2  -6  722.81   72.44
  -5  -2  -5 2958.50  175.73
  -5  -2  -5 3467.03  176.16
  -5  -2  -4   -1.16    8.55
  -5  -2  -4    9.14    6.97
  -5  -2  -3  159.64   26.75
  -5  -2  -3  152.32   27.83
  -5  -2  -2  162.65   24.34
  -5  -2  -1 2900.18  119.80
  -5  -2  -1 2301.11   91.23
  -5  -2   0  139.07   18.39
  -5  -2   1 1171.84   59.28
  -5  -2   2   29.19   12.33
  -5  -2   2   59.70   14.76
  -5  -2   2   78.31   18.40
  -5  -2   2   85.64   14.74
  -5  -2   3  -11.87   11.09
  -5  -2   3    5.77    4.23
  -5  -2   3    6.04    5.67
  -5  -2   3    3.69    5.72
  -5  -2   4  778.77   86.99
  -5  -2   4  748.35   75.90
  -5  -2   4  748.51   63.08
  -5  -2   4  736.84   66.69
  -5  -2   5 1694.90  144.76
  -5  -2   5 1831.18  103.80
  -5  -2   5 2086.53  143.88
  -5  -2   6    3.99    7.44
  -5  -2   6    7.56    5.75
  -5  -2   7  219.59   53.63
  -5  -2   7  427.93   66.86
  -5  -2   8 1258.30  125.56
  -5  -2   9  721.72   96.66
  -5  -2  10   10.13    4.71
  -5  -2  11  136.05   40.79
  -5  -1 -10  393.98   83.59
  -5  -1  -9   86.60   34.24
  -5  -1  -8  729.96   97.60
  -5  -1  -7  322.74   59.42
  -5  -1  -6  273.44   51.45
  -5  -1  -6  415.93   58.14
  -5  -1  -5  269.41   46.30
  -5  -1  -5  294.29   44.87
  -5  -1  -4 1701.73  122.17
  -5  -1  -4 2073.60  124.68
  -5  -1  -3 1165.09   89.21
  -5  -1  -3 1245.04   88.91
  -5  -1  -2  121.00   23.57
  -5  -1  -2  102.63   22.38
  -5  -1  -2   98.49   15.42
  -5  -1  -1  606.36   52.03
  -5  -1  -1  422.52   47.59
  -5  -1  -1  572.15   52.79
  -5  -1  -1  510.91   36.74
  -5  -1   0  270.93   32.22
  -5  -1   0  204.14   22.62
  -5  -1   0  231.02   33.82
  -5  -1   1    4.07    3.23
  -5  -1   2  291.60   30.64
  -5  -1   2  311.77   33.04
  -5  -1   3 1371.68  107.81
  -5  -1   3 1368.70   82.78
  -5  -1   3 1604.33   92.67
  -5  -1   4   28.55   12.98
  -5  -1   4   74.30   21.44
  -5  -1   4   53.15   17.30
  -5  -1   5  825.65   94.40
  -5  -1   5  977.32   63.16
  -5  -1   5  969.15   93.04
  -5  -1   6  415.35   68.99
  -5  -1   6  578.78   73.15
  -5  -1   7 1049.20  119.97
  -5  -1   7 1585.39  131.44
  -5  -1   8   91.99   37.23
  -5  -1   8  139.59   39.60
  -5  -1   9 1274.29  141.56
  -5  -1   9 1874.77  157.56
  -5  -1  10   86.86   31.95
  -5  -1  11   76.71   28.60
  -5  -1  11  185.15   50.22
  -5   0  -9   89.98   36.35
  -5   0  -8   59.39   30.22
  -5   0  -7  144.79   41.13
  -5   0  -6 1774.03  153.07
  -5   0  -6 2543.90  166.64
  -5   0  -5  150.89   35.90
  -5   0  -5  223.83   42.22
  -5   0  -4    2.54    5.06
  -5   0  -4   24.73   13.16
  -5   0  -3  428.36   56.38
  -5   0  -3  414.14   49.40
  -5   0  -2 3773.11  190.72
  -5   0  -2 3889.12  184.67
  -5   0  -2 3453.76  168.03
  -5   0  -2 3680.55  167.67
  -5   0  -1  121.29   24.97
  -5   0  -1  134.77   25.81
  -5   0  -1  112.26   21.87
  -5   0  -1   73.65   15.57
  -5   0   0  755.44   62.78
  -5   0   0  677.11   49.51
  -5   0   0  623.80   56.45
  -5   0   1   59.05   16.14
  -5   0   1   71.16   19.46
  -5   0   1   54.73   13.07
  -5   0   2  882.96   67.93
  -5   0   3  185.85   22.37
  -5   0   3  224.54   32.66
  -5   0   4 1498.85  116.93
  -5   0   4 1940.72  116.08
  -5   0   5   -0.81   12.36
  -5   0   5    6.07    8.70
  -5   0   6  288.43   50.88
  -5   0   6  336.18   23.98
  -5   0   7  692.79   92.41
  -5   0   7 1045.58  104.77
  -5   0   8 1197.06  130.85
  -5   0   8 1736.63  144.40
  -5   0   9   28.73   16.00
  -5   0   9   35.83   21.05
  -5   0  10  119.91   40.26
  -5   0  10  342.67   66.58
  -5   0  11  390.00   68.01
  -5   0  11  394.71   77.81
  -5   0  11  542.90   87.09
  -5   0  12  133.87   47.19
  -5   1  -8  103.61   36.51
  -5   1  -7  332.92   68.12
  -5   1  -6   37.56   22.40
  -5   1  -5 1502.86  139.07
  -5   1  -5 2090.87  147.42
  -5   1  -4  673.41   84.02
  -5   1  -4  803.76   80.88
  -5   1  -3  136.61   34.15
  -5   1  -3   52.09   14.55
  -5   1  -3  130.08   28.62
  -5   1  -3  142.04   27.38
  -5   1  -2  327.86   48.68
  -5   1  -2  312.08   35.40
  -5   1  -2  400.50   48.38
  -5   1  -2  363.24   43.94
  -5   1  -1 1363.91  102.37
  -5   1  -1 1360.54   92.10
  -5   1  -1 1418.70   89.99
  -5   1  -1 1143.96   76.91
  -5   1   0  436.31   52.65
  -5   1   0  407.43   45.60
  -5   1   0  464.68   46.34
  -5   1   0  379.00   41.41
  -5   1   1   11.92    6.54
  -5   1   1   -3.09    5.11
  -5   1   1    7.86    5.03
  -5   1   2  853.81   68.59
  -5   1   3   29.45    6.58
  -5   1   4  157.58   30.47
  -5   1   5  412.29   54.75
  -5   1   6  979.76   96.33
  -5   1   7   -1.12    6.69
  -5   1   7   22.10   11.81
  -5   1   8 1004.79  116.46
  -5   1   8 1432.83  130.09
  -5   1   9  231.66   54.99
  -5   1   9  423.05   71.62
  -5   1  10  495.40   84.01
  -5   1  10  867.93  106.55
  -5   1  11   -7.72    6.87
  -5   1  11    0.81   15.87
  -5   1  11   -4.94    6.74
  -5   1  12  674.23  101.62
  -5   2  -7  663.43  104.38
  -5   2  -6  112.02   43.89
  -5   2  -5  -11.05   17.26
  -5   2  -4  191.14   44.87
  -5   2  -4  261.10   48.65
  -5   2  -3 2782.76  191.76
  -5   2  -3 2964.97  178.38
  -5   2  -3 3113.35  177.35
  -5   2  -2  646.84   77.93
  -5   2  -2  557.79   47.29
  -5   2  -2  744.22   71.18
  -5   2  -2  658.81   67.89
  -5   2  -1   96.61   27.56
  -5   2  -1   69.57   19.32
  -5   2  -1   69.34   14.83
  -5   2  -1   77.24   21.81
  -5   2   0   62.08   22.11
  -5   2   0   40.58   11.95
  -5   2   0   29.67   11.29
  -5   2   0   40.39   13.45
  -5   2   1 1706.76  121.65
  -5   2   1 1526.71   97.94
  -5   2   1 1333.28   90.69
  -5   2   1 1581.43  102.89
  -5   2   2   40.07   18.17
  -5   2   2   44.05   15.04
  -5   2   2   18.26    8.80
  -5   2   2   59.84   17.36
  -5   2   3 1125.72   89.74
  -5   2   4   17.76    9.89
  -5   2   5  -10.42   10.94
  -5   2   6  301.94   45.92
  -5   2   7 1900.65  155.93
  -5   2   7 3262.05  133.90
  -5   2   8   52.22   24.55
  -5   2   9  227.23   51.74
  -5   2   9  310.58   62.95
  -5   2  10  365.12   69.72
  -5   2  10  428.52   68.06
  -5   2  10  573.18   87.32
  -5   2  11  567.15   82.64
  -5   2  11  462.92   79.37
  -5   2  11  647.06   98.25
  -5   2  12   27.43   19.32
  -5   3  -6  863.28  120.21
  -5   3  -5  299.30   64.84
  -5   3  -4  211.99   50.17
  -5   3  -3   11.91   11.64
  -5   3  -3   22.82   13.00
  -5   3  -2 1497.96  134.29
  -5   3  -2 1522.13  118.95
  -5   3  -2 1538.47  121.33
  -5   3  -1  664.24   81.65
  -5   3  -1  593.10   65.39
  -5   3  -1  732.37   76.15
  -5   3   0   43.71   16.53
  -5   3   0   30.40   13.37
  -5   3   0   24.22    7.56
  -5   3   0   34.89   17.14
  -5   3   1  281.47   49.83
  -5   3   1  241.39   34.94
  -5   3   1  199.98   26.84
  -5   3   1  205.23   36.99
  -5   3   2  632.26   75.36
  -5   3   2  595.54   55.31
  -5   3   2  435.19   49.21
  -5   3   2  574.86   63.18
  -5   3   3   56.07   20.26
  -5   3   4  197.38   37.52
  -5   3   5  906.31   91.19
  -5   3   6   28.55   11.05
  -5   3   7  476.25   57.85
  -5   3   7  705.98   62.97
  -5   3   8  281.47   47.43
  -5   3   9  433.89   65.64
  -5   3   9  544.87   71.90
  -5   3  10  -10.81   11.98
  -5   3  10   -5.61   10.73
  -5   3  11 1036.59  113.81
  -5   4  -5   49.61   27.33
  -5   4  -4 1336.55  147.56
  -5   4  -3  382.75   73.47
  -5   4  -3  395.79   65.34
  -5   4  -2   35.79   23.20
  -5   4  -2   36.32   15.52
  -5   4  -1   78.99   29.17
  -5   4  -1  116.98   31.41
  -5   4  -1   81.73   26.41
  -5   4   0 1526.83  139.18
  -5   4   0 1753.65  121.41
  -5   4   0 1699.20  130.11
  -5   4   1  358.10   61.60
  -5   4   1  381.97   48.23
  -5   4   1  401.86   57.31
  -5   4   2  464.26   71.61
  -5   4   2  523.24   53.15
  -5   4   2  506.82   64.38
  -5   4   3   22.66   11.11
  -5   4   3   17.78    7.08
  -5   4   4   90.55   26.33
  -5   4   5   24.30   14.76
  -5   4   6 1802.79  135.73
  -5   4   6 1601.98  137.98
  -5   4   7   20.43   10.71
  -5   4   7   34.69   16.66
  -5   4   7   42.60   19.37
  -5   4   8  132.98   28.00
  -5   4   8  130.59   32.54
  -5   4   9  196.93   41.88
  -5   4  10 1119.32  112.52
  -5   4  11   85.65   29.91
  -5   5  -3 1220.93  141.92
  -5   5  -3 1155.65  125.16
  -5   5  -2  527.96   89.02
  -5   5  -2  481.39   75.13
  -5   5  -1   93.16   33.00
  -5   5  -1   74.23   28.43
  -5   5   0   -1.68    8.41
  -5   5   0    7.56   10.66
  -5   5   1 1149.84  124.12
  -5   5   1 1273.47  102.08
  -5   5   1  972.95  103.40
  -5   5   2  373.01   67.44
  -5   5   2  401.63   49.91
  -5   5   2  390.75   61.89
  -5   5   3   16.38    9.22
  -5   5   3   12.09   16.23
  -5   5   4  163.34   26.98
  -5   5   4  224.06   45.22
  -5   5   5  111.99   24.20
  -5   5   5  164.86   44.57
  -5   5   5  177.88   41.60
  -5   5   6   55.26   17.68
  -5   5   6   85.37   29.91
  -5   5   6   41.32   19.83
  -5   5   7  229.06   40.32
  -5   5   7  318.59   56.00
  -5   5   7  274.71   57.13
  -5   5   8  555.45   68.03
  -5   5   8  667.08   94.70
  -5   5   9   15.67   12.10
  -5   5   9    2.48    6.83
  -5   5  10  613.95   80.98
  -5   5  11  260.77   54.32
  -5   6  -2  142.50   43.30
  -5   6  -1 1288.23  147.62
  -5   6  -1 1210.94  129.67
  -5   6   0  449.22   82.59
  -5   6   0  423.68   72.25
  -5   6   1  215.46   54.68
  -5   6   1  154.55   41.42
  -5   6   2   39.43   24.53
  -5   6   2   35.23   18.89
  -5   6   3  374.84   64.94
  -5   6   4   86.31   36.45
  -5   6   4   77.30   30.15
  -5   6   5 1058.42  128.49
  -5   6   5 1006.83  110.63
  -5   6   6   96.00   34.40
  -5   6   6   66.58   29.17
  -5   6   7   51.87   18.10
  -5   6   7   92.08   32.37
  -5   6   7  143.49   43.62
  -5   6   8   77.36   24.35
  -5   6   8  101.43   35.92
  -5   6   9  851.73   90.79
  -5   6   9 1182.54  134.43
  -5   6  10   67.12   24.71
  -5   6  11  148.48   39.57
  -5   7   0 1074.98  126.01
  -5   7   1  631.98  113.60
  -5   7   1  541.31   86.20
  -5   7   2    2.78   12.89
  -5   7   2    2.31    9.74
  -5   7   2   11.91   12.72
  -5   7   3    3.94    7.43
  -5   7   3   30.11   19.74
  -5   7   4  485.17   93.19
  -5   7   4  356.90   66.76
  -5   7   5   71.90   38.68
  -5   7   5   60.23   28.57
  -5   7   6  162.07   50.39
  -5   7   6  116.75   37.96
  -5   7   7  362.52   74.65
  -5   7   7  331.62   69.02
  -5   7   8   15.61   14.22
  -5   8   4  312.79   82.33
  -5   8   5   80.34   41.18
  -5   8   6    5.03    5.10
  -4 -13  -5  607.26  100.70
  -4 -12 -10  317.80   76.16
  -4 -12  -9  254.26   66.15
  -4 -12  -8  602.89   96.16
  -4 -12  -7  164.89   47.37
  -4 -12  -7  137.19   54.47
  -4 -12  -6    6.76    7.17
  -4 -12  -6  -27.66   30.04
  -4 -12  -5   16.06    9.89
  -4 -12  -5   -6.59   29.21
  -4 -12  -4  907.60  109.21
  -4 -12  -4  885.03  147.45
  -4 -12  -4 1072.73  130.06
  -4 -12  -3  364.71   91.08
  -4 -12  -3  351.93   67.19
  -4 -12  -3  592.53   95.31
  -4 -12  -2  100.58   47.72
  -4 -12  -2  161.98   44.38
  -4 -12  -2  170.45   52.54
  -4 -12  -1  213.06   54.19
  -4 -11 -11   46.08   30.62
  -4 -11 -10   -6.43    3.62
  -4 -11 -10   21.20   20.74
  -4 -11  -9  338.78   74.11
  -4 -11  -9  226.83   70.84
  -4 -11  -8  159.43   48.95
  -4 -11  -8  237.16   72.77
  -4 -11  -7   60.93   26.66
  -4 -11  -7   32.20   25.88
  -4 -11  -6  266.01   57.06
  -4 -11  -6  323.41   82.53
  -4 -11  -5  130.72   39.02
  -4 -11  -5  103.03   36.54
  -4 -11  -4  161.78   40.72
  -4 -11  -4  201.22   66.38
  -4 -11  -3  441.69   70.29
  -4 -11  -3  475.74  103.15
  -4 -11  -3  593.97   89.20
  -4 -11  -2  755.23   93.39
  -4 -11  -2  752.39  128.89
  -4 -11  -2  924.49  116.49
  -4 -11  -1  461.50   74.37
  -4 -11  -1  520.81  102.63
  -4 -11  -1  585.03   94.65
  -4 -11   0  297.59   62.75
  -4 -11   0  516.97   92.10
  -4 -11   1  354.34   68.52
  -4 -11   2   56.44   27.73
  -4 -10 -12   -7.75   29.26
  -4 -10 -12   39.76   34.78
  -4 -10 -11  334.95   83.50
  -4 -10 -11  511.73  100.83
  -4 -10 -10  525.74  104.31
  -4 -10 -10  718.86  111.46
  -4 -10  -9  107.29   46.46
  -4 -10  -9  141.59   47.24
  -4 -10  -8   56.00   39.88
  -4 -10  -8   36.00   20.79
  -4 -10  -7   26.95   25.50
  -4 -10  -7    4.62   11.88
  -4 -10  -6   84.39   38.44
  -4 -10  -6  134.90   37.49
  -4 -10  -5 1076.03  146.90
  -4 -10  -5 1288.03  119.53
  -4 -10  -4  833.09  129.02
  -4 -10  -4  854.68   93.42
  -4 -10  -4 1069.43   85.93
  -4 -10  -3  153.74   52.55
  -4 -10  -3   95.76   28.96
  -4 -10  -3  150.75   31.70
  -4 -10  -3  137.46   38.83
  -4 -10  -2   70.77   31.34
  -4 -10  -2   96.09   29.94
  -4 -10  -2  141.25   32.60
  -4 -10  -2  103.08   34.77
  -4 -10  -1 1149.20   99.36
  -4 -10  -1 1056.67  143.65
  -4 -10  -1  953.96  101.90
  -4 -10  -1 1305.13  112.74
  -4 -10  -1 1225.59  130.80
  -4 -10   0  851.98   90.52
  -4 -10   0  858.75  121.68
  -4 -10   0  777.92   94.99
  -4 -10   0 1043.84  104.62
  -4 -10   0  883.10  114.24
  -4 -10   1  162.44   39.44
  -4 -10   1  124.57   38.01
  -4 -10   1  175.20   43.70
  -4 -10   1  116.41   43.90
  -4 -10   2  188.40   45.58
  -4 -10   2  174.28   44.73
  -4 -10   2  250.24   55.10
  -4 -10   2  291.56   66.87
  -4 -10   3  205.55   50.84
  -4 -10   3  166.23   47.23
  -4 -10   3  135.14   41.70
  -4 -10   4   68.76   31.82
  -4 -10   4   21.76   17.81
  -4  -9 -13  377.65   85.27
  -4  -9 -12  163.08   55.49
  -4  -9 -12  147.77   53.47
  -4  -9 -12  160.85   60.06
  -4  -9 -11   91.22   40.18
  -4  -9 -11   88.45   38.43
  -4  -9 -11  109.02   48.84
  -4  -9 -10  364.70   81.05
  -4  -9 -10  381.85   81.05
  -4  -9  -9  725.30  116.06
  -4  -9  -9  864.71  114.06
  -4  -9  -8  -18.96   19.04
  -4  -9  -8    7.02   15.91
  -4  -9  -7   45.79   30.41
  -4  -9  -7   36.55   18.46
  -4  -9  -6  217.76   56.93
  -4  -9  -6  307.98   54.51
  -4  -9  -5    5.85    1.91
  -4  -9  -5    3.20    0.95
  -4  -9  -5   17.57   16.82
  -4  -9  -4  418.12   83.30
  -4  -9  -4  560.10   46.21
  -4  -9  -4  673.98   59.71
  -4  -9  -4  488.62   64.32
  -4  -9  -3 1037.12  134.17
  -4  -9  -3 1234.43   83.38
  -4  -9  -3  960.60   92.80
  -4  -9  -2  499.26   93.00
  -4  -9  -2  601.95   62.01
  -4  -9  -2  411.11   57.07
  -4  -9  -2  694.47   67.70
  -4  -9  -2  527.81   73.87
  -4  -9  -1  334.59   72.35
  -4  -9  -1  394.13   52.67
  -4  -9  -1  315.97   51.98
  -4  -9  -1  387.30   53.39
  -4  -9  -1  335.99   62.89
  -4  -9   0  891.52   88.52
  -4  -9   0  754.53  112.27
  -4  -9   0  761.18   86.44
  -4  -9   0 1064.31   97.20
  -4  -9   0  892.06  105.83
  -4  -9   1  473.81   68.11
  -4  -9   1  565.99   88.58
  -4  -9   1  488.99   71.13
  -4  -9   1  618.52   77.87
  -4  -9   1  609.62   90.64
  -4  -9   2  516.87   75.33
  -4  -9   2  418.80   67.53
  -4  -9   2  592.15   80.07
  -4  -9   2  466.77   82.44
  -4  -9   3  208.93   47.74
  -4  -9   3  361.25   66.89
  -4  -9   3  376.36   75.70
  -4  -9   4  661.90   98.20
  -4  -9   4  612.54  100.89
  -4  -9   5   46.15   28.26
  -4  -8 -13   46.71   30.26
  -4  -8 -12  368.91   78.03
  -4  -8 -12  487.31  102.48
  -4  -8 -12  537.71  111.66
  -4  -8 -11  553.74   96.24
  -4  -8 -11  710.47  116.15
  -4  -8 -11  638.88  117.94
  -4  -8 -10  -18.74   16.80
  -4  -8 -10  -17.93   17.98
  -4  -8 -10    2.61   10.51
  -4  -8  -9   42.63   29.26
  -4  -8  -9   -2.21   11.48
  -4  -8  -8  176.98   50.55
  -4  -8  -8  141.57   41.27
  -4  -8  -7  501.11   42.33
  -4  -8  -7  444.32   79.17
  -4  -8  -7  455.40   69.90
  -4  -8  -6  600.32   91.34
  -4  -8  -6  638.43   45.26
  -4  -8  -6  604.34   75.67
  -4  -8  -5  445.90   79.04
  -4  -8  -5  544.37   42.14
  -4  -8  -5  568.56   53.85
  -4  -8  -5  573.48   69.32
  -4  -8  -4  109.77   39.47
  -4  -8  -4  101.80   18.02
  -4  -8  -4  100.64   19.49
  -4  -8  -4  117.23   28.89
  -4  -8  -3    5.85    7.29
  -4  -8  -3    4.61    3.95
  -4  -8  -3   -2.94    1.48
  -4  -8  -3    7.41    4.84
  -4  -8  -3    5.42    3.78
  -4  -8  -2 1213.97  135.17
  -4  -8  -2 1664.49  106.55
  -4  -8  -2 1264.94   98.01
  -4  -8  -2 1246.19   88.86
  -4  -8  -2 1620.86   98.08
  -4  -8  -2 1525.20  120.14
  -4  -8  -1 1700.42  164.36
  -4  -8  -1 2076.56  131.34
  -4  -8  -1 1653.69  120.38
  -4  -8  -1 2215.69  127.88
  -4  -8  -1 1940.08  147.16
  -4  -8   0  212.28   39.82
  -4  -8   0  185.40   47.66
  -4  -8   0  183.13   36.46
  -4  -8   0  242.45   40.65
  -4  -8   0  226.28   47.95
  -4  -8   1  302.65   52.02
  -4  -8   1  271.52   59.37
  -4  -8   1  263.68   47.18
  -4  -8   1  306.17   49.76
  -4  -8   1  257.49   53.12
  -4  -8   2  774.56   94.20
  -4  -8   2  534.94   72.77
  -4  -8   2  841.38   90.65
  -4  -8   2  702.76   93.88
  -4  -8   3 1076.67  111.06
  -4  -8   3  901.13  113.43
  -4  -8   4  156.12   43.62
  -4  -8   4  132.39   40.77
  -4  -8   5  294.72   65.46
  -4  -8   5  255.53   62.97
  -4  -8   6   10.94   12.35
  -4  -7 -13  136.47   58.93
  -4  -7 -12  223.05   56.36
  -4  -7 -12  119.47   52.80
  -4  -7 -12  116.34   48.81
  -4  -7 -11  234.88   58.16
  -4  -7 -11  307.36   75.41
  -4  -7 -11  280.06   75.29
  -4  -7 -10 1069.04  126.24
  -4  -7 -10 1253.36  155.57
  -4  -7 -10 1236.61  146.81
  -4  -7  -9   42.13   22.11
  -4  -7  -9   49.03   30.56
  -4  -7  -9   44.21   26.13
  -4  -7  -8   35.32   11.63
  -4  -7  -8   28.82   14.94
  -4  -7  -8   28.62   15.62
  -4  -7  -8   28.67   21.24
  -4  -7  -7  206.63   28.41
  -4  -7  -7  185.19   46.60
  -4  -7  -7  253.86   42.91
  -4  -7  -7  174.57   42.66
  -4  -7  -6  361.21   35.55
  -4  -7  -6  327.84   64.57
  -4  -7  -6  420.35   51.22
  -4  -7  -6  324.49   53.75
  -4  -7  -5  224.05   50.00
  -4  -7  -5  275.85   29.53
  -4  -7  -5  341.05   40.35
  -4  -7  -5  275.62   44.18
  -4  -7  -5  194.33   32.19
  -4  -7  -4  692.21   90.78
  -4  -7  -4  762.79   55.29
  -4  -7  -4  769.55   54.35
  -4  -7  -4  767.02   72.48
  -4  -7  -4  661.47   56.45
  -4  -7  -3  425.83   67.50
  -4  -7  -3  475.22   44.71
  -4  -7  -3  419.73   41.36
  -4  -7  -3  483.60   52.28
  -4  -7  -3  510.10   38.82
  -4  -7  -3  351.07   32.92
  -4  -7  -2   57.11   17.55
  -4  -7  -2   66.69   23.73
  -4  -7  -2   54.04   13.60
  -4  -7  -2   41.74   14.52
  -4  -7  -2   51.16   12.91
  -4  -7  -2   67.02   20.70
  -4  -7  -1 1224.23  122.80
  -4  -7  -1 1625.04  108.62
  -4  -7  -1 1316.49   93.01
  -4  -7  -1 1369.91   85.08
  -4  -7  -1 1644.69   95.61
  -4  -7  -1 1439.31  114.14
  -4  -7   0 1548.60  138.45
  -4  -7   0 1558.61  115.25
  -4  -7   0 1351.84  100.37
  -4  -7   0 1527.14   95.30
  -4  -7   0 1790.21  109.13
  -4  -7   0 1494.81  122.18
  -4  -7   1  686.84   77.31
  -4  -7   1  617.87   85.59
  -4  -7   1  678.09   70.32
  -4  -7   1  715.09   70.96
  -4  -7   1  645.23   80.43
  -4  -7   2  500.32   72.40
  -4  -7   2  557.84   67.89
  -4  -7   2  476.92   72.06
  -4  -7   3 1074.38   98.47
  -4  -7   3 1178.76  109.54
  -4  -7   3  982.55  112.21
  -4  -7   4   40.93   21.36
  -4  -7   4   35.75   22.77
  -4  -7   5  162.52   42.57
  -4  -7   5  181.48   49.92
  -4  -7   6  246.44   59.04
  -4  -7   6  233.08   58.59
  -4  -7   7  487.27   88.45
  -4  -7   7  434.97   84.52
  -4  -6 -12  788.10  135.82
  -4  -6 -11   56.44   32.94
  -4  -6 -11  109.77   36.50
  -4  -6 -10   33.69   18.01
  -4  -6 -10   42.47   19.03
  -4  -6 -10   44.72   22.33
  -4  -6  -9  425.65   78.50
  -4  -6  -9  446.49   84.12
  -4  -6  -9  350.88   63.86
  -4  -6  -8 1158.82  123.96
  -4  -6  -8  994.22  121.16
  -4  -6  -8 1259.01   89.73
  -4  -6  -8  909.81  105.46
  -4  -6  -7   40.96   12.97
  -4  -6  -7   59.23   24.92
  -4  -6  -7   56.64   21.22
  -4  -6  -7   42.33   19.73
  -4  -6  -7   46.45   17.10
  -4  -6  -7   64.33   13.07
  -4  -6  -6  583.89   48.52
  -4  -6  -6  465.23   70.61
  -4  -6  -6  538.62   54.83
  -4  -6  -6  475.32   66.07
  -4  -6  -5   52.84   25.48
  -4  -6  -5   60.66   14.31
  -4  -6  -5   44.25   12.29
  -4  -6  -5   50.01   18.83
  -4  -6  -4  242.89   46.85
  -4  -6  -4  272.71   31.23
  -4  -6  -4  235.17   36.21
  -4  -6  -4  313.13   29.70
  -4  -6  -3 1167.18   74.45
  -4  -6  -3 1212.81   68.61
  -4  -6  -3 1248.85   83.01
  -4  -6  -3 1128.56   58.03
  -4  -6  -3 1208.76   54.85
  -4  -6  -3 1271.29   82.64
  -4  -6  -3  977.58   70.43
  -4  -6  -2 1987.89  113.90
  -4  -6  -2 1995.65   94.50
  -4  -6  -2 1867.02  104.59
  -4  -6  -2 2133.94   89.70
  -4  -6  -2 2012.62  118.71
  -4  -6  -1  588.25   72.00
  -4  -6  -1  625.75   60.63
  -4  -6  -1  452.18   43.83
  -4  -6  -1  537.48   39.49
  -4  -6  -1  579.39   43.56
  -4  -6  -1  490.78   57.22
  -4  -6  -1  417.29   46.16
  -4  -6  -1  519.18   52.03
  -4  -6   0  358.38   48.33
  -4  -6   0  342.96   54.42
  -4  -6   0  303.71   36.78
  -4  -6   0  367.92   35.35
  -4  -6   0  368.02   39.93
  -4  -6   0  370.01   44.45
  -4  -6   0  328.24   49.91
  -4  -6   1 1375.06  120.06
  -4  -6   1 1506.19  117.99
  -4  -6   1 1672.69   98.00
  -4  -6   1 1765.74  109.68
  -4  -6   1 1706.70  126.84
  -4  -6   2 3084.54  190.44
  -4  -6   2 3118.32  165.41
  -4  -6   2 3437.71  182.83
  -4  -6   2 3149.30  196.26
  -4  -6   3  215.22   38.59
  -4  -6   3  178.80   37.15
  -4  -6   3  135.57   37.07
  -4  -6   4  578.83   58.56
  -4  -6   4  514.66   70.90
  -4  -6   4  528.43   77.63
  -4  -6   5  188.69   44.58
  -4  -6   5  154.63   41.57
  -4  -6   6  274.23   58.26
  -4  -6   6  249.96   59.66
  -4  -6   7  194.36   51.30
  -4  -6   7  161.71   46.34
  -4  -6   8  343.14   73.70
  -4  -6   8  332.77   70.15
  -4  -5 -12  347.29   88.59
  -4  -5 -11 1403.28  168.89
  -4  -5 -11 1204.64  118.27
  -4  -5 -10   67.39   34.84
  -4  -5 -10   73.80   28.60
  -4  -5  -9   76.93   31.02
  -4  -5  -9   58.48   23.54
  -4  -5  -8  270.43   56.46
  -4  -5  -8  256.33   56.11
  -4  -5  -8  330.13   45.31
  -4  -5  -8  250.92   51.07
  -4  -5  -7 1589.43  102.53
  -4  -5  -7 1417.12  126.71
  -4  -5  -7 1492.94  131.55
  -4  -5  -7 1405.73  132.15
  -4  -5  -7 1318.23  106.98
  -4  -5  -7 1746.87   73.68
  -4  -5  -6   11.49    5.59
  -4  -5  -6   19.02   12.78
  -4  -5  -6    6.81    9.27
  -4  -5  -6   16.25    7.94
  -4  -5  -6   14.12    3.70
  -4  -5  -5  190.35   26.57
  -4  -5  -5  219.70   38.15
  -4  -5  -5  172.90   34.68
  -4  -5  -5  182.84   24.69
  -4  -5  -4  131.09   21.25
  -4  -5  -4  130.48   25.55
  -4  -5  -4  146.42   26.70
  -4  -5  -4  121.60   15.03
  -4  -5  -4  144.37   17.26
  -4  -5  -3   14.97    5.92
  -4  -5  -3   18.50    7.64
  -4  -5  -3   10.00    4.52
  -4  -5  -2 1713.09   89.10
  -4  -5  -2 1800.16   76.49
  -4  -5  -2 1851.87  101.65
  -4  -5  -2 1870.82  106.23
  -4  -5  -2 1826.42   99.04
  -4  -5  -1 2583.79  136.34
  -4  -5  -1 2242.78  105.67
  -4  -5  -1 2410.49   93.91
  -4  -5  -1 2412.50  100.27
  -4  -5  -1 2366.35  128.52
  -4  -5  -1 2383.14  128.94
  -4  -5   0  858.86   74.78
  -4  -5   0  659.28   49.53
  -4  -5   0  854.87   47.96
  -4  -5   0  822.65   55.63
  -4  -5   0  709.29   58.50
  -4  -5   0  864.82   73.15
  -4  -5   0  817.00   68.66
  -4  -5   1   95.55   24.11
  -4  -5   1   93.87   23.06
  -4  -5   1  116.96   18.91
  -4  -5   1   97.00   20.13
  -4  -5   1  106.90   27.05
  -4  -5   2 1612.68  126.55
  -4  -5   2 1747.11  104.54
  -4  -5   2 1788.80  114.53
  -4  -5   2 1658.34  124.82
  -4  -5   3  942.20   82.13
  -4  -5   3 1041.92   83.22
  -4  -5   3 1029.99   89.56
  -4  -5   3  932.71   95.31
  -4  -5   4  569.84   57.79
  -4  -5   4  588.83   71.61
  -4  -5   4  488.28   71.18
  -4  -5   5  326.42   31.48
  -4  -5   5  328.94   56.14
  -4  -5   5  261.13   53.62
  -4  -5   6  944.00  107.62
  -4  -5   6  875.20  104.98
  -4  -5   7   84.49   28.69
  -4  -5   7  136.40   41.52
  -4  -5   8   11.54   12.97
  -4  -5   8    0.49   10.17
  -4  -5   9   91.45   31.84
  -4  -5   9   93.63   38.28
  -4  -5   9  111.63   37.49
  -4  -4 -12  304.53   81.66
  -4  -4 -11    4.91    7.39
  -4  -4 -10  600.41   99.52
  -4  -4 -10  511.64   68.65
  -4  -4  -9 1427.03  147.47
  -4  -4  -9 1393.10  119.75
  -4  -4  -8  197.70   47.79
  -4  -4  -8  159.83   36.03
  -4  -4  -7  179.80   40.88
  -4  -4  -7  168.10   31.19
  -4  -4  -7  142.71   25.70
  -4  -4  -6  286.67   36.83
  -4  -4  -6  225.95   41.69
  -4  -4  -6  205.02   33.50
  -4  -4  -6  226.46   32.43
  -4  -4  -5 1002.69   68.51
  -4  -4  -5  817.29   74.28
  -4  -4  -5  866.01   77.09
  -4  -4  -5  828.26   61.96
  -4  -4  -5  807.47   64.86
  -4  -4  -4  215.18   28.23
  -4  -4  -4  185.67   28.96
  -4  -4  -4  178.24   27.59
  -4  -4  -4  148.49   19.13
  -4  -4  -4  158.98   26.47
  -4  -4  -3 1590.52   91.46
  -4  -4  -3 1753.94   89.66
  -4  -4  -3 1923.48   99.86
  -4  -4  -3 1657.99  102.18
  -4  -4  -3 1772.00   74.98
  -4  -4  -2    9.99    3.09
  -4  -4  -2    9.14    4.18
  -4  -4  -2   14.33    5.70
  -4  -4  -2    6.55    3.60
  -4  -4  -2    8.41    3.28
  -4  -4  -2    9.72    5.68
  -4  -4  -2    5.62    2.41
  -4  -4  -1   32.99   11.72
  -4  -4  -1   59.22   15.09
  -4  -4  -1   39.19    6.82
  -4  -4  -1   30.80   14.40
  -4  -4  -1   19.74    5.95
  -4  -4  -1   32.44   10.38
  -4  -4  -1   27.30   11.21
  -4  -4   0 2902.76  148.46
  -4  -4   0 2509.88  101.57
  -4  -4   0 2612.88  163.00
  -4  -4   0 2594.25  116.69
  -4  -4   0 2318.01  129.96
  -4  -4   0 2203.09  114.56
  -4  -4   0 2833.66  143.26
  -4  -4   1 6007.46  267.84
  -4  -4   1 5645.05  238.02
  -4  -4   1 6078.14  287.32
  -4  -4   1 6045.09  259.41
  -4  -4   1 5215.73  231.70
  -4  -4   1 5430.40  252.12
  -4  -4   2  210.76   39.98
  -4  -4   2  195.95   28.25
  -4  -4   2  193.39   31.94
  -4  -4   2  182.15   37.86
  -4  -4   2  175.06   28.43
  -4  -4   2  230.30   38.14
  -4  -4   3  749.28   66.19
  -4  -4   3  730.70   76.69
  -4  -4   3  876.74   77.82
  -4  -4   3  799.38   79.70
  -4  -4   4  544.81   65.75
  -4  -4   4  539.36   67.87
  -4  -4   5 2065.27  105.06
  -4  -4   5 1758.84  138.17
  -4  -4   5 1755.79  139.23
  -4  -4   6  123.09   35.55
  -4  -4   6  178.94   41.90
  -4  -4   7  827.00  100.66
  -4  -4   7  764.98   95.07
  -4  -4   8   14.50   12.96
  -4  -4   8   -9.79   14.89
  -4  -4   9    2.11    5.97
  -4  -4   9    0.75    7.03
  -4  -4  10  209.95   49.59
  -4  -4  10  337.61   68.99
  -4  -3 -11  109.06   45.75
  -4  -3 -10  254.45   63.73
  -4  -3  -9   91.38   31.42
  -4  -3  -9  103.33   27.15
  -4  -3  -8 1935.00  160.35
  -4  -3  -7   27.88   12.50
  -4  -3  -7   68.09   19.47
  -4  -3  -7   42.80   10.86
  -4  -3  -6    4.60    2.15
  -4  -3  -6    0.15    5.86
  -4  -3  -6    1.52    2.65
  -4  -3  -5  118.91   22.61
  -4  -3  -5  133.65   27.67
  -4  -3  -5  107.70   22.06
  -4  -3  -5  108.09   18.29
  -4  -3  -4 1244.84   77.47
  -4  -3  -4 1065.75   76.64
  -4  -3  -4 1053.91   68.35
  -4  -3  -4 1002.02   67.12
  -4  -3  -3  474.94   40.73
  -4  -3  -3  506.73   45.72
  -4  -3  -3  441.69   41.75
  -4  -3  -2 2211.37   94.49
  -4  -3  -2 2305.01  115.35
  -4  -3  -2 2088.62  112.98
  -4  -3  -1  620.91   50.67
  -4  -3  -1  580.37   50.82
  -4  -3  -1  583.68   39.96
  -4  -3  -1  515.16   27.05
  -4  -3   0   39.71   14.19
  -4  -3   0   42.08   12.88
  -4  -3   0   30.92    7.35
  -4  -3   0   22.73    7.11
  -4  -3   0   22.01    8.18
  -4  -3   0   19.85    8.47
  -4  -3   1 1851.31  115.54
  -4  -3   1 1488.09   72.98
  -4  -3   1 1592.33  107.95
  -4  -3   1 1828.82   99.98
  -4  -3   1 1567.00   89.55
  -4  -3   1 1610.93   96.94
  -4  -3   1 1812.17  109.56
  -4  -3   2 1784.57   95.54
  -4  -3   2 2162.65  129.81
  -4  -3   2 2153.52  120.45
  -4  -3   2 1786.50  107.77
  -4  -3   2 1911.98  116.68
  -4  -3   2 1911.18  118.33
  -4  -3   3  530.36   50.68
  -4  -3   3  603.32   62.01
  -4  -3   3  660.08   64.46
  -4  -3   3  520.80   58.40
  -4  -3   4  172.60   31.23
  -4  -3   4  186.98   35.66
  -4  -3   4  146.12   27.57
  -4  -3   4  182.57   35.93
  -4  -3   5 1895.84  134.12
  -4  -3   5 1595.32  124.47
  -4  -3   6  289.73   24.70
  -4  -3   6  287.74   51.72
  -4  -3   6  265.72   48.08
  -4  -3   7  175.46   41.46
  -4  -3   7  137.28   35.90
  -4  -3   8   98.34   34.07
  -4  -3   8   83.21   30.62
  -4  -3   9  900.40  113.63
  -4  -3   9  863.48  102.89
  -4  -3  10  177.52   44.26
  -4  -3  10  272.05   64.04
  -4  -3  10  216.46   52.57
  -4  -3  11  382.12   68.57
  -4  -2 -11  300.50   74.50
  -4  -2 -10  735.04  109.52
  -4  -2  -9  314.07   63.59
  -4  -2  -8   -0.33   11.95
  -4  -2  -7  400.25   62.68
  -4  -2  -7  629.71   69.52
  -4  -2  -6 1339.38  113.84
  -4  -2  -6 1816.58  115.95
  -4  -2  -5   64.05   19.99
  -4  -2  -5   74.04   19.57
  -4  -2  -5   66.95   10.97
  -4  -2  -4  806.26   67.46
  -4  -2  -4  819.33   64.46
  -4  -2  -4  800.95   49.77
  -4  -2  -3   16.46    7.15
  -4  -2  -3   17.24    8.32
  -4  -2  -3   24.39    7.93
  -4  -2  -2   70.99   13.77
  -4  -2  -2   79.46   17.25
  -4  -2  -2   62.25   13.51
  -4  -2  -1  815.43   45.69
  -4  -2  -1  722.00   57.37
  -4  -2  -1  702.62   52.65
  -4  -2   0 4538.12  202.48
  -4  -2   1  102.08   11.76
  -4  -2   1  116.45   19.09
  -4  -2   1  116.93   18.08
  -4  -2   2  528.09   41.62
  -4  -2   2  587.64   48.08
  -4  -2   2  572.60   51.21
  -4  -2   2  601.84   53.89
  -4  -2   3 1257.96   81.42
  -4  -2   3 1383.48   97.43
  -4  -2   3 1271.62   85.77
  -4  -2   3 1378.18   93.73
  -4  -2   4 4698.98  260.42
  -4  -2   4 4959.92  228.13
  -4  -2   4 4995.65  217.11
  -4  -2   4 5049.62  240.62
  -4  -2   5    0.23    5.17
  -4  -2   5   -3.93    8.35
  -4  -2   6 1025.59   63.36
  -4  -2   6 1167.40  105.51
  -4  -2   6 1046.85   95.45
  -4  -2   7   38.44   21.18
  -4  -2   7   40.72   20.69
  -4  -2   8  336.50   61.83
  -4  -2   8  231.39   47.43
  -4  -2   9  122.07   37.68
  -4  -2   9   98.10   32.10
  -4  -2  10  397.49   65.59
  -4  -2  10  638.90   95.04
  -4  -2  11   -7.31    7.40
  -4  -2  11   32.87   25.09
  -4  -1 -10   43.91   15.89
  -4  -1  -9 1649.25  160.89
  -4  -1  -8  114.40   35.39
  -4  -1  -7  133.55   36.72
  -4  -1  -6   28.29   17.07
  -4  -1  -6   43.63   15.89
  -4  -1  -5 2072.50  142.31
  -4  -1  -5 2524.09  141.59
  -4  -1  -4   -5.13    1.76
  -4  -1  -4    8.20    9.07
  -4  -1  -3  478.86   49.95
  -4  -1  -3  553.77   48.14
  -4  -1  -2   78.34   16.57
  -4  -1  -2   77.79   16.04
  -4  -1  -2   79.83   12.41
  -4  -1  -1  739.49   51.77
  -4  -1  -1  749.93   55.40
  -4  -1  -1  623.55   36.86
  -4  -1   0  517.91   39.71
  -4  -1   0  470.31   43.68
  -4  -1   0  431.56   30.08
  -4  -1   0  495.67   46.69
  -4  -1   1 3020.82  154.73
  -4  -1   1 3432.53  137.84
  -4  -1   1 3243.58  138.16
  -4  -1   1 3568.30  166.30
  -4  -1   2  832.86   70.89
  -4  -1   2  860.30   54.83
  -4  -1   2  839.99   54.64
  -4  -1   2  953.43   72.62
  -4  -1   3   37.97   14.54
  -4  -1   3   38.76   12.81
  -4  -1   4 1887.64   94.86
  -4  -1   4 1897.80  124.47
  -4  -1   4 1750.27  111.16
  -4  -1   5 1641.38   89.22
  -4  -1   5 1301.53   64.29
  -4  -1   5 1517.14  115.12
  -4  -1   6  497.06   46.15
  -4  -1   6  485.33   65.73
  -4  -1   7   54.86   15.51
  -4  -1   7   76.44   27.91
  -4  -1   8 1329.79  126.83
  -4  -1   9   29.50   15.66
  -4  -1  10   56.91   22.85
  -4  -1  10  154.06   46.98
  -4  -1  11   34.53   17.82
  -4  -1  11   78.05   34.65
  -4   0 -10  423.41   87.00
  -4   0  -9   25.55   14.11
  -4   0  -8  458.75   77.88
  -4   0  -7  765.03   96.24
  -4   0  -6  227.69   46.31
  -4   0  -5  147.11   34.57
  -4   0  -5  170.62   32.96
  -4   0  -4  143.29   31.18
  -4   0  -4  203.55   34.14
  -4   0  -3  529.97   57.78
  -4   0  -3  508.98   45.75
  -4   0  -3  571.08   54.32
  -4   0  -2   52.17   17.09
  -4   0  -2   52.62   12.67
  -4   0  -2   68.97   14.60
  -4   0  -1 2598.89  131.95
  -4   0  -1 2401.95  112.25
  -4   0  -1 2505.22  119.57
  -4   0   0  105.00   19.57
  -4   0   0   88.87   17.82
  -4   0   0   85.54   14.23
  -4   0   0  104.15   19.47
  -4   0   1  614.90   48.58
  -4   0   1  710.08   54.91
  -4   0   1  601.07   50.76
  -4   0   1  610.48   45.39
  -4   0   1  656.72   56.45
  -4   0   2  807.40   62.71
  -4   0   2  925.69   62.50
  -4   0   2  772.91   46.03
  -4   0   2  844.84   68.25
  -4   0   3 3963.51  203.48
  -4   0   3 4791.98  199.83
  -4   0   4    3.41    7.48
  -4   0   4    7.84    7.73
  -4   0   5  648.38   78.34
  -4   0   5 1059.67   74.74
  -4   0   5  841.88   82.93
  -4   0   5  866.31   46.25
  -4   0   6   80.99   27.62
  -4   0   6   71.55   23.89
  -4   0   6  114.23   23.68
  -4   0   7 1534.98  102.04
  -4   0   7 1536.84  127.46
  -4   0   8   13.88    6.16
  -4   0   9  878.78  103.30
  -4   0  10    0.34   11.00
  -4   0  10    2.72   15.12
  -4   0  11   15.81   10.51
  -4   0  11   22.49   13.99
  -4   1  -9  176.34   53.47
  -4   1  -8  250.08   61.04
  -4   1  -7   26.33   18.80
  -4   1  -6 2314.74  175.63
  -4   1  -5  134.21   36.35
  -4   1  -4   26.28   13.58
  -4   1  -4   61.06   21.14
  -4   1  -4   27.24   10.44
  -4   1  -3    7.99   12.49
  -4   1  -3    5.28    5.38
  -4   1  -3   10.46    6.07
  -4   1  -3    6.62    3.41
  -4   1  -2 1287.85   98.35
  -4   1  -2 1181.55   72.22
  -4   1  -2 1396.27   89.73
  -4   1  -2 1282.60   84.10
  -4   1  -1   34.50   11.83
  -4   1  -1   50.11   11.88
  -4   1  -1   43.58   12.82
  -4   1   0 2348.14  131.33
  -4   1   0 2395.27  118.89
  -4   1   0 2077.73  108.95
  -4   1   0 2212.49  113.19
  -4   1   1  218.18   33.26
  -4   1   1  183.94   26.36
  -4   1   1  189.79   28.07
  -4   1   1  177.40   25.70
  -4   1   2   -0.27    3.73
  -4   1   2  -10.27    6.00
  -4   1   2    3.33    1.76
  -4   1   2   -5.63    7.98
  -4   1   3  850.68   65.96
  -4   1   3 1066.18   76.45
  -4   1   4 2062.45  125.57
  -4   1   5 1006.04   89.97
  -4   1   6   16.67   11.80
  -4   1   6   19.65   13.56
  -4   1   7  990.86  104.62
  -4   1   7 1407.15  117.74
  -4   1   8  324.42   60.32
  -4   1   8  395.76   63.89
  -4   1   9    3.42    0.97
  -4   1   9    7.88   13.37
  -4   1  10   13.41    9.23
  -4   1  10   48.48   26.14
  -4   1  11  495.19   74.24
  -4   1  11  679.96   97.05
  -4   1  12   26.08   16.14
  -4   1  12   44.02   28.92
  -4   2  -8  361.87   74.71
  -4   2  -7  569.14   91.09
  -4   2  -6   -4.23   13.35
  -4   2  -5  544.88   78.75
  -4   2  -4  746.35   88.63
  -4   2  -4  759.46   59.58
  -4   2  -3   26.82   13.56
  -4   2  -3   52.76   18.96
  -4   2  -3   33.31   10.47
  -4   2  -3   43.18   16.48
  -4   2  -2  589.70   69.13
  -4   2  -2  551.64   42.58
  -4   2  -2  612.51   60.85
  -4   2  -2  665.40   63.16
  -4   2  -1   23.77    6.67
  -4   2  -1   23.20   11.33
  -4   2  -1   17.10    6.05
  -4   2  -1   24.12   10.79
  -4   2   0    2.21    0.49
  -4   2   0   -1.86    3.81
  -4   2   1  347.79   46.92
  -4   2   1  326.25   36.41
  -4   2   1  303.34   34.14
  -4   2   1  317.07   38.59
  -4   2   2 4586.18  199.52
  -4   2   2 4923.08  213.47
  -4   2   3  123.06   21.81
  -4   2   3  122.99   24.49
  -4   2   4  751.10   60.49
  -4   2   5  263.45   37.91
  -4   2   6 2326.12  113.56
  -4   2   7   25.30   14.16
  -4   2   7   37.28   18.29
  -4   2   8  857.30   96.53
  -4   2   8 1130.48  109.69
  -4   2   9   12.41    4.09
  -4   2   9   35.13   16.32
  -4   2   9   54.68   23.44
  -4   2  10   92.72   29.08
  -4   2  10   75.38   27.97
  -4   2  10  161.06   42.69
  -4   2  11   37.75   24.27
  -4   2  11   34.89   17.36
  -4   2  11   30.69   24.93
  -4   2  12  493.23   76.28
  -4   2  12  431.82   78.32
  -4   2  12  689.84  100.92
  -4   2  13    9.89    9.62
  -4   3  -7 1504.52  165.43
  -4   3  -6  275.67   65.44
  -4   3  -5   15.98   11.59
  -4   3  -4   -5.17   16.73
  -4   3  -3 1873.02  151.57
  -4   3  -3 2021.05  140.07
  -4   3  -2   84.75   26.95
  -4   3  -2  134.18   29.70
  -4   3  -2   93.42   14.54
  -4   3  -2  111.29   27.92
  -4   3  -1  925.36   92.67
  -4   3  -1  871.06   50.28
  -4   3  -1  992.85   80.60
  -4   3  -1 1054.28   86.15
  -4   3   0   75.85   23.30
  -4   3   0   65.97   17.28
  -4   3   0   60.30   11.50
  -4   3   0   99.36   23.01
  -4   3   1  309.71   49.66
  -4   3   1  256.69   38.20
  -4   3   1  224.96   26.03
  -4   3   2  241.30   42.05
  -4   3   2  199.80   27.49
  -4   3   2  182.12   28.04
  -4   3   2  251.60   37.26
  -4   3   3 2690.60  134.91
  -4   3   3 3061.14  163.47
  -4   3   4  404.64   41.60
  -4   3   4  488.52   58.23
  -4   3   5   62.44   15.71
  -4   3   6  829.01   71.45
  -4   3   6 1206.23   82.93
  -4   3   7  280.49   47.16
  -4   3   7 1641.22   83.62
  -4   3   8  195.54   39.62
  -4   3   9   -5.61    8.40
  -4   3   9    9.00    6.11
  -4   3   9   -4.65   14.40
  -4   3  10  494.41   70.00
  -4   3  10  413.97   69.31
  -4   3  10  660.12   91.86
  -4   3  11   17.19   12.41
  -4   3  11   21.61   14.49
  -4   3  12  140.71   41.56
  -4   3  12  222.29   56.63
  -4   4  -6  511.99   94.25
  -4   4  -5  739.37  107.94
  -4   4  -4  410.61   74.56
  -4   4  -3    8.76    5.70
  -4   4  -3   34.98   17.33
  -4   4  -2  299.85   58.27
  -4   4  -2  285.44   49.96
  -4   4  -1  400.08   63.62
  -4   4  -1  445.47   60.56
  -4   4   0    2.12    7.67
  -4   4   0    3.31    5.41
  -4   4   0    7.70    7.75
  -4   4   1 1571.18  126.30
  -4   4   1 1592.44   98.38
  -4   4   1 1520.37  109.92
  -4   4   1 1274.56   65.15
  -4   4   2  100.12   28.77
  -4   4   2   67.70   14.81
  -4   4   2   75.96   21.41
  -4   4   3  297.84   33.29
  -4   4   3  196.15   31.89
  -4   4   3  286.17   44.18
  -4   4   4  271.43   30.83
  -4   4   4  200.09   18.11
  -4   4   4  240.48   43.05
  -4   4   5 2981.17  143.41
  -4   4   5 3090.70  183.19
  -4   4   5 3147.19  188.85
  -4   4   6  366.96   38.63
  -4   4   6  427.44   62.42
  -4   4   7  732.32   74.00
  -4   4   7  806.05   66.34
  -4   4   8   47.69   16.64
  -4   4   8  170.83   34.73
  -4   4   9  612.12   73.30
  -4   4   9  502.77   62.06
  -4   4  10   28.95   16.29
  -4   4  11  633.80   83.05
  -4   4  12    2.53   10.67
  -4   5  -4 1844.31  178.39
  -4   5  -3  346.35   70.03
  -4   5  -3  419.00   68.75
  -4   5  -2   72.77   27.62
  -4   5  -2   81.09   28.72
  -4   5  -1  -18.16   16.03
  -4   5  -1   46.98   22.10
  -4   5   0  507.45   76.77
  -4   5   0  521.25   68.68
  -4   5   1    2.46    5.92
  -4   5   1   27.66   17.04
  -4   5   2 1557.74  134.89
  -4   5   2 1433.31   65.91
  -4   5   2 1442.92  114.46
  -4   5   3  286.13   34.82
  -4   5   3  243.61   30.22
  -4   5   3  268.25   45.96
  -4   5   4   11.63    5.44
  -4   5   4    4.55    1.50
  -4   5   4    0.91    8.88
  -4   5   5  326.06   41.49
  -4   5   5  344.17   32.91
  -4   5   5  323.84   29.93
  -4   5   5  356.06   59.13
  -4   5   5  426.51   63.04
  -4   5   6 1620.78  113.66
  -4   5   6 1773.55   93.44
  -4   5   7  449.04   57.68
  -4   5   7  643.69   73.63
  -4   5   7  561.00   80.03
  -4   5   8    5.67    6.07
  -4   5   8  -10.47   14.55
  -4   5   9  310.81   51.75
  -4   5  10  209.87   44.59
  -4   5  11    0.75    7.26
  -4   5  12    0.59    5.51
  -4   6  -3  308.55   68.21
  -4   6  -2  449.52   85.30
  -4   6  -2  534.81   81.04
  -4   6  -1  103.77   40.32
  -4   6  -1  119.59   34.99
  -4   6   0  234.66   55.05
  -4   6   0  274.08   53.57
  -4   6   1  168.97   45.80
  -4   6   1  225.48   48.13
  -4   6   2  -13.98   12.84
  -4   6   2   11.56    8.45
  -4   6   3   78.48   31.14
  -4   6   3  127.68   39.06
  -4   6   3   67.78   23.98
  -4   6   4 1707.14  157.03
  -4   6   4 1858.64  145.14
  -4   6   5  217.65   33.53
  -4   6   5  263.54   55.90
  -4   6   5  252.20   50.84
  -4   6   6  414.63   51.48
  -4   6   6  579.49   81.61
  -4   6   6  505.77   75.46
  -4   6   7  153.45   32.67
  -4   6   7  222.61   47.00
  -4   6   7  181.51   46.18
  -4   6   8  872.84   85.19
  -4   6   8  996.57  116.01
  -4   6   9  201.04   41.41
  -4   6   9  265.69   60.05
  -4   6  10  557.82   74.32
  -4   6  10  567.54   91.76
  -4   6  11  125.05   36.16
  -4   7  -1  760.67  115.26
  -4   7  -1  867.44  137.00
  -4   7  -1  703.88   99.40
  -4   7   0  210.85   58.02
  -4   7   0  377.90   85.18
  -4   7   0  224.64   52.97
  -4   7   1  492.54   87.67
  -4   7   1  527.43   97.39
  -4   7   1  450.12   73.45
  -4   7   2   28.64   16.38
  -4   7   2   19.70   13.03
  -4   7   2   25.90   13.85
  -4   7   3   26.70   20.57
  -4   7   3   26.53   14.81
  -4   7   4    6.04    6.43
  -4   7   4   -1.70   12.34
  -4   7   5 1516.80  155.42
  -4   7   5 1412.84  135.80
  -4   7   6  511.08   85.66
  -4   7   6  510.05   79.75
  -4   7   7  -12.41   19.18
  -4   7   7    9.42   13.30
  -4   7   8  219.43   56.08
  -4   7   9  621.19   76.96
  -4   7   9  754.02  107.91
  -4   7  10  194.71   43.97
  -4   7  11   -2.51   11.02
  -4   8   2    3.81   11.32
  -4   8   2   21.29   19.01
  -4   8   2   10.09   12.53
  -4   8   3  690.22  114.46
  -4   8   3  472.27   79.01
  -4   8   4  236.77   64.72
  -4   8   4  210.67   50.78
  -4   8   5   70.24   33.98
  -4   8   5   74.78   27.54
  -4   8   6  172.70   52.95
  -4   8   6  240.84   57.64
  -4   8   7 1030.07  131.30
  -4   8   7  922.93  118.76
  -4   9   5  293.28   78.64
  -4   9   6   -7.82   15.81
  -4   9   7   54.42   30.01
  -3 -12  -9  566.33  100.46
  -3 -12  -8  299.75   68.15
  -3 -12  -7  108.78   39.49
  -3 -12  -6   49.96   24.89
  -3 -12  -6   84.95   37.08
  -3 -12  -5  560.85   89.74
  -3 -12  -5  593.62  118.51
  -3 -12  -4  452.23  102.52
  -3 -12  -4  436.12   78.46
  -3 -12  -3  201.97   70.57
  -3 -12  -3  164.28   50.84
  -3 -12  -3  238.53   61.74
  -3 -12  -2   71.63   36.76
  -3 -12  -2   47.75   26.29
  -3 -12  -1   45.75   27.43
  -3 -11 -11   39.47   30.36
  -3 -11 -10    4.75    8.97
  -3 -11  -9    2.61    7.10
  -3 -11  -9  -42.56   31.55
  -3 -11  -8 1076.34  130.24
  -3 -11  -8  950.89  144.56
  -3 -11  -7  854.04  109.83
  -3 -11  -7  536.94  108.65
  -3 -11  -6   46.85   25.81
  -3 -11  -6    4.24    8.34
  -3 -11  -5  -10.25   11.30
  -3 -11  -5  -19.79   26.02
  -3 -11  -4  567.15   83.53
  -3 -11  -4  670.40  118.37
  -3 -11  -3  468.98   75.19
  -3 -11  -3  422.75   92.28
  -3 -11  -2    5.89   17.66
  -3 -11  -2   -0.73    1.84
  -3 -11  -2   -8.73   12.41
  -3 -11  -1  111.44   38.19
  -3 -11  -1   98.90   37.20
  -3 -11  -1  127.93   37.34
  -3 -11  -1  167.87   54.08
  -3 -11   0   92.73   34.16
  -3 -11   0   92.04   34.89
  -3 -11   0   87.51   33.63
  -3 -11   1   27.78   18.40
  -3 -11   1   44.87   23.45
  -3 -10 -11   15.23   11.43
  -3 -10 -11    7.21    8.75
  -3 -10 -10  209.60   61.38
  -3 -10 -10  259.33   65.88
  -3 -10  -9  459.53   98.77
  -3 -10  -9  624.55   98.78
  -3 -10  -8   -3.91    5.58
  -3 -10  -8  -15.65   14.97
  -3 -10  -7  104.86   45.94
  -3 -10  -7  119.44   39.36
  -3 -10  -6 1031.51  146.73
  -3 -10  -6 1381.20  132.16
  -3 -10  -5  766.78  122.76
  -3 -10  -5  902.13  100.84
  -3 -10  -4  217.44   60.58
  -3 -10  -4  356.70   52.33
  -3 -10  -4  267.55   51.74
  -3 -10  -3  215.79   64.52
  -3 -10  -3  240.68   44.33
  -3 -10  -3  203.10   45.51
  -3 -10  -2  354.15   78.96
  -3 -10  -2  283.29   56.10
  -3 -10  -2  416.25   61.06
  -3 -10  -1  557.74   95.55
  -3 -10  -1  497.58   76.68
  -3 -10  -1  743.79   87.91
  -3 -10  -1  516.77   85.59
  -3 -10   0  520.00   86.61
  -3 -10   0  529.54   83.01
  -3 -10   0  636.82   85.80
  -3 -10   0  567.99   92.42
  -3 -10   1  201.70   50.57
  -3 -10   1  323.54   63.52
  -3 -10   1  246.31   61.15
  -3 -10   2   19.69   16.83
  -3 -10   2  106.87   38.38
  -3 -10   2  112.81   42.10
  -3 -10   3  -11.83   16.87
  -3 -10   3    7.60    3.71
  -3  -9 -13   -1.26    4.58
  -3  -9 -12   -4.27   17.58
  -3  -9 -12   -5.56   12.60
  -3  -9 -12  -31.29   27.34
  -3  -9 -11   60.11   26.99
  -3  -9 -11   60.14   30.40
  -3  -9 -10  217.91   62.70
  -3  -9 -10  313.12   69.94
  -3  -9  -9  695.39  112.59
  -3  -9  -9  809.50  110.53
  -3  -9  -8  654.48  107.27
  -3  -9  -8  627.89   90.71
  -3  -9  -7   -3.69    7.62
  -3  -9  -7   31.08   14.33
  -3  -9  -6    4.02    9.61
  -3  -9  -6   40.03   21.25
  -3  -9  -5 1123.21  143.26
  -3  -9  -5 1400.97  122.20
  -3  -9  -4 1167.80  145.66
  -3  -9  -4 1220.11  109.63
  -3  -9  -3   12.62    6.73
  -3  -9  -3   -8.30   18.26
  -3  -9  -3    4.41    4.27
  -3  -9  -3   -2.88   11.26
  -3  -9  -2   65.73   17.86
  -3  -9  -2   54.11   32.90
  -3  -9  -2   17.48    5.57
  -3  -9  -2   78.40   23.07
  -3  -9  -1  497.12   58.23
  -3  -9  -1  455.02   83.03
  -3  -9  -1  349.00   57.81
  -3  -9  -1  532.13   67.61
  -3  -9  -1  475.03   73.79
  -3  -9   0  257.19   45.06
  -3  -9   0  201.08   53.65
  -3  -9   0  212.75   46.58
  -3  -9   0  294.79   52.41
  -3  -9   0  269.71   57.21
  -3  -9   1   37.72   22.53
  -3  -9   1   26.76   17.77
  -3  -9   1    5.01   10.55
  -3  -9   1   40.93   22.91
  -3  -9   2  208.79   49.47
  -3  -9   2  331.14   61.50
  -3  -9   2  340.06   69.76
  -3  -9   3   68.13   26.15
  -3  -9   3   97.22   35.92
  -3  -9   3   82.52   39.15
  -3  -9   4  209.06   50.59
  -3  -9   4  393.67   76.37
  -3  -9   4  315.72   71.61
  -3  -9   5  263.87   64.19
  -3  -8 -13  167.22   52.64
  -3  -8 -12   43.33   23.96
  -3  -8 -12  148.22   54.17
  -3  -8 -12   98.45   47.41
  -3  -8 -11    3.69   10.91
  -3  -8 -11    2.79   14.01
  -3  -8 -11  -25.03   25.50
  -3  -8 -10  268.70   65.54
  -3  -8 -10  289.81   66.79
  -3  -8  -9   55.67   31.51
  -3  -8  -9   60.73   28.15
  -3  -8  -8   11.10   10.25
  -3  -8  -8   47.90   23.70
  -3  -8  -7  686.59  101.61
  -3  -8  -7  780.97   92.18
  -3  -8  -6  965.71  120.42
  -3  -8  -6 1092.56  106.55
  -3  -8  -5   65.20    9.35
  -3  -8  -5   42.87   23.92
  -3  -8  -5   91.04   22.13
  -3  -8  -5   84.16   26.53
  -3  -8  -4  347.72   70.54
  -3  -8  -4  406.98   30.89
  -3  -8  -4  281.52   38.90
  -3  -8  -4  377.35   53.42
  -3  -8  -3 1343.18  146.62
  -3  -8  -3 1604.03   88.39
  -3  -8  -3 1772.27  109.86
  -3  -8  -3 1438.31  112.02
  -3  -8  -2 2035.74  118.13
  -3  -8  -2 2632.96  132.91
  -3  -8  -2 2010.55  183.80
  -3  -8  -2 1910.56  135.71
  -3  -8  -2 2534.01  140.89
  -3  -8  -1  335.91   69.48
  -3  -8  -1  334.61   44.95
  -3  -8  -1  304.87   35.87
  -3  -8  -1  283.01   46.68
  -3  -8  -1  386.61   52.17
  -3  -8  -1  340.16   56.78
  -3  -8   0  472.12   58.83
  -3  -8   0  442.02   75.75
  -3  -8   0  363.60   56.53
  -3  -8   0  529.62   64.62
  -3  -8   0  428.86   67.78
  -3  -8   1  -15.03   18.88
  -3  -8   1   13.69   10.39
  -3  -8   1   13.41   14.80
  -3  -8   1   10.18   13.22
  -3  -8   2  259.41   46.64
  -3  -8   2  175.16   41.21
  -3  -8   2  192.08   47.26
  -3  -8   3  705.61   90.97
  -3  -8   3  533.73   86.76
  -3  -8   4  637.96   92.23
  -3  -8   4  634.24   97.86
  -3  -8   5  349.48   71.62
  -3  -8   5  313.06   72.05
  -3  -8   6  264.46   64.24
  -3  -7 -13   47.76   35.18
  -3  -7 -13   62.47   38.06
  -3  -7 -12   69.23   30.20
  -3  -7 -12  123.74   49.58
  -3  -7 -12   75.20   44.37
  -3  -7 -11  583.20   91.04
  -3  -7 -11  824.08  122.95
  -3  -7 -11  570.07  110.12
  -3  -7 -10  179.30   49.42
  -3  -7 -10  169.62   54.81
  -3  -7 -10  193.64   50.96
  -3  -7  -9  183.16   48.63
  -3  -7  -9  176.66   49.93
  -3  -7  -8    4.75    6.59
  -3  -7  -8   10.27   16.92
  -3  -7  -7  292.31   60.01
  -3  -7  -7  378.31   61.45
  -3  -7  -6 1493.73   73.69
  -3  -7  -6 1337.63  135.01
  -3  -7  -6 1394.51  107.69
  -3  -7  -6 1233.58  110.64
  -3  -7  -5 2646.77  108.44
  -3  -7  -5 2436.09  186.68
  -3  -7  -5 2262.61  135.47
  -3  -7  -5 2732.68  164.01
  -3  -7  -4    8.34   13.90
  -3  -7  -4   31.38    8.61
  -3  -7  -4   28.88   10.49
  -3  -7  -4   26.37   14.09
  -3  -7  -3   12.96    7.82
  -3  -7  -3    6.05    5.90
  -3  -7  -3    2.34    2.46
  -3  -7  -3    5.27    5.61
  -3  -7  -3   -0.42    8.04
  -3  -7  -2 1047.21   73.97
  -3  -7  -2  919.87  109.26
  -3  -7  -2 1243.13   80.84
  -3  -7  -2 1015.47   77.69
  -3  -7  -2  944.57   79.93
  -3  -7  -2 1186.06   79.99
  -3  -7  -1 1525.01  141.82
  -3  -7  -1 1708.47  106.98
  -3  -7  -1 1348.67  101.27
  -3  -7  -1 1472.48   97.55
  -3  -7  -1 1655.40  104.48
  -3  -7  -1 1381.68   88.07
  -3  -7   0    1.92    3.49
  -3  -7   0    4.00    8.61
  -3  -7   0   19.16   14.47
  -3  -7   0    6.62    7.87
  -3  -7   0   -3.86    7.54
  -3  -7   0    0.62    8.03
  -3  -7   1  268.06   52.97
  -3  -7   1  194.62   38.37
  -3  -7   1  310.95   47.94
  -3  -7   1  215.23   30.32
  -3  -7   1  259.37   49.63
  -3  -7   2  391.00   57.30
  -3  -7   2  394.79   58.46
  -3  -7   2  327.26   59.49
  -3  -7   3    9.96   10.41
  -3  -7   3    4.96    7.15
  -3  -7   3   26.53   16.46
  -3  -7   4  239.28   52.30
  -3  -7   4  273.65   60.63
  -3  -7   5  344.36   66.40
  -3  -7   5  446.62   81.57
  -3  -7   6  214.40   55.47
  -3  -7   6  217.34   57.28
  -3  -7   7  469.59   86.84
  -3  -6 -13  128.20   55.93
  -3  -6 -12  159.75   56.34
  -3  -6 -12  150.31   56.88
  -3  -6 -12   87.88   32.87
  -3  -6 -11   84.80   38.04
  -3  -6 -11  123.31   44.40
  -3  -6 -11  157.57   43.04
  -3  -6 -10  419.23   80.85
  -3  -6 -10  351.98   83.94
  -3  -6 -10  328.22   63.54
  -3  -6  -9   -0.61    8.17
  -3  -6  -9   20.75   12.63
  -3  -6  -9   29.93   20.21
  -3  -6  -8  257.82   52.19
  -3  -6  -8  254.79   52.98
  -3  -6  -8  273.62   34.99
  -3  -6  -7  501.33   74.51
  -3  -6  -7  662.26   81.73
  -3  -6  -6   27.08    8.50
  -3  -6  -6   16.15    6.52
  -3  -6  -6   43.05   17.90
  -3  -6  -6   29.11   16.66
  -3  -6  -5  472.68   35.11
  -3  -6  -5  478.89   69.88
  -3  -6  -5  374.33   46.58
  -3  -6  -5  459.31   56.00
  -3  -6  -4 1454.63  124.38
  -3  -6  -4 1650.39   76.96
  -3  -6  -4 1557.12  104.50
  -3  -6  -4 1404.86   90.31
  -3  -6  -4 1278.33   82.24
  -3  -6  -3 2710.37  132.65
  -3  -6  -3 2470.32  169.78
  -3  -6  -3 2761.22  116.93
  -3  -6  -3 2479.71  124.24
  -3  -6  -3 2687.77  138.85
  -3  -6  -3 2436.20  129.74
  -3  -6  -2   78.15   17.57
  -3  -6  -2   88.44   18.53
  -3  -6  -2   48.18   22.20
  -3  -6  -2   92.23   17.74
  -3  -6  -2   73.85   17.35
  -3  -6  -2   96.55   17.21
  -3  -6  -2   59.62   16.44
  -3  -6  -1  391.89   61.79
  -3  -6  -1  528.33   51.95
  -3  -6  -1  424.63   45.74
  -3  -6  -1  471.24   43.38
  -3  -6  -1  483.60   45.07
  -3  -6  -1  443.84   42.94
  -3  -6  -1  473.54   55.02
  -3  -6   0  235.11   46.68
  -3  -6   0  231.07   37.43
  -3  -6   0  231.46   31.27
  -3  -6   0  194.24   32.10
  -3  -6   0  266.18   36.22
  -3  -6   0  219.35   29.74
  -3  -6   0  250.25   42.09
  -3  -6   1 1803.26  138.89
  -3  -6   1 1567.15  102.85
  -3  -6   1 1938.11  119.86
  -3  -6   1 1637.04  125.45
  -3  -6   1 1603.25  100.46
  -3  -6   2  171.20   36.65
  -3  -6   2  190.18   37.91
  -3  -6   2  189.98   41.52
  -3  -6   2  170.77   29.91
  -3  -6   3  717.89   67.67
  -3  -6   3  790.70   83.96
  -3  -6   3  682.12   85.50
  -3  -6   4  326.71   33.38
  -3  -6   4  312.00   54.35
  -3  -6   4  283.06   56.17
  -3  -6   5    3.08    5.51
  -3  -6   5   20.27    9.76
  -3  -6   6  479.21   60.53
  -3  -6   6  510.07   82.02
  -3  -6   6  500.05   82.92
  -3  -6   7  807.49  111.79
  -3  -6   7  942.67  119.44
  -3  -6   8  217.01   60.08
  -3  -6   8  203.49   56.27
  -3  -5 -12 1144.98  162.75
  -3  -5 -11   15.58   18.49
  -3  -5 -11   11.52    9.62
  -3  -5 -10    0.11   16.10
  -3  -5 -10    3.65   23.79
  -3  -5 -10   11.37    9.19
  -3  -5  -9   -2.88   12.83
  -3  -5  -9    5.82   12.62
  -3  -5  -9   25.18   15.00
  -3  -5  -8  668.92   90.81
  -3  -5  -8  580.38   91.03
  -3  -5  -8  587.95   76.44
  -3  -5  -8  802.70   67.98
  -3  -5  -7  989.73  101.83
  -3  -5  -7  747.94   97.32
  -3  -5  -7  791.98   89.88
  -3  -5  -7  918.60   62.92
  -3  -5  -6 2134.28  107.05
  -3  -5  -6 1740.54  138.31
  -3  -5  -6 1943.02  133.21
  -3  -5  -6 2047.87  143.48
  -3  -5  -5   10.03    1.05
  -3  -5  -5   12.22    6.54
  -3  -5  -5   18.36   10.44
  -3  -5  -5   11.53    6.26
  -3  -5  -4  150.26   19.01
  -3  -5  -4   94.86   19.09
  -3  -5  -4  138.72   25.86
  -3  -5  -3 1303.42   68.28
  -3  -5  -3 1313.59   81.01
  -3  -5  -3 1263.49   80.02
  -3  -5  -3 1232.14   70.89
  -3  -5  -2 4722.15  236.42
  -3  -5  -2 4812.48  195.52
  -3  -5  -2 4669.27  186.06
  -3  -5  -2 4577.67  195.86
  -3  -5  -2 4964.28  179.94
  -3  -5  -2 4590.63  199.31
  -3  -5  -2 4155.83  191.90
  -3  -5  -1  112.72   27.42
  -3  -5  -1  109.83   21.53
  -3  -5  -1  119.52   17.63
  -3  -5  -1  108.19   18.55
  -3  -5  -1  114.62   17.55
  -3  -5  -1  116.15   19.98
  -3  -5  -1  123.36   23.84
  -3  -5  -1  111.92   20.18
  -3  -5   0  173.12   35.46
  -3  -5   0  182.36   30.47
  -3  -5   0  182.28   26.43
  -3  -5   0  188.65   23.59
  -3  -5   0  210.94   27.86
  -3  -5   0  180.26   28.63
  -3  -5   0  170.62   31.03
  -3  -5   0  188.95   26.94
  -3  -5   1  672.31   72.62
  -3  -5   1  831.47   61.60
  -3  -5   1  816.81   66.48
  -3  -5   1  791.28   65.37
  -3  -5   1  845.60   78.59
  -3  -5   2  649.75   69.09
  -3  -5   2  632.63   59.54
  -3  -5   2  724.87   68.47
  -3  -5   2  663.14   62.31
  -3  -5   2  633.12   72.17
  -3  -5   3   84.46   21.36
  -3  -5   3   74.36   23.43
  -3  -5   3   66.65   16.57
  -3  -5   3   48.51   18.27
  -3  -5   4  471.95   40.41
  -3  -5   4  475.31   64.94
  -3  -5   4  355.67   59.75
  -3  -5   5  265.63   52.59
  -3  -5   5  269.47   55.35
  -3  -5   6  185.67   46.13
  -3  -5   6  142.88   42.61
  -3  -5   7  659.97   74.69
  -3  -5   7  770.57  103.78
  -3  -5   7  750.61   99.68
  -3  -5   8  272.26   51.06
  -3  -5   8  314.98   68.23
  -3  -5   8  316.15   65.23
  -3  -5   9  148.02   49.59
  -3  -5   9  144.73   43.37
  -3  -4 -12   92.28   39.73
  -3  -4 -11  578.00  105.19
  -3  -4 -10   13.02   16.38
  -3  -4 -10    6.11    7.46
  -3  -4  -9    6.30   11.95
  -3  -4  -9   -8.40    7.03
  -3  -4  -8  143.72   40.75
  -3  -4  -8  132.98   39.86
  -3  -4  -8  132.99   32.48
  -3  -4  -8  108.05   23.92
  -3  -4  -8  181.24   30.57
  -3  -4  -7  127.08   34.96
  -3  -4  -7  108.53   30.38
  -3  -4  -7  115.89   29.31
  -3  -4  -7  157.03   24.92
  -3  -4  -7  112.61   23.36
  -3  -4  -6  143.70   24.03
  -3  -4  -6  162.26   33.81
  -3  -4  -6  161.03   35.40
  -3  -4  -6  124.56   33.61
  -3  -4  -6  181.41   33.96
  -3  -4  -6  118.52   23.68
  -3  -4  -6  164.91   21.38
  -3  -4  -5 1642.72   85.38
  -3  -4  -5 1271.66  106.70
  -3  -4  -5 1539.81  109.96
  -3  -4  -5 1296.65   90.38
  -3  -4  -5 1350.01   89.00
  -3  -4  -5 1480.04   67.60
  -3  -4  -4 2317.24  127.98
  -3  -4  -4 2888.84  119.82
  -3  -4  -4 2718.42  142.47
  -3  -4  -4 2474.81  134.79
  -3  -4  -4 2350.73  118.50
  -3  -4  -4 2430.91  130.44
  -3  -4  -3   21.46    8.35
  -3  -4  -3   17.87    6.39
  -3  -4  -3   20.85    8.16
  -3  -4  -3   20.17    9.86
  -3  -4  -3   11.59   10.58
  -3  -4  -3    7.14    3.44
  -3  -4  -3   15.77    7.49
  -3  -4  -2  888.85   55.54
  -3  -4  -2  927.35   55.23
  -3  -4  -2  837.56   46.66
  -3  -4  -2  861.35   64.94
  -3  -4  -2  804.96   82.13
  -3  -4  -2  802.06   63.79
  -3  -4  -2  889.44   54.97
  -3  -4  -2  934.58   61.82
  -3  -4  -2  737.16   48.13
  -3  -4  -1  718.08   54.92
  -3  -4  -1  649.49   36.00
  -3  -4  -1  636.04   41.32
  -3  -4  -1  622.42   35.11
  -3  -4  -1  594.15   73.10
  -3  -4  -1  621.78   52.70
  -3  -4  -1  631.98   50.68
  -3  -4  -1  554.76   41.89
  -3  -4  -1  669.20   51.16
  -3  -4   0 2810.23  140.50
  -3  -4   0 2368.70  112.26
  -3  -4   0 2628.53  107.46
  -3  -4   0 2954.64  139.55
  -3  -4   0 2544.80  114.78
  -3  -4   0 2537.22  168.06
  -3  -4   0 2586.24  127.41
  -3  -4   0 2598.46  134.76
  -3  -4   0 2081.70  126.23
  -3  -4   0 2725.40  130.71
  -3  -4   0 2472.04  120.62
  -3  -4   1  103.42   21.52
  -3  -4   1  112.17   17.44
  -3  -4   1   96.33   18.50
  -3  -4   1   93.19   21.23
  -3  -4   1   84.71   25.99
  -3  -4   1   98.21   18.92
  -3  -4   1   88.89   18.88
  -3  -4   1   95.30   20.74
  -3  -4   1   99.83   23.30
  -3  -4   2 1112.16   75.20
  -3  -4   2  921.00   87.30
  -3  -4   2 1071.00   79.51
  -3  -4   2 1020.64   67.96
  -3  -4   2 1124.23   90.55
  -3  -4   2 1003.85   77.29
  -3  -4   3   46.37   14.23
  -3  -4   3   86.97   21.38
  -3  -4   3   88.87   22.28
  -3  -4   3   70.85   22.52
  -3  -4   4  166.89   22.96
  -3  -4   4  152.40   33.62
  -3  -4   4  158.90   34.89
  -3  -4   5  286.88   52.07
  -3  -4   5  259.04   50.22
  -3  -4   6 1163.80  115.98
  -3  -4   6 1103.90  111.63
  -3  -4   7  366.74   68.22
  -3  -4   7  314.82   59.14
  -3  -4   8  261.62   47.46
  -3  -4   8  362.52   70.48
  -3  -4   8  322.93   61.77
  -3  -4   9  309.58   56.10
  -3  -4   9  398.39   79.59
  -3  -4   9  350.55   67.89
  -3  -4  10  463.57   71.85
  -3  -4  10  468.20   81.20
  -3  -3 -12  140.24   54.58
  -3  -3 -11   21.70   15.51
  -3  -3 -10   32.34   10.46
  -3  -3 -10   63.51   21.72
  -3  -3  -9  884.07  115.57
  -3  -3  -9 1052.49   90.08
  -3  -3  -8  168.30   43.24
  -3  -3  -8  171.23   33.74
  -3  -3  -8  184.58   26.07
  -3  -3  -7  985.30  101.71
  -3  -3  -7  946.03   65.16
  -3  -3  -7 1065.72   69.91
  -3  -3  -6   10.52    4.87
  -3  -3  -6   14.61   12.12
  -3  -3  -6   16.01   10.13
  -3  -3  -6    7.44    4.79
  -3  -3  -6    7.78    5.00
  -3  -3  -5  491.32   44.71
  -3  -3  -5  441.31   54.32
  -3  -3  -5  440.00   53.15
  -3  -3  -5  400.11   45.27
  -3  -3  -5  397.87   37.65
  -3  -3  -5  445.44   28.14
  -3  -3  -4 1222.24   69.22
  -3  -3  -4 1071.49   79.11
  -3  -3  -4 1064.74   78.77
  -3  -3  -4  965.06   65.44
  -3  -3  -4 1016.38   65.61
  -3  -3  -3 4533.84  196.59
  -3  -3  -3 4573.76  196.24
  -3  -3  -3 4363.05  178.52
  -3  -3  -3 4666.96  195.23
  -3  -3  -2   71.34   11.56
  -3  -3  -2   78.35   12.72
  -3  -3  -2   69.96   15.08
  -3  -3  -2   68.70   13.98
  -3  -3  -2   61.17   13.83
  -3  -3  -2   71.74    9.94
  -3  -3  -1  407.60   23.86
  -3  -3  -1  409.77   36.78
  -3  -3  -1  436.09   38.37
  -3  -3  -1  361.66   31.42
  -3  -3  -1  324.37   35.13
  -3  -3  -1  342.33   24.27
  -3  -3   0 1208.83   77.78
  -3  -3   0 1064.90   49.37
  -3  -3   0 1006.58   56.84
  -3  -3   0 1038.80   84.95
  -3  -3   0 1223.39   72.91
  -3  -3   0 1227.47   73.92
  -3  -3   0 1080.16   69.10
  -3  -3   0  990.57   57.80
  -3  -3   1 3907.56  183.31
  -3  -3   1 3707.03  148.22
  -3  -3   1 3785.79  194.48
  -3  -3   1 3477.18  159.54
  -3  -3   1 3821.58  169.79
  -3  -3   1 3401.73  165.37
  -3  -3   1 3456.04  170.03
  -3  -3   1 4218.67  178.17
  -3  -3   1 3468.49  156.62
  -3  -3   2  125.25   20.72
  -3  -3   2  112.22   21.86
  -3  -3   2  111.20   21.47
  -3  -3   2  111.06   25.04
  -3  -3   2   96.60   19.57
  -3  -3   2  201.53   32.14
  -3  -3   2  119.61   21.87
  -3  -3   2  119.24   22.85
  -3  -3   3  271.32   36.03
  -3  -3   3  231.73   34.69
  -3  -3   3  287.19   40.44
  -3  -3   3  235.62   32.32
  -3  -3   4  237.07   39.84
  -3  -3   4  209.74   38.39
  -3  -3   5   15.22    4.14
  -3  -3   5   13.02    2.96
  -3  -3   5    5.65    5.47
  -3  -3   6  370.00   60.28
  -3  -3   6  367.95   57.01
  -3  -3   7  316.42   59.96
  -3  -3   7  368.55   60.59
  -3  -3   8   75.75   23.11
  -3  -3   8   93.45   35.87
  -3  -3   8   68.02   26.86
  -3  -3   9  281.38   50.63
  -3  -3   9  344.16   70.58
  -3  -3   9  339.10   62.34
  -3  -3  10  754.74   93.78
  -3  -3  10 1099.23  132.56
  -3  -3  10  960.49  112.08
  -3  -3  11  131.09   39.58
  -3  -2 -11  162.84   58.12
  -3  -2 -10  147.14   49.47
  -3  -2  -9   51.95   26.68
  -3  -2  -8  791.35   97.15
  -3  -2  -7  -14.76   15.10
  -3  -2  -7    6.50    3.56
  -3  -2  -6  435.01   60.21
  -3  -2  -6  566.59   57.78
  -3  -2  -6  474.98   33.04
  -3  -2  -5  833.79   64.34
  -3  -2  -5  683.80   68.85
  -3  -2  -5  693.41   64.36
  -3  -2  -5  678.10   42.96
  -3  -2  -4   61.65   14.32
  -3  -2  -4   38.40   11.80
  -3  -2  -4   24.50   10.72
  -3  -2  -4   34.53   11.77
  -3  -2  -4   32.00    8.18
  -3  -2  -3  717.00   53.32
  -3  -2  -3  765.07   52.59
  -3  -2  -3  706.68   53.77
  -3  -2  -3  670.49   48.15
  -3  -2  -3  667.13   44.74
  -3  -2  -2 2634.32  113.05
  -3  -2  -2 2759.21  121.15
  -3  -2  -2 2340.85  113.60
  -3  -2  -2 2719.20  123.07
  -3  -2  -1 6431.50  221.65
  -3  -2  -1 6546.51  243.32
  -3  -2   0   86.70   17.44
  -3  -2   0   96.96   14.31
  -3  -2   0   81.18   15.33
  -3  -2   1 1539.49   73.49
  -3  -2   1 1626.77   86.43
  -3  -2   1 1792.66   90.12
  -3  -2   1 1715.77   91.27
  -3  -2   2  236.92   26.61
  -3  -2   2  284.16   35.99
  -3  -2   2  281.26   34.75
  -3  -2   2  250.82   32.83
  -3  -2   3  868.66   65.25
  -3  -2   3  879.36   64.71
  -3  -2   3 1073.85   80.62
  -3  -2   4  125.76   25.80
  -3  -2   4   98.30   24.11
  -3  -2   5 1908.70   82.93
  -3  -2   5 1779.69  130.46
  -3  -2   5 1891.62  127.35
  -3  -2   6  147.72   14.56
  -3  -2   6  166.47   37.02
  -3  -2   6  132.59   31.89
  -3  -2   7  194.77   43.81
  -3  -2   7  172.64   38.01
  -3  -2   8  517.57   77.72
  -3  -2   8  439.23   64.89
  -3  -2   9 1594.93  149.93
  -3  -2   9 1386.70  124.89
  -3  -2  10   91.94   29.45
  -3  -2  10  169.44   49.58
  -3  -2  10  101.75   37.09
  -3  -2  11  463.52   73.71
  -3  -2  11  632.24  101.83
  -3  -2  11  569.67   84.88
  -3  -1 -11   87.47   41.04
  -3  -1 -10 1091.59  137.14
  -3  -1  -9    1.40   15.09
  -3  -1  -8   80.51   30.17
  -3  -1  -7  -17.39   14.07
  -3  -1  -6  795.57   84.45
  -3  -1  -5  395.35   46.35
  -3  -1  -5  307.30   45.93
  -3  -1  -4 4162.32  179.89
  -3  -1  -4 3841.65  189.15
  -3  -1  -4 3740.43  190.03
  -3  -1  -3   25.12    9.12
  -3  -1  -3   18.78    7.93
  -3  -1  -3    9.66    6.69
  -3  -1  -2    4.22    0.75
  -3  -1  -2    4.58    3.81
  -3  -1  -1 1261.53   64.29
  -3  -1  -1 1123.62   48.81
  -3  -1  -1 1260.48   68.32
  -3  -1   0 8725.65  307.39
  -3  -1   0 8405.62  323.18
  -3  -1   1   88.01   17.73
  -3  -1   1  116.56   13.32
  -3  -1   1  119.48   15.56
  -3  -1   1  133.15   21.23
  -3  -1   2  379.75   43.53
  -3  -1   2  406.62   38.82
  -3  -1   2  397.72   34.12
  -3  -1   3  118.22   26.22
  -3  -1   3  131.57   22.44
  -3  -1   3  138.77   26.29
  -3  -1   3  120.10   18.55
  -3  -1   4  771.43   64.52
  -3  -1   4  671.82   41.71
  -3  -1   5   29.20    8.40
  -3  -1   5   19.47   13.97
  -3  -1   5   48.20   16.06
  -3  -1   6  565.35   43.62
  -3  -1   6  690.15   77.81
  -3  -1   6  547.57   62.73
  -3  -1   7   63.37   13.69
  -3  -1   7   79.22   27.11
  -3  -1   7   74.26   23.49
  -3  -1   8  186.55   44.06
  -3  -1   8  100.31   28.82
  -3  -1   9  640.36   75.87
  -3  -1   9  893.35  106.13
  -3  -1  10  322.19   56.67
  -3  -1  10  558.24   88.02
  -3  -1  11   74.22   25.64
  -3  -1  11  116.87   43.70
  -3   0 -10   22.15   21.18
  -3   0  -9  816.85  111.26
  -3   0  -8  139.51   41.03
  -3   0  -7    8.81   11.87
  -3   0  -6   86.53   27.13
  -3   0  -5  619.51   70.12
  -3   0  -4  148.28   29.93
  -3   0  -4  141.11   22.73
  -3   0  -4   92.67   22.66
  -3   0  -3 2065.82  123.90
  -3   0  -3 2218.71  107.65
  -3   0  -2 3025.93  146.78
  -3   0  -2 2945.94  131.23
  -3   0  -2 3308.99  143.03
  -3   0  -2 2896.51  131.13
  -3   0  -1  300.94   32.67
  -3   0  -1  285.18   29.80
  -3   0  -1  273.09   26.39
  -3   0  -1  262.09   23.86
  -3   0   0  976.01   59.72
  -3   0   0  848.93   56.03
  -3   0   0  884.98   56.26
  -3   0   0  882.10   48.70
  -3   0   1 1175.69   70.37
  -3   0   1 1395.14   71.21
  -3   0   1 1425.77   76.45
  -3   0   1 1280.63   56.80
  -3   0   1 1336.53   78.41
  -3   0   2 2650.10  137.50
  -3   0   2 3170.80  132.40
  -3   0   3   76.47   19.52
  -3   0   3   77.98   17.30
  -3   0   3   81.77   17.23
  -3   0   4 1656.02  120.16
  -3   0   4 1994.55  122.32
  -3   0   4 1773.06  111.34
  -3   0   5   95.84   18.29
  -3   0   5   75.09   20.96
  -3   0   6   73.97   16.78
  -3   0   6   84.73   26.89
  -3   0   7   78.41   18.34
  -3   0   7   74.65   27.35
  -3   0   8 2138.68  160.74
  -3   0   9   13.54    9.14
  -3   0   9   35.34   19.88
  -3   0  10  502.87   69.91
  -3   0  10  800.35  103.28
  -3   0  11  162.50   40.41
  -3   0  11  313.60   66.72
  -3   0  12  681.51   90.42
  -3   1 -10  194.24   58.33
  -3   1  -9   -2.53   12.54
  -3   1  -8   32.80   23.31
  -3   1  -7  774.94   98.37
  -3   1  -6   -2.12    6.35
  -3   1  -5  972.36   95.13
  -3   1  -4   -5.70    6.35
  -3   1  -4   16.68    8.70
  -3   1  -4   26.32    9.31
  -3   1  -3  122.44   26.84
  -3   1  -3  126.77   19.49
  -3   1  -3  163.78   29.11
  -3   1  -2  271.71   37.92
  -3   1  -2  224.78   24.15
  -3   1  -2  286.06   32.47
  -3   1  -1 5943.00  247.37
  -3   1  -1 6043.20  232.61
  -3   1  -1 5447.56  214.79
  -3   1  -1 5627.19  227.74
  -3   1   0  303.61   35.28
  -3   1   0  269.37   28.67
  -3   1   0  269.69   28.14
  -3   1   0  237.04   24.66
  -3   1   1   31.02    9.91
  -3   1   1   20.46    8.66
  -3   1   1   38.77   10.91
  -3   1   1   22.96    8.06
  -3   1   1   16.54    6.38
  -3   1   2  170.98   22.08
  -3   1   2  210.48   27.77
  -3   1   3 4747.68  187.41
  -3   1   3 4206.26  183.26
  -3   1   4  263.27   33.66
  -3   1   4  165.98   29.46
  -3   1   4  217.73   32.57
  -3   1   5  501.68   61.09
  -3   1   5  685.77   59.01
  -3   1   6   55.57   16.27
  -3   1   6   14.18    5.75
  -3   1   7   54.95   17.20
  -3   1   7   44.26   19.11
  -3   1   8  288.77   53.21
  -3   1   9  732.26   81.59
  -3   1   9 1172.94  115.04
  -3   1  10  151.53   36.62
  -3   1  10  217.77   49.87
  -3   1  11  101.67   33.53
  -3   1  11  182.92   49.27
  -3   1  12  851.27  101.31
  -3   1  12 1069.64  129.02
  -3   2  -9  142.84   46.52
  -3   2  -8   60.53   27.96
  -3   2  -7  -14.27   15.43
  -3   2  -6  486.31   75.42
  -3   2  -5   -1.00    6.62
  -3   2  -4  496.00   65.32
  -3   2  -4  400.93   46.47
  -3   2  -3  626.18   70.77
  -3   2  -3  737.91   68.81
  -3   2  -3  570.55   55.20
  -3   2  -3  599.71   45.49
  -3   2  -3  633.40   62.13
  -3   2  -2  649.15   67.45
  -3   2  -2  806.92   65.43
  -3   2  -2  599.79   41.18
  -3   2  -2  611.64   55.76
  -3   2  -2  686.82   60.45
  -3   2  -1  230.82   36.89
  -3   2  -1  186.36   29.07
  -3   2  -1  204.26   19.66
  -3   2  -1  248.54   32.49
  -3   2   0 2084.44  119.59
  -3   2   0 1987.04   97.96
  -3   2   0 1795.59  106.07
  -3   2   0 1609.95   79.75
  -3   2   0 1878.83  102.51
  -3   2   1 2346.15  127.46
  -3   2   1 2160.22  118.69
  -3   2   1 2033.53  100.68
  -3   2   1 1864.97   98.39
  -3   2   1 2140.54  110.79
  -3   2   2  113.47   23.27
  -3   2   2  125.13   23.78
  -3   2   2   87.75   20.89
  -3   2   2  109.11   17.35
  -3   2   2   93.83   18.94
  -3   2   3  817.89   55.95
  -3   2   3 1015.61   74.70
  -3   2   4  259.94   31.48
  -3   2   5  418.63   48.90
  -3   2   5  586.56   43.66
  -3   2   6   16.91    9.14
  -3   2   6   54.72    9.91
  -3   2   6   59.38   19.39
  -3   2   7  762.60   87.61
  -3   2   7 1373.54  109.77
  -3   2   8    4.14    4.13
  -3   2   8   -0.47    9.98
  -3   2   9  214.08   40.58
  -3   2   9  308.21   57.02
  -3   2  10    2.63    7.62
  -3   2  10   76.73   30.75
  -3   2  11  693.12   86.15
  -3   2  11 1034.43  117.68
  -3   2  12   -0.32   13.41
  -3   2  12    4.09    7.22
  -3   3  -8  697.55  110.34
  -3   3  -7  168.58   49.96
  -3   3  -6   98.49   34.51
  -3   3  -5   33.43   14.42
  -3   3  -4  356.13   61.48
  -3   3  -3   25.38   17.62
  -3   3  -3   10.82    9.38
  -3   3  -2 2589.25  169.01
  -3   3  -2 2842.03  158.14
  -3   3  -1   83.60   22.85
  -3   3  -1   93.68   21.36
  -3   3  -1   65.28    8.99
  -3   3  -1   66.14   18.58
  -3   3   0   24.69   11.80
  -3   3   0   47.06    7.68
  -3   3   0   62.55   15.99
  -3   3   0   53.17   15.61
  -3   3   1  287.90   42.24
  -3   3   1  256.76   29.05
  -3   3   1  213.63   22.48
  -3   3   1  271.37   36.16
  -3   3   2 5712.70  245.40
  -3   3   2 5306.44  220.87
  -3   3   3  492.31   39.77
  -3   3   3  648.07   59.94
  -3   3   4  225.41   26.26
  -3   3   4  270.47   40.89
  -3   3   5    9.94    4.93
  -3   3   5   16.33    9.69
  -3   3   6  671.21   62.63
  -3   3   6  971.90   68.22
  -3   3   7   15.69    7.86
  -3   3   7   45.25   11.08
  -3   3   7   24.45   11.64
  -3   3   8  709.39   72.72
  -3   3   8  572.02   73.03
  -3   3   8  831.15   90.28
  -3   3   9   62.35   25.48
  -3   3   9   40.26   17.68
  -3   3   9   22.54   14.16
  -3   3  10   52.74   23.74
  -3   3  10   37.20   15.66
  -3   3  10   50.17   23.58
  -3   3  11  388.90   63.90
  -3   3  11  516.78   80.09
  -3   3  12  652.38   87.32
  -3   3  12  879.40  113.27
  -3   4  -7  661.26  107.89
  -3   4  -6  105.74   38.81
  -3   4  -5   90.86   34.55
  -3   4  -4   40.70   22.18
  -3   4  -3  390.79   64.53
  -3   4  -3  382.94   57.73
  -3   4  -2   74.62   26.70
  -3   4  -2   81.97   24.08
  -3   4  -1 1256.24  111.68
  -3   4  -1 1298.19  101.73
  -3   4   0  921.08   88.33
  -3   4   0  960.38   80.38
  -3   4   1  285.03   48.42
  -3   4   1  366.94   39.65
  -3   4   1  340.84   22.77
  -3   4   1  269.37   19.63
  -3   4   1  321.14   44.07
  -3   4   2  309.89   49.92
  -3   4   2  350.18   34.33
  -3   4   2  324.64   43.44
  -3   4   2  253.49   28.59
  -3   4   3 1129.80   65.57
  -3   4   3 1207.76   61.40
  -3   4   3 1237.83   94.29
  -3   4   4 1097.23   63.47
  -3   4   4 1335.25  100.41
  -3   4   5  117.60   18.07
  -3   4   5  107.67   22.38
  -3   4   5  147.91   33.76
  -3   4   6  573.20   58.94
  -3   4   6  564.63   46.12
  -3   4   7   26.94   10.61
  -3   4   7   17.52   11.72
  -3   4   7   29.27   12.82
  -3   4   8   -4.28    8.02
  -3   4   9    7.58    7.73
  -3   4   9   -2.16    6.15
  -3   4  10  823.05   88.41
  -3   4  10  711.96   83.82
  -3   4  10 1017.20  111.01
  -3   4  11    6.60    7.48
  -3   4  11   -5.54   10.71
  -3   4  12  715.22   92.42
  -3   4  12  917.64  114.40
  -3   5  -5  409.74   80.31
  -3   5  -4   73.74   30.40
  -3   5  -3  696.40   94.45
  -3   5  -3  643.05   82.21
  -3   5  -2   74.37   26.70
  -3   5  -2  103.80   28.52
  -3   5  -1   24.41   17.77
  -3   5  -1   41.78   19.61
  -3   5   0   72.93   25.69
  -3   5   0  107.58   28.04
  -3   5   1 4096.87  238.55
  -3   5   1 4133.90  219.26
  -3   5   2  734.21   83.59
  -3   5   2  862.31   64.50
  -3   5   2  713.16   37.82
  -3   5   2  771.97   76.57
  -3   5   2  566.49   35.47
  -3   5   3  122.63   34.27
  -3   5   3  105.32   20.08
  -3   5   3  170.38   23.48
  -3   5   3  157.53   21.89
  -3   5   3  121.40   28.09
  -3   5   4   26.62    8.18
  -3   5   4   22.62    9.14
  -3   5   4   31.82    8.98
  -3   5   4   15.31   10.04
  -3   5   4   25.25   11.32
  -3   5   5 1657.02  105.92
  -3   5   5 1679.96   79.27
  -3   5   5 1770.70  132.51
  -3   5   5 1881.44  135.29
  -3   5   6  231.27   36.50
  -3   5   6  241.46   23.41
  -3   5   6  257.48   44.09
  -3   5   6  262.77   49.05
  -3   5   7  643.84   66.67
  -3   5   7  637.67   46.12
  -3   5   7  551.27   65.44
  -3   5   7  769.76   88.44
  -3   5   8   27.10    9.05
  -3   5   8   14.54   11.78
  -3   5   9   18.75   12.09
  -3   5  10   16.09    9.76
  -3   5  11  602.00   79.47
  -3   5  12   57.42   26.10
  -3   6  -4  500.91   90.56
  -3   6  -3   96.05   37.77
  -3   6  -3   82.87   31.50
  -3   6  -2  435.58   77.57
  -3   6  -2  491.92   73.71
  -3   6  -1  407.86   73.17
  -3   6  -1  350.32   60.05
  -3   6   0  354.69   64.19
  -3   6   0  310.13   53.58
  -3   6   1   52.01   24.95
  -3   6   1   66.89   23.40
  -3   6   2 1095.31  116.77
  -3   6   2 1223.18  127.90
  -3   6   2 1145.96  104.73
  -3   6   3  790.24   45.97
  -3   6   3 1016.14  109.98
  -3   6   3  985.02  108.92
  -3   6   3  958.21   93.06
  -3   6   4  150.51   24.56
  -3   6   4  158.61   39.53
  -3   6   4  170.60   38.66
  -3   6   5  380.61   45.16
  -3   6   5  320.81   35.69
  -3   6   5  285.71   54.30
  -3   6   5  385.24   60.08
  -3   6   6  459.03   54.53
  -3   6   6  460.23   67.08
  -3   6   6  533.20   73.82
  -3   6   7  226.76   39.76
  -3   6   7  303.90   52.23
  -3   6   7  303.39   57.83
  -3   6   8   41.17   18.96
  -3   6   8   51.93   21.53
  -3   6   8   48.91   23.81
  -3   6   9  577.29   71.18
  -3   6   9  640.51   91.10
  -3   6  10    2.83    3.46
  -3   6  11  295.10   56.98
  -3   6  12   59.29   26.72
  -3   7  -2   92.44   35.02
  -3   7  -2  131.97   51.82
  -3   7  -2  114.97   37.86
  -3   7  -1   19.35   20.46
  -3   7  -1   27.93    5.70
  -3   7  -1  -11.61   15.22
  -3   7   0 1616.02  160.16
  -3   7   0 1958.30  193.41
  -3   7   0 1489.76  138.02
  -3   7   1  342.11   69.17
  -3   7   1  377.79   77.44
  -3   7   1  360.78   61.36
  -3   7   2   13.93    7.54
  -3   7   2    9.83   18.37
  -3   7   2   14.08    3.16
  -3   7   3   34.12   20.93
  -3   7   3   48.32   25.25
  -3   7   3    1.15    8.95
  -3   7   4 2067.58  178.69
  -3   7   4 2251.23  165.56
  -3   7   5  768.20  101.12
  -3   7   5  802.50   94.07
  -3   7   6  236.50   38.49
  -3   7   6  268.17   56.14
  -3   7   6  276.68   55.48
  -3   7   7    9.88    8.59
  -3   7   7    3.94   12.14
  -3   7   8  280.50   48.38
  -3   7   8  288.81   55.49
  -3   7   8  273.39   59.13
  -3   7   9   36.02   18.79
  -3   7   9   71.98   34.51
  -3   7  10  495.49   71.69
  -3   7  10  564.53   92.08
  -3   7  11   58.02   25.50
  -3   7  12   -8.52   12.07
  -3   8   0   73.12   32.08
  -3   8   0   92.78   43.43
  -3   8   0   93.79   35.26
  -3   8   1  657.49  103.66
  -3   8   1  745.93  120.42
  -3   8   1  678.95   93.44
  -3   8   2  755.29  112.48
  -3   8   2  881.32  126.82
  -3   8   2  699.98   94.05
  -3   8   3  304.48   71.96
  -3   8   3  260.15   54.88
  -3   8   4  102.38   39.29
  -3   8   4   92.63   32.03
  -3   8   5  714.40  106.97
  -3   8   5  803.23   99.87
  -3   8   6  546.73   90.81
  -3   8   6  760.24   98.26
  -3   8   7  157.37   46.70
  -3   8   7  179.34   49.05
  -3   8   8  312.79   62.31
  -3   8   8  288.40   62.79
  -3   8   9  216.81   55.31
  -3   8  11   10.48    6.54
  -3   9   3 1482.09  176.24
  -3   9   4  604.78  107.48
  -3   9   4  511.67   84.58
  -3   9   5  130.56   47.62
  -3   9   5   61.63   26.70
  -3   9   6   21.34   17.52
  -3   9   6   -4.29   11.50
  -3   9   7  393.91   80.89
  -2 -12  -7  186.22   58.14
  -2 -12  -6  268.54   65.01
  -2 -12  -5  113.84   40.69
  -2 -12  -4  154.51   61.79
  -2 -12  -4  173.27   52.25
  -2 -12  -3  123.06   50.19
  -2 -11 -10   50.09   27.34
  -2 -11  -9  852.62  122.01
  -2 -11  -9  564.43  106.32
  -2 -11  -8  784.67  129.00
  -2 -11  -8 1146.26  136.68
  -2 -11  -7   17.24   13.45
  -2 -11  -7    2.26   13.60
  -2 -11  -6    6.20    9.51
  -2 -11  -6   -8.90   10.52
  -2 -11  -5   90.99   35.94
  -2 -11  -5  100.89   48.73
  -2 -11  -4  158.62   41.81
  -2 -11  -4  234.56   68.28
  -2 -11  -4  212.09   46.36
  -2 -11  -3  351.64   80.91
  -2 -11  -3  272.76   60.00
  -2 -11  -3  430.83   69.50
  -2 -11  -2  380.12   83.24
  -2 -11  -2  339.94   69.10
  -2 -11  -2  361.65   67.13
  -2 -11  -1    4.84    9.59
  -2 -11  -1  -10.67    9.91
  -2 -11  -1    5.68   11.35
  -2 -11  -1   23.34   22.43
  -2 -11   0   64.95   30.30
  -2 -11   0   49.37   26.00
  -2 -11   1  610.58   98.92
  -2 -10 -11  517.21  100.12
  -2 -10 -11  539.15  102.50
  -2 -10 -10  351.78   78.78
  -2 -10 -10  220.74   62.27
  -2 -10  -9    7.36   14.61
  -2 -10  -9   19.31   14.56
  -2 -10  -8  270.40   61.02
  -2 -10  -8  283.66   72.74
  -2 -10  -7  459.64   91.51
  -2 -10  -7  531.55   85.32
  -2 -10  -6  167.99   54.77
  -2 -10  -6  241.03   54.46
  -2 -10  -5  -51.36   39.09
  -2 -10  -5   26.29   14.74
  -2 -10  -4   87.45   31.07
  -2 -10  -4  120.30   46.34
  -2 -10  -4  166.71   39.60
  -2 -10  -3    9.55   10.56
  -2 -10  -3   22.48   19.85
  -2 -10  -3   11.95   10.43
  -2 -10  -2    8.11    3.99
  -2 -10  -2   -9.37   14.97
  -2 -10  -2   -1.11   15.79
  -2 -10  -1  286.28   64.09
  -2 -10  -1  285.69   59.13
  -2 -10  -1  412.38   68.39
  -2 -10   0  291.04   59.76
  -2 -10   0  226.36   55.92
  -2 -10   0  262.45   57.98
  -2 -10   0  358.08   73.68
  -2 -10   1  273.86   62.02
  -2 -10   1  352.86   70.34
  -2 -10   1  309.97   71.63
  -2 -10   2  254.10   61.63
  -2 -10   2  210.65   54.66
  -2 -10   3  374.63   77.79
  -2  -9 -13  183.55   56.80
  -2  -9 -12  128.62   52.66
  -2  -9 -12   43.73   27.05
  -2  -9 -11   51.51   30.93
  -2  -9 -11    9.22    6.77
  -2  -9 -10  639.18  105.77
  -2  -9 -10  986.64  129.39
  -2  -9  -9  828.05  121.64
  -2  -9  -9 1087.34  129.84
  -2  -9  -8   14.99   12.35
  -2  -9  -8   24.65   15.81
  -2  -9  -7   15.46   23.38
  -2  -9  -7    6.36    9.40
  -2  -9  -6  365.72   77.74
  -2  -9  -6  526.62   77.78
  -2  -9  -5 1253.88  149.44
  -2  -9  -5 1285.55  120.92
  -2  -9  -4  100.42   40.16
  -2  -9  -4  117.98   31.60
  -2  -9  -3  136.38   46.02
  -2  -9  -3  169.44   36.93
  -2  -9  -3   97.32   27.86
  -2  -9  -2    5.66    6.54
  -2  -9  -2    5.54    9.89
  -2  -9  -2   -0.14    7.29
  -2  -9  -1  103.10   25.14
  -2  -9  -1   76.34   32.01
  -2  -9  -1   55.63   23.89
  -2  -9  -1   55.74   22.04
  -2  -9   0  585.72   84.45
  -2  -9   0  526.76   79.52
  -2  -9   0  665.59   86.10
  -2  -9   0  681.11   94.64
  -2  -9   1  530.94   73.02
  -2  -9   1  443.56   73.05
  -2  -9   1  650.70   88.19
  -2  -9   1  652.47   96.60
  -2  -9   2   -9.14   16.10
  -2  -9   2   -7.74   10.63
  -2  -9   2  -21.15   20.66
  -2  -9   3  150.94   43.28
  -2  -9   3  273.43   61.57
  -2  -9   3  203.10   56.82
  -2  -9   4  567.15   96.24
  -2  -9   4  445.32   77.23
  -2  -8 -13  118.12   42.46
  -2  -8 -12   88.98   33.72
  -2  -8 -12  187.54   66.40
  -2  -8 -12  120.37   46.55
  -2  -8 -11   65.00   27.28
  -2  -8 -11  108.92   44.07
  -2  -8 -10  136.93   44.45
  -2  -8 -10  122.18   44.82
  -2  -8  -9  482.81   87.87
  -2  -8  -9  623.06   94.06
  -2  -8  -8 1170.53  136.28
  -2  -8  -8 1277.65  130.29
  -2  -8  -7  490.12   85.45
  -2  -8  -7  555.78   79.33
  -2  -8  -6   -1.25   12.81
  -2  -8  -6   37.17   20.76
  -2  -8  -5  272.44   62.21
  -2  -8  -5  400.85   60.00
  -2  -8  -4  229.69   58.48
  -2  -8  -4  311.63   50.30
  -2  -8  -3   72.99   13.12
  -2  -8  -3   67.07   30.86
  -2  -8  -3   80.22   17.68
  -2  -8  -3  113.31   16.88
  -2  -8  -3   80.77   24.47
  -2  -8  -2  244.24   29.05
  -2  -8  -2  307.10   36.91
  -2  -8  -2  219.60   54.27
  -2  -8  -2  300.39   46.83
  -2  -8  -2  181.02   37.73
  -2  -8  -1  441.52   75.44
  -2  -8  -1  382.31   58.79
  -2  -8  -1  489.01   62.66
  -2  -8   0  264.62   54.28
  -2  -8   0  170.83   39.39
  -2  -8   0  221.96   43.89
  -2  -8   1  314.71   53.46
  -2  -8   1  274.63   53.26
  -2  -8   1  373.43   61.34
  -2  -8   1  340.42   63.11
  -2  -8   2  833.39   80.19
  -2  -8   2  753.41   92.44
  -2  -8   2  992.30  107.62
  -2  -8   2  874.60  110.55
  -2  -8   3  613.56   86.72
  -2  -8   3  990.19  112.71
  -2  -8   3  941.64  117.49
  -2  -8   4  318.28   66.62
  -2  -8   4  380.51   76.61
  -2  -8   5  437.13   83.33
  -2  -8   5  488.52   89.73
  -2  -7 -13   59.13   38.72
  -2  -7 -12   75.68   35.90
  -2  -7 -12   63.88   35.97
  -2  -7 -12   28.74   20.98
  -2  -7 -11  339.05   68.15
  -2  -7 -11  459.25   97.79
  -2  -7 -11  504.71   93.11
  -2  -7 -10  847.84  110.33
  -2  -7 -10 1274.78  142.39
  -2  -7  -9   24.32   21.04
  -2  -7  -9   17.31   12.97
  -2  -7  -8   -0.47    5.33
  -2  -7  -8   42.38   24.84
  -2  -7  -7  868.89  106.93
  -2  -7  -7  919.16   98.56
  -2  -7  -6 2389.40  189.15
  -2  -7  -6 2652.26  171.73
  -2  -7  -5   87.44   30.90
  -2  -7  -5   88.26   24.65
  -2  -7  -4   39.77   21.94
  -2  -7  -4   31.96   11.91
  -2  -7  -4   52.43    6.00
  -2  -7  -4   52.37   16.56
  -2  -7  -4   57.79   19.63
  -2  -7  -3   38.48   23.22
  -2  -7  -3   33.96    8.13
  -2  -7  -3   13.78    6.26
  -2  -7  -3   22.50   10.19
  -2  -7  -2  923.66   64.03
  -2  -7  -2 1143.19   72.53
  -2  -7  -2  947.88  111.15
  -2  -7  -2 1132.04   85.75
  -2  -7  -2  857.96   80.43
  -2  -7  -1  406.89   68.68
  -2  -7  -1  418.76   36.67
  -2  -7  -1  428.00   55.95
  -2  -7  -1  446.82   53.66
  -2  -7   0  789.23   91.90
  -2  -7   0  635.74   72.50
  -2  -7   0  697.84   73.31
  -2  -7   0  674.37   47.52
  -2  -7   1   91.19   28.87
  -2  -7   1  140.28   35.26
  -2  -7   1  136.86   32.42
  -2  -7   1  116.75   33.49
  -2  -7   1  102.28   16.95
  -2  -7   2   35.93   13.34
  -2  -7   2   36.59   17.34
  -2  -7   2   23.68   12.79
  -2  -7   3  780.85   65.04
  -2  -7   3  779.96   94.15
  -2  -7   3  850.12  103.48
  -2  -7   4 1074.66  117.09
  -2  -7   4 1008.41  120.72
  -2  -7   5   23.59   19.41
  -2  -7   5    7.51   16.08
  -2  -7   6  272.54   64.84
  -2  -7   6  328.19   71.29
  -2  -6 -13    8.51   19.07
  -2  -6 -13   -7.73   26.03
  -2  -6 -12  157.58   53.21
  -2  -6 -12   73.31   33.55
  -2  -6 -12   69.99   27.08
  -2  -6 -11  355.77   65.67
  -2  -6 -11  431.97   93.31
  -2  -6 -11  580.11   99.38
  -2  -6 -10  463.59   74.19
  -2  -6 -10  595.93   95.78
  -2  -6 -10  521.58   97.24
  -2  -6  -9 1080.61  117.30
  -2  -6  -9 1304.01  134.66
  -2  -6  -8  390.03   66.23
  -2  -6  -8  448.21   71.05
  -2  -6  -7  277.76   54.29
  -2  -6  -7  295.74   52.02
  -2  -6  -6  552.73   78.65
  -2  -6  -6  538.11   64.50
  -2  -6  -6  675.48   73.94
  -2  -6  -5 1964.35   79.89
  -2  -6  -5 1777.53  145.84
  -2  -6  -5 1570.89  109.14
  -2  -6  -5 1931.47  129.22
  -2  -6  -4  642.06   81.81
  -2  -6  -4  613.34   31.64
  -2  -6  -4  640.55   55.01
  -2  -6  -4  531.72   50.46
  -2  -6  -4  671.55   67.29
  -2  -6  -4  556.72   55.84
  -2  -6  -3    7.36    5.91
  -2  -6  -3    4.45    2.59
  -2  -6  -3   16.86    9.55
  -2  -6  -3    8.35    4.95
  -2  -6  -2  612.85   79.80
  -2  -6  -2  835.43   55.50
  -2  -6  -2  698.79   51.32
  -2  -6  -2  627.31   57.65
  -2  -6  -2  625.20   60.72
  -2  -6  -1   36.74   12.57
  -2  -6  -1   45.82   11.42
  -2  -6  -1   50.97   24.89
  -2  -6  -1   52.99   14.73
  -2  -6  -1   58.76   16.32
  -2  -6  -1   50.57   15.63
  -2  -6   0   45.64   11.35
  -2  -6   0   29.92   15.08
  -2  -6   0   57.27   18.63
  -2  -6   0   43.85   16.75
  -2  -6   1  971.21   91.66
  -2  -6   1  966.05   84.75
  -2  -6   1  881.38   88.02
  -2  -6   1  814.98   56.49
  -2  -6   2 1601.27  107.17
  -2  -6   2 1612.47  121.31
  -2  -6   2 1334.92   84.74
  -2  -6   2 1427.27  123.04
  -2  -6   3  244.28   32.03
  -2  -6   3  279.61   50.49
  -2  -6   3  218.33   31.50
  -2  -6   3  266.94   52.65
  -2  -6   4  747.35   90.94
  -2  -6   4  804.25   98.20
  -2  -6   5  597.36   62.34
  -2  -6   5  652.91   90.35
  -2  -6   5  631.00   91.02
  -2  -6   6  982.47  120.79
  -2  -6   6 1081.10  125.92
  -2  -6   7  229.19   59.24
  -2  -6   7  282.81   65.76
  -2  -5 -13   63.06   36.59
  -2  -5 -12   35.65   21.92
  -2  -5 -11  442.39   94.27
  -2  -5 -11  366.21   77.47
  -2  -5 -11  352.96   59.95
  -2  -5 -10   36.12   23.96
  -2  -5 -10   50.20   29.12
  -2  -5 -10   55.05   23.98
  -2  -5  -9   57.52   27.73
  -2  -5  -9   41.22   16.52
  -2  -5  -9   39.09   19.16
  -2  -5  -8  592.52   82.35
  -2  -5  -8  555.62   72.93
  -2  -5  -8  598.28   58.19
  -2  -5  -7 2450.60  171.61
  -2  -5  -7 3093.84  190.63
  -2  -5  -6   27.48   16.05
  -2  -5  -6   31.50   14.94
  -2  -5  -6   37.47   18.56
  -2  -5  -5   -6.19    5.77
  -2  -5  -5    2.89    1.88
  -2  -5  -5    2.78    2.49
  -2  -5  -5    2.85    5.68
  -2  -5  -5    1.43    8.75
  -2  -5  -4  341.38   24.10
  -2  -5  -4  346.66   38.19
  -2  -5  -4  278.07   55.79
  -2  -5  -4  280.57   33.53
  -2  -5  -4  366.08   43.97
  -2  -5  -3 3787.86  138.22
  -2  -5  -3 3946.02  163.08
  -2  -5  -3 3549.86  161.67
  -2  -5  -3 3712.57  171.95
  -2  -5  -3 2870.03  213.47
  -2  -5  -3 3020.10  148.26
  -2  -5  -2  170.19   24.01
  -2  -5  -2  139.60   23.48
  -2  -5  -2  152.24   34.62
  -2  -5  -2  161.85   21.90
  -2  -5  -2  166.79   20.72
  -2  -5  -2  140.85   23.92
  -2  -5  -1  571.80   67.94
  -2  -5  -1  659.44   52.65
  -2  -5  -1  584.93   52.85
  -2  -5  -1  686.97   53.17
  -2  -5  -1  698.29   53.10
  -2  -5  -1  659.40   55.06
  -2  -5  -1  646.75   45.83
  -2  -5   0  127.26   30.37
  -2  -5   0  173.75   25.95
  -2  -5   0  136.19   25.48
  -2  -5   0  141.88   24.92
  -2  -5   0  148.02   19.89
  -2  -5   1  285.73   45.48
  -2  -5   1  280.90   36.41
  -2  -5   1  323.89   41.98
  -2  -5   1  279.40   30.99
  -2  -5   1  257.87   41.59
  -2  -5   2  922.16   75.77
  -2  -5   2  997.56   84.64
  -2  -5   2  833.33   64.90
  -2  -5   2  861.64   85.80
  -2  -5   3 2583.57  120.21
  -2  -5   3 2095.50  121.81
  -2  -5   3 2507.48  156.91
  -2  -5   3 2584.07  167.21
  -2  -5   3 2030.34  121.40
  -2  -5   4   75.38   18.27
  -2  -5   4   79.62   27.42
  -2  -5   4  105.84   31.57
  -2  -5   5  415.59   66.81
  -2  -5   5  373.06   64.23
  -2  -5   6  856.12   80.04
  -2  -5   6  951.86  111.32
  -2  -5   6  805.10  103.08
  -2  -5   7  897.06   88.98
  -2  -5   7 1066.40  125.92
  -2  -5   7 1016.23  120.06
  -2  -5   8   -5.17    9.32
  -2  -5   8   -4.96   21.17
  -2  -5   9  244.38   60.05
  -2  -4 -12  587.39  112.69
  -2  -4 -11  143.98   52.79
  -2  -4 -10  410.30   77.73
  -2  -4 -10  340.78   77.91
  -2  -4 -10  415.16   59.84
  -2  -4  -9  144.26   47.51
  -2  -4  -9  272.77   59.99
  -2  -4  -9  222.27   42.61
  -2  -4  -8  737.86   78.59
  -2  -4  -8  859.56  100.10
  -2  -4  -8  694.51   98.81
  -2  -4  -8  596.54   73.16
  -2  -4  -8  951.30   80.81
  -2  -4  -7  633.99   69.80
  -2  -4  -7  665.80   81.80
  -2  -4  -7  457.62   73.70
  -2  -4  -7  535.23   66.23
  -2  -4  -7  610.34   60.14
  -2  -4  -7  649.78   57.16
  -2  -4  -6 2635.90  162.96
  -2  -4  -6 2543.36  165.35
  -2  -4  -6 2082.76  147.43
  -2  -4  -6 2500.50  140.12
  -2  -4  -6 2471.83  118.70
  -2  -4  -5  583.06   42.58
  -2  -4  -5  611.02   63.56
  -2  -4  -5  579.41   62.79
  -2  -4  -5  557.76   55.69
  -2  -4  -5  486.73   63.28
  -2  -4  -4  265.32   23.26
  -2  -4  -4  265.74   33.01
  -2  -4  -4  270.79   42.27
  -2  -4  -4  270.36   35.79
  -2  -4  -4  245.73   34.49
  -2  -4  -4  206.87   30.94
  -2  -4  -4  253.04   44.66
  -2  -4  -4  247.80   32.78
  -2  -4  -3  400.31   36.90
  -2  -4  -3  380.59   26.79
  -2  -4  -3  405.30   39.55
  -2  -4  -3  306.06   52.12
  -2  -4  -3  291.90   28.72
  -2  -4  -3  379.77   42.28
  -2  -4  -3  339.34   38.33
  -2  -4  -2 1113.18   88.06
  -2  -4  -2 1231.73   60.97
  -2  -4  -2 1226.03   68.98
  -2  -4  -2 1285.65   72.24
  -2  -4  -2 1208.69   66.45
  -2  -4  -2 1226.57   81.51
  -2  -4  -2 1096.94  106.28
  -2  -4  -2  999.45   73.78
  -2  -4  -2 1146.90   67.49
  -2  -4  -1  177.03   23.31
  -2  -4  -1  129.99   26.72
  -2  -4  -1  131.55   19.83
  -2  -4  -1  151.92   19.50
  -2  -4  -1  144.18   24.10
  -2  -4  -1  110.12   29.94
  -2  -4  -1  169.15   19.94
  -2  -4  -1  139.13   23.10
  -2  -4  -1  162.17   20.00
  -2  -4  -1  110.70   17.98
  -2  -4   0  184.70   31.14
  -2  -4   0  155.47   22.97
  -2  -4   0  172.30   21.94
  -2  -4   0  201.64   28.86
  -2  -4   0  173.72   23.30
  -2  -4   0  175.79   25.88
  -2  -4   0  162.33   35.28
  -2  -4   0  168.05   26.09
  -2  -4   0  191.95   29.03
  -2  -4   0  166.40   24.25
  -2  -4   0  191.44   22.66
  -2  -4   1  990.19   77.33
  -2  -4   1 1012.30   67.32
  -2  -4   1  831.03   82.35
  -2  -4   1 1060.64   77.25
  -2  -4   1 1107.93   75.17
  -2  -4   1 1075.21   70.00
  -2  -4   1 1102.52   68.22
  -2  -4   1  816.54   66.43
  -2  -4   1  988.82   79.07
  -2  -4   1 1011.73   72.73
  -2  -4   2   42.04   12.02
  -2  -4   2   23.43   10.95
  -2  -4   2   27.34   10.19
  -2  -4   2   40.11   11.33
  -2  -4   2   33.19   12.55
  -2  -4   2   41.16   13.29
  -2  -4   3  305.62   31.84
  -2  -4   3  321.54   47.08
  -2  -4   3  277.30   31.46
  -2  -4   3  337.05   50.60
  -2  -4   3  223.05   32.61
  -2  -4   4  469.70   26.94
  -2  -4   4  531.33   65.22
  -2  -4   4  361.46   36.71
  -2  -4   4  446.16   63.07
  -2  -4   5 1761.38  139.91
  -2  -4   5 1630.72  135.62
  -2  -4   6  119.48   27.04
  -2  -4   6  170.65   43.67
  -2  -4   6  149.25   39.11
  -2  -4   7 1135.65   98.15
  -2  -4   7 1239.82  130.11
  -2  -4   7 1169.59  121.43
  -2  -4   8  130.24   33.45
  -2  -4   8  110.38   36.93
  -2  -4   8  139.74   41.17
  -2  -4   9  494.54   70.67
  -2  -4   9  549.71   94.98
  -2  -4   9  495.05   81.38
  -2  -4  10   15.99   20.99
  -2  -3 -12   99.84   48.37
  -2  -3 -11  206.81   61.20
  -2  -3 -10   80.60   34.43
  -2  -3 -10   90.67   24.42
  -2  -3  -9  172.62   49.69
  -2  -3  -9  100.70   25.78
  -2  -3  -8 1435.41  134.93
  -2  -3  -8 1404.30  140.71
  -2  -3  -8 1796.05  122.79
  -2  -3  -7   18.17   11.72
  -2  -3  -7   30.76   16.11
  -2  -3  -7   42.13   15.42
  -2  -3  -6   16.30    9.72
  -2  -3  -6    8.41    8.51
  -2  -3  -6   -4.48    7.58
  -2  -3  -6    0.72    6.39
  -2  -3  -6    6.02    4.21
  -2  -3  -5  732.95   52.84
  -2  -3  -5  720.01   64.92
  -2  -3  -5  645.62   66.97
  -2  -3  -5  576.91   67.39
  -2  -3  -5  604.96   51.69
  -2  -3  -5  561.74   60.67
  -2  -3  -5  671.27   46.41
  -2  -3  -4 5620.28  199.81
  -2  -3  -4 5195.56  227.67
  -2  -3  -4 4337.02  213.96
  -2  -3  -4 5028.26  211.71
  -2  -3  -4 4817.52  205.80
  -2  -3  -3   44.31   11.28
  -2  -3  -3   50.64    9.48
  -2  -3  -3   50.15   12.78
  -2  -3  -3   42.43   11.38
  -2  -3  -3   44.25   10.84
  -2  -3  -3   44.07   11.16
  -2  -3  -2   80.41   11.87
  -2  -3  -2   90.95   14.37
  -2  -3  -2   91.72   11.30
  -2  -3  -2   55.93   17.55
  -2  -3  -2   84.36   15.90
  -2  -3  -2   96.00   15.34
  -2  -3  -2   84.63   15.99
  -2  -3  -1   36.80    9.14
  -2  -3  -1   35.76    9.07
  -2  -3  -1   32.68    6.42
  -2  -3  -1   43.51    8.89
  -2  -3  -1   50.07   18.06
  -2  -3  -1   37.34    6.02
  -2  -3  -1   30.20    8.99
  -2  -3  -1   28.67    7.25
  -2  -3   0 3727.46  156.22
  -2  -3   0 3326.08  130.95
  -2  -3   0 3474.14  137.69
  -2  -3   0 3040.21  176.82
  -2  -3   0 3535.74  151.67
  -2  -3   0 3285.76  144.93
  -2  -3   0 3147.57  139.57
  -2  -3   0 3252.18  149.42
  -2  -3   0 3218.70  150.50
  -2  -3   0 3514.31  143.25
  -2  -3   1  259.48   26.43
  -2  -3   1  259.14   31.48
  -2  -3   1  206.94   34.49
  -2  -3   1  250.27   26.33
  -2  -3   1  230.92   27.48
  -2  -3   1  235.24   28.41
  -2  -3   1  219.38   31.61
  -2  -3   1  240.40   28.35
  -2  -3   1  276.21   30.37
  -2  -3   2 2741.12  125.34
  -2  -3   2 2903.71  133.73
  -2  -3   2 2428.83  115.10
  -2  -3   2 2745.47  137.26
  -2  -3   2 2628.48  133.01
  -2  -3   2 2330.26  124.09
  -2  -3   3  307.02   28.74
  -2  -3   3  316.66   40.75
  -2  -3   3  296.75   41.66
  -2  -3   3  239.56   25.31
  -2  -3   3  266.43   32.39
  -2  -3   4   46.56   18.27
  -2  -3   4   72.82   17.26
  -2  -3   4   61.58   20.33
  -2  -3   5 1237.52  107.65
  -2  -3   5 1067.62  100.12
  -2  -3   6 3854.25  228.42
  -2  -3   6 3514.60  213.78
  -2  -3   7   42.80   17.38
  -2  -3   7   70.05   28.31
  -2  -3   7   48.22   21.92
  -2  -3   8  349.81   53.15
  -2  -3   8  352.76   69.98
  -2  -3   8  327.84   59.08
  -2  -3   9  378.88   59.84
  -2  -3   9  483.12   85.61
  -2  -3   9  438.75   72.05
  -2  -3  10  228.75   49.20
  -2  -3  10  319.35   72.06
  -2  -3  10  280.94   59.14
  -2  -3  11   12.09   13.63
  -2  -3  11    2.07   12.73
  -2  -2 -12    7.15   11.14
  -2  -2 -11   65.42   30.26
  -2  -2 -10   15.63    1.46
  -2  -2  -9  431.84   77.97
  -2  -2  -9  433.99   48.95
  -2  -2  -8  421.94   72.16
  -2  -2  -8  360.88   44.69
  -2  -2  -7 1732.09  141.70
  -2  -2  -7 1669.49  107.99
  -2  -2  -7 2060.72  122.39
  -2  -2  -6  316.96   52.23
  -2  -2  -6  387.52   42.36
  -2  -2  -5 1163.71   74.94
  -2  -2  -5  994.43   84.07
  -2  -2  -5  971.94   85.14
  -2  -2  -5  965.94   80.55
  -2  -2  -5  920.76   55.78
  -2  -2  -5  997.24   63.57
  -2  -2  -4  274.71   28.98
  -2  -2  -4  252.73   30.47
  -2  -2  -4  222.46   34.14
  -2  -2  -4  229.91   33.59
  -2  -2  -4  242.20   31.90
  -2  -2  -4  206.42   21.15
  -2  -2  -4  224.41   22.63
  -2  -2  -3 2847.27  101.30
  -2  -2  -3 2926.23   99.86
  -2  -2  -3 2886.85   76.69
  -2  -2  -2  256.13   22.32
  -2  -2  -2  237.42   23.50
  -2  -2  -2  227.32   23.38
  -2  -2  -2  199.50   17.59
  -2  -2  -2  226.97   22.80
  -2  -2  -1   87.08    9.19
  -2  -2  -1   81.49   12.16
  -2  -2  -1   74.08    9.75
  -2  -2  -1   84.58   13.15
  -2  -2  -1   88.92   14.25
  -2  -2  -1   74.57    7.63
  -2  -2   0   59.89   11.54
  -2  -2   0   45.53   10.49
  -2  -2   0   42.82    7.31
  -2  -2   0   53.82   10.75
  -2  -2   0   45.00   13.11
  -2  -2   0   40.31    7.53
  -2  -2   0   47.70   10.37
  -2  -2   1   32.27    9.05
  -2  -2   1   37.86    8.20
  -2  -2   1   41.50   10.33
  -2  -2   1   41.64   12.77
  -2  -2   1   37.65    9.13
  -2  -2   1   37.79    9.32
  -2  -2   1   35.17   10.01
  -2  -2   2   77.92   15.23
  -2  -2   2   90.40   16.72
  -2  -2   2   76.99   16.46
  -2  -2   2   60.16   14.45
  -2  -2   2   87.27   16.10
  -2  -2   3  522.61   49.73
  -2  -2   3  531.23   53.36
  -2  -2   4 1487.16  103.16
  -2  -2   4 1618.45  112.32
  -2  -2   5  158.88   35.10
  -2  -2   5  143.27   30.98
  -2  -2   6 1175.78  109.76
  -2  -2   6 1193.87  101.99
  -2  -2   7  114.92   26.85
  -2  -2   7  188.66   44.14
  -2  -2   7  148.46   34.86
  -2  -2   8  791.52   81.81
  -2  -2   8 1062.63  115.79
  -2  -2   8  875.17   94.78
  -2  -2   9   16.91    5.32
  -2  -2   9   -2.75    7.59
  -2  -2  10  871.31   98.45
  -2  -2  10 1085.88  114.72
  -2  -2  11    0.99   10.63
  -2  -2  11   25.83   18.32
  -2  -1 -11   54.51   27.76
  -2  -1 -10   27.70   23.00
  -2  -1  -9  574.93   88.76
  -2  -1  -8  209.11   49.49
  -2  -1  -8  206.95   28.57
  -2  -1  -7    8.32   10.04
  -2  -1  -7    2.83    3.98
  -2  -1  -6  787.63   83.96
  -2  -1  -6  790.07   37.12
  -2  -1  -5 4500.96  225.36
  -2  -1  -5 4507.87  161.14
  -2  -1  -4  322.02   35.69
  -2  -1  -4  272.37   30.90
  -2  -1  -4  268.02   37.32
  -2  -1  -4  227.39   33.57
  -2  -1  -4  268.19   17.84
  -2  -1  -3   77.02   14.65
  -2  -1  -3   94.63   16.23
  -2  -1  -3   70.66   15.39
  -2  -1  -3   75.07   15.86
  -2  -1  -3   69.10    8.47
  -2  -1  -2  107.23   15.31
  -2  -1  -2  107.76   15.17
  -2  -1  -2  105.56   16.51
  -2  -1  -2   93.71   14.41
  -2  -1  -2   94.67   11.19
  -2  -1  -1 5043.75  182.02
  -2  -1  -1 5337.90  189.39
  -2  -1   0   47.40    6.09
  -2  -1   0   33.73    7.94
  -2  -1   1 1840.63   80.42
  -2  -1   1 1981.93   90.11
  -2  -1   1 2030.45   87.13
  -2  -1   1 2026.89   91.53
  -2  -1   2  438.81   35.94
  -2  -1   2  456.70   35.88
  -2  -1   2  485.50   42.86
  -2  -1   3  276.42   32.94
  -2  -1   3  273.96   36.03
  -2  -1   4  343.97   24.64
  -2  -1   4  338.63   42.41
  -2  -1   4  376.09   47.12
  -2  -1   4  355.06   42.31
  -2  -1   5 4225.16  159.60
  -2  -1   5 3985.39  213.36
  -2  -1   5 3866.59  199.33
  -2  -1   6   -5.54   12.15
  -2  -1   6   12.57   10.27
  -2  -1   7  299.93   52.81
  -2  -1   7  228.91   40.77
  -2  -1   8  348.30   50.58
  -2  -1   8  393.29   66.53
  -2  -1   8  351.38   54.91
  -2  -1   9 1236.96  110.24
  -2  -1   9 1423.03  121.77
  -2  -1  10   18.11   11.40
  -2  -1  10   32.47   23.51
  -2  -1  10   27.70   17.21
  -2  -1  11  162.86   43.10
  -2  -1  11  265.57   65.16
  -2  -1  12  191.86   48.70
  -2   0 -11   30.42   22.49
  -2   0 -10  768.49  115.44
  -2   0  -9   45.89   25.61
  -2   0  -8 1029.87  116.11
  -2   0  -7  120.23   31.91
  -2   0  -6  719.84   81.46
  -2   0  -5  187.17   35.64
  -2   0  -4 3033.23  140.26
  -2   0  -4 2891.36  159.17
  -2   0  -4 2905.75  159.36
  -2   0  -3  234.37   25.83
  -2   0  -3  252.13   33.86
  -2   0  -3  256.04   33.54
  -2   0  -2  269.03   30.08
  -2   0  -2  243.84   23.29
  -2   0  -1  180.72   21.20
  -2   0  -1  177.31   19.73
  -2   0  -1  176.84   17.69
  -2   0  -1  169.77   16.20
  -2   0   0 2386.80   98.72
  -2   0   0 2201.92   95.97
  -2   0   0 2179.47   96.12
  -2   0   0 2172.99   88.31
  -2   0   1  102.61   14.37
  -2   0   1  102.05   13.03
  -2   0   2  165.06   23.50
  -2   0   2  178.81   22.69
  -2   0   2  186.83   21.91
  -2   0   3  681.31   42.52
  -2   0   3  646.99   55.98
  -2   0   3  631.77   50.43
  -2   0   4   27.93   11.57
  -2   0   4   12.48    5.47
  -2   0   5  843.53   56.21
  -2   0   6  661.50   51.12
  -2   0   6  690.53   75.14
  -2   0   6  683.93   65.37
  -2   0   7 2053.69  106.65
  -2   0   7 1864.52  144.66
  -2   0   8   14.94    6.63
  -2   0   8   38.47   22.61
  -2   0   9 1857.52  139.65
  -2   0   9 2612.32  185.45
  -2   0  10  187.44   41.25
  -2   0  10  302.44   62.07
  -2   0  11  320.08   58.36
  -2   0  11  500.20   86.92
  -2   0  12   30.74   18.34
  -2   0  12   11.42   11.68
  -2   1 -10   81.48   38.29
  -2   1  -9  276.03   64.77
  -2   1  -8   24.22   17.33
  -2   1  -7  176.13   43.43
  -2   1  -6 1558.06  130.06
  -2   1  -5  381.43   55.40
  -2   1  -4   -3.70    3.97
  -2   1  -4    9.60    5.22
  -2   1  -3  586.19   58.07
  -2   1  -3  600.49   43.48
  -2   1  -2 6549.47  268.46
  -2   1  -2 6009.16  235.92
  -2   1  -2 6381.88  253.66
  -2   1  -1  645.11   51.85
  -2   1  -1  681.59   45.07
  -2   1  -1  593.11   35.06
  -2   1  -1  604.42   43.43
  -2   1   0  700.99   50.41
  -2   1   0  672.88   41.65
  -2   1   0  622.31   41.27
  -2   1   0  617.10   36.43
  -2   1   1  305.62   28.86
  -2   1   1  263.80   29.29
  -2   1   1  229.77   21.47
  -2   1   1  251.05   24.58
  -2   1   2 1289.52   70.23
  -2   1   2 1089.69   61.50
  -2   1   2 1264.81   70.27
  -2   1   3   16.14    6.68
  -2   1   3   19.69    7.30
  -2   1   3   21.41    7.75
  -2   1   4 4025.92  170.63
  -2   1   4 3481.43  176.64
  -2   1   5  116.88   21.65
  -2   1   6  211.62   30.79
  -2   1   6  224.98   40.39
  -2   1   7  300.81   43.33
  -2   1   7  344.49   42.03
  -2   1   8 2974.15  151.13
  -2   1   8 3251.72  194.50
  -2   1   9   23.36   13.35
  -2   1   9   27.49   20.37
  -2   1  10  286.12   51.21
  -2   1  10  486.01   76.53
  -2   1  11  153.58   39.10
  -2   1  11  261.72   57.76
  -2   1  12  263.56   55.63
  -2   1  12  347.57   75.41
  -2   2  -9  150.66   48.14
  -2   2  -8   -2.68    8.83
  -2   2  -7  733.12   97.71
  -2   2  -6   -8.10    8.46
  -2   2  -5 2266.76  164.07
  -2   2  -5 2585.63  130.47
  -2   2  -4  521.95   64.86
  -2   2  -4  554.47   50.67
  -2   2  -3  377.30   50.44
  -2   2  -3  369.12   38.85
  -2   2  -2   85.41   20.33
  -2   2  -2   85.67   12.43
  -2   2  -2  108.42   19.99
  -2   2  -2   98.95   19.87
  -2   2  -1 3744.28  177.27
  -2   2  -1 4020.79  163.23
  -2   2  -1 3300.78  131.59
  -2   2  -1 3660.11  162.44
  -2   2  -1 3860.23  165.05
  -2   2   0  835.71   64.89
  -2   2   0  865.09   60.68
  -2   2   0  844.16   51.22
  -2   2   0  886.47   58.22
  -2   2   0  709.65   37.24
  -2   2   1    1.49    4.51
  -2   2   1   -0.96    5.10
  -2   2   1    3.60    2.48
  -2   2   1    6.10    4.94
  -2   2   1    0.10    0.39
  -2   2   1    8.15    5.17
  -2   2   2  592.38   48.95
  -2   2   2  607.35   51.60
  -2   2   2  489.06   33.93
  -2   2   2  499.74   44.38
  -2   2   3  855.70   63.84
  -2   2   3  817.40   60.18
  -2   2   4   47.71   12.69
  -2   2   4   69.24   16.94
  -2   2   4   43.17   10.66
  -2   2   4   55.86   15.48
  -2   2   5  707.01   63.16
  -2   2   5  620.80   43.09
  -2   2   6 1702.32  109.50
  -2   2   6 1402.49  108.32
  -2   2   7    3.99    6.10
  -2   2   7   -3.33    7.20
  -2   2   7    9.11    6.55
  -2   2   8 1190.78  100.49
  -2   2   8 1852.66  134.27
  -2   2   9  571.66   69.55
  -2   2   9  827.48   93.18
  -2   2  10 1044.30  102.50
  -2   2  10 1450.72  133.37
  -2   2  11   38.61   18.89
  -2   2  11   89.12   32.60
  -2   2  12 1017.42  111.66
  -2   2  12 1438.35  147.80
  -2   3  -8   -2.50   15.67
  -2   3  -7  314.62   64.63
  -2   3  -6  334.08   62.83
  -2   3  -5   10.84   10.66
  -2   3  -4  403.39   60.38
  -2   3  -4  358.89   46.99
  -2   3  -3 3087.03  183.50
  -2   3  -3 2900.11  162.38
  -2   3  -3 3046.30  169.42
  -2   3  -2  738.00   74.57
  -2   3  -2  774.84   70.49
  -2   3  -2  730.26   67.56
  -2   3  -1   30.02   11.69
  -2   3  -1   49.19   15.65
  -2   3  -1   49.53   15.02
  -2   3   0    4.86    7.70
  -2   3   0   18.65    8.80
  -2   3   0   13.92    6.53
  -2   3   0   23.89   10.25
  -2   3   1 2498.79  135.94
  -2   3   1 2441.30  105.35
  -2   3   1 2538.15  136.37
  -2   3   1 2429.84  122.36
  -2   3   2  471.14   50.79
  -2   3   2  491.49   30.09
  -2   3   2  524.64   53.03
  -2   3   2  465.14   27.96
  -2   3   2  509.61   46.46
  -2   3   3 1256.09   61.54
  -2   3   4   68.57   11.82
  -2   3   4   73.79   17.23
  -2   3   5   -1.34    0.92
  -2   3   5    0.82    2.75
  -2   3   6   43.38   15.09
  -2   3   6   44.76   16.73
  -2   3   6   79.68   17.52
  -2   3   6   83.19   23.81
  -2   3   7 2751.82  157.77
  -2   3   7 3175.77  180.73
  -2   3   8   82.58   23.00
  -2   3   8   87.11   28.26
  -2   3   9  339.49   50.57
  -2   3   9  380.24   61.77
  -2   3  10  266.51   49.87
  -2   3  10  443.16   68.55
  -2   3  11 1150.13  113.48
  -2   3  11 1562.50  144.60
  -2   3  12   18.74   12.96
  -2   3  12   27.42   12.69
  -2   4  -7    1.69   14.09
  -2   4  -6  962.08  119.43
  -2   4  -5   21.03    6.83
  -2   4  -4  431.78   67.98
  -2   4  -3   19.12   12.39
  -2   4  -3   29.51   14.01
  -2   4  -2 3181.09  194.71
  -2   4  -2 3401.01  184.43
  -2   4  -1 1340.69  110.93
  -2   4  -1 1488.96  105.15
  -2   4   0  131.14   32.12
  -2   4   0  140.79   28.53
  -2   4   1   13.13    9.41
  -2   4   1    8.65    4.96
  -2   4   1    8.87    5.24
  -2   4   2 1397.82   69.32
  -2   4   2 1439.40   74.74
  -2   4   2 1469.35  108.03
  -2   4   2 1392.04   73.39
  -2   4   2 1365.87   94.82
  -2   4   3  284.19   30.37
  -2   4   3  265.13   22.33
  -2   4   3  281.24   39.19
  -2   4   4   86.13   18.34
  -2   4   4   94.78   11.72
  -2   4   4  104.54   24.23
  -2   4   5  472.26   48.76
  -2   4   5  437.93   32.17
  -2   4   5  510.15   54.76
  -2   4   5  548.32   61.43
  -2   4   6  139.21   27.42
  -2   4   6  122.90   19.07
  -2   4   6  145.85   28.11
  -2   4   7  358.87   47.69
  -2   4   7  302.90   39.59
  -2   4   8  597.43   66.76
  -2   4   8  487.65   59.60
  -2   4   9  853.18   85.83
  -2   4   9  917.16   98.66
  -2   4  10   49.57   19.45
  -2   4  10   51.26   22.42
  -2   4  11  742.03   88.57
  -2   4  11 1023.44  112.89
  -2   4  12  255.47   52.02
  -2   4  12  243.31   59.20
  -2   5  -7  245.93   75.33
  -2   5  -6   53.09   27.34
  -2   5  -5  148.36   45.25
  -2   5  -4 1118.94  124.07
  -2   5  -3  603.63   84.44
  -2   5  -3  676.79   81.62
  -2   5  -2   19.04   10.55
  -2   5  -2    7.84   10.81
  -2   5  -1   83.11   27.67
  -2   5  -1   67.06   21.89
  -2   5   0 1861.98  140.14
  -2   5   0 1859.20  127.24
  -2   5   1  545.69   69.53
  -2   5   1  567.11   63.18
  -2   5   2  485.69   27.48
  -2   5   2  488.72   64.14
  -2   5   2  570.62   72.06
  -2   5   2  593.57   61.70
  -2   5   2  411.95   29.08
  -2   5   3   10.08    5.82
  -2   5   3   16.87   11.95
  -2   5   3   18.80    7.50
  -2   5   3   11.95    6.26
  -2   5   4  292.00   35.15
  -2   5   4  258.17   44.86
  -2   5   4  315.97   46.71
  -2   5   5   55.12   15.10
  -2   5   5   44.14   17.44
  -2   5   5   74.14   23.06
  -2   5   6 1745.47   73.70
  -2   5   6 1702.53  112.81
  -2   5   7   43.19   10.09
  -2   5   7   55.62   18.55
  -2   5   8   77.02   17.43
  -2   5   8  105.92   26.86
  -2   5   9   81.10   21.71
  -2   5   9   81.81   25.83
  -2   5  10 1398.09  121.46
  -2   5  11  165.44   40.85
  -2   5  11  214.78   49.42
  -2   5  12  257.10   54.01
  -2   5  12  395.08   72.63
  -2   6  -6   41.79   31.18
  -2   6  -5  329.51   70.80
  -2   6  -5  493.40  107.93
  -2   6  -4   31.81   22.09
  -2   6  -4   23.03   20.96
  -2   6  -3 1608.61  156.85
  -2   6  -3 2343.33  222.56
  -2   6  -2  409.67   71.02
  -2   6  -2  429.05   64.51
  -2   6  -1   27.73   19.37
  -2   6  -1   40.82   18.34
  -2   6   0   32.47   18.07
  -2   6   0   32.57   21.10
  -2   6   0   36.40   17.10
  -2   6   1 1722.61  143.38
  -2   6   1 1807.88  157.62
  -2   6   1 1701.31  127.46
  -2   6   2  945.20  100.41
  -2   6   2  936.58  106.89
  -2   6   2  973.63   89.89
  -2   6   3    7.72    4.53
  -2   6   3    0.08    2.63
  -2   6   3   13.79   13.56
  -2   6   3   26.58   15.80
  -2   6   4   13.60    7.10
  -2   6   4   16.62    8.85
  -2   6   4   -3.47    1.84
  -2   6   4   29.08   16.61
  -2   6   5  163.71   28.95
  -2   6   5  154.45   37.22
  -2   6   5  179.41   37.55
  -2   6   6    9.37    7.32
  -2   6   6    3.86    7.72
  -2   6   6   10.49    3.27
  -2   6   7  276.34   44.62
  -2   6   7  347.12   55.15
  -2   6   7  350.65   58.13
  -2   6   8  379.08   55.57
  -2   6   8  465.25   62.70
  -2   6   8  438.17   68.59
  -2   6   9   35.94   20.16
  -2   6  10  570.04   74.67
  -2   6  11  515.37   75.39
  -2   6  12  376.24   66.40
  -2   7  -4  220.52   62.22
  -2   7  -4  516.20  114.86
  -2   7  -3   57.04   31.23
  -2   7  -3  144.80   63.33
  -2   7  -2  186.49   51.22
  -2   7  -2  302.42   75.72
  -2   7  -2  193.64   46.82
  -2   7  -1 1587.08  154.12
  -2   7  -1 1833.98  190.42
  -2   7  -1 1502.83  136.49
  -2   7   0  830.14  106.25
  -2   7   0  931.09  125.72
  -2   7   0  827.40   94.45
  -2   7   1   14.62   11.77
  -2   7   1   51.68   31.45
  -2   7   1   59.01   25.57
  -2   7   2   77.82   28.74
  -2   7   2  141.76   42.10
  -2   7   2   96.03   28.25
  -2   7   3  779.84   99.01
  -2   7   3  815.87  103.61
  -2   7   3  797.94   88.15
  -2   7   4  311.21   61.48
  -2   7   4  323.54   41.23
  -2   7   4  331.08   31.27
  -2   7   4  385.44   59.57
  -2   7   5  647.73   57.99
  -2   7   5  749.82   64.41
  -2   7   5  733.37   92.38
  -2   7   5  739.43   84.75
  -2   7   6  104.91   25.12
  -2   7   6   90.85   30.23
  -2   7   6  120.20   34.26
  -2   7   7   12.65    6.25
  -2   7   7   10.60    9.08
  -2   7   7    6.49   10.75
  -2   7   8    5.28    7.08
  -2   7   8  -11.09   12.14
  -2   7   9 1337.06  120.66
  -2   7   9 1469.58  143.26
  -2   7  10  211.36   47.17
  -2   7  10  320.67   66.23
  -2   7  11  191.38   45.65
  -2   7  11  206.30   52.62
  -2   7  12   90.14   32.75
  -2   8  -2  109.98   40.85
  -2   8  -2   85.52   34.88
  -2   8  -1   63.52   34.17
  -2   8  -1  119.54   48.68
  -2   8  -1   68.88   27.38
  -2   8   0 1762.30  173.38
  -2   8   0 1809.29  193.08
  -2   8   0 1593.37  146.20
  -2   8   1  869.61  116.22
  -2   8   1 1011.48  134.21
  -2   8   1  896.76  104.26
  -2   8   2   -6.92   13.26
  -2   8   2   -9.17   19.02
  -2   8   2    3.03   15.69
  -2   8   3   -3.26   13.68
  -2   8   3    7.59   10.46
  -2   8   4  307.36   64.58
  -2   8   4  338.64   59.46
  -2   8   5  145.84   42.02
  -2   8   5  158.78   40.58
  -2   8   6  180.28   48.00
  -2   8   6  212.64   48.73
  -2   8   7  170.05   45.89
  -2   8   7  235.58   52.17
  -2   8   8   24.93   16.39
  -2   8   8   45.51   22.69
  -2   8   8   42.13   27.90
  -2   8   9  123.48   35.41
  -2   8   9  178.70   52.42
  -2   8  10  369.53   63.52
  -2   8  10  483.68   85.47
  -2   8  11  339.54   62.87
  -2   8  12   32.33   20.81
  -2   9   1  120.78   44.44
  -2   9   1  226.13   67.44
  -2   9   1  149.68   45.41
  -2   9   2  932.54  127.78
  -2   9   2 1101.78  146.12
  -2   9   2  901.16  109.66
  -2   9   3  620.26  106.50
  -2   9   3  551.75   84.30
  -2   9   4  147.19   51.78
  -2   9   4  133.85   40.41
  -2   9   5  133.51   46.99
  -2   9   5   96.90   31.69
  -2   9   6   65.27   27.80
  -2   9   6   89.40   32.30
  -2   9   7   73.88   34.24
  -2   9   7   62.53   25.43
  -2   9   8  557.51   89.89
  -2   9   8  692.02   98.76
  -2   9   9  241.25   58.95
  -2  10   5   42.24   20.79
  -2  10   6   31.51   28.02
  -2  10   7   55.98   32.28
  -2  10   8    7.94   19.17
  -1 -11  -9  309.89   72.97
  -1 -11  -8  200.50   56.74
  -1 -11  -7  151.14   48.49
  -1 -11  -7   93.02   35.52
  -1 -11  -6    8.94    3.71
  -1 -11  -6   -7.35   12.53
  -1 -11  -5   42.32   22.74
  -1 -11  -5   97.94   45.16
  -1 -11  -4  821.32  128.08
  -1 -11  -4  875.86  105.68
  -1 -11  -4  843.69  111.89
  -1 -11  -3  549.16  100.11
  -1 -11  -3  552.66   84.79
  -1 -11  -3  485.73   84.82
  -1 -11  -2  226.66   54.92
  -1 -11  -2  168.90   51.29
  -1 -11  -2  162.65   49.62
  -1 -11  -1   61.43   30.17
  -1 -11   0  422.66   83.14
  -1 -10 -10   38.20   14.80
  -1 -10 -10  112.12   44.10
  -1 -10  -9  414.33   80.58
  -1 -10  -9  319.07   74.61
  -1 -10  -8  523.19   89.42
  -1 -10  -8  450.41   89.85
  -1 -10  -7   81.09   36.85
  -1 -10  -7   92.96   34.89
  -1 -10  -6  138.30   51.70
  -1 -10  -6  153.54   46.85
  -1 -10  -5  165.10   44.55
  -1 -10  -5  129.99   47.02
  -1 -10  -4  -12.74   15.62
  -1 -10  -4   16.82   18.22
  -1 -10  -3  570.53   99.15
  -1 -10  -3  502.68   75.82
  -1 -10  -3  473.44   76.73
  -1 -10  -2  703.00  105.97
  -1 -10  -2  732.60   99.79
  -1 -10  -2  845.13  101.75
  -1 -10  -1  372.71   69.26
  -1 -10  -1  296.30   62.12
  -1 -10  -1  354.58   67.20
  -1 -10   0  123.35   42.63
  -1 -10   0   80.48   33.71
  -1 -10   0  131.21   48.03
  -1 -10   1  451.53   82.97
  -1 -10   1  439.38   81.08
  -1 -10   2  264.46   66.11
  -1  -9 -12   26.23   18.51
  -1  -9 -11  491.93   95.42
  -1  -9 -11  392.69   80.99
  -1  -9 -10  546.89   96.41
  -1  -9 -10  798.46  115.81
  -1  -9  -9   -0.86   12.89
  -1  -9  -9   -3.07   16.80
  -1  -9  -8   35.90   24.15
  -1  -9  -8   28.77   18.13
  -1  -9  -7  103.48   35.47
  -1  -9  -7  127.70   41.86
  -1  -9  -6  248.54   61.04
  -1  -9  -6  343.49   63.17
  -1  -9  -5  522.38   92.33
  -1  -9  -5  564.53   78.37
  -1  -9  -4  599.31   97.28
  -1  -9  -4  507.17   73.54
  -1  -9  -3  113.51   44.88
  -1  -9  -3  110.48   31.82
  -1  -9  -2   14.40    7.65
  -1  -9  -2   -2.55    5.49
  -1  -9  -2   -1.50   10.66
  -1  -9  -1 1264.26  133.58
  -1  -9  -1 1576.01  137.02
  -1  -9  -1 1369.51  133.54
  -1  -9   0 1800.00  148.26
  -1  -9   0 1825.23  159.72
  -1  -9   0 1942.64  162.27
  -1  -9   1  151.81   44.79
  -1  -9   1  137.45   42.27
  -1  -9   1  176.51   48.49
  -1  -9   2  161.78   46.21
  -1  -9   2  207.04   53.57
  -1  -9   2  194.98   53.65
  -1  -9   3  197.41   57.13
  -1  -9   3  195.10   53.07
  -1  -8 -13  350.56   72.60
  -1  -8 -12  121.00   40.66
  -1  -8 -12  244.63   68.13
  -1  -8 -11  291.26   64.80
  -1  -8 -11  531.86   97.03
  -1  -8 -10  317.00   69.96
  -1  -8 -10  306.99   67.37
  -1  -8  -9  925.09  119.22
  -1  -8  -9 1074.44  125.63
  -1  -8  -8    5.44    7.59
  -1  -8  -8    2.61   13.74
  -1  -8  -7   12.33   19.32
  -1  -8  -7   41.94   23.16
  -1  -8  -6   74.91   23.06
  -1  -8  -6   70.13   26.02
  -1  -8  -5  266.42   48.97
  -1  -8  -5  213.31   55.79
  -1  -8  -4  418.68   74.66
  -1  -8  -4  368.86   57.36
  -1  -8  -3 1050.96   54.94
  -1  -8  -3  827.16  109.15
  -1  -8  -3  807.89   88.52
  -1  -8  -2  322.10   36.88
  -1  -8  -2  321.40   51.69
  -1  -8  -2  246.44   47.28
  -1  -8  -2  282.76   60.30
  -1  -8  -1   -3.26    9.40
  -1  -8  -1   17.91   13.17
  -1  -8  -1   13.70    7.54
  -1  -8   0  499.94   70.80
  -1  -8   0  444.42   68.07
  -1  -8   0  588.40   77.02
  -1  -8   1  578.84   69.38
  -1  -8   1  461.32   73.41
  -1  -8   1  594.72   82.78
  -1  -8   1  553.51   85.95
  -1  -8   2  370.02   67.21
  -1  -8   2  430.71   72.34
  -1  -8   2  449.51   77.39
  -1  -8   3  111.02   35.03
  -1  -8   3  176.94   48.12
  -1  -8   3  170.32   47.48
  -1  -8   4  468.35   86.04
  -1  -8   4  485.84   89.13
  -1  -8   5  -12.49   15.32
  -1  -7 -12  596.43  107.37
  -1  -7 -12  535.50  110.73
  -1  -7 -12  338.17   65.97
  -1  -7 -11  564.18   86.89
  -1  -7 -11  939.88  127.89
  -1  -7 -10  151.60   47.76
  -1  -7 -10   50.97   24.83
  -1  -7  -9   32.14   16.80
  -1  -7  -9   56.79   27.57
  -1  -7  -8  228.85   54.61
  -1  -7  -8  370.35   64.31
  -1  -7  -7  689.86   94.99
  -1  -7  -7  793.63   91.08
  -1  -7  -6  191.83   48.51
  -1  -7  -6  226.79   44.92
  -1  -7  -5  432.18   74.00
  -1  -7  -5  522.38   66.84
  -1  -7  -4    1.93   10.15
  -1  -7  -4    3.52    3.52
  -1  -7  -4   15.96   12.62
  -1  -7  -3  109.50   19.20
  -1  -7  -3  121.02   35.45
  -1  -7  -3  142.34   14.36
  -1  -7  -3  104.73   10.73
  -1  -7  -3   96.02   25.76
  -1  -7  -2 1198.20   64.37
  -1  -7  -2 1044.08   62.26
  -1  -7  -2 1233.68  122.54
  -1  -7  -2 1118.95   97.22
  -1  -7  -1 2233.21   90.16
  -1  -7  -1 2430.32  171.02
  -1  -7  -1 2288.66  150.74
  -1  -7  -1 2632.33  157.36
  -1  -7   0  183.35   39.59
  -1  -7   0  163.39   37.92
  -1  -7   0  212.29   41.89
  -1  -7   1   86.31   28.60
  -1  -7   1  125.63   29.06
  -1  -7   1  124.08   34.22
  -1  -7   2  610.50   79.40
  -1  -7   2  722.08   88.94
  -1  -7   2  732.21   94.12
  -1  -7   3 2310.05  178.86
  -1  -7   3 2188.39  181.26
  -1  -7   4  103.95   39.40
  -1  -7   4   58.16   29.01
  -1  -7   5  392.64   75.42
  -1  -7   5  338.33   71.54
  -1  -7   6   39.09   26.80
  -1  -7   6   50.96   30.16
  -1  -6 -13  118.05   53.95
  -1  -6 -12  361.66   88.79
  -1  -6 -12  232.12   49.58
  -1  -6 -11  255.67   68.61
  -1  -6 -11  355.78   76.38
  -1  -6 -11  249.90   53.07
  -1  -6 -10 1051.98  114.88
  -1  -6 -10 1519.17  153.72
  -1  -6  -9   21.54   13.37
  -1  -6  -9   53.55   24.53
  -1  -6  -8  210.06   48.19
  -1  -6  -8  253.14   51.34
  -1  -6  -7  103.16   32.72
  -1  -6  -7   68.15   21.56
  -1  -6  -6 1078.05  113.52
  -1  -6  -6 1163.01  102.24
  -1  -6  -5  260.90   51.75
  -1  -6  -5  291.76   46.50
  -1  -6  -4  362.28   39.26
  -1  -6  -4  281.52   54.05
  -1  -6  -4  303.95   39.63
  -1  -6  -4  343.15   47.27
  -1  -6  -3   65.71    6.74
  -1  -6  -3   87.21   16.63
  -1  -6  -3   82.77    7.91
  -1  -6  -3   61.73   25.16
  -1  -6  -3   65.10   17.81
  -1  -6  -2   71.37   12.31
  -1  -6  -2   77.34   14.67
  -1  -6  -2   72.20   24.68
  -1  -6  -2   78.32   13.82
  -1  -6  -2   66.58   19.55
  -1  -6  -1  710.09   55.91
  -1  -6  -1  912.70   48.39
  -1  -6  -1  857.28   91.13
  -1  -6  -1 1045.00   83.88
  -1  -6  -1  788.23   74.93
  -1  -6   0 1967.05  138.13
  -1  -6   0 1965.01   81.37
  -1  -6   0 1737.60  125.09
  -1  -6   0 2072.96  131.78
  -1  -6   1  565.87   61.53
  -1  -6   1  521.17   64.76
  -1  -6   1  620.29   70.14
  -1  -6   1  577.97   34.03
  -1  -6   2  190.06   20.93
  -1  -6   2  196.85   30.76
  -1  -6   2  236.92   46.76
  -1  -6   2  194.89   20.37
  -1  -6   2  202.48   42.60
  -1  -6   3 1103.03   67.39
  -1  -6   3 1222.37  115.68
  -1  -6   3 1233.27  120.13
  -1  -6   4  406.61   68.55
  -1  -6   4  329.09   62.22
  -1  -6   5  242.68   55.29
  -1  -6   5  236.26   55.92
  -1  -6   6  148.10   46.22
  -1  -6   6  130.14   43.44
  -1  -6   7  615.25  101.61
  -1  -6   7  519.79   90.26
  -1  -5 -13  226.04   77.15
  -1  -5 -12  601.03  114.57
  -1  -5 -12  604.33  105.56
  -1  -5 -11  454.90   66.55
  -1  -5 -11  447.91   93.24
  -1  -5 -11  512.35   92.22
  -1  -5 -10   35.36   18.03
  -1  -5 -10   51.07   32.04
  -1  -5 -10   17.68    7.10
  -1  -5  -9  635.48   82.62
  -1  -5  -9 1001.15  113.92
  -1  -5  -8 1186.09  114.53
  -1  -5  -8 1180.77  108.90
  -1  -5  -8 1530.66  132.91
  -1  -5  -7   38.81   17.30
  -1  -5  -7   37.34   17.76
  -1  -5  -7   65.62   24.64
  -1  -5  -6  156.69   37.96
  -1  -5  -6  122.85   33.83
  -1  -5  -6  160.75   34.31
  -1  -5  -5   97.82   30.18
  -1  -5  -5  121.34   25.57
  -1  -5  -5   44.43   19.51
  -1  -5  -5   85.31   23.29
  -1  -5  -4  574.42   50.02
  -1  -5  -4  516.14   73.35
  -1  -5  -4  533.93   50.16
  -1  -5  -4  565.91   56.38
  -1  -5  -4  596.78   60.14
  -1  -5  -3  809.89   54.03
  -1  -5  -3  656.95   83.73
  -1  -5  -3  717.75   61.05
  -1  -5  -3  762.81   64.86
  -1  -5  -2 2235.55  125.29
  -1  -5  -2 2197.25  127.25
  -1  -5  -2 2677.00  107.40
  -1  -5  -2 2166.30  152.76
  -1  -5  -2 2360.91  106.95
  -1  -5  -1  176.74   29.25
  -1  -5  -1  176.78   29.03
  -1  -5  -1  208.33   19.80
  -1  -5  -1  217.30   41.09
  -1  -5   0   89.29   24.18
  -1  -5   0   82.62   19.68
  -1  -5   0   74.61   20.31
  -1  -5   0  105.12   22.80
  -1  -5   0   79.32   20.03
  -1  -5   0   92.24   12.14
  -1  -5   1 1256.38   91.33
  -1  -5   1 1306.17   96.80
  -1  -5   1 1202.15   61.36
  -1  -5   2 3511.28  168.52
  -1  -5   2 3819.53  204.13
  -1  -5   2 3519.36  203.48
  -1  -5   2 3653.97  155.30
  -1  -5   3   68.76   15.43
  -1  -5   3   74.51   16.27
  -1  -5   3   69.21   24.64
  -1  -5   3   48.52   18.30
  -1  -5   4  248.86   32.78
  -1  -5   4  280.02   51.10
  -1  -5   4  268.51   53.02
  -1  -5   5   47.69   15.61
  -1  -5   5   50.58   23.45
  -1  -5   5   60.38   26.53
  -1  -5   6  725.92   71.05
  -1  -5   6  784.10  101.98
  -1  -5   6  613.81   90.07
  -1  -5   7   98.09   36.43
  -1  -5   7  110.43   38.99
  -1  -5   8  443.66   85.17
  -1  -5   8  392.43   77.67
  -1  -4 -12  184.32   63.70
  -1  -4 -11 1247.99  106.52
  -1  -4 -11 1494.80  176.21
  -1  -4 -11 1678.07  173.18
  -1  -4 -10  156.43   34.38
  -1  -4 -10  183.40   50.60
  -1  -4 -10  131.58   48.70
  -1  -4  -9  337.30   52.12
  -1  -4  -9  390.90   68.54
  -1  -4  -9  238.37   59.87
  -1  -4  -8  124.85   31.75
  -1  -4  -8  145.12   39.21
  -1  -4  -8  145.46   29.05
  -1  -4  -8  151.17   33.43
  -1  -4  -7 2280.16  156.10
  -1  -4  -7 3011.10  183.33
  -1  -4  -7 2268.97  154.97
  -1  -4  -7 2307.03  140.76
  -1  -4  -7 2792.33  140.32
  -1  -4  -6    9.09    6.14
  -1  -4  -6    1.26    4.75
  -1  -4  -6   -5.66    8.85
  -1  -4  -6    7.50   12.91
  -1  -4  -5  121.01   25.35
  -1  -4  -5  143.64   29.89
  -1  -4  -5  151.82   34.87
  -1  -4  -5  137.62   27.77
  -1  -4  -4  186.31   26.27
  -1  -4  -4  182.37   34.86
  -1  -4  -4  143.29   27.18
  -1  -4  -4  176.69   26.70
  -1  -4  -4  136.15   33.88
  -1  -4  -4  183.96   29.53
  -1  -4  -3 1040.22   62.87
  -1  -4  -3 1075.82   72.69
  -1  -4  -3 1080.19   70.86
  -1  -4  -3  984.59   76.09
  -1  -4  -3  904.09   60.20
  -1  -4  -3  874.21   90.37
  -1  -4  -2  844.05   49.77
  -1  -4  -2  783.00   74.71
  -1  -4  -2  832.06   41.73
  -1  -4  -2  819.76   59.85
  -1  -4  -2  773.28   56.70
  -1  -4  -2  865.79   69.21
  -1  -4  -2  698.35   77.25
  -1  -4  -2  802.39   57.27
  -1  -4  -1 2442.07  146.60
  -1  -4  -1 2663.27  107.82
  -1  -4  -1 2845.48  128.78
  -1  -4  -1 2493.27  126.48
  -1  -4  -1 2868.28  142.15
  -1  -4  -1 2151.46  150.89
  -1  -4  -1 2557.19  130.42
  -1  -4  -1 2574.30  126.25
  -1  -4   0  491.40   53.70
  -1  -4   0  541.51   46.54
  -1  -4   0  445.81   44.73
  -1  -4   0  511.13   47.18
  -1  -4   0  564.47   49.00
  -1  -4   0  555.97   51.58
  -1  -4   0  464.03   44.84
  -1  -4   0  504.93   46.55
  -1  -4   0  493.85   31.67
  -1  -4   1   10.67    4.52
  -1  -4   1   11.98    4.36
  -1  -4   1    2.59    3.27
  -1  -4   1   17.67    8.40
  -1  -4   1    8.42    4.75
  -1  -4   1    0.54    4.09
  -1  -4   1    8.61    5.83
  -1  -4   2 1904.10   97.28
  -1  -4   2 1919.28  120.92
  -1  -4   2 1895.30  103.97
  -1  -4   2 1862.47   93.26
  -1  -4   3 2604.10  107.88
  -1  -4   3 2923.90  163.76
  -1  -4   3 2325.89  122.16
  -1  -4   3 2680.46  161.00
  -1  -4   4  829.61   63.52
  -1  -4   4 1064.62   97.24
  -1  -4   4  753.41   57.26
  -1  -4   4  980.19   94.73
  -1  -4   4  700.71   59.72
  -1  -4   5  106.78   23.00
  -1  -4   5   87.66   16.62
  -1  -4   5  108.60   31.16
  -1  -4   5   73.13   18.32
  -1  -4   5   77.77   27.29
  -1  -4   6 1162.82   91.46
  -1  -4   6 1216.48  123.56
  -1  -4   6 1025.17  111.42
  -1  -4   7   57.71   19.85
  -1  -4   7   55.42   24.07
  -1  -4   7   20.32    8.98
  -1  -4   8    0.06    9.33
  -1  -4   8   -1.30    3.74
  -1  -4   8    5.04    9.16
  -1  -4   9   81.73   37.90
  -1  -4   9  107.82   36.21
  -1  -4  10  342.25   70.39
  -1  -3 -12  687.61  120.31
  -1  -3 -11   35.79   22.90
  -1  -3 -10  649.75  103.80
  -1  -3 -10  722.27   69.56
  -1  -3  -9 1061.15  118.09
  -1  -3  -9  792.18  112.17
  -1  -3  -8  615.68   83.05
  -1  -3  -8  469.12   79.06
  -1  -3  -7    4.39    4.57
  -1  -3  -7   -1.62    4.38
  -1  -3  -7    3.18    1.74
  -1  -3  -7    3.27    2.31
  -1  -3  -6  441.92   52.35
  -1  -3  -6  531.32   65.10
  -1  -3  -6  417.12   43.32
  -1  -3  -6  343.68   46.18
  -1  -3  -6  514.93   47.48
  -1  -3  -5 1468.61   99.36
  -1  -3  -5 1607.78  114.68
  -1  -3  -5 1400.01   86.82
  -1  -3  -5 1651.71  109.37
  -1  -3  -4    5.35    7.44
  -1  -3  -4   17.98    8.84
  -1  -3  -4   11.29    5.47
  -1  -3  -4    6.79    4.57
  -1  -3  -4    4.96    5.18
  -1  -3  -4   13.66    8.84
  -1  -3  -3  603.95   57.54
  -1  -3  -3  696.24   47.47
  -1  -3  -3  701.49   34.01
  -1  -3  -3  594.35   65.32
  -1  -3  -3  619.66   50.60
  -1  -3  -3  615.18   46.35
  -1  -3  -3  659.89   51.74
  -1  -3  -2  166.32   12.25
  -1  -3  -2  172.11   18.85
  -1  -3  -2  151.90   20.36
  -1  -3  -2  177.95   22.13
  -1  -3  -2  174.85   24.69
  -1  -3  -2  121.19   27.99
  -1  -3  -1    7.08    2.48
  -1  -3  -1    6.20    3.55
  -1  -3  -1    1.74    2.17
  -1  -3  -1    1.82    1.09
  -1  -3  -1    7.01    5.80
  -1  -3  -1    3.03    4.45
  -1  -3  -1   14.11    6.58
  -1  -3  -1    2.13    1.35
  -1  -3  -1    9.27    5.53
  -1  -3   0 1538.25   93.62
  -1  -3   0 1653.05   81.75
  -1  -3   0 1667.95   88.73
  -1  -3   0 1660.89   86.04
  -1  -3   0 1347.96   97.95
  -1  -3   0 1609.52   83.09
  -1  -3   0 1650.46   84.13
  -1  -3   0 1442.82   82.21
  -1  -3   0 1597.12   70.17
  -1  -3   1 6220.81  249.86
  -1  -3   1 6392.97  246.92
  -1  -3   1 6344.75  253.75
  -1  -3   1 6212.30  251.65
  -1  -3   1 6427.76  244.78
  -1  -3   1 6077.72  248.83
  -1  -3   1 5355.03  239.53
  -1  -3   1 6536.68  236.20
  -1  -3   2    3.74    2.26
  -1  -3   2    0.59    1.79
  -1  -3   2    0.85    2.56
  -1  -3   2    2.54    2.07
  -1  -3   3  411.38   25.56
  -1  -3   3  502.29   52.47
  -1  -3   3  463.84   54.59
  -1  -3   3  382.69   33.96
  -1  -3   3  326.19   34.98
  -1  -3   4  517.72   62.35
  -1  -3   4  491.11   37.55
  -1  -3   4  541.60   63.76
  -1  -3   4  456.72   42.66
  -1  -3   5 2262.59  126.26
  -1  -3   5 2500.48  163.72
  -1  -3   5 2057.26   96.47
  -1  -3   5 2351.90  155.39
  -1  -3   6   99.53   23.77
  -1  -3   6  107.61   33.76
  -1  -3   6   72.55   26.81
  -1  -3   7  738.22   74.74
  -1  -3   7  806.45   99.34
  -1  -3   7  619.23   82.45
  -1  -3   8   -2.48    7.55
  -1  -3   8   -3.27    5.22
  -1  -3   8   13.65    8.89
  -1  -3   9   57.81   23.34
  -1  -3   9   50.05   24.27
  -1  -3   9   58.61   24.34
  -1  -3  10  145.21   41.11
  -1  -3  10  225.05   58.22
  -1  -3  10  176.60   45.79
  -1  -3  11  387.24   74.35
  -1  -2 -12  706.72  122.95
  -1  -2 -11  228.13   64.92
  -1  -2 -10  621.89   99.81
  -1  -2  -9   53.87   25.74
  -1  -2  -9   48.95   14.83
  -1  -2  -8 3316.52  225.24
  -1  -2  -8 3146.37  163.14
  -1  -2  -7  271.20   49.53
  -1  -2  -7  247.90   52.16
  -1  -2  -7  262.50   37.10
  -1  -2  -7  388.40   51.68
  -1  -2  -6   35.46   14.26
  -1  -2  -6   41.61   15.89
  -1  -2  -6   37.87   12.50
  -1  -2  -6   54.61   16.34
  -1  -2  -5    9.46    8.01
  -1  -2  -5   19.31   11.08
  -1  -2  -5   10.36    7.20
  -1  -2  -5   19.64   11.45
  -1  -2  -5   11.39    4.09
  -1  -2  -5   13.89    6.35
  -1  -2  -4 2771.91  137.05
  -1  -2  -4 3048.49  151.89
  -1  -2  -4 2758.02  149.93
  -1  -2  -4 2675.03  122.71
  -1  -2  -4 3038.66  125.97
  -1  -2  -3    2.40    2.00
  -1  -2  -3    3.40    2.26
  -1  -2  -3    3.90    5.23
  -1  -2  -3    3.12    4.15
  -1  -2  -3    1.02    0.20
  -1  -2  -3   -2.10    4.70
  -1  -2  -2 2377.49  112.35
  -1  -2  -2 2416.22   88.50
  -1  -2  -2 2525.03  100.90
  -1  -2  -2 2313.61  101.91
  -1  -2  -2 2114.32  100.56
  -1  -2  -2 2014.75  114.72
  -1  -2  -2 2098.41   96.80
  -1  -2  -1 1170.24   51.18
  -1  -2  -1 1246.84   55.77
  -1  -2  -1 1135.17   53.96
  -1  -2  -1 1162.72   80.57
  -1  -2  -1 1150.06   61.26
  -1  -2  -1 1107.95   53.84
  -1  -2  -1 1230.06   55.16
  -1  -2   0  682.37   45.16
  -1  -2   0  686.49   37.29
  -1  -2   0  644.95   41.09
  -1  -2   0  686.58   38.42
  -1  -2   0  570.34   50.48
  -1  -2   0  718.54   43.19
  -1  -2   0  666.33   42.13
  -1  -2   0  686.06   36.81
  -1  -2   0  648.79   38.97
  -1  -2   1 1348.00   69.05
  -1  -2   1 1512.57   73.06
  -1  -2   1 1438.88   75.43
  -1  -2   1 1356.41   66.52
  -1  -2   1 1262.87   68.47
  -1  -2   1 1364.20   72.87
  -1  -2   2 4635.07  152.59
  -1  -2   2 4738.49  178.80
  -1  -2   2 4065.22  152.49
  -1  -2   2 4494.11  182.39
  -1  -2   2 3877.25  159.38
  -1  -2   2 4368.51  175.06
  -1  -2   3  826.95   46.18
  -1  -2   3  998.97   76.11
  -1  -2   3  865.54   67.39
  -1  -2   3  986.69   76.27
  -1  -2   3  849.55   55.36
  -1  -2   4    3.11    6.48
  -1  -2   4   12.04    4.02
  -1  -2   5 1077.29   78.70
  -1  -2   5 1267.33  105.80
  -1  -2   5 1152.06   96.00
  -1  -2   6 1046.45   83.36
  -1  -2   6 1191.01  110.25
  -1  -2   6 1056.72   96.51
  -1  -2   7  284.29   43.91
  -1  -2   7  437.65   69.47
  -1  -2   7  326.71   52.71
  -1  -2   8   57.42   20.94
  -1  -2   8   48.39   21.87
  -1  -2   8   76.37   25.57
  -1  -2   9  625.04   77.43
  -1  -2   9  720.51  103.82
  -1  -2   9  507.06   74.83
  -1  -2  10    9.64    3.01
  -1  -2  10   -3.20    7.93
  -1  -2  11  153.73   42.70
  -1  -2  11  120.52   38.32
  -1  -1 -12   13.63   18.31
  -1  -1 -11  490.40   96.27
  -1  -1 -10  490.40   89.01
  -1  -1  -9  878.13  113.91
  -1  -1  -8   16.09   14.27
  -1  -1  -8   25.91    8.79
  -1  -1  -8   34.94    9.69
  -1  -1  -7  804.73   92.14
  -1  -1  -7  720.60   55.29
  -1  -1  -6 1162.36  103.77
  -1  -1  -6  978.73   66.71
  -1  -1  -6 1340.36   94.96
  -1  -1  -5  274.07   35.07
  -1  -1  -5  261.00   28.82
  -1  -1  -5  273.34   42.96
  -1  -1  -5  303.04   45.05
  -1  -1  -5  316.10   38.01
  -1  -1  -4  129.22   21.24
  -1  -1  -4  126.07   23.96
  -1  -1  -4  123.78   25.31
  -1  -1  -4  115.58   23.65
  -1  -1  -4  140.05   21.43
  -1  -1  -3  103.61   15.67
  -1  -1  -3  101.28   15.67
  -1  -1  -3   74.88   17.04
  -1  -1  -3   83.43   16.72
  -1  -1  -3   89.50   17.25
  -1  -1  -3   86.44   13.78
  -1  -1  -2  299.30   20.82
  -1  -1  -2  264.01   26.29
  -1  -1  -2  297.60   26.07
  -1  -1  -2  240.12   22.08
  -1  -1  -2  278.18   17.07
  -1  -1  -1  292.55   19.93
  -1  -1  -1  293.62   20.64
  -1  -1  -1  331.30   19.92
  -1  -1  -1  308.45   20.32
  -1  -1   0 3878.70  140.57
  -1  -1   0 3875.84  137.82
  -1  -1   0 3246.25  145.26
  -1  -1   0 3698.79  130.65
  -1  -1   0 3862.64  137.35
  -1  -1   0 3421.14  135.61
  -1  -1   1   58.89    9.76
  -1  -1   1   42.00    8.64
  -1  -1   1   46.84    9.37
  -1  -1   1   57.30    9.46
  -1  -1   2  254.46   27.52
  -1  -1   2  276.04   29.46
  -1  -1   2  256.55   28.96
  -1  -1   3 1064.48   74.56
  -1  -1   3  967.22   69.72
  -1  -1   3  951.39   71.40
  -1  -1   3  907.14   67.67
  -1  -1   4 5157.28  238.02
  -1  -1   4 5416.31  236.54
  -1  -1   6 1019.50   81.52
  -1  -1   6 1147.27  104.71
  -1  -1   6 1094.98   90.51
  -1  -1   7  274.79   42.09
  -1  -1   7  308.38   55.20
  -1  -1   7  247.50   44.18
  -1  -1   8 1039.26   92.73
  -1  -1   8 1181.59  120.40
  -1  -1   8 1008.34   96.00
  -1  -1   9    1.58    8.32
  -1  -1   9    1.69   10.72
  -1  -1   9   -0.06    8.94
  -1  -1  10  833.00   93.76
  -1  -1  10  907.28   99.43
  -1  -1  11   12.67   11.29
  -1  -1  11    8.68   10.43
  -1  -1  11   -5.51    4.84
  -1  -1  12   38.03   22.01
  -1   0 -11  368.37   81.73
  -1   0 -10   54.75   28.98
  -1   0  -9 1833.79  169.07
  -1   0  -8  153.14   42.36
  -1   0  -8  229.62   20.55
  -1   0  -7  179.77   41.93
  -1   0  -7  200.10   20.22
  -1   0  -7  268.20   22.33
  -1   0  -6   14.22    4.08
  -1   0  -6    6.18    3.91
  -1   0  -6   20.81    5.77
  -1   0  -5 3939.06  224.12
  -1   0  -5 4354.05  211.36
  -1   0  -4  489.20   54.47
  -1   0  -4  471.46   53.36
  -1   0  -4  571.98   28.10
  -1   0  -3  271.38   27.62
  -1   0  -3  285.39   34.75
  -1   0  -3  278.71   34.26
  -1   0  -2  137.81   15.51
  -1   0  -2  144.78   19.90
  -1   0  -2  118.86   18.06
  -1   0  -1  958.52   44.10
  -1   0  -1  997.48   50.40
  -1   0  -1  952.58   50.21
  -1   0  -1  946.04   44.49
  -1   0   0   13.60    3.44
  -1   0   0   12.01    3.27
  -1   0   0    3.78    1.79
  -1   0   0    6.33    1.89
  -1   0   1 2501.61  102.68
  -1   0   1 2404.62   96.77
  -1   0   1 2463.40   98.87
  -1   0   2  459.64   35.39
  -1   0   2  465.61   26.66
  -1   0   2  411.08   32.32
  -1   0   3   10.17    6.12
  -1   0   3   19.39    5.54
  -1   0   3   14.16    6.66
  -1   0   4 1225.70   84.42
  -1   0   4 1247.69   64.05
  -1   0   4 1190.06   77.01
  -1   0   5 3814.68  180.19
  -1   0   6  815.85   69.26
  -1   0   6  922.07   88.10
  -1   0   6  784.97   69.38
  -1   0   7   -3.28    6.31
  -1   0   7   11.78   10.41
  -1   0   7    4.57    1.15
  -1   0   8  308.51   47.86
  -1   0   8  415.67   66.48
  -1   0   8  336.13   50.46
  -1   0   9   48.22   20.41
  -1   0   9   65.77   29.80
  -1   0   9   84.90   27.62
  -1   0  10    4.45    6.28
  -1   0  10   -7.74    9.93
  -1   0  11   74.30   26.33
  -1   0  11   69.64   33.52
  -1   0  12  426.64   72.54
  -1   1 -10  716.42  109.63
  -1   1  -9   -9.70   24.10
  -1   1  -8 1124.43  122.46
  -1   1  -7 1012.74  107.33
  -1   1  -6  892.50   39.62
  -1   1  -6  896.86   92.48
  -1   1  -5    9.86    8.78
  -1   1  -4  680.76   66.38
  -1   1  -3  781.76   67.30
  -1   1  -3  825.02   66.97
  -1   1  -2    4.10    2.30
  -1   1  -2    6.26    4.39
  -1   1  -1 1728.55   87.63
  -1   1  -1 1892.73   82.82
  -1   1  -1 1656.11   68.55
  -1   1  -1 1786.88   82.16
  -1   1   0  503.28   35.41
  -1   1   0  465.51   27.43
  -1   1   0  420.92   30.31
  -1   1   0  490.42   30.76
  -1   1   1   95.55   13.15
  -1   1   1   78.43   12.69
  -1   1   1   73.54   11.81
  -1   1   1   76.64    8.32
  -1   1   1   88.41   11.97
  -1   1   2 1375.53   70.73
  -1   1   2 1600.43   77.24
  -1   1   2 1624.13   78.46
  -1   1   3 7121.09  259.89
  -1   1   3 6220.09  261.73
  -1   1   4  487.06   41.49
  -1   1   4  386.97   44.78
  -1   1   4  395.81   43.06
  -1   1   5  689.57   59.24
  -1   1   5  832.69   59.76
  -1   1   6  285.98   38.92
  -1   1   6  327.69   37.70
  -1   1   6  391.00   54.00
  -1   1   7 2303.76  142.20
  -1   1   7 2895.79  175.12
  -1   1   8  143.30   30.89
  -1   1   8  158.39   40.54
  -1   1   9  968.11   93.20
  -1   1   9 1347.79  125.38
  -1   1  10   35.76   15.28
  -1   1  10   40.25   22.74
  -1   1  11   78.30   28.69
  -1   1  11   84.42   34.51
  -1   1  12   14.62   16.19
  -1   1  12   39.43   23.20
  -1   2 -10  753.45  117.30
  -1   2  -9  328.45   72.21
  -1   2  -8  225.80   52.35
  -1   2  -7   -8.17   11.91
  -1   2  -6 2750.08  184.60
  -1   2  -5  479.45   63.64
  -1   2  -5  415.26   32.78
  -1   2  -4   -7.40   10.03
  -1   2  -4   -3.37    4.41
  -1   2  -3  272.66   39.49
  -1   2  -3  255.06   28.28
  -1   2  -2 1833.24  109.00
  -1   2  -2 1790.07   93.43
  -1   2  -2 1850.38  102.56
  -1   2  -1  113.50   21.05
  -1   2  -1   96.13   16.77
  -1   2  -1  100.12   17.83
  -1   2   0 2654.38  125.76
  -1   2   0 2660.05  110.65
  -1   2   0 2513.59  121.82
  -1   2   0 2549.43  116.82
  -1   2   1   66.89    8.60
  -1   2   1   69.84   14.66
  -1   2   1   61.78   13.56
  -1   2   1   56.44    8.59
  -1   2   1   60.52   11.81
  -1   2   2   17.74    8.16
  -1   2   2   20.00    4.28
  -1   2   3  207.76   21.78
  -1   2   3  275.85   33.43
  -1   2   3  219.92   24.73
  -1   2   3  262.07   30.50
  -1   2   4 4062.25  183.91
  -1   2   4 4530.59  197.77
  -1   2   4 4277.14  177.85
  -1   2   4 3957.48  194.56
  -1   2   5  756.42   63.73
  -1   2   5 1021.96   75.27
  -1   2   6   15.50    9.66
  -1   2   6   -4.33    7.73
  -1   2   6    2.72    5.20
  -1   2   7  366.85   48.77
  -1   2   7  558.50   58.52
  -1   2   7  508.65   63.41
  -1   2   8 1168.32   97.86
  -1   2   8 1614.67  125.71
  -1   2   9  167.04   35.51
  -1   2   9  200.07   46.07
  -1   2  10   42.00   16.88
  -1   2  10  112.54   36.88
  -1   2  11  372.60   62.54
  -1   2  11  570.62   85.96
  -1   2  12  -22.61   20.27
  -1   2  12   15.81   20.33
  -1   3  -9  665.88  106.65
  -1   3  -8  330.03   69.47
  -1   3  -7  992.25  116.31
  -1   3  -6   54.00   23.07
  -1   3  -5 1160.31  108.78
  -1   3  -5 1004.04   62.22
  -1   3  -4  882.06   88.46
  -1   3  -4  890.86   66.07
  -1   3  -3  289.53   45.74
  -1   3  -3  311.64   38.76
  -1   3  -2   99.38   24.71
  -1   3  -2  116.12   23.17
  -1   3  -2  140.72   25.75
  -1   3  -1  788.18   67.39
  -1   3  -1  794.20   65.81
  -1   3  -1  750.71   61.22
  -1   3   0  228.19   33.16
  -1   3   0  218.40   32.29
  -1   3   0  186.53   26.80
  -1   3   1  260.43   23.26
  -1   3   1  238.96   15.75
  -1   3   1  269.37   36.56
  -1   3   1  221.31   31.41
  -1   3   1  254.19   24.05
  -1   3   1  261.49   30.75
  -1   3   2 3016.67  124.29
  -1   3   2 3335.39  163.35
  -1   3   2 2991.42  112.61
  -1   3   2 2647.17  146.23
  -1   3   2 3446.15  157.91
  -1   3   3  706.01   48.28
  -1   3   3  591.18   29.40
  -1   3   3  607.99   53.18
  -1   3   4  259.52   31.00
  -1   3   4  213.14   21.56
  -1   3   4  261.52   32.71
  -1   3   5  596.65   54.63
  -1   3   5  759.36   71.26
  -1   3   5  666.52   55.24
  -1   3   6 3220.40  168.19
  -1   3   6 3491.66  180.31
  -1   3   7  324.17   44.57
  -1   3   7  352.15   50.84
  -1   3   8 1089.75   93.00
  -1   3   8 1346.88  110.59
  -1   3   9   68.80   22.66
  -1   3   9   73.41   27.54
  -1   3  10  266.67   48.80
  -1   3  10  365.40   62.88
  -1   3  11   60.74   24.61
  -1   3  11   90.79   33.40
  -1   3  12  638.25   87.54
  -1   3  12  805.10  106.07
  -1   3  13   17.16   17.49
  -1   4  -8   -9.38   20.72
  -1   4  -8   17.05   19.04
  -1   4  -7 1334.21  142.55
  -1   4  -6  604.92   87.28
  -1   4  -5   89.56   30.03
  -1   4  -4   23.92   15.05
  -1   4  -4   55.68   15.37
  -1   4  -3 2410.26  158.55
  -1   4  -3 2103.55  130.97
  -1   4  -2  499.05   63.30
  -1   4  -2  599.57   64.23
  -1   4  -2  576.66   61.38
  -1   4  -1  675.15   69.13
  -1   4  -1  630.77   67.60
  -1   4  -1  670.41   62.94
  -1   4   0   52.09   16.80
  -1   4   0   48.65   17.11
  -1   4   0   44.78   14.50
  -1   4   1  729.42   72.81
  -1   4   1  613.42   62.23
  -1   4   2    4.87    2.39
  -1   4   2    2.10    2.20
  -1   4   3 5750.37  222.49
  -1   4   3 5296.16  251.64
  -1   4   4  839.30   61.16
  -1   4   4  781.43   68.99
  -1   4   5   26.56    6.60
  -1   4   5   25.30   10.62
  -1   4   5   27.68   11.77
  -1   4   6  196.05   27.18
  -1   4   6  237.25   36.27
  -1   4   6  291.62   39.41
  -1   4   7 2064.09  109.39
  -1   4   7 2392.25  142.83
  -1   4   8  688.45   70.58
  -1   4   8  741.22   77.97
  -1   4   9   47.61   17.84
  -1   4   9   45.56   19.87
  -1   4  10  382.11   58.85
  -1   4  10  408.23   65.46
  -1   4  11  356.84   60.77
  -1   4  11  494.67   76.40
  -1   4  12    2.61    4.31
  -1   4  12   -9.09   11.67
  -1   4  13  175.69   49.77
  -1   5  -8 1043.22  151.12
  -1   5  -7  135.82   46.52
  -1   5  -7  300.81   78.48
  -1   5  -6  759.31  107.77
  -1   5  -6 1171.18  152.39
  -1   5  -5  612.62   91.79
  -1   5  -5  787.24  121.30
  -1   5  -4  563.93   82.44
  -1   5  -3   73.29   25.16
  -1   5  -2  890.84   93.45
  -1   5  -2  968.14   90.02
  -1   5  -1  515.16   66.58
  -1   5  -1  525.66   60.54
  -1   5   0    4.32    7.82
  -1   5   0   13.47   13.29
  -1   5   0   12.09    8.73
  -1   5   1  468.96   59.90
  -1   5   1  535.17   69.38
  -1   5   1  507.51   56.25
  -1   5   2  358.81   51.21
  -1   5   2  407.51   40.42
  -1   5   2  418.80   59.36
  -1   5   2  397.37   48.17
  -1   5   2  346.96   23.81
  -1   5   3   12.82    5.47
  -1   5   3   19.52   12.46
  -1   5   3   19.42    7.50
  -1   5   3   20.31    8.79
  -1   5   4  212.95   28.65
  -1   5   4  153.50   32.71
  -1   5   4  265.70   39.53
  -1   5   5 2069.09  122.63
  -1   5   5 2357.42  142.29
  -1   5   6  341.70   20.00
  -1   5   6  374.15   20.28
  -1   5   6  397.04   49.56
  -1   5   6  455.19   56.96
  -1   5   7  709.66   44.21
  -1   5   7  633.94   47.70
  -1   5   7  783.58   74.86
  -1   5   8  224.28   33.40
  -1   5   8  271.10   44.82
  -1   5   8  237.17   27.18
  -1   5   9 1130.68  101.84
  -1   5   9 1078.49  105.54
  -1   5  10  401.93   62.13
  -1   5  10  438.13   67.21
  -1   5  11  782.56   92.48
  -1   5  11  838.78   99.59
  -1   5  12   48.77   24.92
  -1   5  12   47.95   22.66
  -1   5  13   18.93   14.94
  -1   6  -7  452.64  103.08
  -1   6  -6  138.65   49.34
  -1   6  -6  120.26   55.71
  -1   6  -5  -13.79   16.75
  -1   6  -5   13.11   15.81
  -1   6  -4 1480.68  149.25
  -1   6  -4 2240.16  217.05
  -1   6  -3  970.37  110.98
  -1   6  -3 1195.92  149.87
  -1   6  -2    9.13   10.42
  -1   6  -2   15.48   22.82
  -1   6  -2    9.42   13.69
  -1   6  -1   80.64   27.68
  -1   6  -1   77.74   30.42
  -1   6  -1   68.78   22.33
  -1   6   0 1110.31  108.17
  -1   6   0 1208.16  126.55
  -1   6   0 1129.00   98.25
  -1   6   1  501.95   67.07
  -1   6   1  423.66   69.99
  -1   6   1  487.47   60.09
  -1   6   2 1901.65  141.38
  -1   6   2 1903.09  149.49
  -1   6   2 1882.33  127.78
  -1   6   3  144.95   33.43
  -1   6   3  119.29   23.29
  -1   6   3  122.83   35.71
  -1   6   3  137.54   17.74
  -1   6   3  181.25   34.79
  -1   6   4   54.94   13.75
  -1   6   4   45.56   13.58
  -1   6   4   34.81   13.35
  -1   6   4   58.32   19.46
  -1   6   5   -6.87    9.32
  -1   6   5   -9.83    8.65
  -1   6   5    9.37    8.20
  -1   6   6 3995.57  207.02
  -1   6   6 4077.67  225.87
  -1   6   6 4221.89  226.33
  -1   6   7 1633.44  121.99
  -1   6   7 1919.04  136.86
  -1   6   7 1687.05  133.63
  -1   6   8   -7.96    7.49
  -1   6   8    0.42    2.51
  -1   6   9  126.91   32.76
  -1   6  10  693.70   84.97
  -1   6  11  175.97   43.66
  -1   6  12   35.74   20.31
  -1   6  12   65.04   28.55
  -1   6  13  211.94   53.13
  -1   7  -5  499.12   92.34
  -1   7  -5  744.84  139.30
  -1   7  -4  203.30   54.38
  -1   7  -4  299.47   81.10
  -1   7  -3  766.82  106.31
  -1   7  -3  997.54  147.96
  -1   7  -2  562.80   85.14
  -1   7  -2  604.93  107.58
  -1   7  -2  477.48   74.70
  -1   7  -1  213.78   50.78
  -1   7  -1  188.90   57.93
  -1   7  -1  210.74   45.86
  -1   7   0   30.30   22.14
  -1   7   0   40.70   23.91
  -1   7   0   47.32   22.29
  -1   7   1  251.78   50.46
  -1   7   1  308.67   64.61
  -1   7   1  342.91   54.88
  -1   7   2   89.90   29.56
  -1   7   2   99.05   33.95
  -1   7   2   60.28   23.00
  -1   7   3  104.63   31.84
  -1   7   3  116.75   35.41
  -1   7   3  120.52   25.67
  -1   7   3   89.00   25.54
  -1   7   3   97.43   11.68
  -1   7   4  917.26  103.87
  -1   7   4 1073.32   82.10
  -1   7   4 1005.89   64.58
  -1   7   4 1212.39  102.99
  -1   7   5  371.69   41.97
  -1   7   5  440.52   49.40
  -1   7   5  370.47   61.86
  -1   7   5  457.66   63.30
  -1   7   6  280.32   41.37
  -1   7   6  290.07   53.69
  -1   7   6  348.85   55.26
  -1   7   7  326.19   50.44
  -1   7   7  363.23   59.75
  -1   7   7  394.80   63.78
  -1   7   8 1213.23  111.39
  -1   7   8 1600.75  131.04
  -1   7   8 1363.53  127.49
  -1   7   9  516.92   71.78
  -1   7   9  591.61   83.26
  -1   7  10  508.88   75.18
  -1   7  10  629.98   88.52
  -1   7  11  118.71   36.69
  -1   7  12   34.02   17.49
  -1   8  -3   69.93   35.23
  -1   8  -3  117.80   55.35
  -1   8  -2   78.32   34.84
  -1   8  -2   42.04   34.31
  -1   8  -2   44.61   21.39
  -1   8  -1 1007.68  124.52
  -1   8  -1 1111.75  150.26
  -1   8  -1  809.79   99.89
  -1   8   0  518.84   87.25
  -1   8   0  761.83  116.44
  -1   8   0  565.23   78.92
  -1   8   1  359.72   69.42
  -1   8   1  462.10   87.59
  -1   8   1  377.74   62.85
  -1   8   2   -6.35   19.03
  -1   8   2    6.06   18.16
  -1   8   2   15.09   10.62
  -1   8   3  146.33   40.40
  -1   8   3  124.66   40.06
  -1   8   3  149.12   36.85
  -1   8   4  150.01   30.36
  -1   8   4  138.45   40.61
  -1   8   4  152.27   37.63
  -1   8   5 1747.02  117.88
  -1   8   5 1639.55  152.27
  -1   8   5 1974.25  148.01
  -1   8   6  482.40   56.65
  -1   8   6  538.59   80.84
  -1   8   6  597.28   77.87
  -1   8   6  485.70   53.61
  -1   8   7   -4.05   11.28
  -1   8   7   11.67   10.44
  -1   8   7    4.34   11.53
  -1   8   8  -10.72   13.08
  -1   8   8    8.75   10.38
  -1   8   8   13.15   17.83
  -1   8   9  911.16   99.44
  -1   8   9 1128.89  114.58
  -1   8   9 1082.18  120.59
  -1   8  10  533.62   77.50
  -1   8  10  557.99   87.39
  -1   8  11   45.00   25.45
  -1   8  11   12.94    2.25
  -1   8  12   88.36   33.42
  -1   9  -1   63.22   34.48
  -1   9   0  330.09   74.72
  -1   9   0  519.99  105.19
  -1   9   0  477.21   77.84
  -1   9   1  353.10   74.52
  -1   9   1  455.91   93.81
  -1   9   1  322.35   62.61
  -1   9   2   -6.02   11.81
  -1   9   2    1.14   14.25
  -1   9   2    9.45    4.41
  -1   9   3  153.16   50.81
  -1   9   3  145.98   40.65
  -1   9   4  247.64   61.09
  -1   9   4  292.13   57.30
  -1   9   5   10.14    7.77
  -1   9   5   -3.89    9.05
  -1   9   6  209.56   54.63
  -1   9   6  304.54   58.37
  -1   9   7 1079.28  125.67
  -1   9   7 1268.38  127.73
  -1   9   8  545.74   87.04
  -1   9   8  658.04   92.33
  -1   9   9  342.15   58.51
  -1   9   9  320.85   64.82
  -1   9   9  318.93   66.07
  -1   9  10  285.05   55.83
  -1   9  10  335.93   69.57
  -1   9  11  308.19   61.02
  -1   9  12  332.44   65.66
  -1  10   1   19.79   10.80
  -1  10   2  208.68   61.00
  -1  10   3  282.15   72.46
  -1  10   3  372.59   70.05
  -1  10   4  811.92  121.49
  -1  10   4  704.44   97.57
  -1  10   5  189.47   56.46
  -1  10   5  195.92   49.45
  -1  10   6   -5.67    7.58
  -1  10   6   -3.06   12.15
  -1  10   7   20.28   18.88
  -1  10   7  -13.59   17.18
  -1  10   8 1102.16  134.48
  -1  10   8 1151.45  131.10
  -1  11   7  348.23   80.58
  -1  11   8   52.27   36.52
   0 -11  -6   96.99   37.31
   0 -11  -5  636.59  100.46
   0 -11  -5  564.39  102.62
   0 -11  -4  486.51   95.49
   0 -11  -4  473.73   81.05
   0 -11  -3   50.82   26.87
   0 -11  -2   40.69   24.45
   0 -10  -9  229.05   64.14
   0 -10  -9  134.94   46.45
   0 -10  -8  828.44  123.83
   0 -10  -8  861.34  117.41
   0 -10  -7  633.30  105.43
   0 -10  -7  791.26  109.04
   0 -10  -6   12.49   13.39
   0 -10  -6   10.07   11.62
   0 -10  -5  -16.83   14.23
   0 -10  -5    7.77    9.76
   0 -10  -4  802.18  117.28
   0 -10  -4  711.89   99.29
   0 -10  -3  946.42  123.46
   0 -10  -3  936.95  112.36
   0 -10  -3 1055.73  122.16
   0 -10  -2   -5.37   11.95
   0 -10  -2    4.63   10.82
   0 -10  -1  131.40   44.44
   0 -10  -1  147.69   47.72
   0 -10   0  218.59   56.87
   0 -10   0  220.37   57.76
   0  -9 -12  265.95   66.23
   0  -9 -11   45.74   28.50
   0  -9 -11   27.86   22.00
   0  -9 -10    5.44   11.81
   0  -9 -10   31.23   22.43
   0  -9  -9  242.63   63.35
   0  -9  -9  213.07   57.15
   0  -9  -8   43.59   22.05
   0  -9  -8   49.58   25.51
   0  -9  -7  130.01   40.35
   0  -9  -7  115.19   41.26
   0  -9  -6  843.62  118.28
   0  -9  -6  969.35  112.25
   0  -9  -5  943.41  124.29
   0  -9  -5  951.37  108.33
   0  -9  -4  -15.33   15.79
   0  -9  -4   16.29   25.07
   0  -9  -3  174.15   43.78
   0  -9  -3  210.42   54.66
   0  -9  -2  442.20   75.19
   0  -9  -2  418.19   71.38
   0  -9  -2  461.44   73.30
   0  -9  -1  433.86   74.78
   0  -9  -1  584.82   84.52
   0  -9   0  170.84   47.76
   0  -9   0  248.84   57.71
   0  -9   1  200.07   52.42
   0  -9   1  133.36   43.19
   0  -9   1  245.57   61.69
   0  -9   2   -2.21    7.93
   0  -9   2    2.82    8.08
   0  -9   2    7.69    9.33
   0  -8 -13   33.81   23.72
   0  -8 -12   -0.57   20.61
   0  -8 -12   33.07   27.92
   0  -8 -11   62.65   25.94
   0  -8 -11  100.99   41.17
   0  -8 -10  498.47   86.31
   0  -8 -10  735.88  107.56
   0  -8  -9  503.22   84.36
   0  -8  -9  397.21   75.82
   0  -8  -8  913.73  117.36
   0  -8  -8 1094.76  121.00
   0  -8  -7  119.56   36.81
   0  -8  -7   62.90   27.37
   0  -8  -6  150.71   46.50
   0  -8  -6  128.28   37.92
   0  -8  -5  896.32  114.51
   0  -8  -5 1038.65  105.53
   0  -8  -4 1737.37  161.35
   0  -8  -4 1692.09  137.93
   0  -8  -3   -0.34    5.56
   0  -8  -3   10.38    5.13
   0  -8  -2   17.91   12.83
   0  -8  -2   22.56   13.89
   0  -8  -2   15.37   10.73
   0  -8  -1  520.55   74.32
   0  -8  -1  551.84   77.49
   0  -8  -1  617.76   82.25
   0  -8   0  904.50  104.95
   0  -8   0 1193.35  119.62
   0  -8   1   14.14   13.65
   0  -8   1    0.18    4.77
   0  -8   2  286.04   60.28
   0  -8   2  307.52   66.12
   0  -8   2  279.26   63.94
   0  -8   3   54.20   24.95
   0  -8   3  100.89   36.86
   0  -8   3   34.12   24.36
   0  -8   4   10.65    8.17
   0  -8   4   -1.87   15.26
   0  -7 -12   59.09   36.13
   0  -7 -12   79.89   30.90
   0  -7 -11   84.88   32.54
   0  -7 -11  108.24   41.57
   0  -7 -10  133.61   44.15
   0  -7 -10   68.61   30.71
   0  -7  -9  397.88   71.88
   0  -7  -9  354.47   67.54
   0  -7  -8   24.32   15.47
   0  -7  -8    4.71    9.98
   0  -7  -7  385.57   69.57
   0  -7  -7  559.97   76.99
   0  -7  -6  693.36   93.23
   0  -7  -6  677.01   83.36
   0  -7  -5   27.59    7.10
   0  -7  -5   45.17   24.27
   0  -7  -4  298.76   48.90
   0  -7  -4  289.25   58.13
   0  -7  -3 1241.97   57.07
   0  -7  -3 1345.17  129.80
   0  -7  -3 1289.92  108.80
   0  -7  -2 1638.65   82.35
   0  -7  -2 1778.11  143.40
   0  -7  -2 1560.05  123.50
   0  -7  -1   13.24    7.05
   0  -7  -1   14.59    5.24
   0  -7  -1   11.63   10.75
   0  -7  -1    3.35    5.06
   0  -7   0  558.23   66.73
   0  -7   0  524.24   70.75
   0  -7   0  561.10   73.75
   0  -7   1  171.28   41.21
   0  -7   1  190.29   44.61
   0  -7   2  266.57   52.02
   0  -7   2  298.09   60.02
   0  -7   2  351.37   65.34
   0  -7   3  461.76   77.76
   0  -7   3  381.54   72.20
   0  -7   4  798.31  110.15
   0  -7   4  691.82  101.79
   0  -7   5  163.04   51.35
   0  -7   5  137.44   44.86
   0  -6 -12  128.54   36.80
   0  -6 -12  153.26   52.83
   0  -6 -12  167.26   59.38
   0  -6 -11  851.50  100.74
   0  -6 -11 1198.88  142.62
   0  -6 -10   10.86    3.42
   0  -6 -10   30.27   17.87
   0  -6  -9  180.58   44.28
   0  -6  -9  121.10   37.18
   0  -6  -8   16.34   13.59
   0  -6  -8    9.69    9.99
   0  -6  -7  672.72   86.73
   0  -6  -7  755.73   86.08
   0  -6  -6  386.34   65.11
   0  -6  -6  566.31   69.28
   0  -6  -5 2453.76  180.20
   0  -6  -5 2774.00  169.16
   0  -6  -4   43.04   16.76
   0  -6  -4   23.51   14.28
   0  -6  -3   41.55   19.27
   0  -6  -3   16.87   11.30
   0  -6  -2  951.01   51.93
   0  -6  -2 1068.02  101.49
   0  -6  -2  968.16   85.52
   0  -6  -1 3285.77  185.64
   0  -6  -1 3146.79  174.93
   0  -6   0   10.92    6.29
   0  -6   0   23.12   11.13
   0  -6   0   16.64    9.95
   0  -6   0    7.94    7.53
   0  -6   1   52.12   17.62
   0  -6   1   31.69   15.34
   0  -6   1   65.18   24.51
   0  -6   2   56.60   20.85
   0  -6   3  290.11   56.06
   0  -6   3  262.04   53.76
   0  -6   4  121.38   38.63
   0  -6   4  139.64   39.81
   0  -6   5  567.41   89.46
   0  -6   5  550.76   86.33
   0  -6   6   32.06   20.66
   0  -6   6   37.86   23.86
   0  -6   7  169.23   52.59
   0  -5 -12  618.59  106.92
   0  -5 -12  735.12  125.19
   0  -5 -11    0.71   10.39
   0  -5 -11  -16.68   26.84
   0  -5 -11    6.64    6.79
   0  -5 -10  674.66   82.37
   0  -5 -10  911.25  114.82
   0  -5  -9  -20.32   21.20
   0  -5  -9  -14.14   12.33
   0  -5  -8   44.15   17.88
   0  -5  -8   81.39   30.08
   0  -5  -8   42.14   19.59
   0  -5  -7  342.68   52.14
   0  -5  -7  464.53   64.72
   0  -5  -7  315.23   53.71
   0  -5  -6  410.94   61.78
   0  -5  -6  379.95   56.05
   0  -5  -6  439.18   58.32
   0  -5  -5  526.04   71.01
   0  -5  -5  686.59   70.19
   0  -5  -4 2570.95  147.66
   0  -5  -3 2362.89  161.07
   0  -5  -3 2582.62  142.60
   0  -5  -2  127.51   13.07
   0  -5  -2  126.71   25.60
   0  -5  -2  156.74   33.15
   0  -5  -1  554.39   62.22
   0  -5  -1  454.73   35.89
   0  -5  -1  527.67   55.48
   0  -5   0  829.35   73.49
   0  -5   0  704.79   55.53
   0  -5   0  918.24   79.78
   0  -5   0  878.26   68.08
   0  -5   0  795.91   73.63
   0  -5   1 1578.63  101.22
   0  -5   1 1757.24  123.11
   0  -5   2   63.55    7.72
   0  -5   2   79.80   24.46
   0  -5   2   58.40    7.56
   0  -5   3 1062.19   57.99
   0  -5   3 1116.01  106.04
   0  -5   3 1012.76  101.95
   0  -5   3 1039.42   60.14
   0  -5   4   -2.02    3.36
   0  -5   4    5.18   11.54
   0  -5   4   -7.11   10.15
   0  -5   5    3.32    4.29
   0  -5   5   24.58   14.35
   0  -5   6  350.20   69.08
   0  -5   6  360.96   68.37
   0  -5   7 1205.27  140.65
   0  -5   7 1061.16  126.06
   0  -5   8   90.36   36.75
   0  -5   8  115.17   41.14
   0  -4 -12 1024.55  139.18
   0  -4 -12  889.37  141.72
   0  -4 -11  100.85   40.13
   0  -4 -11  133.21   51.34
   0  -4 -11  100.69   26.72
   0  -4 -10  -11.59    9.17
   0  -4 -10    8.12   19.03
   0  -4 -10   -4.22    6.79
   0  -4  -9   30.09   20.41
   0  -4  -9   21.85    4.02
   0  -4  -8  923.42   89.79
   0  -4  -8 1057.35   81.59
   0  -4  -8  917.05   79.37
   0  -4  -8 1132.64  112.13
   0  -4  -7  164.49   35.88
   0  -4  -7  186.48   33.26
   0  -4  -7  165.25   30.98
   0  -4  -7  194.69   39.47
   0  -4  -6 1313.50  108.44
   0  -4  -6 1476.88  109.76
   0  -4  -6 1296.18   96.57
   0  -4  -6 1257.92   97.90
   0  -4  -5   84.73   21.96
   0  -4  -5   69.75   19.81
   0  -4  -5   88.00   22.49
   0  -4  -5   55.96   19.06
   0  -4  -4  278.96   38.67
   0  -4  -4  278.35   35.22
   0  -4  -4  253.94   38.33
   0  -4  -4  240.35   40.11
   0  -4  -3  548.13   52.46
   0  -4  -3  553.29   51.83
   0  -4  -3  567.96   57.95
   0  -4  -2 5351.14  195.78
   0  -4  -2 4844.96  241.67
   0  -4  -2 4910.97  178.04
   0  -4  -2 5342.71  225.24
   0  -4  -2 5349.21  223.77
   0  -4  -2 5465.83  238.65
   0  -4  -2 5483.71  221.75
   0  -4  -1   31.03    7.12
   0  -4  -1   41.55    6.29
   0  -4  -1   42.00   13.25
   0  -4  -1   34.74   11.42
   0  -4  -1   30.17   11.91
   0  -4  -1   34.10   13.78
   0  -4  -1   49.73   13.70
   0  -4   0   10.15    5.01
   0  -4   0   11.97    5.77
   0  -4   0   11.92    6.73
   0  -4   0    4.34    3.07
   0  -4   0   19.50    7.97
   0  -4   0   14.95    8.18
   0  -4   0   11.83    5.91
   0  -4   0   14.17    7.77
   0  -4   1  248.85   32.54
   0  -4   1  295.14   34.06
   0  -4   1  340.20   41.46
   0  -4   1  303.22   41.35
   0  -4   1  303.76   38.06
   0  -4   1  231.12   30.55
   0  -4   2 2426.12  101.99
   0  -4   2 2678.94  138.45
   0  -4   2 2713.99  155.99
   0  -4   2 2699.53  108.36
   0  -4   3   14.21    6.20
   0  -4   3   20.43   13.87
   0  -4   3   15.37    7.93
   0  -4   3   -0.87    3.33
   0  -4   3    7.20    6.14
   0  -4   4  536.43   45.44
   0  -4   4  526.02   69.65
   0  -4   4  429.95   44.40
   0  -4   4  422.14   61.92
   0  -4   4  356.52   39.06
   0  -4   5   14.71    8.01
   0  -4   5   40.16   22.18
   0  -4   5   25.27   17.21
   0  -4   6   -0.18    6.67
   0  -4   6   -6.04   13.61
   0  -4   6   -3.46   11.97
   0  -4   7  439.94   57.75
   0  -4   7  533.47   87.03
   0  -4   7  395.52   68.95
   0  -4   8  794.30  113.55
   0  -4   8  575.91   88.78
   0  -4   9  101.81   38.33
   0  -3 -12   58.36   38.76
   0  -3 -11 1273.10  160.16
   0  -3 -11 1336.26  154.25
   0  -3 -10   39.89   25.13
   0  -3 -10   27.01   18.07
   0  -3 -10   43.71   14.33
   0  -3  -9   78.73   28.30
   0  -3  -9   92.44   23.17
   0  -3  -8   62.36   23.72
   0  -3  -8   73.37   17.87
   0  -3  -8   59.63   16.00
   0  -3  -7 1006.01   76.88
   0  -3  -7  976.75   73.40
   0  -3  -6  177.50   33.40
   0  -3  -6  263.96   43.97
   0  -3  -6  195.29   29.72
   0  -3  -6  245.15   35.27
   0  -3  -6  284.72   36.12
   0  -3  -5 1521.12  105.59
   0  -3  -5 1384.75   91.05
   0  -3  -5 1625.30  111.79
   0  -3  -5 1333.55   94.19
   0  -3  -5 1600.34  106.52
   0  -3  -4 1839.81  119.08
   0  -3  -4 1873.50  109.02
   0  -3  -4 1784.10  113.22
   0  -3  -4 2061.26  113.26
   0  -3  -4 2094.40  115.30
   0  -3  -3 1342.14   73.26
   0  -3  -3 1251.38   91.86
   0  -3  -3 1313.71   75.38
   0  -3  -3 1119.52   85.30
   0  -3  -3 1263.75   82.92
   0  -3  -3 1445.57   83.72
   0  -3  -2  727.76   54.35
   0  -3  -2  801.37   54.66
   0  -3  -2  734.47   44.06
   0  -3  -1 3171.39  139.47
   0  -3  -1 3030.96  136.15
   0  -3  -1 3004.32  111.66
   0  -3  -1 2796.87  112.41
   0  -3  -1 2847.48  148.78
   0  -3  -1 3224.20  135.97
   0  -3   0 2986.43  136.35
   0  -3   0 3301.76  154.19
   0  -3   0 3629.37  155.75
   0  -3   0 3481.09  153.29
   0  -3   0 3460.21  145.71
   0  -3   0 3331.89  145.41
   0  -3   0 3406.51  149.77
   0  -3   1   22.06    5.30
   0  -3   1    6.35    0.81
   0  -3   1   17.67    9.29
   0  -3   1   14.67    5.67
   0  -3   1   15.65    7.15
   0  -3   1   17.36    7.44
   0  -3   1   18.46    7.92
   0  -3   1   20.46    8.37
   0  -3   1   20.35    6.71
   0  -3   2 1146.55   58.86
   0  -3   2  980.31   76.30
   0  -3   2 1273.90   87.01
   0  -3   2 1340.23   78.29
   0  -3   2 1365.47   93.18
   0  -3   2 1013.99   65.32
   0  -3   3   77.97   14.28
   0  -3   3   76.00   15.79
   0  -3   3   84.42   23.30
   0  -3   3   42.65   10.65
   0  -3   3   68.92   20.75
   0  -3   4  346.95   36.56
   0  -3   4  321.54   32.89
   0  -3   4  372.63   54.71
   0  -3   4  350.61   51.42
   0  -3   4  268.94   29.92
   0  -3   5   55.40   16.00
   0  -3   5   50.78   22.28
   0  -3   5   50.25   11.45
   0  -3   5   42.61   20.22
   0  -3   6 1429.10  101.16
   0  -3   6 1455.66  132.29
   0  -3   6 1169.95  113.39
   0  -3   7  129.19   30.94
   0  -3   7  112.46   35.11
   0  -3   7   98.29   31.00
   0  -3   8  270.72   47.98
   0  -3   8  303.21   66.16
   0  -3   8  208.44   50.07
   0  -3   9  162.67   40.80
   0  -3   9  166.47   50.52
   0  -3   9  158.15   44.24
   0  -3  10  600.66   90.83
   0  -2 -12  578.92  110.02
   0  -2 -11   28.60   12.93
   0  -2 -10   43.18   18.96
   0  -2  -9 1099.45   77.88
   0  -2  -9 1144.17  125.52
   0  -2  -9 1004.61  125.32
   0  -2  -8  -13.07   17.77
   0  -2  -8   12.87    5.14
   0  -2  -8   -0.54    4.77
   0  -2  -7  438.66   47.86
   0  -2  -7  379.50   63.52
   0  -2  -7  543.89   71.93
   0  -2  -7  498.76   37.79
   0  -2  -6   17.16    8.87
   0  -2  -6   23.27   13.82
   0  -2  -6   12.54    5.82
   0  -2  -6    9.66    6.44
   0  -2  -6   27.58   11.71
   0  -2  -5  800.19   65.00
   0  -2  -5 1005.92   82.21
   0  -2  -5  752.55   53.08
   0  -2  -5  669.21   55.91
   0  -2  -5  988.74   87.81
   0  -2  -5 1092.22   69.70
   0  -2  -4  894.56   67.26
   0  -2  -4  823.89   56.15
   0  -2  -4 1018.63   77.55
   0  -2  -4  807.73   62.32
   0  -2  -4 1020.65   73.94
   0  -2  -3 8011.29  322.46
   0  -2  -3 7613.20  306.10
   0  -2  -3 7686.25  316.11
   0  -2  -3 8027.40  312.63
   0  -2  -3 8565.25  315.56
   0  -2  -2   60.39   10.36
   0  -2  -2   27.99   10.86
   0  -2  -2   71.09   12.83
   0  -2  -2   67.69   11.44
   0  -2  -2   58.04   13.66
   0  -2  -1  104.48   15.24
   0  -2  -1  112.46   15.13
   0  -2  -1   96.53   17.11
   0  -2  -1  108.36   10.52
   0  -2  -1  107.81   14.67
   0  -2   0  431.59   35.87
   0  -2   0  510.46   37.31
   0  -2   0  477.04   32.70
   0  -2   0  435.64   33.37
   0  -2   1 8230.42  292.94
   0  -2   1 8594.61  309.51
   0  -2   1 8486.82  312.37
   0  -2   1 8135.96  305.87
   0  -2   1 7637.11  293.09
   0  -2   2  123.02   15.13
   0  -2   2  146.66   23.74
   0  -2   2  116.68   16.73
   0  -2   2  124.77   23.05
   0  -2   2  111.98   15.05
   0  -2   2  143.56   23.73
   0  -2   2  119.27   20.80
   0  -2   3  686.30   47.74
   0  -2   3  776.81   65.23
   0  -2   3  652.13   43.04
   0  -2   3  668.56   58.81
   0  -2   3  702.69   62.27
   0  -2   3  564.50   40.22
   0  -2   4   75.15   16.81
   0  -2   4   68.42   11.23
   0  -2   5  543.92   52.73
   0  -2   5  567.89   34.29
   0  -2   5  660.41   75.51
   0  -2   5  614.18   68.01
   0  -2   6  157.92   29.87
   0  -2   6  144.11   36.16
   0  -2   6  129.85   32.33
   0  -2   7 1067.65   91.87
   0  -2   7 1202.74  119.56
   0  -2   7  939.72   96.76
   0  -2   8   75.87   23.14
   0  -2   8   86.29   34.67
   0  -2   8   54.61   20.38
   0  -2   9  105.99   29.88
   0  -2   9   58.61   22.85
   0  -2   9   69.19   25.28
   0  -2  10  628.75   86.43
   0  -2  10  851.79  120.85
   0  -2  10  660.07   90.35
   0  -2  11  507.54   80.70
   0  -2  11  466.21   77.30
   0  -1 -12  938.41  142.92
   0  -1 -11  127.41   47.27
   0  -1 -10  617.30   99.82
   0  -1  -9  -15.00   20.72
   0  -1  -9    7.39    4.81
   0  -1  -8 1700.26  153.25
   0  -1  -8 1850.51   93.40
   0  -1  -7   -6.34    3.64
   0  -1  -7    0.58    2.84
   0  -1  -6  189.57   39.53
   0  -1  -6  233.58   42.50
   0  -1  -6  205.80   26.20
   0  -1  -6  279.84   41.99
   0  -1  -5  319.76   32.73
   0  -1  -5  313.17   48.27
   0  -1  -5  349.10   47.64
   0  -1  -5  285.95   46.17
   0  -1  -5  306.69   19.88
   0  -1  -5  388.73   44.62
   0  -1  -4 1432.00   80.36
   0  -1  -4 1691.63  103.49
   0  -1  -4 1537.36  105.27
   0  -1  -4 1415.84   66.14
   0  -1  -3  219.63   23.93
   0  -1  -3  277.96   31.53
   0  -1  -3  226.27   30.92
   0  -1  -3  196.98   18.03
   0  -1  -3  253.33   25.03
   0  -1  -2 2285.01   97.87
   0  -1  -2 2396.51  102.72
   0  -1  -2 2258.49  104.28
   0  -1  -2 2125.62   98.25
   0  -1  -2 2166.21   93.11
   0  -1  -1 2148.43   82.59
   0  -1  -1 2322.21   86.42
   0  -1  -1 2133.17   83.34
   0  -1   0  430.50   27.33
   0  -1   0  435.73   26.68
   0  -1   0  460.59   24.69
   0  -1   0  449.41   25.66
   0  -1   1 1287.99   62.98
   0  -1   1 1187.43   48.34
   0  -1   1 1177.94   52.21
   0  -1   1 1200.79   60.08
   0  -1   2 1406.91   67.45
   0  -1   2 1401.80   76.51
   0  -1   2 1495.59   80.36
   0  -1   2 1330.11   61.35
   0  -1   3 2281.22  105.73
   0  -1   3 2071.01   85.61
   0  -1   3 2217.13  117.50
   0  -1   4   33.92   10.72
   0  -1   4   38.03   15.92
   0  -1   4   25.14    3.97
   0  -1   5 1669.14  101.28
   0  -1   6   34.11   13.69
   0  -1   6   55.49   20.84
   0  -1   6   30.23   13.16
   0  -1   7  115.31   27.61
   0  -1   7  164.24   40.82
   0  -1   7  111.59   27.80
   0  -1   8   77.49   23.44
   0  -1   8   64.44   24.58
   0  -1   8   90.11   26.51
   0  -1   9 1222.02  111.80
   0  -1   9 1127.70  108.97
   0  -1  10   46.50   20.71
   0  -1  10   44.25   16.04
   0  -1  10   52.95   22.71
   0  -1  11  752.55   98.00
   0  -1  11  904.50  125.32
   0  -1  11  776.75   96.86
   0  -1  12  186.26   48.57
   0  -1  12  158.54   44.61
   0   0 -11  150.69   51.89
   0   0 -10 1208.82  144.31
   0   0  -9  428.23   78.03
   0   0  -8  -10.33   15.72
   0   0  -8   12.83    7.80
   0   0  -7   62.31   25.93
   0   0  -7  101.99   18.46
   0   0  -6 1368.67  114.95
   0   0  -6 1321.54   62.50
   0   0  -5   12.55    8.80
   0   0  -5   30.52    6.47
   0   0  -4 3103.32  128.65
   0   0  -4 3561.39  177.28
   0   0  -4 3596.05  179.30
   0   0  -3   24.88    5.23
   0   0  -3   27.05   10.63
   0   0  -3   30.45   10.33
   0   0  -3   36.33   11.33
   0   0  -2  447.94   36.33
   0   0  -2  455.95   36.18
   0   0  -2  372.88   34.11
   0   0  -2  410.90   32.36
   0   0  -1 1451.71   61.50
   0   0  -1 1491.67   62.74
   0   0  -1 1354.08   58.18
   0   0   1 1419.93   57.54
   0   0   1 1397.43   59.19
   0   0   2  399.69   28.68
   0   0   2  384.74   29.91
   0   0   3   27.77    8.35
   0   0   3   13.64    6.73
   0   0   3   29.88    8.73
   0   0   4 3582.34  161.78
   0   0   4 3918.80  183.28
   0   0   4 3411.41  162.17
   0   0   5   27.54   10.20
   0   0   5   33.82   11.91
   0   0   6 1326.62   95.17
   0   0   6 1526.66  118.21
   0   0   7   46.76   16.35
   0   0   7   71.50   22.62
   0   0   7   78.19   20.42
   0   0   8    4.70    9.59
   0   0   8   -8.34    8.18
   0   0   8    7.34    7.77
   0   0   9  418.29   62.64
   0   0   9  545.73   82.72
   0   0   9  512.50   64.58
   0   0  10  971.71  102.33
   0   0  10 1179.72  130.94
   0   0  10 1017.08   99.54
   0   0  11   89.05   31.48
   0   0  11  152.10   48.90
   0   0  12   65.10   33.78
   0   1 -11  900.70  132.10
   0   1 -10   62.15   27.22
   0   1  -9 1218.32  136.25
   0   1  -8   60.90   27.01
   0   1  -8  134.04   21.46
   0   1  -7  136.37   37.94
   0   1  -7  158.68   22.69
   0   1  -6   23.99   13.69
   0   1  -6   51.42   11.85
   0   1  -5 1764.61  128.04
   0   1  -5 1960.04   92.80
   0   1  -4   39.65   13.93
   0   1  -4   34.12   13.40
   0   1  -4   37.03    8.11
   0   1  -4   48.73   14.95
   0   1  -3 2605.29  132.92
   0   1  -3 2492.99  135.14
   0   1  -3 2460.51  102.62
   0   1  -3 2450.42  127.22
   0   1  -2 1565.48   84.42
   0   1  -2 1503.70   86.92
   0   1  -2 1562.06   66.91
   0   1  -1 1125.56   51.99
   0   1  -1 1324.26   63.32
   0   1  -1 1229.56   63.89
   0   1  -1 1267.93   52.93
   0   1   0  424.05   28.48
   0   1   0  468.69   25.26
   0   1   0  510.31   28.35
   0   1   1 2200.96   95.54
   0   1   1 2339.96   85.17
   0   1   1 2047.68   91.57
   0   1   2 2847.28  110.15
   0   1   2 2643.39  113.12
   0   1   3  254.79   26.90
   0   1   3  269.90   27.57
   0   1   3  259.41   30.74
   0   1   4 1607.32   91.86
   0   1   4 1701.72  103.08
   0   1   5  327.81   38.72
   0   1   5  369.20   47.77
   0   1   5  337.45   35.56
   0   1   6  245.55   36.13
   0   1   6  268.73   43.54
   0   1   6  237.07   32.52
   0   1   7    8.45    6.83
   0   1   7   19.35    7.15
   0   1   7   17.96   10.33
   0   1   8 1845.41  129.90
   0   1   8 1971.97  151.26
   0   1   9   12.43    9.02
   0   1   9   12.82    6.36
   0   1  10  590.33   76.62
   0   1  10  765.10  100.12
   0   1  11  163.59   42.02
   0   1  11  205.18   54.81
   0   1  12  874.74  107.86
   0   1  12 1078.24  133.66
   0   2 -10  766.91  116.36
   0   2  -9  105.01   37.22
   0   2  -8   65.58   22.14
   0   2  -7 1012.34  110.92
   0   2  -7 1293.81   73.01
   0   2  -6  139.69   36.51
   0   2  -6  194.70   23.70
   0   2  -5  651.38   72.74
   0   2  -5  713.81   48.34
   0   2  -4   65.20   20.40
   0   2  -4   91.13   14.93
   0   2  -3  602.33   36.88
   0   2  -3  637.84   59.41
   0   2  -3  672.03   64.10
   0   2  -3  719.17   44.15
   0   2  -2  105.79   15.07
   0   2  -2  146.33   23.82
   0   2  -2  115.54   22.04
   0   2  -2  125.78   15.36
   0   2  -1 7978.98  313.31
   0   2  -1 9385.01  325.41
   0   2   0  450.03   38.19
   0   2   0  547.52   38.72
   0   2   1  123.55   10.75
   0   2   1  116.44   18.89
   0   2   1   79.42   15.53
   0   2   1  126.14   15.82
   0   2   1  115.12   16.34
   0   2   2   81.04   16.25
   0   2   2   92.56   12.44
   0   2   2   68.20   14.18
   0   2   2   80.04   13.25
   0   2   3 8190.94  295.79
   0   2   3 9999.00  337.33
   0   2   3 9512.42  317.06
   0   2   3 8787.64  316.21
   0   2   3 9037.32  321.77
   0   2   4  950.46   53.89
   0   2   4 1149.50   74.78
   0   2   4 1101.08   66.65
   0   2   4  978.42   67.59
   0   2   5  818.26   59.41
   0   2   5 1031.02   75.03
   0   2   5  953.58   70.22
   0   2   5 1099.63   80.12
   0   2   6    2.70    3.75
   0   2   6   14.81    9.00
   0   2   6   12.58   10.33
   0   2   7  475.66   55.81
   0   2   7  603.77   69.50
   0   2   8   -0.82    1.17
   0   2   8    7.06    9.81
   0   2   9 1042.62   99.00
   0   2   9 1351.21  122.47
   0   2  10   57.56   21.36
   0   2  10   54.71   26.62
   0   2  11   49.16   22.02
   0   2  11   82.24   35.23
   0   2  12  547.38   83.97
   0   2  12  758.87  107.03
   0   3  -9  164.87   51.15
   0   3  -8  381.98   69.95
   0   3  -8  392.09   73.66
   0   3  -7   98.38   36.98
   0   3  -6 1311.42  122.01
   0   3  -5   59.81   21.84
   0   3  -4  326.37   48.47
   0   3  -4  304.72   25.16
   0   3  -3   58.83   16.51
   0   3  -3   59.78   12.62
   0   3  -2 1343.23   89.92
   0   3  -2 1176.48   74.16
   0   3  -1   12.54    8.87
   0   3  -1   15.33    6.79
   0   3   0 3857.53  168.49
   0   3   0 3549.34  170.74
   0   3   1 3493.85  164.43
   0   3   1 3530.72  153.24
   0   3   1 3742.79  151.31
   0   3   1 3437.16  139.81
   0   3   1 2966.88  159.88
   0   3   1 3167.03  121.49
   0   3   2  864.78   68.76
   0   3   2  789.00   45.78
   0   3   2  924.52   58.71
   0   3   2  746.63   62.02
   0   3   2  856.37   56.03
   0   3   3 1596.70  100.25
   0   3   3 1490.20   79.51
   0   3   3 1365.38   90.25
   0   3   3 1530.27   86.66
   0   3   4 2178.76  111.99
   0   3   4 1969.73   87.03
   0   3   4 2226.15  113.75
   0   3   4 2208.71  120.85
   0   3   4 2226.30  119.95
   0   3   5 1394.99   76.85
   0   3   5 1682.27   99.89
   0   3   5 1662.19  100.99
   0   3   6  204.09   26.63
   0   3   6  280.88   41.61
   0   3   6  245.87   36.19
   0   3   7 1168.65   90.83
   0   3   7 1349.04  101.86
   0   3   8   83.36   24.01
   0   3   8   88.92   27.72
   0   3   9  149.45   34.75
   0   3   9  176.78   43.01
   0   3  10   65.91   26.44
   0   3  10   99.76   32.80
   0   3  11 1287.40  125.49
   0   3  11 1648.91  148.17
   0   3  12   28.12   10.24
   0   3  12   58.38   27.28
   0   3  13  839.15  113.98
   0   4  -9   92.77   39.69
   0   4  -8  862.38  115.68
   0   4  -8  782.53  113.02
   0   4  -7  643.53   96.76
   0   4  -7  378.99   71.16
   0   4  -6   10.00   13.11
   0   4  -6    1.07    3.93
   0   4  -5   23.06    3.91
   0   4  -5    9.67    5.68
   0   4  -4  522.95   67.58
   0   4  -3   14.45    9.14
   0   4  -3    2.17    1.78
   0   4  -2 2840.01  159.25
   0   4  -2 2881.08  151.82
   0   4  -1  316.48   40.89
   0   4  -1  362.67   54.88
   0   4  -1  286.89   40.48
   0   4   0   34.27   13.55
   0   4   0   15.34    7.80
   0   4   1   37.62    5.85
   0   4   1   35.04   13.93
   0   4   1   43.25   12.44
   0   4   1   51.88   12.76
   0   4   2 6740.03  279.30
   0   4   2 6743.34  253.11
   0   4   2 6332.83  259.23
   0   4   2 5542.39  230.84
   0   4   2 5780.18  267.12
   0   4   2 5646.79  218.24
   0   4   3  689.32   68.03
   0   4   3  581.72   44.13
   0   4   3  654.10   55.06
   0   4   3  596.96   60.20
   0   4   3  672.27   54.91
   0   4   4  303.56   44.83
   0   4   4  222.09   28.98
   0   4   4  246.57   37.72
   0   4   5   76.72   10.41
   0   4   5   86.75   20.07
   0   4   5  112.04   24.36
   0   4   6 1235.60   70.14
   0   4   6 1571.33  102.17
   0   4   6 1534.68  101.64
   0   4   7  229.91   38.40
   0   4   7  154.24   23.06
   0   4   7  179.51   33.73
   0   4   8 1025.71   91.79
   0   4   8  789.26   63.74
   0   4   8 1107.67   94.99
   0   4   9   11.69   11.10
   0   4   9    1.82    6.45
   0   4  10   17.02   16.51
   0   4  10    3.46   10.39
   0   4  11   94.17   30.86
   0   4  11  157.08   41.40
   0   4  12  867.12  104.43
   0   4  12 1134.49  123.42
   0   4  13  110.36   39.01
   0   5  -8  163.59   55.93
   0   5  -8   70.53   35.84
   0   5  -7 1490.45  165.31
   0   5  -7 1108.55  133.13
   0   5  -6  505.24   92.42
   0   5  -6  321.19   64.77
   0   5  -5   46.76   26.61
   0   5  -5    4.71   10.15
   0   5  -4  -24.63   22.44
   0   5  -4   -0.08    5.51
   0   5  -3  973.11   76.91
   0   5  -3 1112.84  105.22
   0   5  -2   56.27   18.02
   0   5  -2   45.55   14.79
   0   5  -2   81.46   28.17
   0   5  -2   70.75   21.87
   0   5  -1 1594.10  115.62
   0   5  -1 1812.93  126.88
   0   5  -1 1942.45  149.54
   0   5  -1 1878.40  119.68
   0   5   0  939.52   84.01
   0   5   0 1050.48  101.88
   0   5   0 1061.09   81.83
   0   5   1  593.28   62.17
   0   5   1  736.22   79.89
   0   5   1  561.52   57.07
   0   5   2  168.04   30.51
   0   5   2  162.15   25.13
   0   5   2  174.88   35.36
   0   5   2  197.06   30.66
   0   5   2  159.25   16.73
   0   5   3 2743.85  125.80
   0   5   3 3190.56  154.91
   0   5   4 2553.31  131.23
   0   5   4 3044.60  153.95
   0   5   5  614.73   58.19
   0   5   5  766.90   68.78
   0   5   6  431.70   27.01
   0   5   6  535.73   57.21
   0   5   6  624.21   66.24
   0   5   7  421.01   34.77
   0   5   7  462.25   57.08
   0   5   8   42.37   11.68
   0   5   8   68.49   22.18
   0   5   8   67.20   22.04
   0   5   9  -14.47   14.12
   0   5   9   -5.52    6.98
   0   5  10  841.76   93.07
   0   5  10  833.88   93.48
   0   5  11   24.35   16.73
   0   5  11   24.92   12.29
   0   5  12  531.53   81.29
   0   5  12  602.40   86.68
   0   5  13  202.01   50.59
   0   6  -7  182.60   55.79
   0   6  -7  209.11   66.64
   0   6  -6   76.92   36.98
   0   6  -6   67.63   36.19
   0   6  -5  512.28   85.24
   0   6  -5  858.20  128.65
   0   6  -4  150.73   41.17
   0   6  -4  223.06   61.45
   0   6  -3  270.13   54.85
   0   6  -3  402.58   80.29
   0   6  -2   83.74   29.02
   0   6  -2   89.39   33.53
   0   6  -2   58.91   20.90
   0   6  -1   50.93   20.65
   0   6  -1   73.88   29.10
   0   6  -1   81.77   22.64
   0   6   0   16.25   11.16
   0   6   0    4.89    2.69
   0   6   1 3884.83  219.93
   0   6   1 4320.52  249.00
   0   6   1 4379.07  214.42
   0   6   2 1289.06  102.94
   0   6   2 1224.68   86.15
   0   6   2 1308.22  115.43
   0   6   2 1316.38   96.38
   0   6   2 1093.48   55.18
   0   6   3   39.82   10.13
   0   6   3   35.70   11.63
   0   6   3   33.28   16.77
   0   6   3   51.99   16.59
   0   6   4   55.81   13.46
   0   6   4   49.86   20.11
   0   6   4   50.87   16.40
   0   6   5 2717.95  146.57
   0   6   5 2883.26  178.38
   0   6   5 3127.19  170.60
   0   6   6  520.95   58.08
   0   6   6  590.32   71.42
   0   6   6  536.09   63.81
   0   6   7  755.70   77.82
   0   6   7  947.57   90.81
   0   6   7  858.05   85.22
   0   6   8    6.45    4.46
   0   6   8   22.57   15.26
   0   6   9  198.80   42.52
   0   6  10    7.08    5.99
   0   6  10   14.31   13.89
   0   6  11 1120.85  116.01
   0   6  11 1156.74  116.65
   0   6  12  114.40   38.14
   0   6  12  149.32   41.52
   0   6  13   41.37   22.26
   0   7  -6  105.67   41.93
   0   7  -6  175.67   65.78
   0   7  -5  164.50   49.33
   0   7  -5  239.44   72.83
   0   7  -4  735.31  103.78
   0   7  -4 1129.51  156.56
   0   7  -3  386.04   70.76
   0   7  -3  575.42  104.86
   0   7  -2  411.42   70.01
   0   7  -2  595.66   99.82
   0   7  -2  385.00   62.01
   0   7  -1  248.72   52.03
   0   7  -1  286.70   67.13
   0   7  -1  283.64   50.88
   0   7   0  642.43   82.74
   0   7   0  735.19  102.56
   0   7   0  707.50   79.73
   0   7   1   26.79   16.77
   0   7   1   32.14   19.54
   0   7   1   51.17   22.19
   0   7   2 2128.87  153.18
   0   7   2 2053.83  166.02
   0   7   2 2096.78  141.37
   0   7   3 1549.14  105.35
   0   7   3 1518.96  134.96
   0   7   3 1669.92  118.62
   0   7   3 1401.62   73.76
   0   7   4  367.76   46.34
   0   7   4  388.73   62.70
   0   7   4  384.56   37.66
   0   7   4  442.39   56.88
   0   7   5   39.19   12.81
   0   7   5   50.74   24.47
   0   7   5   49.66   20.29
   0   7   6  715.55   69.19
   0   7   6  735.20   87.66
   0   7   6  867.18   85.77
   0   7   7  510.38   62.25
   0   7   7  520.57   72.07
   0   7   7  536.95   69.33
   0   7   8   40.12   17.07
   0   7   8   47.08   21.68
   0   7   9  376.02   61.33
   0   7   9  355.58   59.25
   0   7  10  107.52   33.16
   0   7  11   47.33   19.33
   0   7  12  114.63   36.60
   0   8  -4   18.08   16.08
   0   8  -4  -25.14   22.00
   0   8  -3   89.64   37.08
   0   8  -3  116.11   49.82
   0   8  -2  287.34   63.06
   0   8  -2  450.86   92.57
   0   8  -2  315.68   59.27
   0   8  -1   12.35    4.96
   0   8  -1   -2.36   10.34
   0   8   0 1100.36  123.16
   0   8   0 1183.91  145.13
   0   8   0 1287.23  118.84
   0   8   1  630.24   89.10
   0   8   1  716.05  105.36
   0   8   1  700.91   83.17
   0   8   2   11.86    3.71
   0   8   2   22.57    8.80
   0   8   2    0.64    6.50
   0   8   3   -3.27   10.38
   0   8   3   -5.09    8.76
   0   8   3   13.53   13.69
   0   8   4 2147.01  173.65
   0   8   4 2211.79  137.70
   0   8   4 2518.66  161.59
   0   8   4 2009.89  104.76
   0   8   5 1166.87   93.43
   0   8   5 1179.47  122.32
   0   8   5 1142.93   79.61
   0   8   5 1366.34  114.95
   0   8   6  144.22   28.84
   0   8   6  156.71   42.37
   0   8   6  152.94   36.30
   0   8   7   92.39   25.62
   0   8   7  118.32   36.03
   0   8   7  130.82   36.33
   0   8   8  897.32   93.91
   0   8   8 1065.94  111.84
   0   8   8 1186.42  115.77
   0   8   9  415.35   65.68
   0   8   9  494.41   75.61
   0   8  10  468.42   74.02
   0   8  10  610.15   86.62
   0   8  11   78.65   29.87
   0   8  11   59.41   26.26
   0   8  12    5.01   12.16
   0   8  12    5.05   10.04
   0   9  -3  -14.01   18.34
   0   9  -2   34.33   20.24
   0   9  -2   17.31   12.67
   0   9  -1  234.69   61.84
   0   9  -1  248.80   75.39
   0   9  -1  203.06   48.09
   0   9   0  288.48   66.96
   0   9   0  251.88   71.49
   0   9   0  274.03   56.79
   0   9   1  601.69   94.22
   0   9   1  745.91  116.30
   0   9   1  862.93   99.15
   0   9   2  444.17   77.31
   0   9   2  515.23   92.11
   0   9   2  542.32   75.95
   0   9   3  218.82   57.73
   0   9   3  262.35   52.31
   0   9   4   -4.00    7.60
   0   9   4  -19.13   20.93
   0   9   4    6.62    7.07
   0   9   5 1012.44   92.68
   0   9   5 1123.03  127.08
   0   9   5 1298.67  119.10
   0   9   6 1103.78   96.83
   0   9   6  985.92  119.14
   0   9   6 1223.08  117.26
   0   9   7  115.16   27.05
   0   9   7   99.01   26.17
   0   9   7  168.81   46.34
   0   9   7  138.41   39.25
   0   9   8   45.91   19.22
   0   9   8   49.25   18.64
   0   9   8   98.56   34.15
   0   9   9  179.01   42.80
   0   9   9  266.58   56.43
   0   9  10   12.22    9.33
   0   9  10   13.61   11.71
   0   9  11   62.68   28.11
   0   9  11   24.02   14.93
   0   9  12  333.27   67.43
   0  10   0  278.14   71.29
   0  10   1  118.86   46.49
   0  10   1  171.76   58.09
   0  10   1  111.54   36.41
   0  10   2   16.08   21.33
   0  10   2   -2.63   21.20
   0  10   2  -12.48   12.06
   0  10   3 1451.56  166.01
   0  10   3 1478.31  140.29
   0  10   4 1044.51  135.75
   0  10   4 1133.89  120.14
   0  10   5    4.98    6.39
   0  10   5   20.32   17.95
   0  10   6    5.75    5.24
   0  10   6   37.71   25.18
   0  10   6   23.98   16.19
   0  10   7  714.84   81.22
   0  10   7  759.31  107.16
   0  10   7  827.42  103.23
   0  10   8  632.79   79.62
   0  10   8  786.73  108.81
   0  10   8  940.91  111.31
   0  10   9  136.58   43.38
   0  10   9  136.30   42.04
   0  10  10   43.30   25.52
   0  11   5  957.96  134.69
   0  11   6  175.79   56.24
   0  11   7  -18.00   12.86
   0  11   8  278.29   67.84
   0  11   9  363.96   76.63
   1 -10  -8  950.69  127.34
   1 -10  -7  -14.84   16.08
   1 -10  -7    2.26   11.26
   1 -10  -6   23.65   15.71
   1 -10  -6   25.43   23.84
   1 -10  -5  141.04   43.66
   1 -10  -5  230.74   63.11
   1 -10  -4  551.50   88.58
   1 -10  -3  249.57   58.46
   1 -10  -3  220.59   56.73
   1 -10  -2  113.98   40.41
   1 -10  -2  149.31   46.52
   1 -10  -1   24.93   24.42
   1  -9 -11  289.78   68.73
   1  -9 -10  338.87   74.90
   1  -9 -10  370.53   76.63
   1  -9  -9  321.66   71.49
   1  -9  -9  316.43   71.01
   1  -9  -8  554.94   94.50
   1  -9  -8  686.15  100.98
   1  -9  -7  982.94  126.52
   1  -9  -7 1036.01  121.78
   1  -9  -6  207.16   51.90
   1  -9  -6  174.95   53.50
   1  -9  -5   -5.67   20.33
   1  -9  -5   -5.28    5.10
   1  -9  -4  152.37   41.94
   1  -9  -4  286.56   64.17
   1  -9  -3   97.19   31.67
   1  -9  -2  -10.10    8.79
   1  -9  -2  -11.37   12.81
   1  -9  -1  320.01   66.39
   1  -9  -1  292.61   63.13
   1  -9   0  370.16   73.01
   1  -9   0  364.63   71.79
   1  -9   1   60.80   32.24
   1  -9   1   58.17   27.42
   1  -8 -12  129.03   43.94
   1  -8 -11   47.42   28.53
   1  -8 -11   81.18   34.54
   1  -8 -10  510.61   87.25
   1  -8 -10  619.12   99.54
   1  -8  -9  946.69  118.57
   1  -8  -9  998.89  123.26
   1  -8  -8  -11.63   14.41
   1  -8  -8   -6.78   17.93
   1  -8  -7   17.84   10.97
   1  -8  -7    7.29    7.62
   1  -8  -6  389.01   73.69
   1  -8  -6  457.62   73.37
   1  -8  -5 1485.09  148.59
   1  -8  -5 1435.53  130.99
   1  -8  -4  120.53   34.50
   1  -8  -4  139.90   40.63
   1  -8  -3  135.00   39.07
   1  -8  -3   69.60   25.67
   1  -8  -2   -7.26   13.27
   1  -8  -1  315.58   60.00
   1  -8  -1  330.55   63.12
   1  -8   0  433.61   73.78
   1  -8   0  503.69   80.84
   1  -8   1  743.45   99.68
   1  -8   1  769.02  105.15
   1  -8   2   59.41   30.86
   1  -8   2   47.21   26.86
   1  -8   2   31.84   19.32
   1  -8   3   57.79   28.59
   1  -8   3   80.28   34.68
   1  -8   3   58.29   34.34
   1  -7 -12  124.61   49.72
   1  -7 -12   41.60   23.15
   1  -7 -11  148.54   43.38
   1  -7 -11  237.41   60.74
   1  -7 -10  542.77   84.28
   1  -7 -10  573.13   91.99
   1  -7  -9  564.26   85.71
   1  -7  -9  607.38   89.07
   1  -7  -8 1121.65  123.70
   1  -7  -8 1221.62  124.94
   1  -7  -7  288.47   54.94
   1  -7  -7  279.80   59.78
   1  -7  -6  277.16   52.38
   1  -7  -6  221.88   52.64
   1  -7  -5  319.29   54.18
   1  -7  -5  352.03   63.46
   1  -7  -4  814.93   98.32
   1  -7  -4  825.33   87.87
   1  -7  -3  103.83   33.71
   1  -7  -3   58.22   21.62
   1  -7  -2   73.22   25.85
   1  -7  -2   83.01   24.83
   1  -7  -1  219.31   43.14
   1  -7  -1  283.90   53.19
   1  -7   0   17.90    8.35
   1  -7   0    0.32    9.52
   1  -7   1  139.74   38.30
   1  -7   1  170.29   43.77
   1  -7   2  376.35   67.00
   1  -7   2  498.54   80.26
   1  -7   3  556.05   83.93
   1  -7   3  745.62  103.99
   1  -7   3  637.71   96.51
   1  -7   4  199.42   56.50
   1  -7   4  222.24   58.69
   1  -7   5  454.65   88.87
   1  -6 -12   80.95   35.65
   1  -6 -12   37.31   19.35
   1  -6 -11  265.29   65.75
   1  -6 -11  139.08   39.28
   1  -6 -10  661.70   86.55
   1  -6 -10  828.00  109.97
   1  -6  -9  132.07   38.86
   1  -6  -9  141.24   41.61
   1  -6  -8   -2.17    9.37
   1  -6  -8   -4.74   11.01
   1  -6  -7 1377.26  129.82
   1  -6  -7 1529.54  129.62
   1  -6  -6 3287.30  217.87
   1  -6  -6 3879.45  218.48
   1  -6  -5    2.54    9.62
   1  -6  -5   34.89   21.41
   1  -6  -4   35.03   15.02
   1  -6  -4   60.72   23.44
   1  -6  -3  119.52   12.45
   1  -6  -3   84.13   25.23
   1  -6  -3  129.09   34.27
   1  -6  -2 1606.68  124.13
   1  -6  -2 1473.29   76.61
   1  -6  -2 1463.01  113.65
   1  -6  -1  373.06   53.18
   1  -6  -1  347.36   35.68
   1  -6  -1  359.66   53.48
   1  -6   0  821.76   86.80
   1  -6   0 1074.71  102.61
   1  -6   1   23.40    9.42
   1  -6   1   57.99   24.36
   1  -6   2   -5.71   11.49
   1  -6   2  -12.16   16.99
   1  -6   3  850.69  107.26
   1  -6   3  885.41  106.93
   1  -6   4 1598.41  154.39
   1  -6   4 1404.09  143.14
   1  -6   5   24.41   22.06
   1  -6   5   -7.44   10.96
   1  -6   6  128.51   46.82
   1  -6   6  189.42   53.90
   1  -5 -12   83.30   42.98
   1  -5 -12   73.50   39.65
   1  -5 -11  650.09   79.52
   1  -5 -11  977.84  126.09
   1  -5 -10  410.03   62.44
   1  -5 -10  480.99   81.80
   1  -5  -9  939.17   99.30
   1  -5  -9 1122.26  118.31
   1  -5  -8  311.86   55.40
   1  -5  -8  272.43   50.97
   1  -5  -7  682.99   83.05
   1  -5  -7  825.32   87.03
   1  -5  -6  393.59   60.11
   1  -5  -6  444.95   59.53
   1  -5  -5 1850.30  141.05
   1  -5  -5 2072.67  136.33
   1  -5  -4  187.20   34.29
   1  -5  -4  181.79   39.74
   1  -5  -3   10.96    3.11
   1  -5  -3   15.91    6.43
   1  -5  -3    8.95    4.31
   1  -5  -2  338.35   49.51
   1  -5  -2  313.38   25.99
   1  -5  -2  326.01   44.93
   1  -5  -1  386.96   50.01
   1  -5  -1  361.92   33.18
   1  -5  -1  397.20   50.29
   1  -5   0    7.03    4.61
   1  -5   0   13.88   11.56
   1  -5   0   14.19    7.93
   1  -5   0   -6.00    9.08
   1  -5   1  483.91   60.63
   1  -5   1  513.11   65.24
   1  -5   2  857.24   92.35
   1  -5   3   40.72   16.91
   1  -5   3   84.94   27.64
   1  -5   4  555.97   81.56
   1  -5   4  445.97   71.02
   1  -5   5  641.22   94.22
   1  -5   5  502.16   79.92
   1  -5   6  739.61  106.66
   1  -5   6  726.04  101.17
   1  -5   7  104.83   41.22
   1  -5   7  127.89   40.73
   1  -5   8  736.64  108.48
   1  -4 -12  -18.02   27.18
   1  -4 -12   25.38   17.20
   1  -4 -11  306.03   47.81
   1  -4 -11  458.75   84.84
   1  -4 -11  263.21   71.25
   1  -4 -10  363.89   53.23
   1  -4 -10  414.09   74.99
   1  -4  -9   30.68   17.25
   1  -4  -9   48.85   20.29
   1  -4  -8  757.02   80.14
   1  -4  -8  871.12   95.68
   1  -4  -7 2365.96  156.99
   1  -4  -7 2648.34  169.35
   1  -4  -6  224.57   40.27
   1  -4  -6  253.92   43.94
   1  -4  -5   32.53   14.70
   1  -4  -5   24.58   13.05
   1  -4  -4  843.88   72.65
   1  -4  -3 5290.58  235.40
   1  -4  -2    2.11    1.52
   1  -4  -2   -1.67    4.53
   1  -4  -1  566.86   55.47
   1  -4  -1  449.90   34.26
   1  -4  -1  560.30   54.67
   1  -4   0   50.60   12.67
   1  -4   0   61.89   17.23
   1  -4   0   51.93   15.87
   1  -4   0   54.27   13.13
   1  -4   1  478.15   46.76
   1  -4   1  574.81   63.85
   1  -4   1  628.03   54.96
   1  -4   1  574.76   50.39
   1  -4   2  529.93   64.79
   1  -4   2  420.64   42.38
   1  -4   3 2435.78  161.47
   1  -4   3 2160.25  148.62
   1  -4   3 2379.18   96.03
   1  -4   4   52.35   12.34
   1  -4   4   39.63   18.98
   1  -4   4   29.92   10.68
   1  -4   4   66.95   25.70
   1  -4   5  122.64   22.19
   1  -4   5  182.63   45.02
   1  -4   5  128.13   36.50
   1  -4   6  721.02   97.67
   1  -4   6  508.60   78.13
   1  -4   7 1342.76  145.13
   1  -4   7 1108.56  124.32
   1  -4   8   -6.74   12.36
   1  -4   8  -18.32   11.50
   1  -4   9  164.09   48.61
   1  -3 -12  660.70  120.06
   1  -3 -12  677.06  114.20
   1  -3 -11   53.12   26.75
   1  -3 -11   74.12   41.78
   1  -3 -10  289.17   42.03
   1  -3 -10  363.39   71.06
   1  -3 -10  266.32   62.74
   1  -3  -9  158.00   43.97
   1  -3  -9   78.54   21.72
   1  -3  -8 1154.74   92.46
   1  -3  -8 1044.58   79.88
   1  -3  -7  274.77   37.58
   1  -3  -7  391.90   57.49
   1  -3  -6 3674.38  199.86
   1  -3  -5  595.15   60.66
   1  -3  -4  216.76   36.37
   1  -3  -4  258.47   34.93
   1  -3  -4  268.11   36.06
   1  -3  -3  641.03   52.19
   1  -3  -3  617.23   52.79
   1  -3  -3  510.71   52.36
   1  -3  -2 2795.54  137.26
   1  -3  -2 2774.04  132.70
   1  -3  -2 2586.14  139.22
   1  -3  -2 2580.90  100.16
   1  -3  -1  215.90   30.30
   1  -3  -1  247.03   30.60
   1  -3  -1  197.22   28.47
   1  -3  -1  193.25   18.35
   1  -3  -1  274.46   30.89
   1  -3   0  162.48   19.69
   1  -3   0  160.36   24.03
   1  -3   0  178.70   28.20
   1  -3   0  163.08   26.20
   1  -3   0  155.01   19.88
   1  -3   0  203.69   27.20
   1  -3   1  718.66   63.17
   1  -3   1  631.81   49.58
   1  -3   1  661.02   48.22
   1  -3   1  697.65   57.61
   1  -3   2   95.34   20.28
   1  -3   2  146.67   20.14
   1  -3   2  110.15   12.21
   1  -3   3  295.43   27.39
   1  -3   3  337.18   49.83
   1  -3   3  235.22   26.07
   1  -3   3  302.74   44.91
   1  -3   4  997.85   63.62
   1  -3   4  866.21   64.92
   1  -3   4  931.24   92.47
   1  -3   4  889.12   86.03
   1  -3   4  741.19   50.60
   1  -3   5 1273.06   83.06
   1  -3   5 1294.80  117.51
   1  -3   5 1006.38   71.39
   1  -3   5 1126.57  104.14
   1  -3   6   42.65   14.36
   1  -3   6   39.25   19.54
   1  -3   6   70.52   26.14
   1  -3   7  941.90   85.77
   1  -3   7 1059.41  121.65
   1  -3   7  901.91  103.28
   1  -3   8  373.07   56.51
   1  -3   8  454.09   81.62
   1  -3   8  357.74   65.40
   1  -3   9  746.26  111.73
   1  -3   9  493.28   81.15
   1  -3  10   -3.70    8.66
   1  -2 -12    3.97   21.49
   1  -2 -11  371.75   81.37
   1  -2 -10   98.53   40.60
   1  -2 -10  131.07   44.40
   1  -2  -9  143.29   44.59
   1  -2  -9  189.65   47.74
   1  -2  -8 1187.67   84.54
   1  -2  -8 1241.33   73.35
   1  -2  -8 1111.30  124.23
   1  -2  -8 1398.49  128.76
   1  -2  -7  474.86   48.91
   1  -2  -7  391.83   39.09
   1  -2  -6    6.90    8.26
   1  -2  -6   14.84    7.53
   1  -2  -6   -2.01    4.23
   1  -2  -5  773.60   64.92
   1  -2  -5  931.51   78.89
   1  -2  -5  953.55   84.39
   1  -2  -5 1021.26   72.11
   1  -2  -4 3816.09  183.96
   1  -2  -4 4270.45  196.52
   1  -2  -4 4360.61  193.41
   1  -2  -3  234.67   31.13
   1  -2  -3  280.76   31.40
   1  -2  -3  311.16   33.68
   1  -2  -2   15.67    6.36
   1  -2  -2   26.85    5.68
   1  -2  -1   64.75   13.26
   1  -2  -1   54.83   12.45
   1  -2  -1   55.34    8.15
   1  -2  -1   56.16   11.59
   1  -2   0 2189.01   95.40
   1  -2   0 1996.02  109.49
   1  -2   0 2359.82  110.67
   1  -2   0 2393.82   96.77
   1  -2   0 2356.82  106.80
   1  -2   1   93.43   18.65
   1  -2   1   88.62   15.02
   1  -2   1   94.56   17.11
   1  -2   1  104.10    8.94
   1  -2   2 1879.49   76.39
   1  -2   2 1591.04   92.51
   1  -2   2 1837.92  100.18
   1  -2   2 1456.48   74.45
   1  -2   3  271.53   26.55
   1  -2   3  186.02   18.65
   1  -2   4   -0.73    6.23
   1  -2   4    2.37    2.27
   1  -2   4    6.42    3.14
   1  -2   4    0.18    1.54
   1  -2   5  425.11   45.65
   1  -2   5  393.58   35.07
   1  -2   5  514.60   66.62
   1  -2   5  425.74   55.69
   1  -2   6 2778.11  152.39
   1  -2   6 2502.91  111.21
   1  -2   6 2625.24  170.03
   1  -2   7    1.26    8.31
   1  -2   7   13.88    9.81
   1  -2   7   -7.05    9.52
   1  -2   8  260.41   46.46
   1  -2   8  308.32   63.70
   1  -2   8  245.87   50.01
   1  -2   9  238.36   49.28
   1  -2   9  340.56   71.18
   1  -2   9  211.53   47.45
   1  -2  10  538.16   79.32
   1  -2  10  520.18   81.17
   1  -2  11    0.47   10.87
   1  -1 -12   34.05   19.80
   1  -1 -11   34.07   27.81
   1  -1 -10   50.68   27.76
   1  -1 -10   53.31   18.93
   1  -1  -9  869.07  112.91
   1  -1  -8  146.39   42.10
   1  -1  -8  148.70   41.16
   1  -1  -7 2026.66  164.00
   1  -1  -7 2550.73  171.49
   1  -1  -6  315.27   32.23
   1  -1  -6  308.62   51.12
   1  -1  -6  343.90   52.21
   1  -1  -6  256.45   23.59
   1  -1  -6  294.67   22.35
   1  -1  -5  734.01   53.76
   1  -1  -5  833.87   75.96
   1  -1  -5  843.04   83.15
   1  -1  -5 1000.75   75.55
   1  -1  -4  348.51   34.00
   1  -1  -4  430.06   46.50
   1  -1  -4  447.38   52.31
   1  -1  -4  463.49   43.25
   1  -1  -3 6013.22  240.59
   1  -1  -3 6231.25  257.89
   1  -1  -2 1560.03   78.19
   1  -1  -2 1566.47   80.42
   1  -1  -1   87.30   12.12
   1  -1  -1   74.36    8.65
   1  -1   0  429.85   26.63
   1  -1   0  424.73   28.77
   1  -1   1 1607.14   76.96
   1  -1   1 1697.30   79.52
   1  -1   1 1666.06   66.48
   1  -1   2    3.56    3.41
   1  -1   2    6.30    2.37
   1  -1   2    2.59    1.05
   1  -1   2    7.17    2.31
   1  -1   3  688.56   56.96
   1  -1   3  883.15   54.14
   1  -1   3  822.52   61.35
   1  -1   3  741.70   58.71
   1  -1   4  702.92   54.42
   1  -1   4  700.94   62.42
   1  -1   4  678.13   61.06
   1  -1   5   21.14   10.51
   1  -1   5   10.65    8.78
   1  -1   6  854.10   73.63
   1  -1   6  775.49   35.78
   1  -1   6 1006.11   97.23
   1  -1   6  814.98   78.59
   1  -1   7  850.20   81.83
   1  -1   7  893.21   87.54
   1  -1   8 1047.59   97.71
   1  -1   8 1332.87  131.28
   1  -1   8 1000.46   98.77
   1  -1   9    7.75    4.66
   1  -1   9    3.42   13.12
   1  -1   9    0.56    5.18
   1  -1  10  665.69   87.81
   1  -1  10  810.71  114.78
   1  -1  10  723.47   89.35
   1  -1  11   35.76   22.15
   1  -1  11   30.47   24.08
   1  -1  11    6.19   12.45
   1   0 -12  413.00   94.03
   1   0 -11   87.08   39.23
   1   0 -10   -6.90   17.39
   1   0  -9   72.16   29.84
   1   0  -9   74.86   20.38
   1   0  -8  298.02   60.11
   1   0  -8  394.31   40.29
   1   0  -8  444.99   47.98
   1   0  -7   21.20   16.76
   1   0  -7    9.29    6.81
   1   0  -6  777.81   85.33
   1   0  -5 3259.78  198.75
   1   0  -5 3919.66  203.91
   1   0  -4 1121.62   89.48
   1   0  -4 1264.16   90.20
   1   0  -4 1193.34   94.79
   1   0  -3    7.24    2.94
   1   0  -3   14.08    6.04
   1   0  -3    8.59    5.57
   1   0  -2  525.95   39.14
   1   0  -2  486.40   41.47
   1   0  -2  543.95   38.66
   1   0  -1 2618.32   99.02
   1   0  -1 2389.10  100.61
   1   0   0   11.15    3.49
   1   0   0   10.95    2.75
   1   0   0   13.22    3.25
   1   0   0    9.71    3.27
   1   0   0   10.47    2.51
   1   0   1  953.53   47.52
   1   0   1  941.52   50.35
   1   0   1  946.28   45.08
   1   0   1 1011.29   45.06
   1   0   2  131.43   15.39
   1   0   2  119.61   16.00
   1   0   2  115.64   17.96
   1   0   2  119.13   18.48
   1   0   2  120.81   15.21
   1   0   3  247.27   25.50
   1   0   3  207.79   24.90
   1   0   3  230.40   30.13
   1   0   3  219.74   24.63
   1   0   4  470.97   46.21
   1   0   4  488.85   44.10
   1   0   4  532.18   54.14
   1   0   4  472.19   44.55
   1   0   5 4009.44  184.90
   1   0   5 3868.92  137.39
   1   0   5 4121.46  207.68
   1   0   5 3660.49  181.67
   1   0   6   20.27   11.28
   1   0   6   21.48    9.77
   1   0   7  176.70   34.21
   1   0   7  248.27   47.93
   1   0   7  184.37   33.73
   1   0   8  131.16   31.90
   1   0   8  199.36   47.41
   1   0   8  159.06   33.02
   1   0   9 1548.64  131.01
   1   0   9 1931.86  166.13
   1   0   9 1785.58  131.14
   1   0  10   24.59   14.17
   1   0  10   63.11   30.15
   1   0  10   36.41   17.16
   1   0  11  351.18   65.53
   1   0  11  439.15   82.68
   1   0  11  399.70   64.46
   1   0  12  207.66   53.33
   1   1 -11  -24.54   24.13
   1   1 -10  960.12  128.12
   1   1  -9   14.94   11.93
   1   1  -8 1217.03  129.91
   1   1  -8 1457.58  104.71
   1   1  -7  286.61   54.57
   1   1  -7  358.49   44.92
   1   1  -7  358.56   41.51
   1   1  -6 1173.31  108.56
   1   1  -6 1471.83   88.59
   1   1  -5   62.89   20.48
   1   1  -5   69.27   15.43
   1   1  -4 5718.66  273.59
   1   1  -4 5620.11  281.14
   1   1  -4 7006.68  289.12
   1   1  -4 6934.11  251.71
   1   1  -3 1043.17   72.87
   1   1  -3  918.04   72.35
   1   1  -3  956.72   59.03
   1   1  -3  843.11   43.35
   1   1  -3 1123.44   59.51
   1   1  -3 1131.37   77.15
   1   1  -2  310.82   30.50
   1   1  -2  269.97   19.49
   1   1  -2  263.74   25.48
   1   1  -2  260.52   30.46
   1   1  -2  303.29   32.94
   1   1  -2  319.21   26.14
   1   1  -1   55.47    8.94
   1   1  -1   42.58    9.28
   1   1  -1   50.68   10.24
   1   1  -1   51.39    7.51
   1   1  -1   66.43    9.94
   1   1  -1   51.17   10.46
   1   1   0 3785.73  146.96
   1   1   0 3982.68  138.16
   1   1   0 4085.50  144.02
   1   1   0 3910.31  144.78
   1   1   0 3672.06  143.08
   1   1   1  338.29   20.77
   1   1   1  321.34   20.60
   1   1   1  312.80   21.30
   1   1   1  316.71   21.51
   1   1   1  337.52   20.75
   1   1   2  318.21   23.36
   1   1   2  329.32   26.04
   1   1   2  296.27   27.62
   1   1   2  307.30   20.82
   1   1   2  286.37   25.36
   1   1   2  301.97   17.78
   1   1   3   76.53   14.12
   1   1   3   78.24   13.46
   1   1   3   90.31   17.47
   1   1   3   76.95    9.75
   1   1   3   80.88   15.76
   1   1   3   87.05   11.92
   1   1   4  129.75   22.21
   1   1   4  121.98   19.97
   1   1   4  130.01   24.71
   1   1   4  110.73   11.95
   1   1   4  172.59   27.58
   1   1   4  131.50   17.92
   1   1   5  247.51   33.04
   1   1   5  280.35   36.61
   1   1   5  298.07   19.66
   1   1   5  255.27   30.23
   1   1   6 1211.94   89.94
   1   1   6 1297.37  104.07
   1   1   6 1159.19   78.63
   1   1   7  865.09   79.60
   1   1   7  902.20   92.68
   1   1   8    3.64    2.83
   1   1   8   12.14    9.31
   1   1   8   16.61    7.87
   1   1   9  950.55   97.05
   1   1   9 1076.23  117.25
   1   1   9  976.64   86.23
   1   1  10  384.56   63.59
   1   1  10  508.83   81.20
   1   1  11  360.65   65.70
   1   1  11  514.09   86.08
   1   1  12   10.47   11.92
   1   1  12   13.69    9.40
   1   2 -11  133.55   50.07
   1   2 -10   -3.56    8.74
   1   2  -9  655.13   98.57
   1   2  -8   80.28   33.30
   1   2  -8   80.40   24.82
   1   2  -8   71.14   18.37
   1   2  -7  395.26   65.06
   1   2  -7  475.94   61.63
   1   2  -7  529.24   51.37
   1   2  -6 1218.00  113.44
   1   2  -6 1427.66  109.68
   1   2  -5 1223.08  104.92
   1   2  -5 1333.04  100.44
   1   2  -5 1525.12   88.49
   1   2  -4    9.31    5.76
   1   2  -4   28.77   11.92
   1   2  -4   21.27    7.79
   1   2  -3  964.79   74.06
   1   2  -3  995.21   80.67
   1   2  -3 1046.53   76.34
   1   2  -3 1053.22   64.33
   1   2  -3 1098.51   82.59
   1   2  -2 4676.57  190.38
   1   2  -2 4486.24  197.96
   1   2  -2 4614.79  200.38
   1   2  -2 3972.17  175.57
   1   2  -2 4721.84  182.87
   1   2  -2 4666.92  201.72
   1   2  -1 1570.74   74.90
   1   2  -1 1304.00   72.33
   1   2  -1 1470.80   86.72
   1   2  -1 1397.48   77.26
   1   2  -1 1620.72   78.10
   1   2  -1 1544.91   75.95
   1   2   0  749.10   39.52
   1   2   0  765.57   45.08
   1   2   0  684.61   53.76
   1   2   0  682.42   44.00
   1   2   0  748.35   41.85
   1   2   0  707.87   44.18
   1   2   0  690.71   38.04
   1   2   1 1349.88   57.87
   1   2   1 1127.22   54.77
   1   2   1 1290.91   57.40
   1   2   1 1295.44   57.06
   1   2   2 2388.12   94.07
   1   2   2 2656.74  105.77
   1   2   2 2374.78   97.63
   1   2   2 2255.37  104.21
   1   2   2 2623.29  108.32
   1   2   3    1.15    2.79
   1   2   3    2.35    1.01
   1   2   3    3.76    3.83
   1   2   3    3.04    0.83
   1   2   3   -1.88    4.82
   1   2   4 3375.95  151.46
   1   2   4 3048.13  135.68
   1   2   4 3174.15  132.07
   1   2   4 3213.99  152.75
   1   2   4 3381.61  157.39
   1   2   5   19.41    9.09
   1   2   5   11.67    5.10
   1   2   5   12.28    5.27
   1   2   5   21.67    9.11
   1   2   5   28.95   12.65
   1   2   6   44.88   13.50
   1   2   6   52.56   16.87
   1   2   7  289.92   43.81
   1   2   7  292.46   49.14
   1   2   8 3499.06  200.23
   1   2   8 3817.25  220.37
   1   2   9   47.13   17.19
   1   2   9   65.42   25.37
   1   2  10  668.37   83.69
   1   2  10  817.38  100.59
   1   2  11  118.85   36.42
   1   2  11  194.56   51.13
   1   2  12  606.45   89.55
   1   2  12  831.48  112.22
   1   3 -10  141.90   50.07
   1   3  -9   45.14   20.74
   1   3  -8   17.21   15.74
   1   3  -8   -0.91    4.47
   1   3  -7  647.25   89.59
   1   3  -7  928.84   99.25
   1   3  -7  859.47   69.28
   1   3  -6  105.24   31.41
   1   3  -6   99.43   31.96
   1   3  -6  104.96   20.77
   1   3  -5 2404.23  162.92
   1   3  -5 2928.64  179.91
   1   3  -5 2734.72  137.96
   1   3  -4  510.36   59.66
   1   3  -4  623.16   69.90
   1   3  -4  597.51   51.06
   1   3  -3  473.97   51.58
   1   3  -3  520.71   60.39
   1   3  -3  476.92   43.87
   1   3  -2   14.57    7.30
   1   3  -2   10.70    8.83
   1   3  -2    3.75    6.71
   1   3  -2   11.66    5.67
   1   3  -1 7002.17  264.12
   1   3  -1 6612.88  286.42
   1   3  -1 6393.67  264.64
   1   3  -1 6467.79  257.94
   1   3  -1 6639.53  263.03
   1   3   0 1689.64   91.39
   1   3   0 1720.13   86.51
   1   3   0 1570.56   91.84
   1   3   0 1813.13   90.64
   1   3   0 1625.25  105.15
   1   3   0 1753.46   89.08
   1   3   0 1743.16   86.65
   1   3   0 1605.26   75.07
   1   3   1    2.61    2.01
   1   3   1    7.21    4.31
   1   3   1    0.90    1.50
   1   3   1    2.65    1.11
   1   3   1    5.75    3.32
   1   3   2  201.14   28.83
   1   3   2  156.17   13.92
   1   3   2  189.50   21.48
   1   3   2  177.91   24.39
   1   3   2  203.32   32.25
   1   3   2  186.10   19.93
   1   3   2  185.88   20.57
   1   3   3  692.91   36.37
   1   3   3  767.62   50.84
   1   3   3  771.51   47.27
   1   3   3  710.59   62.64
   1   3   3  690.61   52.17
   1   3   3  768.86   53.52
   1   3   4   13.39    7.29
   1   3   4   10.94    4.65
   1   3   4    7.38    1.24
   1   3   4   20.48    7.02
   1   3   4   10.75    7.22
   1   3   5 1493.50   80.93
   1   3   5 1634.23   99.65
   1   3   5 1614.12   98.62
   1   3   5 1634.01  104.48
   1   3   6  452.50   42.75
   1   3   6  526.21   56.08
   1   3   7   -4.38    7.34
   1   3   7   25.25   15.34
   1   3   8  571.91   68.32
   1   3   8  770.32   81.96
   1   3   9  988.79   98.35
   1   3   9 1285.11  116.27
   1   3  10  858.00   96.31
   1   3  10 1067.39  111.93
   1   3  11   20.35   15.91
   1   3  11   31.26   19.56
   1   3  12  607.19   90.14
   1   3  12  797.50  106.57
   1   3  13  156.38   47.55
   1   4  -9   96.69   38.15
   1   4  -8    9.98    6.39
   1   4  -8   30.08   20.70
   1   4  -7   55.15   24.11
   1   4  -7   62.08   28.72
   1   4  -6 1087.94  115.36
   1   4  -6 1456.41  136.20
   1   4  -6 1364.85   92.09
   1   4  -5  136.83   35.31
   1   4  -5  138.16   39.07
   1   4  -5  154.64   27.03
   1   4  -4  860.09   86.00
   1   4  -4  942.48   71.50
   1   4  -3 3131.05  188.26
   1   4  -3 2831.35  141.39
   1   4  -2 2005.70  121.31
   1   4  -2 1929.77  139.94
   1   4  -2 1963.95  108.78
   1   4  -1   13.44    7.82
   1   4  -1    9.40    8.99
   1   4  -1    0.05    8.64
   1   4   0  585.94   50.77
   1   4   0  565.66   52.67
   1   4   0  543.70   47.95
   1   4   1 2994.27  152.24
   1   4   1 2977.44  137.35
   1   4   1 2900.79  135.49
   1   4   1 3246.49  137.36
   1   4   2  930.90   75.32
   1   4   2  958.81   61.64
   1   4   2  838.79   76.68
   1   4   2  801.61   50.02
   1   4   2  921.16   60.09
   1   4   3 1169.38   90.07
   1   4   3 1085.75   66.02
   1   4   3 1253.60   75.23
   1   4   3 1127.45   91.18
   1   4   3 1107.96   71.01
   1   4   4  226.27   37.87
   1   4   4  171.21   15.08
   1   4   4  177.61   25.72
   1   4   4  209.30   29.74
   1   4   4  183.71   33.62
   1   4   4  224.35   28.59
   1   4   5  142.81   25.50
   1   4   5  146.34   17.45
   1   4   5  149.13   24.75
   1   4   6    4.19    6.47
   1   4   6   -0.16    2.92
   1   4   7 2445.88  128.84
   1   4   7 2780.36  159.49
   1   4   7 2790.35  156.31
   1   4   8  121.72   30.32
   1   4   8  162.05   34.54
   1   4   9  321.53   53.07
   1   4   9  469.44   63.89
   1   4  10  106.20   30.76
   1   4  10  170.60   42.62
   1   4  11 1441.66  135.72
   1   4  11 1799.05  152.03
   1   4  12  147.81   42.55
   1   4  12  216.22   51.53
   1   4  13  631.54   95.98
   1   5  -8  430.44   81.66
   1   5  -7   83.55   34.05
   1   5  -7  106.45   42.05
   1   5  -6  698.00   93.87
   1   5  -6 1018.11  123.62
   1   5  -5   60.15   23.07
   1   5  -5   83.59   29.22
   1   5  -4  270.94   49.93
   1   5  -4  362.07   66.76
   1   5  -3   79.31   25.57
   1   5  -3   83.44   29.05
   1   5  -2 3874.25  213.28
   1   5  -2 4274.09  247.20
   1   5  -2 4249.44  209.70
   1   5  -1 1256.61   91.10
   1   5  -1 1312.27   99.64
   1   5  -1 1320.22  117.73
   1   5  -1 1402.25   96.61
   1   5   0   94.86   23.31
   1   5   0   97.36   23.48
   1   5   0   70.84   24.82
   1   5   0  133.37   24.16
   1   5   1  238.28   38.51
   1   5   1  222.49   32.92
   1   5   1  249.71   33.21
   1   5   1  187.88   19.46
   1   5   2 2581.94  128.94
   1   5   2 2501.58  134.55
   1   5   2 2369.36  122.12
   1   5   2 2244.03  104.78
   1   5   3  800.72   54.30
   1   5   4  602.51   50.77
   1   5   5   73.29   17.48
   1   5   5   64.10    8.40
   1   5   5   62.01   17.68
   1   5   6  183.38   31.94
   1   5   6  164.17   19.06
   1   5   7   74.45   21.36
   1   5   7   51.10   12.36
   1   5   7   35.79   11.08
   1   5   8 1240.33   83.44
   1   5   8 1428.52  113.46
   1   5   8 1458.16  108.62
   1   5   9  816.34   88.22
   1   5   9  951.27   90.86
   1   5  10   74.12   26.68
   1   5  10   37.20   16.77
   1   5  11  421.16   70.47
   1   5  11  593.05   79.40
   1   5  12  494.12   78.25
   1   5  12  571.01   83.92
   1   5  13  221.85   54.30
   1   6  -7  537.41   91.43
   1   6  -7  628.54  108.22
   1   6  -6  108.65   37.03
   1   6  -6  137.74   46.89
   1   6  -5  279.30   57.99
   1   6  -5  306.74   73.53
   1   6  -4  325.70   59.77
   1   6  -4  503.04   89.70
   1   6  -3 1232.30  115.45
   1   6  -3 1395.38  146.52
   1   6  -2  216.86   44.10
   1   6  -2  275.25   59.05
   1   6  -2  216.03   41.03
   1   6  -1  628.80   73.05
   1   6  -1  689.47   90.26
   1   6  -1  622.08   67.17
   1   6   0 2098.57  140.62
   1   6   0 2258.29  168.32
   1   6   0 2316.83  137.92
   1   6   1  988.96   85.22
   1   6   1 1019.66   81.32
   1   6   1  999.00  103.66
   1   6   1 1058.86   83.05
   1   6   2   78.40   13.35
   1   6   2   86.79   22.26
   1   6   2   77.00   19.41
   1   6   2  101.27   29.87
   1   6   2  114.82   24.31
   1   6   3   87.38   15.92
   1   6   3   85.64   18.80
   1   6   3  107.62   29.48
   1   6   3   98.50   23.09
   1   6   4  399.73   58.74
   1   6   4  365.83   38.67
   1   6   4  368.75   45.36
   1   6   5  217.48   32.76
   1   6   5  209.73   42.27
   1   6   5  278.43   40.13
   1   6   6 1099.07   87.71
   1   6   6 1265.48  108.03
   1   6   6 1112.23   91.61
   1   6   7   86.32   23.26
   1   6   7   72.50   11.25
   1   6   7   76.30   21.34
   1   6   8  231.40   43.91
   1   6   8  196.62   25.18
   1   6   9   39.84   18.83
   1   6   9   27.97   16.34
   1   6  10 1398.81  126.19
   1   6  10 1330.40  116.96
   1   6  11  248.90   54.25
   1   6  11  234.47   49.56
   1   6  12  351.85   66.67
   1   6  12  406.28   67.87
   1   6  13   88.06   31.96
   1   7  -7   59.28   37.42
   1   7  -6   32.28   20.58
   1   7  -6  -18.67   20.26
   1   7  -5  315.87   66.34
   1   7  -5  436.04   92.75
   1   7  -4   56.11   27.33
   1   7  -4  137.36   52.52
   1   7  -3 2159.06  174.96
   1   7  -3 2914.29  234.86
   1   7  -2  730.53   91.29
   1   7  -2  921.90  123.04
   1   7  -2  826.85   89.65
   1   7  -1  134.56   33.98
   1   7  -1  114.43   39.83
   1   7  -1  132.96   32.58
   1   7   0  193.83   41.22
   1   7   0  257.21   56.85
   1   7   0  253.88   44.35
   1   7   1 2533.17  168.76
   1   7   1 2795.01  201.13
   1   7   1 2956.36  167.76
   1   7   2 1308.25  108.56
   1   7   2 1444.23  103.14
   1   7   2 1416.30  130.92
   1   7   2 1550.64  109.73
   1   7   2 1245.80   68.93
   1   7   3  125.66   25.70
   1   7   3  151.56   37.92
   1   7   3  109.13   25.70
   1   7   3  123.42   19.25
   1   7   4   10.95    6.36
   1   7   4   14.93    8.92
   1   7   4    7.07    7.92
   1   7   4   18.58   11.76
   1   7   5  512.21   71.74
   1   7   5  482.09   50.21
   1   7   5  505.94   58.57
   1   7   6  231.49   38.08
   1   7   6  210.18   45.70
   1   7   6  242.57   40.82
   1   7   7  740.50   76.66
   1   7   7  788.85   81.51
   1   7   8  327.02   53.05
   1   7   8  346.04   55.07
   1   7   9   62.35   26.98
   1   7   9   26.37   12.60
   1   7  10  111.20   32.97
   1   7  11  768.67   96.59
   1   7  12  420.07   74.69
   1   7  12  413.70   68.90
   1   7  13   34.98   20.18
   1   8  -5   21.90   19.87
   1   8  -5  -34.03   27.83
   1   8  -4  428.91   80.66
   1   8  -4  795.12  131.43
   1   8  -3  181.26   48.52
   1   8  -3  302.20   75.18
   1   8  -2  405.40   71.72
   1   8  -2  611.72  105.75
   1   8  -1  617.71   87.08
   1   8  -1  649.49  107.03
   1   8  -1  664.29   82.34
   1   8   0  538.14   79.06
   1   8   0  619.46   99.50
   1   8   0  643.51   78.35
   1   8   1   35.52   17.23
   1   8   1    1.02    6.98
   1   8   1   23.59   13.78
   1   8   2  313.52   54.64
   1   8   2  354.20   67.56
   1   8   2  395.85   56.44
   1   8   3 1015.47   88.38
   1   8   3 1026.09  115.57
   1   8   3  882.53   58.50
   1   8   3 1151.80   98.20
   1   8   4  531.05   60.13
   1   8   4  514.66   78.06
   1   8   4  497.32   46.23
   1   8   4  579.42   68.09
   1   8   5  281.91   57.25
   1   8   5  265.02   42.37
   1   8   5  268.31   36.12
   1   8   5  366.46   52.45
   1   8   6   75.52   21.49
   1   8   6   78.68   25.45
   1   8   6   83.80   26.26
   1   8   7   57.76   20.21
   1   8   7   10.20   13.34
   1   8   7   57.50   23.72
   1   8   8   -4.02   10.72
   1   8   8    2.60    8.36
   1   8   9 1063.88  107.40
   1   8   9  995.34  105.12
   1   8  10  339.12   62.10
   1   8  10  363.53   63.54
   1   8  11  317.72   62.80
   1   8  11  318.13   60.04
   1   8  12  154.50   45.12
   1   8  12  194.76   49.64
   1   9  -4  295.20   70.36
   1   9  -3  194.00   55.50
   1   9  -3  311.40   87.10
   1   9  -2  254.66   62.17
   1   9  -2  301.68   79.61
   1   9  -1  154.55   47.32
   1   9  -1  157.44   51.68
   1   9  -1  184.36   43.37
   1   9   0 2290.01  194.19
   1   9   0 2753.07  238.42
   1   9   0 2576.67  184.77
   1   9   1 1471.42  147.16
   1   9   1 1888.34  184.73
   1   9   1 1853.39  148.28
   1   9   2   24.89   12.96
   1   9   2   -5.17    9.47
   1   9   2   18.74   19.33
   1   9   3  171.56   48.23
   1   9   3  127.51   34.03
   1   9   4  607.11   70.89
   1   9   4  696.38   98.82
   1   9   4  834.65   89.12
   1   9   5  643.97   72.07
   1   9   5  733.68   98.25
   1   9   5  803.64   87.24
   1   9   5  588.01   55.59
   1   9   6  370.68   54.82
   1   9   6  359.96   68.09
   1   9   6  399.60   61.28
   1   9   6  384.32   47.61
   1   9   7   95.22   25.61
   1   9   7  107.36   34.96
   1   9   7   85.75   28.26
   1   9   8   42.90   20.36
   1   9   8   66.06   27.20
   1   9   9  -11.21    5.67
   1   9   9   -5.37    9.93
   1   9  10  670.63   91.94
   1   9  10  711.39   94.26
   1   9  11  325.76   66.16
   1   9  11  344.62   67.84
   1   9  12   20.95   16.99
   1   9  12   39.33   23.01
   1  10  -2  255.14   65.35
   1  10  -1  515.80   95.01
   1  10   0  127.02   45.17
   1  10   0  147.02   50.77
   1  10   0  199.04   49.24
   1  10   1  412.39   78.64
   1  10   1  440.97   92.54
   1  10   1  442.51   73.84
   1  10   2  853.72  115.01
   1  10   2 1243.89  150.80
   1  10   2  973.91  109.06
   1  10   3  554.27   96.99
   1  10   3  674.22   86.89
   1  10   4   15.51   13.24
   1  10   4    8.44   15.24
   1  10   4    0.32    4.60
   1  10   5  196.05   54.32
   1  10   5  190.58   40.40
   1  10   5  161.22   41.93
   1  10   6  181.67   40.03
   1  10   6  174.47   51.36
   1  10   6  187.82   45.00
   1  10   7   77.74   25.84
   1  10   7   99.25   36.54
   1  10   7   87.54   29.75
   1  10   8  576.05   90.86
   1  10   8  528.09   68.44
   1  10   8  608.94   84.68
   1  10   9  274.45   53.24
   1  10   9  402.90   70.85
   1  10  10   43.67   21.37
   1  10  10   79.79   32.48
   1  10  11   46.58   25.69
   1  10  11    0.51    6.39
   1  10  12  489.88   85.91
   1  11   0  622.39  110.17
   1  11   1    7.60   10.27
   1  11   3  598.72  108.91
   1  11   3  666.22   93.78
   1  11   4 1146.94  149.83
   1  11   4 1099.62  122.75
   1  11   5   34.62   19.97
   1  11   5   24.18   16.47
   1  11   6   25.36   13.39
   1  11   6    8.57   11.62
   1  11   6   19.95   13.84
   1  11   7   50.89   22.02
   1  11   7   64.46   34.11
   1  11   7  142.77   38.58
   1  11   8  221.24   48.46
   1  11   8  205.41   56.14
   1  11   8  278.98   59.86
   1  11   9  268.82   55.59
   1  11   9  379.08   70.99
   2  -9  -9  184.38   52.23
   2  -9  -8  630.63   98.40
   2  -9  -7   57.40   26.57
   2  -9  -6   80.13   31.32
   2  -9  -5  104.88   37.32
   2  -9  -4  114.87   37.77
   2  -9  -3  415.85   74.67
   2  -9  -2  698.83  102.18
   2  -9  -2  701.17   99.91
   2  -9  -1   85.55   33.38
   2  -9  -1  133.60   44.48
   2  -9   0   15.92    8.36
   2  -8 -10  437.42   82.16
   2  -8  -9  121.75   41.47
   2  -8  -9  138.64   44.02
   2  -8  -8   19.35   13.17
   2  -8  -8   28.34   24.80
   2  -8  -7  176.42   48.19
   2  -8  -7  143.58   43.23
   2  -8  -6  195.94   48.23
   2  -8  -6  206.73   53.19
   2  -8  -5  149.64   39.57
   2  -8  -4  270.02   53.96
   2  -8  -3   20.27    6.64
   2  -8  -2  -10.84   16.14
   2  -8  -1  807.40  104.48
   2  -8  -1  760.46   98.66
   2  -8   0 1326.01  142.00
   2  -8   0 1238.40  131.54
   2  -8   1   41.46   26.20
   2  -8   1    2.18    8.56
   2  -8   2  105.65   41.71
   2  -7 -11  247.97   63.26
   2  -7 -10  277.53   64.72
   2  -7 -10  272.58   58.50
   2  -7  -9 1329.02  136.05
   2  -7  -9 1483.72  145.86
   2  -7  -8    6.06    6.40
   2  -7  -8   29.21   24.27
   2  -7  -7   -4.66   14.27
   2  -7  -7   14.38   11.68
   2  -7  -6  103.11   31.42
   2  -7  -6   95.21   32.78
   2  -7  -5  608.42   86.82
   2  -7  -5  660.45   83.10
   2  -7  -4  315.61   54.67
   2  -7  -3  664.15   81.49
   2  -7  -2   88.94   27.83
   2  -7  -1   16.47    9.62
   2  -7  -1   20.18   14.55
   2  -7   0  691.86   88.94
   2  -7   0  690.62   93.01
   2  -7   1 1276.75  128.13
   2  -7   1 1318.02  137.58
   2  -7   2  164.55   45.02
   2  -7   2  181.29   48.67
   2  -7   3   39.20   20.75
   2  -7   3   45.79   28.55
   2  -7   3   28.55   19.69
   2  -7   4  298.60   69.17
   2  -6 -12  427.40   87.45
   2  -6 -11  705.93  107.71
   2  -6 -10  452.57   71.62
   2  -6 -10  512.17   84.95
   2  -6  -9   37.23   21.36
   2  -6  -9   44.01   25.47
   2  -6  -8  338.60   61.25
   2  -6  -8  338.33   61.60
   2  -6  -7  266.80   52.59
   2  -6  -7  273.87   53.48
   2  -6  -6   17.26   13.82
   2  -6  -6   20.65   17.04
   2  -6  -5  111.17   29.88
   2  -6  -5  142.39   38.52
   2  -6  -4   15.56    9.64
   2  -6  -4   64.46   28.39
   2  -6  -3    6.15    4.15
   2  -6  -3   10.89    5.70
   2  -6  -2  670.73   50.14
   2  -6  -2  792.07   81.94
   2  -6  -1 1414.64  117.88
   2  -6   0   21.99   10.72
   2  -6   0   24.17   11.56
   2  -6   1   24.44   13.30
   2  -6   1   10.87   10.63
   2  -6   2  291.37   56.73
   2  -6   2  371.63   68.41
   2  -6   3 1451.60  139.62
   2  -6   3 1751.64  163.37
   2  -6   4   24.25   17.04
   2  -6   4    0.61   15.18
   2  -6   5  380.34   78.82
   2  -6   5  317.93   69.17
   2  -6   6   42.47   25.95
   2  -5 -12  322.02   74.85
   2  -5 -11  165.59   48.95
   2  -5 -10 1928.99  173.57
   2  -5  -9   66.29   26.33
   2  -5  -9   68.84   25.56
   2  -5  -8  119.59   32.56
   2  -5  -8   85.84   27.29
   2  -5  -7   55.45   22.49
   2  -5  -7   63.40   21.96
   2  -5  -6 1553.91  129.53
   2  -5  -6 1824.01  133.01
   2  -5  -5   43.71   17.69
   2  -5  -5   71.16   25.98
   2  -5  -4  236.50   40.56
   2  -5  -4  240.88   44.44
   2  -5  -3    7.01    3.78
   2  -5  -3   -0.57    4.82
   2  -5  -3   10.56    9.08
   2  -5  -2  434.96   36.21
   2  -5  -2  370.87   51.32
   2  -5  -1  455.33   42.24
   2  -5  -1  505.67   61.06
   2  -5   0 1535.46  119.96
   2  -5   0 1895.92  138.99
   2  -5   1   22.64   12.44
   2  -5   1   51.07   18.30
   2  -5   1   59.76   17.02
   2  -5   2   41.68   19.59
   2  -5   3  514.68   78.82
   2  -5   4 1101.37  124.95
   2  -5   4  958.00  110.44
   2  -5   5  235.70   58.74
   2  -5   5  113.77   37.86
   2  -5   6   70.22   33.10
   2  -5   6   74.42   32.76
   2  -5   7  259.64   63.57
   2  -4 -12  240.58   71.28
   2  -4 -12  200.86   60.02
   2  -4 -11  964.89  126.12
   2  -4 -10   95.59   35.61
   2  -4  -9 1057.59  115.89
   2  -4  -8  603.54   71.06
   2  -4  -8  721.47   85.28
   2  -4  -7  374.14   54.27
   2  -4  -7  409.75   59.38
   2  -4  -6  120.42   28.87
   2  -4  -6  151.17   33.91
   2  -4  -5  477.08   60.15
   2  -4  -5  477.00   57.56
   2  -4  -4  111.30   25.26
   2  -4  -4   91.79   24.42
   2  -4  -3  220.40   38.11
   2  -4  -3  225.05   22.56
   2  -4  -3  232.35   35.04
   2  -4  -2 1077.82   59.80
   2  -4  -2 1113.77   84.74
   2  -4  -1   13.15    5.87
   2  -4  -1   13.24   10.05
   2  -4   0  103.81   19.63
   2  -4   0  108.17   25.90
   2  -4   0  103.94   17.26
   2  -4   1 1120.64   94.99
   2  -4   1 1273.67  107.29
   2  -4   1 1246.38   81.22
   2  -4   2 2786.50  144.28
   2  -4   2 2401.83  130.51
   2  -4   3   23.03    4.89
   2  -4   3   35.78   19.18
   2  -4   3   18.89    8.42
   2  -4   4  418.13   68.09
   2  -4   4  363.17   32.42
   2  -4   4  337.30   58.19
   2  -4   5   61.99   30.07
   2  -4   5   49.47   19.31
   2  -4   6 1002.38  121.12
   2  -4   6  885.84  107.85
   2  -4   7  -16.06   17.02
   2  -4   7    3.21   11.14
   2  -4   8  447.94   81.82
   2  -4   9  -33.37   22.33
   2  -3 -12   -6.40    1.58
   2  -3 -12   37.82   32.92
   2  -3 -11  975.45  137.63
   2  -3 -11 1344.87  150.32
   2  -3 -10  370.58   71.68
   2  -3  -9  377.44   67.03
   2  -3  -8   71.48   20.35
   2  -3  -8   87.00   31.76
   2  -3  -7 3197.11  190.52
   2  -3  -7 2845.51  163.86
   2  -3  -6   43.14   17.28
   2  -3  -6   54.97   19.09
   2  -3  -5    1.19    3.27
   2  -3  -5    0.47    5.05
   2  -3  -4   97.51   21.91
   2  -3  -3 1324.32   89.13
   2  -3  -3 1506.01   75.50
   2  -3  -2  458.63   45.82
   2  -3  -2  386.63   29.75
   2  -3  -1 2288.04  122.80
   2  -3  -1 2135.17  100.87
   2  -3  -1 2259.06  119.49
   2  -3   0   15.66    6.82
   2  -3   0   12.54    4.72
   2  -3   0   16.34    7.51
   2  -3   1   42.07   12.15
   2  -3   1   32.46   10.58
   2  -3   2  716.61   74.22
   2  -3   2  715.42   38.00
   2  -3   2  572.39   46.49
   2  -3   3 2893.37  175.40
   2  -3   3 3008.69  118.51
   2  -3   4  445.86   65.09
   2  -3   4  300.78   27.19
   2  -3   4  355.65   53.81
   2  -3   4  405.17   37.94
   2  -3   5    2.42    4.72
   2  -3   5    4.75   11.66
   2  -3   5   -7.27   11.71
   2  -3   6  386.96   69.45
   2  -3   6  318.23   41.65
   2  -3   6  274.12   53.26
   2  -3   7  335.96   68.51
   2  -3   7  236.66   51.80
   2  -3   8    9.05   17.76
   2  -3   8   10.81   10.43
   2  -3   9   79.62   31.70
   2  -2 -12 1130.05  154.82
   2  -2 -11   82.49   32.76
   2  -2 -11   68.03   32.71
   2  -2 -10 1209.51  144.56
   2  -2 -10 1229.33  137.76
   2  -2  -9  711.10  102.15
   2  -2  -9  691.55   96.37
   2  -2  -8 1069.22   77.76
   2  -2  -8 1653.83  137.34
   2  -2  -7   16.78   14.83
   2  -2  -6 1564.81  117.56
   2  -2  -5  561.41   53.85
   2  -2  -5  593.43   59.86
   2  -2  -4   46.49   15.02
   2  -2  -4   53.21   14.13
   2  -2  -3  715.47   56.39
   2  -2  -3  722.92   56.36
   2  -2  -3  620.96   59.05
   2  -2  -2  508.07   48.86
   2  -2  -2  535.42   44.63
   2  -2  -2  489.67   35.04
   2  -2  -1   -1.33    0.68
   2  -2  -1    1.64    3.66
   2  -2  -1    6.88    3.36
   2  -2  -1    4.52    2.80
   2  -2   0  802.93   44.40
   2  -2   0  818.36   54.38
   2  -2   0  811.52   33.87
   2  -2   0  856.17   51.15
   2  -2   1 3385.45  156.67
   2  -2   1 3690.69  136.27
   2  -2   1 3625.55  162.31
   2  -2   2   86.20   18.25
   2  -2   2   88.25   19.46
   2  -2   2   83.82   12.29
   2  -2   3  495.50   58.61
   2  -2   3  421.68   34.79
   2  -2   4  636.68   72.68
   2  -2   4  529.65   60.18
   2  -2   4  596.12   48.04
   2  -2   4  496.22   27.56
   2  -2   5 2753.31  139.46
   2  -2   5 2757.72  180.35
   2  -2   5 2317.45  156.67
   2  -2   6    5.04    6.31
   2  -2   6   11.08   11.35
   2  -2   6    0.25    6.20
   2  -2   7  885.77   81.73
   2  -2   7  996.93  112.79
   2  -2   7  779.70   90.74
   2  -2   8   10.86   10.61
   2  -2   8    4.41    1.67
   2  -2   8   -9.26   10.65
   2  -2   9  212.35   58.19
   2  -2   9   86.65   31.60
   2  -2  10    8.07    8.46
   2  -1 -12  266.00   72.43
   2  -1 -11  160.68   55.26
   2  -1 -11  164.73   36.90
   2  -1 -10  343.53   74.81
   2  -1  -9   52.52   22.34
   2  -1  -9   15.23   12.17
   2  -1  -8 2619.31  198.21
   2  -1  -8 2792.54  193.84
   2  -1  -8 2544.13  114.04
   2  -1  -7  447.40   64.96
   2  -1  -6  182.10   36.54
   2  -1  -5   84.63   22.24
   2  -1  -4 3739.96  184.89
   2  -1  -4 3761.31  192.94
   2  -1  -3   28.71    9.84
   2  -1  -3   22.18    8.63
   2  -1  -2 1366.07   71.82
   2  -1  -2 1326.62   73.03
   2  -1  -2 1104.93   73.85
   2  -1  -2 1265.75   69.52
   2  -1  -1  264.09   28.57
   2  -1  -1  260.97   25.03
   2  -1  -1  201.30   20.50
   2  -1   0  690.56   50.88
   2  -1   0  687.31   46.02
   2  -1   0  632.19   42.31
   2  -1   0  744.86   41.86
   2  -1   0  627.20   42.27
   2  -1   1  699.71   54.03
   2  -1   1  593.06   43.78
   2  -1   1  641.56   37.24
   2  -1   1  640.38   43.62
   2  -1   2 5885.17  249.38
   2  -1   2 6815.96  270.14
   2  -1   2 6582.23  267.60
   2  -1   2 6275.55  249.13
   2  -1   2 6298.68  235.12
   2  -1   3  581.03   51.69
   2  -1   3  557.73   42.43
   2  -1   4    7.82    4.17
   2  -1   4   13.25   10.63
   2  -1   4   -6.84    7.35
   2  -1   5  435.15   46.75
   2  -1   5  472.02   62.53
   2  -1   6 1748.99  113.63
   2  -1   6 1873.97  143.41
   2  -1   6 1604.44  119.29
   2  -1   7  228.91   40.17
   2  -1   7  293.75   57.02
   2  -1   7  238.63   43.73
   2  -1   8   20.82    9.93
   2  -1   8   49.63   25.26
   2  -1   8   43.32   19.89
   2  -1   9  232.47   47.11
   2  -1   9  321.92   68.36
   2  -1   9  286.23   51.69
   2  -1  10   64.00   26.99
   2  -1  10   52.71   27.34
   2  -1  10   73.08   28.54
   2   0 -12   17.93   19.17
   2   0 -11  456.66   90.26
   2   0 -10  245.37   61.46
   2   0 -10  331.94   50.22
   2   0  -9 2165.88  192.32
   2   0  -9 2861.86  161.80
   2   0  -8   29.01   20.99
   2   0  -8   51.64   16.52
   2   0  -7 1601.13  140.13
   2   0  -7 1738.18  139.03
   2   0  -6  579.93   74.13
   2   0  -6  646.56   74.56
   2   0  -5  902.90   81.46
   2   0  -4   22.33    8.34
   2   0  -4   18.53   12.91
   2   0  -4   21.46   10.44
   2   0  -3  847.20   60.98
   2   0  -3  707.67   62.10
   2   0  -3  832.83   61.81
   2   0  -2  159.05   22.04
   2   0  -2  179.52   20.99
   2   0  -1   81.61   13.55
   2   0  -1  107.76   15.19
   2   0  -1  102.03   12.07
   2   0  -1   87.82   13.02
   2   0   0 2226.36   99.21
   2   0   0 2244.31   92.49
   2   0   0 2247.91   96.96
   2   0   0 2343.63   98.74
   2   0   1  221.16   23.64
   2   0   1  187.30   20.82
   2   0   1  160.51   15.62
   2   0   1  171.49   17.44
   2   0   2  228.70   25.55
   2   0   2  251.71   30.06
   2   0   2  212.43   27.15
   2   0   2  230.27   23.19
   2   0   2  213.44   14.37
   2   0   2  211.24   21.92
   2   0   3  249.98   29.84
   2   0   3  241.88   27.01
   2   0   3  295.07   37.60
   2   0   3  231.20   32.51
   2   0   3  232.02   26.47
   2   0   3  253.69   28.95
   2   0   4 3157.95  143.07
   2   0   4 2945.76  145.61
   2   0   4 2710.08  139.61
   2   0   5  197.29   30.59
   2   0   5  196.59   37.28
   2   0   5  159.93   27.58
   2   0   6  698.98   67.97
   2   0   6  871.92   87.76
   2   0   7  125.37   29.08
   2   0   7  183.75   40.99
   2   0   7  144.61   12.45
   2   0   7  138.15   29.89
   2   0   8 1032.42   97.97
   2   0   8 1255.80  124.48
   2   0   8 1169.05   99.19
   2   0   9   32.89   17.00
   2   0   9   47.96   25.61
   2   0   9   48.41   19.17
   2   0  10  589.48   82.35
   2   0  10  862.99  115.44
   2   0  10  752.94   85.03
   2   0  11   -3.07    5.58
   2   0  11   29.00   14.32
   2   0  12    9.95    8.98
   2   1 -11  314.65   76.96
   2   1 -10   22.37   15.03
   2   1  -9 1540.64  157.43
   2   1  -9 2108.42  135.61
   2   1  -8  398.76   69.10
   2   1  -8  474.20   44.10
   2   1  -8  588.23   62.02
   2   1  -7  263.35   51.55
   2   1  -7  347.22   36.54
   2   1  -7  338.97   44.31
   2   1  -6   10.96   10.07
   2   1  -6    6.95    5.14
   2   1  -6   11.57    8.88
   2   1  -5 4316.51  166.92
   2   1  -5 4693.26  187.44
   2   1  -5 4883.18  200.02
   2   1  -4  358.57   46.93
   2   1  -4  445.92   55.66
   2   1  -4  423.37   37.08
   2   1  -4  424.44   52.30
   2   1  -4  471.21   41.56
   2   1  -3  318.88   37.73
   2   1  -3  299.03   35.12
   2   1  -3  316.16   41.17
   2   1  -3  284.02   29.22
   2   1  -3  357.45   42.32
   2   1  -3  361.82   33.11
   2   1  -2  503.70   39.52
   2   1  -2  445.76   43.11
   2   1  -2  593.35   48.75
   2   1  -2  519.89   38.59
   2   1  -1 2547.83  115.39
   2   1  -1 2326.22   93.47
   2   1  -1 2445.75  106.71
   2   1  -1 2270.45  102.23
   2   1   0   36.11    7.70
   2   1   0   37.04    8.32
   2   1   0   45.41    6.12
   2   1   0   36.35    5.90
   2   1   0   41.73    7.14
   2   1   0   43.54    8.81
   2   1   0   47.17    7.91
   2   1   1 5325.90  197.33
   2   1   1 5400.16  192.68
   2   1   1 4930.50  188.70
   2   1   1 5400.20  196.57
   2   1   1 5141.73  192.21
   2   1   2  102.08   15.17
   2   1   2  106.98   16.92
   2   1   2   91.80   15.32
   2   1   2   99.19   15.22
   2   1   2   92.78   10.33
   2   1   2  105.73   15.10
   2   1   3   99.48   17.00
   2   1   3   78.89   15.17
   2   1   3   69.67   16.01
   2   1   3   89.65   19.15
   2   1   3   67.64   14.86
   2   1   3   60.06   10.18
   2   1   4  277.25   32.70
   2   1   4  276.95   33.37
   2   1   4  316.87   42.50
   2   1   4  278.79   37.96
   2   1   4  285.50   36.71
   2   1   4  225.80   25.60
   2   1   5 4874.12  211.90
   2   1   5 4632.41  175.69
   2   1   5 4270.53  191.72
   2   1   6  779.24   71.61
   2   1   6  852.82   46.50
   2   1   6  972.77   88.01
   2   1   6  832.13   64.56
   2   1   7    4.63    4.21
   2   1   7    6.96    2.42
   2   1   8  221.38   42.99
   2   1   8  285.17   54.35
   2   1   8  249.63   38.67
   2   1   9  412.15   64.79
   2   1   9  632.58   88.77
   2   1   9  613.17   65.04
   2   1  10   15.71   10.80
   2   1  10   -9.21   10.34
   2   1  10    4.65    6.95
   2   1  11   78.05   30.60
   2   1  11   88.33   30.56
   2   1  12  139.38   42.09
   2   1  12  180.93   54.44
   2   2 -11   17.07   20.14
   2   2 -10 1221.79  144.55
   2   2  -9   16.59    8.55
   2   2  -8 1012.15  117.61
   2   2  -8 1067.73   90.45
   2   2  -7  188.83   44.92
   2   2  -7  206.99   35.74
   2   2  -7  270.74   39.54
   2   2  -6 1216.26  112.45
   2   2  -6 1410.01  100.95
   2   2  -5  155.13   33.61
   2   2  -5  149.45   18.21
   2   2  -5  186.09   31.40
   2   2  -5  190.88   29.78
   2   2  -4 1575.46  110.64
   2   2  -4 1731.79   88.06
   2   2  -4 1698.21  107.37
   2   2  -3  606.66   53.52
   2   2  -3  504.26   55.02
   2   2  -3  541.12   40.78
   2   2  -3  557.78   52.59
   2   2  -3  625.49   50.91
   2   2  -3  667.86   63.80
   2   2  -2   99.04   17.23
   2   2  -2   85.26   14.13
   2   2  -2   87.73   18.58
   2   2  -2   91.95   19.84
   2   2  -2  110.53   18.98
   2   2  -2  113.77   22.95
   2   2  -1   63.61   10.24
   2   2  -1   41.81    9.69
   2   2  -1   39.11    9.72
   2   2  -1   53.52   15.22
   2   2  -1   63.30   12.58
   2   2  -1   59.42   13.95
   2   2   0   51.64    9.83
   2   2   0   45.51   10.90
   2   2   0   52.01   10.76
   2   2   0   33.67    6.34
   2   2   0   45.31    9.72
   2   2   0   48.49   10.92
   2   2   0   50.00   10.33
   2   2   1   91.46    8.61
   2   2   1   92.51   13.03
   2   2   1   81.57    7.83
   2   2   1   84.10   13.66
   2   2   1   96.95   13.73
   2   2   2  240.38   22.62
   2   2   2  247.80   22.74
   2   2   2  236.21   23.94
   2   2   2  219.56   19.09
   2   2   2  241.61   25.01
   2   2   2  277.15   23.89
   2   2   3 3323.52  138.05
   2   2   3 3386.65  144.99
   2   2   3 3248.68  135.24
   2   2   3 2908.91  137.73
   2   2   3 3343.03  146.52
   2   2   4  255.43   28.98
   2   2   4  245.61   31.13
   2   2   4  254.69   32.39
   2   2   4  249.41   24.64
   2   2   4  284.91   35.68
   2   2   5  977.65   69.66
   2   2   5 1152.67   79.98
   2   2   5 1091.64   59.65
   2   2   5 1052.21   81.54
   2   2   5  842.08   75.80
   2   2   6  363.51   46.70
   2   2   6  420.49   32.36
   2   2   7 1867.84  129.89
   2   2   7 2102.54   92.62
   2   2   7 1992.00  142.83
   2   2   8  405.94   57.55
   2   2   8  427.20   64.29
   2   2   9  442.94   64.99
   2   2   9  509.85   75.65
   2   2  10   10.80    6.34
   2   2  10   25.50   18.65
   2   2  11  110.30   35.17
   2   2  11   68.30   28.47
   2   2  12    4.51   15.46
   2   2  12    0.90    7.31
   2   3 -10  264.08   66.63
   2   3  -9  520.80   87.63
   2   3  -8  435.20   74.83
   2   3  -8  471.99   65.42
   2   3  -8  528.02   60.82
   2   3  -7   27.95   14.64
   2   3  -7   76.45   24.70
   2   3  -7   92.70   22.48
   2   3  -6 4402.70  236.73
   2   3  -6 4919.18  221.61
   2   3  -5 1189.14  101.70
   2   3  -5 1217.15  103.64
   2   3  -5 1398.92   95.79
   2   3  -4   67.20   20.17
   2   3  -4   91.33   23.60
   2   3  -4   81.04   20.47
   2   3  -3  307.39   38.47
   2   3  -3  281.37   33.98
   2   3  -3  289.11   42.53
   2   3  -3  306.56   44.15
   2   3  -3  329.25   38.54
   2   3  -2 2784.35  135.51
   2   3  -2 2792.68  136.97
   2   3  -2 2690.84  145.14
   2   3  -2 3073.92  162.79
   2   3  -2 2996.20  143.10
   2   3  -2 3045.45  157.58
   2   3  -1  291.65   27.68
   2   3  -1  238.77   28.48
   2   3  -1  314.53   42.86
   2   3  -1  269.10   30.73
   2   3  -1  279.93   32.46
   2   3   0 3633.82  138.49
   2   3   0 3622.39  186.17
   2   3   0 3606.94  156.17
   2   3   0 3167.40  139.03
   2   3   0 3745.46  158.72
   2   3   0 3653.29  146.39
   2   3   0 3454.53  147.04
   2   3   1   46.68    8.18
   2   3   1   39.41    9.48
   2   3   1   35.64    8.56
   2   3   1   37.32    7.89
   2   3   1   37.90   10.62
   2   3   2   78.08   12.11
   2   3   2  100.36   13.45
   2   3   2   87.13   16.38
   2   3   2   97.60   15.79
   2   3   2  104.36   12.97
   2   3   3   58.19   12.84
   2   3   3   46.04    9.38
   2   3   3   46.13   11.44
   2   3   3   47.23    9.28
   2   3   3   62.01   13.29
   2   3   4 5605.36  221.71
   2   3   4 5856.49  238.50
   2   3   4 5304.79  227.52
   2   3   4 5805.45  226.90
   2   3   4 5965.50  240.24
   2   3   5  733.82   55.01
   2   3   5  733.29   62.50
   2   3   5  665.34   51.13
   2   3   5  727.95   61.12
   2   3   5  809.71   67.75
   2   3   6    6.15    5.24
   2   3   6   -3.98    4.96
   2   3   6   10.07    5.85
   2   3   7   38.58   15.51
   2   3   7   40.94   10.14
   2   3   7   42.61   16.71
   2   3   8 1398.67  114.95
   2   3   8 1711.37  129.22
   2   3   9  158.68   37.12
   2   3   9  232.71   47.07
   2   3  10  120.66   33.47
   2   3  10  100.08   34.21
   2   3  11  159.41   44.18
   2   3  11  194.47   47.90
   2   3  12  125.83   39.78
   2   3  12  123.59   41.20
   2   3  13   23.72   19.40
   2   4 -10    5.10   11.53
   2   4  -9  561.06   93.38
   2   4  -8  142.59   43.65
   2   4  -7 1156.06  123.28
   2   4  -7 1482.38  133.94
   2   4  -7 1481.69  108.85
   2   4  -6  189.89   43.57
   2   4  -6  148.39   38.68
   2   4  -6  187.85   34.50
   2   4  -5 1589.88  126.98
   2   4  -5 2032.32  151.68
   2   4  -5 1920.63  120.69
   2   4  -4  483.65   59.18
   2   4  -4  609.42   74.71
   2   4  -4  520.89   55.02
   2   4  -3  275.03   39.29
   2   4  -3  351.43   54.18
   2   4  -3  303.29   39.97
   2   4  -2   19.22   10.20
   2   4  -2   34.51   13.25
   2   4  -2   13.34    8.71
   2   4  -2   13.66    6.52
   2   4  -2   35.88   13.30
   2   4  -1 1143.44   74.21
   2   4  -1 1017.95   78.79
   2   4  -1 1086.33   95.84
   2   4  -1 1038.99   74.08
   2   4  -1 1163.11   76.09
   2   4  -1 1149.20   78.43
   2   4   0  208.86   25.21
   2   4   0  167.36   28.39
   2   4   0  202.24   29.06
   2   4   0  194.28   37.13
   2   4   0  189.37   25.13
   2   4   0  199.46   29.15
   2   4   0  179.32   23.14
   2   4   1  155.09   20.45
   2   4   1  150.59   22.78
   2   4   1  157.96   26.12
   2   4   1  148.11   24.44
   2   4   1  135.66   18.65
   2   4   1  193.94   22.83
   2   4   2 1253.23   70.71
   2   4   2 1408.40   72.68
   2   4   2 1447.66  110.24
   2   4   2 1302.98   73.12
   2   4   2 1386.76   73.05
   2   4   3  366.63   28.84
   2   4   3  421.29   36.93
   2   4   3  404.54   41.94
   2   4   3  394.66   37.42
   2   4   3  410.30   35.02
   2   4   4  282.72   26.07
   2   4   4  312.03   35.79
   2   4   4  272.32   34.55
   2   4   4  300.69   29.19
   2   4   4  328.63   36.83
   2   4   5  593.34   45.16
   2   4   5  646.00   57.92
   2   4   5  600.34   52.35
   2   4   5  546.16   48.33
   2   4   5  691.66   61.84
   2   4   6 2643.48  134.64
   2   4   6 2846.59  156.75
   2   4   6 2977.40  143.20
   2   4   6 2848.97  150.40
   2   4   7  641.52   69.14
   2   4   7  755.80   71.29
   2   4   8  779.62   83.35
   2   4   8  988.86   90.73
   2   4   9  236.70   45.93
   2   4   9  365.50   56.88
   2   4  10  381.21   65.04
   2   4  10  573.99   77.35
   2   4  11  163.16   43.75
   2   4  11  167.91   44.00
   2   4  12  441.54   76.32
   2   4  12  605.54   89.55
   2   4  13    4.13    3.22
   2   5  -9  253.70   64.61
   2   5  -8  -13.65   12.82
   2   5  -7  947.44  112.76
   2   5  -7 1188.89  131.06
   2   5  -6  774.26   95.47
   2   5  -6  942.00  112.78
   2   5  -6  987.11   86.42
   2   5  -5  378.66   60.35
   2   5  -5  566.81   83.06
   2   5  -5  469.75   56.11
   2   5  -4   79.20   25.48
   2   5  -4   63.31   26.67
   2   5  -4   76.32   22.01
   2   5  -3 2157.56  144.45
   2   5  -3 2445.94  142.40
   2   5  -2  916.20   79.94
   2   5  -2  997.50  103.20
   2   5  -2  931.62   76.27
   2   5  -1  283.28   38.87
   2   5  -1  314.47   53.28
   2   5  -1  281.84   39.77
   2   5  -1  317.68   40.08
   2   5   0  131.20   23.89
   2   5   0  191.82   41.04
   2   5   1  689.43   54.76
   2   5   1  672.06   57.51
   2   5   1  702.15   55.34
   2   5   1  611.41   45.30
   2   5   2  188.02   25.40
   2   5   2  168.66   26.17
   2   5   2  173.62   25.31
   2   5   2  166.86   22.40
   2   5   3 4299.50  182.85
   2   5   3 3797.53  175.29
   2   5   3 4357.13  182.28
   2   5   4  317.07   27.01
   2   5   4  399.75   42.21
   2   5   4  388.26   46.20
   2   5   4  360.12   39.29
   2   5   4  378.84   39.24
   2   5   5    9.69    7.12
   2   5   5    4.31    2.75
   2   5   5   -3.85    9.27
   2   5   6   34.16   14.18
   2   5   6   29.05    9.51
   2   5   6   30.62   12.01
   2   5   7 2611.00  134.53
   2   5   7 2848.38  164.47
   2   5   7 2687.31  148.55
   2   5   8  541.02   68.88
   2   5   8  634.26   66.48
   2   5   9   41.25   18.02
   2   5   9   56.69   19.44
   2   5  10   63.23   24.66
   2   5  10   72.00   28.10
   2   5  11  365.59   65.67
   2   5  11  479.29   71.11
   2   5  12   56.89   26.89
   2   5  12   63.28   26.61
   2   5  13   70.70   28.96
   2   6  -8  591.53   97.80
   2   6  -7  222.57   56.16
   2   6  -7  299.58   69.29
   2   6  -6  962.64  112.60
   2   6  -6 1338.00  148.82
   2   6  -5  549.09   78.40
   2   6  -5  677.41  100.98
   2   6  -4  757.64   89.35
   2   6  -4  978.49  118.62
   2   6  -3  251.07   46.98
   2   6  -3  313.06   63.43
   2   6  -2 1619.69  123.55
   2   6  -2 1779.94  154.44
   2   6  -1  985.14   87.71
   2   6  -1  922.88  106.11
   2   6  -1  991.12   83.25
   2   6   0   46.92   13.98
   2   6   0   54.47   22.37
   2   6   0   52.50   17.39
   2   6   1   80.81   15.52
   2   6   1   38.71   14.08
   2   6   1   48.56   16.27
   2   6   1   57.60   24.51
   2   6   1   66.00   18.25
   2   6   2  682.46   62.26
   2   6   2  705.51   84.65
   2   6   2  692.63   61.75
   2   6   2  758.03   63.22
   2   6   2  657.46   49.59
   2   6   3    9.29    1.10
   2   6   3   15.67    6.64
   2   6   3   12.79    7.19
   2   6   3    5.34    4.58
   2   6   4  729.40   83.19
   2   6   4  611.15   54.35
   2   6   4  674.06   58.90
   2   6   5 1862.28  111.18
   2   6   5 2099.24  116.07
   2   6   6  561.92   39.44
   2   6   6  563.83   60.90
   2   6   6  678.40   63.21
   2   6   7  225.22   26.75
   2   6   7  280.88   44.43
   2   6   8  347.03   39.50
   2   6   8  422.66   59.53
   2   6   8  493.31   56.91
   2   6   9 1252.46  115.06
   2   6   9 1303.91  105.84
   2   6  10  587.51   80.00
   2   6  10  662.52   77.09
   2   6  11  467.43   74.72
   2   6  11  460.21   67.78
   2   6  12  117.89   38.56
   2   6  12  126.05   36.52
   2   6  13   19.12   17.78
   2   7  -7  438.78   83.46
   2   7  -6  262.24   60.26
   2   7  -6  311.96   74.11
   2   7  -5    7.88    8.87
   2   7  -5   23.75   26.37
   2   7  -4  910.18  106.98
   2   7  -4 1327.54  152.22
   2   7  -3  791.99   94.59
   2   7  -3 1000.89  127.20
   2   7  -2   34.77   15.08
   2   7  -2    9.98   11.47
   2   7  -1  112.60   28.88
   2   7  -1  171.27   47.03
   2   7  -1  127.75   29.85
   2   7   0  737.28   78.21
   2   7   0  787.28  100.07
   2   7   0  795.17   76.73
   2   7   1  477.61   57.88
   2   7   1  476.40   78.07
   2   7   1  500.62   58.08
   2   7   2 1037.22   87.49
   2   7   2 1045.69   85.03
   2   7   2 1088.12  114.37
   2   7   2 1161.26   88.39
   2   7   2  950.93   64.51
   2   7   3   15.26    6.04
   2   7   3   17.96    8.83
   2   7   3   31.62   13.46
   2   7   4   44.02   13.39
   2   7   4   60.62   24.29
   2   7   4   58.36   18.43
   2   7   5   62.12   17.28
   2   7   5   93.33   29.96
   2   7   5   87.61   22.66
   2   7   6 2471.22  148.54
   2   7   6 2678.55  153.36
   2   7   7  778.91   45.63
   2   7   7  917.66   83.19
   2   7   7  884.85   84.50
   2   7   8   31.27   14.75
   2   7   8   48.36   18.65
   2   7   9   13.55   13.59
   2   7  10  970.42  109.29
   2   7  10 1252.59  108.25
   2   7  11  462.16   75.22
   2   7  11  471.48   67.92
   2   7  12  112.23   38.20
   2   7  12   74.08   26.43
   2   7  13   84.66   30.44
   2   8  -6  131.13   44.62
   2   8  -6  189.18   62.07
   2   8  -5  375.44   75.09
   2   8  -5  613.41  113.58
   2   8  -4  291.02   61.97
   2   8  -4  484.50   98.18
   2   8  -3  832.18  104.10
   2   8  -3 1067.40  143.40
   2   8  -2  973.77  109.92
   2   8  -2 1027.99  136.48
   2   8  -1  328.02   59.89
   2   8  -1  439.13   85.31
   2   8  -1  433.11   63.01
   2   8   0  188.36   42.38
   2   8   0  212.13   54.70
   2   8   0  234.66   43.54
   2   8   1  504.57   66.81
   2   8   1  541.42   86.31
   2   8   1  482.35   62.34
   2   8   2  260.10   44.92
   2   8   2  301.15   47.48
   2   8   2  271.49   58.85
   2   8   2  264.20   44.67
   2   8   2  247.99   30.06
   2   8   3   91.98   18.26
   2   8   3   77.38   21.60
   2   8   3  107.66   35.54
   2   8   3  123.42   29.27
   2   8   4  315.82   46.30
   2   8   4  326.81   61.02
   2   8   4  314.12   47.08
   2   8   4  279.08   36.23
   2   8   5  439.29   71.64
   2   8   5  407.48   47.50
   2   8   5  422.37   55.66
   2   8   6   19.02   10.56
   2   8   6    1.87   14.18
   2   8   6   18.35   10.67
   2   8   7  597.90   68.84
   2   8   7  581.44   69.07
   2   8   8 1292.57  115.15
   2   8   8 1321.63  112.98
   2   8   9  599.06   78.89
   2   8   9  541.94   72.94
   2   8  10  138.10   39.65
   2   8  10  179.54   41.46
   2   8  11  119.14   37.61
   2   8  11   89.06   29.22
   2   8  12  114.28   38.56
   2   9  -5  397.47   80.79
   2   9  -4  661.47  102.05
   2   9  -4  858.24  144.45
   2   9  -3  222.73   56.01
   2   9  -3  319.56   83.14
   2   9  -2    4.98    2.55
   2   9  -2  -16.25   20.88
   2   9  -1  712.64   98.08
   2   9  -1  790.82  123.54
   2   9  -1  824.02   96.23
   2   9   0  623.85   88.41
   2   9   0  685.67  110.00
   2   9   0  701.33   85.46
   2   9   1   62.92   25.37
   2   9   1  111.45   42.43
   2   9   1  110.10   32.52
   2   9   2   -5.65    9.50
   2   9   2   10.29   17.10
   2   9   2   -2.44   10.48
   2   9   3  138.21   33.19
   2   9   3  167.75   49.62
   2   9   3  173.41   38.06
   2   9   3  134.51   22.37
   2   9   4  195.27   50.19
   2   9   4  122.11   29.48
   2   9   4  187.21   40.13
   2   9   4  165.92   26.99
   2   9   5 1406.16  113.75
   2   9   5 1540.92  148.74
   2   9   5 1624.50  124.76
   2   9   5 1472.51  100.39
   2   9   6  446.92   61.02
   2   9   6  482.93   80.27
   2   9   6  422.13   52.83
   2   9   6  502.64   65.75
   2   9   7   -3.69    0.64
   2   9   7   -4.90    1.45
   2   9   8   17.84   10.41
   2   9   8   27.40   16.20
   2   9   9 1014.23  108.38
   2   9   9 1187.72  114.66
   2   9  10  828.99  101.90
   2   9  10  782.18   95.79
   2   9  11   50.72   25.48
   2   9  11   15.57    7.63
   2   9  12   56.62   27.95
   2   9  12   24.63   13.30
   2   9  13  192.15   49.64
   2  10  -3  531.90   95.06
   2  10  -2  237.36   61.53
   2  10  -2  302.28   84.49
   2  10  -1  322.93   70.81
   2  10  -1  439.74   99.62
   2  10   0  265.42   61.19
   2  10   0  396.04   89.20
   2  10   0  302.23   61.31
   2  10   1  399.13   73.06
   2  10   1  447.50   93.33
   2  10   1  480.78   74.37
   2  10   2  -13.90   18.12
   2  10   2   -2.80   13.87
   2  10   2   30.54   21.34
   2  10   3   -3.81   16.83
   2  10   3    5.01    6.40
   2  10   4  145.14   35.73
   2  10   4  225.98   59.53
   2  10   4  189.71   43.17
   2  10   5   35.66   16.91
   2  10   5   31.42   18.16
   2  10   5   55.69   23.93
   2  10   6  248.38   59.48
   2  10   6  271.04   49.30
   2  10   6  254.91   40.46
   2  10   6  273.14   51.59
   2  10   7  519.26   71.76
   2  10   7  543.36   88.45
   2  10   7  479.48   61.07
   2  10   7  604.50   78.78
   2  10   8  251.49   46.63
   2  10   8  322.01   58.32
   2  10   9   15.91    5.13
   2  10   9   19.55   17.79
   2  10  10  236.95   55.04
   2  10  10  235.05   53.12
   2  10  11  377.03   70.39
   2  10  11  408.09   75.13
   2  10  12  202.67   56.11
   2  10  12  235.65   56.30
   2  11  -1  689.43  112.14
   2  11   0   52.51   30.22
   2  11   1   23.45   21.49
   2  11   1   18.65   10.56
   2  11   2  407.37   89.46
   2  11   2  387.72   69.00
   2  11   3  497.90   97.49
   2  11   3  574.50   83.94
   2  11   4  371.64   81.42
   2  11   4  275.25   56.27
   2  11   5  113.00   32.82
   2  11   5  143.97   47.84
   2  11   5  200.08   48.39
   2  11   6    1.65    4.52
   2  11   6   14.75    9.86
   2  11   6   23.24   15.98
   2  11   7   18.79   11.13
   2  11   7   15.43    6.15
   2  11   7   27.77   18.01
   2  11   8  911.92  104.74
   2  11   8 1081.42  117.66
   2  11   9  774.66  100.11
   2  11  10   33.63   21.32
   2  11  11   34.43   25.48
   2  12   6  188.19   45.29
   2  12   7  121.57   36.28
   2  12   7  151.87   51.37
   2  12   8   -2.54   11.61
   3  -9  -6   -3.37    5.80
   3  -9  -5   35.55   21.42
   3  -9  -4  421.65   77.77
   3  -8  -9  180.90   51.97
   3  -8  -8  297.66   65.83
   3  -8  -7  119.65   38.35
   3  -8  -6  557.32   85.79
   3  -8  -5  587.51   85.81
   3  -8  -4  102.80   36.13
   3  -8  -3  198.25   50.16
   3  -8  -2  713.74   95.69
   3  -8  -1  500.06   82.24
   3  -8  -1  505.58   85.60
   3  -8   0   87.75   33.23
   3  -8   0   22.18   16.34
   3  -7 -10  569.89   93.30
   3  -7  -9   82.11   33.47
   3  -7  -8  309.89   60.80
   3  -7  -7  -12.65   18.11
   3  -7  -6  205.45   49.66
   3  -7  -5  631.58   84.31
   3  -7  -4 1703.87  144.21
   3  -7  -3   30.38   15.92
   3  -7  -2    3.09    8.06
   3  -7  -1  279.69   55.77
   3  -7  -1  262.19   56.22
   3  -7   0 1319.80  130.59
   3  -7   0 1179.48  131.49
   3  -7   1   -4.79   16.77
   3  -7   1   -0.95    9.71
   3  -7   2   84.36   30.83
   3  -7   2   51.21   25.04
   3  -7   3   65.01   32.06
   3  -6 -11  390.43   78.69
   3  -6 -10   52.93   30.98
   3  -6  -9  565.32   84.66
   3  -6  -8   46.18   21.81
   3  -6  -7  270.11   52.67
   3  -6  -6  452.38   67.73
   3  -6  -5  307.74   52.56
   3  -6  -4  123.62   31.80
   3  -6  -3  721.56   82.37
   3  -6  -2  959.72   97.32
   3  -6  -1   44.09   18.19
   3  -6   0  277.92   53.87
   3  -6   0  308.19   59.09
   3  -6   1  323.40   60.18
   3  -6   1  310.93   61.39
   3  -6   2  424.38   71.14
   3  -6   2  442.63   78.63
   3  -6   3   64.05   27.03
   3  -6   3   84.23   35.41
   3  -6   4  438.02   79.89
   3  -6   4  435.27   86.23
   3  -6   4  434.70   81.23
   3  -6   5  -20.50   10.38
   3  -5 -12   90.80   40.65
   3  -5 -11  698.56  106.12
   3  -5 -10   26.51   19.64
   3  -5  -9   51.42   25.12
   3  -5  -8   32.96   18.24
   3  -5  -7  788.19   89.45
   3  -5  -6  270.26   49.03
   3  -5  -5 1590.44  123.06
   3  -5  -4   26.18    9.24
   3  -5  -4   17.54    6.97
   3  -5  -3  129.56   20.51
   3  -5  -3  126.98   29.44
   3  -5  -2  552.79   47.52
   3  -5  -2  654.54   71.55
   3  -5  -1 3601.40  203.40
   3  -5   0   72.84   22.15
   3  -5   1   15.74   14.37
   3  -5   1   17.59    7.87
   3  -5   2   75.82   25.65
   3  -5   2   72.12   27.44
   3  -5   3  665.15   95.18
   3  -5   4   64.80   31.66
   3  -5   4   23.31   19.50
   3  -5   5  339.01   74.07
   3  -5   5  215.52   54.17
   3  -5   6   18.22   17.90
   3  -5   7   21.08   19.06
   3  -4 -12 1035.55  139.26
   3  -4 -11   -3.27    8.97
   3  -4 -10 1004.37  120.92
   3  -4  -9    2.02    5.87
   3  -4  -8   60.57   25.35
   3  -4  -7   15.12   10.70
   3  -4  -6  609.58   71.57
   3  -4  -5  105.15   28.49
   3  -4  -4 1421.34   82.19
   3  -4  -4 1123.80   94.40
   3  -4  -3 1091.47   66.96
   3  -4  -3  956.12   83.50
   3  -4  -2  252.31   29.10
   3  -4  -2  233.71   38.27
   3  -4  -1  280.01   33.01
   3  -4  -1  297.91   44.63
   3  -4   0  806.27   77.95
   3  -4   1 1045.24   93.44
   3  -4   1 1126.59  105.26
   3  -4   1 1063.21   69.99
   3  -4   2   78.01   28.06
   3  -4   2   64.29   16.22
   3  -4   3  358.15   63.74
   3  -4   4   43.52   24.46
   3  -4   4   63.79   24.87
   3  -4   5  112.09   38.05
   3  -4   5   32.81   19.36
   3  -4   6  149.63   49.00
   3  -4   6   92.52   32.83
   3  -4   7  700.45  111.51
   3  -4   7  596.85   93.20
   3  -4   8   18.77   18.44
   3  -3 -12  741.92  124.92
   3  -3 -12  852.33  126.39
   3  -3 -11  470.44   86.94
   3  -3 -10   27.87   18.21
   3  -3  -9   92.81   32.12
   3  -3  -8  860.89   96.77
   3  -3  -7   42.14   19.84
   3  -3  -6  873.94   83.69
   3  -3  -5   12.72    1.11
   3  -3  -4  231.49   35.75
   3  -3  -3  548.44   44.93
   3  -3  -3  514.47   52.94
   3  -3  -2 4776.59  191.45
   3  -3  -2 4433.17  212.64
   3  -3  -1  215.36   27.10
   3  -3  -1  259.07   36.76
   3  -3   0   42.32   12.73
   3  -3   0   54.38   16.61
   3  -3   0   55.07    9.45
   3  -3   1   68.41   19.87
   3  -3   1   76.73   24.95
   3  -3   1   66.35   13.80
   3  -3   2 2677.20  173.68
   3  -3   2 2799.46  116.02
   3  -3   3   13.20    5.17
   3  -3   3   16.95   11.16
   3  -3   3    7.65    4.84
   3  -3   4  428.57   68.17
   3  -3   4  397.50   39.00
   3  -3   5   26.63   10.94
   3  -3   5   53.63   28.97
   3  -3   5   21.91   15.12
   3  -3   6  133.84   40.12
   3  -3   6  115.30   36.99
   3  -3   7  232.79   57.89
   3  -3   7  139.55   41.97
   3  -3   8  645.90  106.70
   3  -3   8  557.46   87.48
   3  -2 -12   -6.77    5.85
   3  -2 -12   10.28   16.20
   3  -2 -11  854.31  125.75
   3  -2 -11  799.76  117.80
   3  -2 -10    9.65   14.40
   3  -2 -10   26.37   17.39
   3  -2  -9  282.01   61.12
   3  -2  -8   15.77    6.92
   3  -2  -7 1500.80  123.32
   3  -2  -6   94.19   26.94
   3  -2  -5  602.96   61.91
   3  -2  -4  342.92   42.00
   3  -2  -3  969.72   71.52
   3  -2  -3 1142.67   73.15
   3  -2  -2   60.98   17.76
   3  -2  -2  111.39   20.51
   3  -2  -2  117.01   17.97
   3  -2  -1 1929.68  109.09
   3  -2  -1 2089.40  101.25
   3  -2   0 1885.70   99.00
   3  -2   0 1846.83  105.72
   3  -2   0 1788.96   73.41
   3  -2   0 1894.08  102.04
   3  -2   1  213.04   29.69
   3  -2   1  198.12   28.58
   3  -2   1  261.28   25.16
   3  -2   2  714.08   72.39
   3  -2   2  686.17   45.73
   3  -2   3  673.77   74.21
   3  -2   3  506.97   36.03
   3  -2   3  702.29   49.48
   3  -2   4  522.63   69.61
   3  -2   4  516.77   46.39
   3  -2   5    0.10    2.80
   3  -2   5   12.09   18.67
   3  -2   5   -1.55    8.76
   3  -2   6  631.28   87.66
   3  -2   6  472.99   67.63
   3  -2   6  562.31   58.52
   3  -2   7   -9.76    9.69
   3  -2   7   -5.90    7.62
   3  -2   8  123.40   42.67
   3  -2   8   98.39   33.02
   3  -2   9  198.26   55.48
   3  -2   9  197.35   48.97
   3  -1 -12  868.07  133.79
   3  -1 -11  161.38   52.25
   3  -1 -11  192.53   41.42
   3  -1 -10  168.65   48.51
   3  -1 -10  162.00   50.28
   3  -1  -9  887.83  116.05
   3  -1  -9  875.17  109.06
   3  -1  -8  319.12   59.18
   3  -1  -7   22.34   12.38
   3  -1  -6   24.51   12.11
   3  -1  -5  650.85   65.18
   3  -1  -4  238.76   33.49
   3  -1  -3 4293.73  188.75
   3  -1  -3 4322.78  184.61
   3  -1  -3 3746.52  193.59
   3  -1  -2  207.52   26.33
   3  -1  -2  233.47   29.35
   3  -1  -2  210.32   30.75
   3  -1  -2  236.42   26.89
   3  -1  -1   22.73   10.23
   3  -1  -1   28.60    9.45
   3  -1  -1   21.18    7.20
   3  -1   0  282.87   35.76
   3  -1   0  276.75   30.47
   3  -1   0  260.49   29.32
   3  -1   0  305.09   29.93
   3  -1   0  258.58   27.78
   3  -1   1 6063.71  251.09
   3  -1   1 5582.90  234.32
   3  -1   1 5861.71  221.04
   3  -1   1 5559.88  226.18
   3  -1   2  222.53   30.66
   3  -1   2  266.94   30.79
   3  -1   2  264.79   26.98
   3  -1   3  135.49   29.61
   3  -1   3  110.30   21.66
   3  -1   3  130.77   20.43
   3  -1   4   23.78    8.84
   3  -1   4   12.68   10.28
   3  -1   5 1109.15  103.48
   3  -1   5  916.95   82.78
   3  -1   5 1060.46   78.78
   3  -1   6    7.05    6.95
   3  -1   6    3.78    9.66
   3  -1   6    9.37    5.25
   3  -1   7  951.27  108.42
   3  -1   7  851.16   81.14
   3  -1   7  823.03   87.52
   3  -1   8   27.51   13.20
   3  -1   8   65.28   30.30
   3  -1   8   43.96   21.29
   3  -1   9    0.35    8.20
   3  -1   9   16.20   18.00
   3  -1   9   -6.44   13.90
   3  -1  10  242.15   65.68
   3   0 -12  669.72  117.89
   3   0 -11  264.41   66.98
   3   0 -10  629.93  104.11
   3   0 -10  913.58   91.80
   3   0  -9   45.79   30.40
   3   0  -9   61.25   20.58
   3   0  -8 1582.96  149.41
   3   0  -8 1860.87  154.36
   3   0  -7   63.76   28.52
   3   0  -7   98.74   29.87
   3   0  -6   67.53   23.50
   3   0  -5   85.28   23.45
   3   0  -4 2317.09  131.35
   3   0  -4 2090.00  136.08
   3   0  -4 2574.92  138.49
   3   0  -3   98.02   18.74
   3   0  -3  101.65   21.58
   3   0  -3   86.17   19.04
   3   0  -2 3673.61  157.28
   3   0  -2 3196.37  144.54
   3   0  -2 3332.85  139.03
   3   0  -1 1309.62   74.07
   3   0  -1 1300.16   64.87
   3   0  -1 1251.82   73.20
   3   0   0  962.92   61.22
   3   0   0  876.07   52.41
   3   0   0  911.25   57.64
   3   0   0 1030.94   60.80
   3   0   1  301.54   33.57
   3   0   1  286.46   30.79
   3   0   1  268.67   27.01
   3   0   1  267.93   23.44
   3   0   2 2954.06  138.80
   3   0   2 2912.55  143.69
   3   0   2 2798.35  123.50
   3   0   2 2971.76  130.33
   3   0   2 2687.54  114.38
   3   0   3 2097.58  117.49
   3   0   3 2249.43  102.12
   3   0   3 2166.83  100.54
   3   0   4  145.04   24.11
   3   0   4  112.12   26.63
   3   0   4  115.57   22.40
   3   0   4  130.59   22.66
   3   0   5  712.99   76.15
   3   0   5  650.49   60.14
   3   0   5  689.95   62.07
   3   0   6  135.39   28.62
   3   0   6  142.62   35.54
   3   0   7    1.28   10.09
   3   0   7   -3.61   11.82
   3   0   7    1.50    9.43
   3   0   8  121.64   31.52
   3   0   8  176.22   45.75
   3   0   8  142.42   32.85
   3   0   9  807.01   92.57
   3   0   9 1033.29  121.93
   3   0   9  999.71   96.18
   3   0  10   -4.51   14.47
   3   0  10   26.34   25.18
   3   0  11  383.37   70.81
   3   1 -11   47.12   27.19
   3   1 -10  460.52   87.00
   3   1 -10  540.25   71.71
   3   1  -9  733.18  104.78
   3   1  -9 1171.83  102.51
   3   1  -8  121.51   37.73
   3   1  -8  157.66   33.74
   3   1  -7   66.83   25.02
   3   1  -7   82.39   12.58
   3   1  -7   82.40   23.00
   3   1  -6  493.13   67.89
   3   1  -6  626.29   59.86
   3   1  -5   27.63   11.72
   3   1  -5    7.20    1.78
   3   1  -5   23.91   10.85
   3   1  -4  916.97   74.66
   3   1  -4  836.93   80.98
   3   1  -4  908.68   66.02
   3   1  -3  163.21   25.91
   3   1  -3  153.01   28.43
   3   1  -3  189.22   31.10
   3   1  -2  528.00   39.77
   3   1  -2  422.16   42.26
   3   1  -2  488.71   45.40
   3   1  -2  427.18   38.71
   3   1  -1  108.77   19.03
   3   1  -1  121.40   13.54
   3   1  -1  110.11   15.22
   3   1  -1   98.47   15.38
   3   1  -1  115.30   18.03
   3   1  -1  137.73   19.59
   3   1   0 7831.73  290.63
   3   1   0 7676.91  278.05
   3   1   0 7654.02  268.03
   3   1   0 7510.55  273.21
   3   1   0 7762.51  287.53
   3   1   0 8046.48  294.58
   3   1   1 1319.36   67.21
   3   1   1 1298.93   70.87
   3   1   1 1200.27   68.04
   3   1   1 1299.77   67.77
   3   1   1 1137.44   49.54
   3   1   2    8.11    3.67
   3   1   2    6.00    4.46
   3   1   2    4.61    3.60
   3   1   2    1.38    2.10
   3   1   2    1.25    0.76
   3   1   2    3.11    2.21
   3   1   3   39.00   10.49
   3   1   3   12.34    6.36
   3   1   3   21.78    8.60
   3   1   3   18.06    6.60
   3   1   3   11.45    5.28
   3   1   3   15.05    4.31
   3   1   4 4355.37  199.93
   3   1   4 4182.72  192.56
   3   1   4 3738.66  168.71
   3   1   4 4172.17  181.63
   3   1   4 3484.60  159.72
   3   1   5  325.87   46.08
   3   1   5  267.04   32.04
   3   1   5  330.95   41.54
   3   1   5  297.47   37.27
   3   1   6  798.44   73.46
   3   1   6  913.33   87.42
   3   1   6  772.13   63.94
   3   1   7   10.58    7.12
   3   1   7    0.09    0.97
   3   1   7   19.40   15.02
   3   1   8  123.75   33.76
   3   1   8   92.83   32.49
   3   1   8  114.53   25.30
   3   1   9   29.12   17.04
   3   1   9   25.91   20.66
   3   1   9   31.70   15.04
   3   1  10  866.55  101.51
   3   1  10 1056.30  125.72
   3   1  11   40.22   19.90
   3   1  11   99.22   36.36
   3   1  12   74.85   31.99
   3   2 -11  672.89  112.02
   3   2 -10  133.94   44.83
   3   2  -9 1290.60  144.74
   3   2  -9 2130.42  144.50
   3   2  -8  508.88   80.57
   3   2  -8  722.05   75.34
   3   2  -7  210.09   46.90
   3   2  -7  271.57   34.67
   3   2  -7  250.16   42.12
   3   2  -6  141.88   34.11
   3   2  -6  153.60   25.90
   3   2  -6  179.30   22.74
   3   2  -6  162.82   32.30
   3   2  -5 2206.09  107.31
   3   2  -5 2190.66  122.17
   3   2  -5 2414.73  133.15
   3   2  -4  128.21   27.86
   3   2  -4  122.82   23.60
   3   2  -4  109.00   18.27
   3   2  -4  126.98   24.16
   3   2  -3 1009.28   75.28
   3   2  -3 1017.81   83.84
   3   2  -3 1302.07   96.05
   3   2  -3 1239.58   80.57
   3   2  -2  305.44   31.91
   3   2  -2  273.22   34.97
   3   2  -2  325.60   35.98
   3   2  -1 2015.26  105.36
   3   2  -1 2201.84  109.59
   3   2   0  110.20   18.02
   3   2   0   91.09   14.46
   3   2   0  101.26   12.64
   3   2   0  106.08   18.72
   3   2   0  112.11   16.78
   3   2   0  127.29   19.84
   3   2   1 5956.65  218.15
   3   2   1 6500.21  224.01
   3   2   1 6825.04  244.57
   3   2   1 6533.71  244.99
   3   2   1 6769.20  246.16
   3   2   1 5877.19  227.23
   3   2   2 2745.48  123.52
   3   2   2 2613.80  114.32
   3   2   2 2863.83  121.06
   3   2   2 2496.45  110.27
   3   2   2 2634.49  117.51
   3   2   2 2774.05  125.23
   3   2   3  761.32   55.53
   3   2   3  741.99   54.96
   3   2   3  840.60   61.92
   3   2   3  707.78   51.49
   3   2   3  698.32   44.44
   3   2   3  741.15   55.24
   3   2   4   20.52    9.51
   3   2   4   37.07   11.73
   3   2   4   50.55   14.56
   3   2   4   50.16   16.01
   3   2   4   30.99   11.14
   3   2   4   38.95    6.57
   3   2   5  766.53   68.74
   3   2   5  780.70   53.23
   3   2   5  804.80   67.37
   3   2   5  717.13   43.32
   3   2   6  505.75   56.53
   3   2   6  515.08   60.54
   3   2   6  501.41   40.98
   3   2   6  449.07   37.29
   3   2   7    9.85   10.03
   3   2   7    1.02   10.66
   3   2   7    4.14    4.39
   3   2   7   26.10    9.28
   3   2   8  734.71   82.06
   3   2   8  891.23   96.62
   3   2   8  901.64   53.42
   3   2   8  908.01   66.67
   3   2   9   59.96   23.86
   3   2   9   88.57   31.91
   3   2  10  196.26   45.87
   3   2  10  239.64   55.63
   3   2  11  191.23   50.26
   3   2  11  187.90   52.79
   3   2  12  675.96  100.13
   3   2  12  746.22  111.47
   3   3 -10  878.25  121.94
   3   3  -9  278.48   62.07
   3   3  -8   77.31   30.90
   3   3  -8  121.99   30.15
   3   3  -7  318.06   59.03
   3   3  -7  428.48   55.64
   3   3  -7  520.31   62.60
   3   3  -6  394.50   60.57
   3   3  -6  472.79   58.69
   3   3  -6  487.69   58.59
   3   3  -5   42.63   17.25
   3   3  -5   32.09   11.56
   3   3  -5    4.29    2.69
   3   3  -5   52.55   17.86
   3   3  -4  256.01   39.54
   3   3  -4  251.82   41.04
   3   3  -4  277.66   34.50
   3   3  -4  297.75   40.88
   3   3  -3  293.89   37.43
   3   3  -3  337.57   36.69
   3   3  -3  317.93   44.31
   3   3  -3  351.89   48.42
   3   3  -3  353.91   42.38
   3   3  -2  147.73   21.52
   3   3  -2  159.72   24.56
   3   3  -2  145.95   25.74
   3   3  -2  168.06   32.51
   3   3  -2  136.88   25.65
   3   3  -2  183.59   32.01
   3   3  -1 4038.72  159.38
   3   3  -1 3753.50  172.16
   3   3  -1 4213.57  180.72
   3   3  -1 4348.77  215.80
   3   3  -1 4418.17  190.34
   3   3  -1 4554.93  196.25
   3   3   0 1303.52   82.31
   3   3   0 1352.28   77.21
   3   3   0 1049.97   56.69
   3   3   0 1167.83   71.96
   3   3   0 1282.14   79.18
   3   3   0 1232.43   75.05
   3   3   0 1246.21   73.97
   3   3   1  418.71   22.76
   3   3   1  455.08   39.21
   3   3   1  484.88   43.08
   3   3   1  451.53   38.53
   3   3   1  454.66   28.16
   3   3   2   93.09   16.64
   3   3   2   83.11   15.02
   3   3   2   88.28   12.30
   3   3   2   89.60   17.76
   3   3   2   89.41   16.88
   3   3   2  103.27    9.93
   3   3   3 5683.43  216.61
   3   3   3 5333.14  213.14
   3   3   3 5537.31  222.17
   3   3   3 5507.87  223.86
   3   3   3 5700.94  215.55
   3   3   4 1228.25   76.20
   3   3   4 1226.41   79.61
   3   3   4 1101.28   72.89
   3   3   4 1276.62   76.66
   3   3   4 1313.22   84.21
   3   3   5  495.69   48.07
   3   3   5  523.55   54.11
   3   3   5  444.57   48.32
   3   3   5  472.92   43.66
   3   3   5  494.12   52.52
   3   3   6   12.78    7.08
   3   3   6   18.74    8.49
   3   3   7 1089.34   94.80
   3   3   7 1125.17   71.25
   3   3   7 1201.41  101.03
   3   3   8  220.50   43.23
   3   3   8  210.61   26.32
   3   3   8  180.92   39.21
   3   3   9  962.67  100.74
   3   3   9 1147.78  113.90
   3   3  10   30.03   16.85
   3   3  10   75.90   30.35
   3   3  11    6.36    8.39
   3   3  11    9.35   13.54
   3   3  12  106.52   36.91
   3   3  12  162.89   47.88
   3   4 -10  605.02  101.88
   3   4  -9  371.46   74.35
   3   4  -8  310.45   62.85
   3   4  -8  444.22   61.98
   3   4  -7  304.86   57.50
   3   4  -7  410.87   63.13
   3   4  -7  481.45   62.47
   3   4  -6 1422.71  122.30
   3   4  -6 1519.65  114.20
   3   4  -5  271.76   46.23
   3   4  -5  364.00   57.32
   3   4  -5  386.54   52.11
   3   4  -4  138.03   28.44
   3   4  -4  137.39   28.06
   3   4  -4  171.07   38.34
   3   4  -4  156.53   31.58
   3   4  -3   65.25   18.22
   3   4  -3   75.87   19.88
   3   4  -3   84.16   23.09
   3   4  -3   65.67   20.46
   3   4  -2 1063.80   72.64
   3   4  -2 1061.89   81.39
   3   4  -2 1246.29  105.70
   3   4  -2 1184.57   83.70
   3   4  -2 1137.71   85.81
   3   4  -1  116.61   18.11
   3   4  -1   96.36   18.82
   3   4  -1  107.26   30.71
   3   4  -1  136.49   24.70
   3   4  -1  100.00   23.29
   3   4   0 2573.17  112.61
   3   4   0 2435.67  116.51
   3   4   0 3108.62  145.55
   3   4   0 3143.78  183.22
   3   4   0 2959.58  129.45
   3   4   0 2948.44  145.70
   3   4   0 2681.86  131.71
   3   4   1  702.12   56.58
   3   4   1  670.74   58.21
   3   4   1  690.23   45.29
   3   4   1  685.39   58.04
   3   4   1  667.70   50.89
   3   4   2  895.48   59.86
   3   4   2  950.87   51.39
   3   4   2  971.69   70.48
   3   4   2  943.36   52.23
   3   4   2  967.96   69.19
   3   4   2  998.37   64.36
   3   4   3   13.00    7.79
   3   4   3   17.36    6.93
   3   4   3   24.05    7.98
   3   4   3   23.16    8.63
   3   4   3   17.81    5.92
   3   4   4 2944.35  136.05
   3   4   4 3217.31  147.50
   3   4   4 3118.55  149.22
   3   4   4 2779.90  126.71
   3   4   4 3130.43  151.65
   3   4   5 1616.79   94.98
   3   4   5 1767.52  106.83
   3   4   5 1729.44  100.90
   3   4   5 1670.54   95.45
   3   4   5 1659.44  107.52
   3   4   6  165.92   31.27
   3   4   6  174.64   28.62
   3   4   6  173.08   27.47
   3   4   6  170.58   29.64
   3   4   7  135.05   32.36
   3   4   7  165.02   26.13
   3   4   7  172.00   32.38
   3   4   8  163.64   36.99
   3   4   8  185.13   28.21
   3   4   8  161.11   35.44
   3   4   9   18.49   12.63
   3   4   9   -6.66    3.70
   3   4  10   -0.39    5.91
   3   4  10   30.69   17.19
   3   4  11  532.85   82.26
   3   4  11  779.92   98.01
   3   4  12   84.12   33.86
   3   4  12   87.69   34.25
   3   4  13  441.72   82.38
   3   5  -9  117.65   41.20
   3   5  -8  332.59   68.27
   3   5  -7  636.92   88.65
   3   5  -7  929.00  108.47
   3   5  -7  941.35   92.67
   3   5  -6  147.37   38.01
   3   5  -6  224.39   49.14
   3   5  -6  131.38   30.89
   3   5  -5  250.76   46.41
   3   5  -5  380.89   65.10
   3   5  -5  290.40   47.09
   3   5  -4  430.19   56.64
   3   5  -4  526.33   76.15
   3   5  -4  478.65   59.72
   3   5  -3   63.07   20.75
   3   5  -3   94.92   30.45
   3   5  -3   62.77   19.80
   3   5  -2  674.67   62.41
   3   5  -2  728.66   86.46
   3   5  -2  692.38   67.99
   3   5  -1  814.96   64.02
   3   5  -1  727.19   63.11
   3   5  -1  937.75   96.76
   3   5  -1  875.51   75.10
   3   5   0  207.39   25.70
   3   5   0  222.28   44.91
   3   5   0   99.63   23.02
   3   5   0  199.46   28.87
   3   5   0  202.84   28.40
   3   5   0  187.63   30.56
   3   5   1  129.90   19.07
   3   5   1  122.65   21.08
   3   5   1  121.38   20.23
   3   5   1  116.37   24.87
   3   5   2 5262.87  201.38
   3   5   2 5050.94  204.20
   3   5   2 4667.55  207.98
   3   5   3 1250.35   76.39
   3   5   3 1443.44   78.27
   3   5   3 1443.01   97.92
   3   5   3 1307.02   83.44
   3   5   3 1439.86   77.41
   3   5   4  147.47   25.43
   3   5   4  131.30   19.73
   3   5   4  181.39   26.41
   3   5   4  148.30   28.34
   3   5   4  169.87   22.95
   3   5   5   12.55    9.42
   3   5   5    7.73    4.72
   3   5   5   12.04    8.18
   3   5   5    1.25    6.07
   3   5   5   13.12    6.23
   3   5   5    6.21    6.02
   3   5   6 1970.08  111.12
   3   5   6 2274.12  127.15
   3   5   6 2042.61  113.07
   3   5   6 2044.96  130.34
   3   5   7 1036.55   92.29
   3   5   7 1031.24   80.51
   3   5   8  662.71   77.89
   3   5   8  775.20   68.66
   3   5   9   17.84    9.81
   3   5   9    2.17    3.02
   3   5  10   34.29   18.19
   3   5  10   42.32   20.38
   3   5  11   -4.77   14.67
   3   5  11   12.44   11.71
   3   5  12  978.30  120.01
   3   5  12 1252.75  127.11
   3   5  13  240.04   56.44
   3   6  -8  189.63   51.74
   3   6  -7  711.23   97.44
   3   6  -7 1011.64  123.19
   3   6  -6  487.64   75.91
   3   6  -6  668.68   98.24
   3   6  -6  636.80   75.62
   3   6  -5   17.64   12.62
   3   6  -5   22.80   17.12
   3   6  -5   35.31   18.34
   3   6  -4  270.52   48.07
   3   6  -4  392.86   71.90
   3   6  -4  340.40   52.41
   3   6  -3  615.86   71.13
   3   6  -3  809.19  100.84
   3   6  -3  665.74   72.59
   3   6  -2  163.81   33.21
   3   6  -2  160.92   43.05
   3   6  -2  177.31   35.23
   3   6  -1 1684.22  114.82
   3   6  -1 1846.59  136.54
   3   6  -1 2120.00  165.17
   3   6  -1 1866.35  125.21
   3   6  -1 1926.26  120.55
   3   6   0  261.13   34.98
   3   6   0  230.84   42.57
   3   6   0  292.96   56.51
   3   6   0  256.50   40.94
   3   6   0  245.69   35.69
   3   6   1  457.58   43.44
   3   6   1  499.91   52.84
   3   6   1  504.72   60.50
   3   6   1  547.95   75.91
   3   6   1  397.64   40.13
   3   6   2   91.33   18.19
   3   6   2   85.67   24.21
   3   6   2   86.95   21.15
   3   6   2   80.08   28.06
   3   6   3 3141.09  143.56
   3   6   3 2783.52  164.11
   3   6   3 3139.02  200.61
   3   6   3 2716.54  142.77
   3   6   4 1394.98   83.64
   3   6   4 1717.36   98.25
   3   6   4 1720.03  116.87
   3   6   4 1667.40  101.40
   3   6   5  419.21   38.42
   3   6   5  479.59   58.61
   3   6   5  451.01   51.22
   3   6   6   17.87   11.81
   3   6   6   27.11    9.40
   3   6   6   37.07   15.31
   3   6   6    5.95    5.53
   3   6   7  568.71   51.64
   3   6   7  691.72   69.51
   3   6   7  680.61   72.17
   3   6   8  248.40   45.86
   3   6   8  302.95   42.82
   3   6   9    3.99    4.55
   3   6   9    6.44    1.83
   3   6  10  395.08   66.39
   3   6  10  379.41   56.65
   3   6  11  105.82   34.55
   3   6  11  143.22   36.04
   3   6  12   91.10   32.90
   3   6  12  164.77   42.12
   3   6  13  120.06   37.77
   3   7  -7  423.37   77.54
   3   7  -6  147.19   42.42
   3   7  -6  259.75   66.72
   3   7  -5  406.24   68.08
   3   7  -5  518.32   92.46
   3   7  -4  203.98   45.20
   3   7  -4  384.66   75.91
   3   7  -3    2.63    3.28
   3   7  -3   11.10   19.75
   3   7  -2  410.45   59.70
   3   7  -2  452.06   79.79
   3   7  -1  238.47   41.78
   3   7  -1  295.74   62.50
   3   7  -1  276.39   44.11
   3   7   0    5.73    3.33
   3   7   0   18.22    9.99
   3   7   0   23.34   13.10
   3   7   1 1536.94  103.59
   3   7   1 1794.86  155.08
   3   7   1 1663.48  115.19
   3   7   1 1683.30  109.52
   3   7   1 1422.84   92.19
   3   7   2 1103.04   88.44
   3   7   2 1295.20  125.77
   3   7   2 1210.81  107.16
   3   7   2 1182.70   85.62
   3   7   2 1000.22   72.77
   3   7   3    7.25    6.77
   3   7   3  -11.92    7.51
   3   7   3    0.23    6.23
   3   7   3    1.60    7.69
   3   7   3   -7.20    4.00
   3   7   4   41.94   14.07
   3   7   4   13.75    1.48
   3   7   4   25.99    9.38
   3   7   4   40.88   12.92
   3   7   5 2334.01  118.89
   3   7   5 2692.42  167.66
   3   7   5 2551.65  144.47
   3   7   6 1253.27   75.47
   3   7   6 1368.80  103.19
   3   7   6 1548.31  100.92
   3   7   7  329.18   34.67
   3   7   7  353.23   51.49
   3   7   7  422.85   51.34
   3   7   8   23.92   13.64
   3   7   8   13.53    3.26
   3   7   9  213.29   46.01
   3   7   9  282.68   44.00
   3   7  10  168.44   42.21
   3   7  10  232.18   41.88
   3   7  11  726.99   98.14
   3   7  11  785.97   86.18
   3   7  12   95.21   34.02
   3   7  12   77.44   27.16
   3   7  13   58.05   25.31
   3   8  -6  152.38   46.16
   3   8  -6  231.37   66.89
   3   8  -5  284.00   60.48
   3   8  -5  395.19   85.98
   3   8  -4  540.78   81.06
   3   8  -4  544.62  101.84
   3   8  -3  568.44   81.44
   3   8  -3  783.63  118.61
   3   8  -2  235.02   48.91
   3   8  -2  283.29   66.50
   3   8  -1   10.48    8.18
   3   8  -1    5.90   13.60
   3   8  -1   19.66   14.46
   3   8   0  449.85   61.49
   3   8   0  521.49   86.77
   3   8   0  450.98   60.05
   3   8   1  322.78   47.99
   3   8   1  381.02   73.49
   3   8   1  396.63   53.56
   3   8   2 2342.62  147.42
   3   8   2 2377.38  144.52
   3   8   2 2049.18  118.74
   3   8   3 1393.34  108.65
   3   8   3 1766.03  155.18
   3   8   3 1690.87  113.36
   3   8   3 1461.03   95.18
   3   8   4  382.07   51.88
   3   8   4  452.77   74.31
   3   8   4  460.56   54.22
   3   8   4  383.82   45.68
   3   8   5   64.27   18.77
   3   8   5   88.20   31.48
   3   8   5   84.65   22.62
   3   8   6 1106.55   92.22
   3   8   6 1199.50   93.84
   3   8   7  759.76   80.76
   3   8   7  903.29   82.61
   3   8   8   19.11   10.39
   3   8   8   31.22   12.29
   3   8   9   65.40   23.72
   3   8   9   85.83   26.62
   3   8  10  352.72   64.12
   3   8  10  265.12   50.16
   3   8  11    0.47   12.09
   3   8  11   -8.92   10.58
   3   8  12   64.18   24.13
   3   8  12   58.71   22.50
   3   9  -5  217.15   55.60
   3   9  -5  256.45   75.37
   3   9  -4  271.95   60.53
   3   9  -4  427.99   95.45
   3   9  -3  137.41   41.41
   3   9  -3  142.18   50.36
   3   9  -2  305.31   61.22
   3   9  -2  420.53   89.68
   3   9  -1   20.56   14.99
   3   9  -1   13.00   11.81
   3   9   0  289.34   52.97
   3   9   0  254.50   66.50
   3   9   0  285.74   51.99
   3   9   1  468.72   65.90
   3   9   1  564.58   97.42
   3   9   1  540.00   69.38
   3   9   2   50.17   15.55
   3   9   2   54.68   21.47
   3   9   2   66.36   30.22
   3   9   2   52.03   19.74
   3   9   3   10.57    5.52
   3   9   3   25.01   12.50
   3   9   3   -4.31    6.33
   3   9   3   30.57   16.99
   3   9   4 1190.75  104.79
   3   9   4 1478.17  146.73
   3   9   4 1458.31  112.48
   3   9   4 1304.58   92.53
   3   9   5 1277.47  107.80
   3   9   5 1451.44  143.34
   3   9   5 1423.72  110.21
   3   9   5 1292.84   97.57
   3   9   6    9.19    6.60
   3   9   6   29.84   14.75
   3   9   7   24.89   14.31
   3   9   7   19.01   10.65
   3   9   8  668.49   81.46
   3   9   8  691.02   77.79
   3   9   9  790.12   95.20
   3   9   9  768.94   87.14
   3   9  10  264.98   57.50
   3   9  10  251.55   51.00
   3   9  11   74.90   30.42
   3   9  11   37.72   16.68
   3   9  12   12.93   19.94
   3   9  12   -4.55   11.13
   3   9  13   -9.07   11.80
   3  10  -3   14.12   15.24
   3  10  -3  -39.49   34.59
   3  10  -2   91.53   34.33
   3  10  -2  165.10   60.35
   3  10  -1  256.38   59.42
   3  10  -1  375.59   88.02
   3  10   0  590.31   86.31
   3  10   0  771.05  124.87
   3  10   0  661.88   86.13
   3  10   1  569.36   80.55
   3  10   1  815.06  123.27
   3  10   1  774.59   91.19
   3  10   2  461.15   91.60
   3  10   2  408.25   64.22
   3  10   3  214.32   43.68
   3  10   3  260.89   64.65
   3  10   3  258.47   48.51
   3  10   4  317.91   69.95
   3  10   4  243.19   46.07
   3  10   4  338.74   54.15
   3  10   4  253.70   37.22
   3  10   5 1009.83   98.78
   3  10   5 1059.05  101.23
   3  10   5  878.50   79.25
   3  10   6 1219.97  113.27
   3  10   6 1435.28  147.80
   3  10   6 1419.64  118.60
   3  10   6 1258.07  101.89
   3  10   7  142.97   33.33
   3  10   7  118.34   32.03
   3  10   8   11.68   10.87
   3  10   8    5.14    7.14
   3  10   9  454.68   70.67
   3  10   9  465.52   69.47
   3  10  10  213.65   51.97
   3  10  10  290.49   56.87
   3  10  11    1.96    4.10
   3  10  11   -3.06    9.35
   3  10  12  100.32   36.12
   3  11   0   94.34   35.16
   3  11   0  155.35   57.80
   3  11   0   86.72   32.99
   3  11   1  167.77   44.84
   3  11   1  177.11   60.14
   3  11   1  152.13   44.11
   3  11   2    2.16    9.79
   3  11   2   -0.76    7.74
   3  11   3  747.92  119.59
   3  11   3  762.89   93.72
   3  11   4  794.88   92.61
   3  11   4  865.02  123.42
   3  11   4  858.91   98.43
   3  11   5   16.53   12.52
   3  11   5    2.78    5.90
   3  11   5   10.33    6.71
   3  11   6   33.04   17.28
   3  11   6   80.13   32.39
   3  11   6   41.73   20.37
   3  11   7  654.88   85.85
   3  11   7  760.09   91.43
   3  11   8  987.06  109.86
   3  11   8 1111.21  112.64
   3  11   8  818.90   92.18
   3  11   9   13.51    7.36
   3  11   9   24.45   16.27
   3  11  10    7.22   11.40
   3  11  10   23.97   15.79
   3  11  11   43.41   22.96
   3  11  11   -0.85    5.00
   3  12   3  299.04   61.83
   3  12   4  654.55   92.37
   3  12   5  584.30   83.78
   3  12   5  881.30  129.57
   3  12   5  828.07  102.14
   3  12   6   76.68   33.48
   3  12   6   94.69   34.36
   3  12   6   93.68   33.43
   3  12   7   85.47   30.46
   3  12   7  145.93   40.54
   3  12   8  237.60   53.81
   3  12   8  280.80   57.99
   3  12   9  473.83   80.40
   3  12   9  566.97   86.47
   4  -8  -7  908.90  117.55
   4  -8  -6  151.34   43.46
   4  -8  -5   81.23   33.04
   4  -8  -4  192.78   48.70
   4  -8  -3  462.52   78.93
   4  -8  -2    4.95    9.23
   4  -8  -2   -8.81   15.87
   4  -7  -9  780.12  107.75
   4  -7  -8  117.35   39.82
   4  -7  -7  -12.92   16.92
   4  -7  -6  422.50   72.49
   4  -7  -5 1191.15  122.20
   4  -7  -4   28.21   17.11
   4  -7  -3   26.60   15.70
   4  -7  -2   15.47    8.64
   4  -7  -1  434.87   73.56
   4  -7  -1  330.03   69.42
   4  -7   0  223.39   53.96
   4  -7   0  226.60   58.16
   4  -7   1  581.85   92.51
   4  -7   1  679.80  105.80
   4  -6 -11  134.89   47.98
   4  -6 -10  618.72   95.04
   4  -6  -9  219.74   54.11
   4  -6  -8  851.12  103.54
   4  -6  -7  152.62   41.11
   4  -6  -6  445.61   70.81
   4  -6  -5  227.61   46.69
   4  -6  -4 1449.18  125.99
   4  -6  -3   44.45   15.26
   4  -6  -2    5.15    9.99
   4  -6  -1  204.81   46.04
   4  -6   0  195.06   46.80
   4  -6   0  198.16   49.39
   4  -6   1   88.15   31.46
   4  -6   1   82.68   33.01
   4  -6   2  479.25   79.52
   4  -6   2  368.19   75.52
   4  -6   3  304.78   63.95
   4  -6   3  360.46   77.96
   4  -6   4   20.26   15.71
   4  -5 -11   16.01   16.48
   4  -5 -10  353.91   69.74
   4  -5  -9  470.65   76.42
   4  -5  -8   14.38   14.07
   4  -5  -7  575.95   77.52
   4  -5  -6 1949.70  149.66
   4  -5  -5  318.57   52.81
   4  -5  -4    0.42   10.56
   4  -5  -3  200.68   40.17
   4  -5  -2 1267.43  109.81
   4  -5  -1   13.60    9.31
   4  -5   0  455.98   65.38
   4  -5   0  402.29   68.95
   4  -5   1   16.25   11.14
   4  -5   1   -4.51   10.60
   4  -5   2   74.62   27.61
   4  -5   2  108.95   35.69
   4  -5   3  288.39   59.05
   4  -5   3  292.50   65.16
   4  -5   4 1237.32  134.77
   4  -5   4 1146.67  130.41
   4  -5   5   31.51   23.86
   4  -5   6   43.63   27.24
   4  -4 -12   14.07   11.09
   4  -4 -11  920.14  122.54
   4  -4 -10   39.11   22.45
   4  -4  -9  650.35   89.51
   4  -4  -8  256.07   50.84
   4  -4  -7  833.35   89.42
   4  -4  -6  333.03   53.05
   4  -4  -5 2879.61  174.63
   4  -4  -4  221.14   32.17
   4  -4  -4  200.12   37.20
   4  -4  -3  270.43   34.19
   4  -4  -3  225.13   40.03
   4  -4  -2   61.26   15.85
   4  -4  -2   71.64   21.87
   4  -4  -1 1301.56  105.17
   4  -4   0  -10.92   11.21
   4  -4   1  325.95   53.38
   4  -4   1  325.07   59.13
   4  -4   2  284.24   50.00
   4  -4   2  312.99   59.20
   4  -4   3   60.37   25.72
   4  -4   4  330.88   68.85
   4  -4   5  814.38  113.82
   4  -4   5  591.77   87.90
   4  -4   6  589.32   99.93
   4  -4   6  362.80   73.49
   4  -4   7   13.11   16.03
   4  -3 -12  228.22   63.54
   4  -3 -12  103.32   42.38
   4  -3 -11   55.15   31.62
   4  -3 -10  583.51   91.55
   4  -3  -9   15.46   14.93
   4  -3  -8  305.81   56.22
   4  -3  -7 1150.31  105.55
   4  -3  -6 1005.17   92.38
   4  -3  -5   93.10   24.88
   4  -3  -4  466.51   49.74
   4  -3  -4  423.26   51.92
   4  -3  -3 2618.09  131.77
   4  -3  -3 2300.35  139.52
   4  -3  -2  206.46   29.29
   4  -3  -2  218.82   34.92
   4  -3  -1  221.89   36.51
   4  -3   0   50.34   17.05
   4  -3   1  882.88   82.74
   4  -3   1  907.14   93.69
   4  -3   1  936.26   55.81
   4  -3   2  130.62   36.46
   4  -3   3 1863.57  153.58
   4  -3   3 1992.98   98.81
   4  -3   4  -10.82   10.00
   4  -3   5   33.33   18.84
   4  -3   5   23.27   15.34
   4  -3   6  348.99   73.03
   4  -3   6  204.94   47.77
   4  -3   7 1649.00  170.26
   4  -3   7 1282.75  135.76
   4  -2 -12  597.20  111.25
   4  -2 -12  730.24  118.10
   4  -2 -11   24.30   12.31
   4  -2 -11    2.26    5.53
   4  -2 -10  109.71   36.42
   4  -2  -9   44.40   22.87
   4  -2  -8 1218.40  118.43
   4  -2  -7   42.79   19.28
   4  -2  -6 2066.92  138.75
   4  -2  -5  310.54   44.48
   4  -2  -4  941.58   77.31
   4  -2  -3  101.59   21.43
   4  -2  -3  125.80   23.19
   4  -2  -2 4193.04  200.09
   4  -2  -2 4665.58  197.21
   4  -2  -1  331.44   40.20
   4  -2  -1  344.40   37.71
   4  -2   0   -1.50    1.09
   4  -2   1    1.24    2.17
   4  -2   1   11.30    5.85
   4  -2   2  616.93   72.96
   4  -2   2  631.95   49.30
   4  -2   3   39.48   11.04
   4  -2   3   39.71   18.15
   4  -2   4  857.99   95.51
   4  -2   4  683.74   35.83
   4  -2   4  903.34   66.18
   4  -2   5  642.07   87.48
   4  -2   5  636.73   59.56
   4  -2   5  509.22   68.80
   4  -2   6    8.02    5.42
   4  -2   6   26.18   21.24
   4  -2   6   10.46    7.08
   4  -2   7  585.25   93.01
   4  -2   7  544.64   78.06
   4  -2   8  515.13   91.23
   4  -2   8  485.70   76.03
   4  -1 -12   21.86   12.28
   4  -1 -12   38.57   20.21
   4  -1 -11  618.62  109.29
   4  -1 -11  665.78  107.27
   4  -1 -11  745.49   90.07
   4  -1 -10    7.68   14.38
   4  -1 -10   19.40   21.56
   4  -1  -9   12.48    8.56
   4  -1  -8  375.97   64.26
   4  -1  -7 1616.91  131.48
   4  -1  -6   11.13    4.28
   4  -1  -5  996.15   83.60
   4  -1  -4 2511.44  137.58
   4  -1  -3  972.36   71.95
   4  -1  -3 1138.17   81.62
   4  -1  -2    2.34    3.84
   4  -1  -2    3.22    3.12
   4  -1  -1  149.03   27.43
   4  -1  -1  159.17   24.56
   4  -1  -1  196.86   27.05
   4  -1   0 2135.19  114.90
   4  -1   0 2299.58  118.19
   4  -1   0 2191.01  111.05
   4  -1   1   47.13   11.50
   4  -1   1   50.52   12.88
   4  -1   2 1316.08  101.07
   4  -1   2 1384.14   80.80
   4  -1   2 1223.56   79.99
   4  -1   3    5.23    7.08
   4  -1   3   -0.97    5.24
   4  -1   4   36.84   11.96
   4  -1   4   12.44    9.53
   4  -1   5  177.22   41.46
   4  -1   5  210.62   33.00
   4  -1   5  163.78   33.74
   4  -1   6 2661.00  191.58
   4  -1   6 2456.61  162.00
   4  -1   6 2593.33  150.94
   4  -1   7   -4.34    8.17
   4  -1   7    6.62    3.89
   4  -1   8  234.92   44.90
   4  -1   8  247.15   59.14
   4  -1   8  237.60   48.20
   4  -1   9  260.43   65.87
   4   0 -12  197.88   63.16
   4   0 -11    1.19   12.53
   4   0 -11   11.57    5.47
   4   0 -10    6.92    8.98
   4   0 -10    6.69   10.42
   4   0  -9  715.68  103.83
   4   0  -9  805.26  105.85
   4   0  -9  894.65   91.22
   4   0  -8   -8.76   14.97
   4   0  -8  -17.28   16.70
   4   0  -7 1612.80  134.67
   4   0  -6  120.67   30.56
   4   0  -5  960.45   83.53
   4   0  -4   17.09    9.32
   4   0  -3 4988.12  215.62
   4   0  -3 5036.09  204.59
   4   0  -2 1057.56   73.84
   4   0  -2  920.24   65.34
   4   0  -2  852.08   66.79
   4   0  -2  922.31   59.90
   4   0  -1  651.26   53.17
   4   0  -1  665.72   54.20
   4   0  -1  601.73   43.68
   4   0   0  106.18   19.66
   4   0   0   72.88   16.46
   4   0   0  101.84   20.16
   4   0   0   90.30   15.50
   4   0   0   86.49    9.36
   4   0   1 2610.88  135.85
   4   0   1 2653.97  130.99
   4   0   1 2493.26  122.28
   4   0   1 2384.20  111.01
   4   0   2   60.33   13.85
   4   0   2   72.30   13.78
   4   0   2   68.20   13.00
   4   0   3  601.30   61.28
   4   0   3  475.54   43.06
   4   0   3  576.81   50.01
   4   0   3  534.22   36.81
   4   0   4  191.10   36.17
   4   0   4  180.09   28.38
   4   0   4  200.31   30.46
   4   0   5  146.84   35.32
   4   0   5  194.35   32.37
   4   0   6  225.24   37.96
   4   0   6  251.81   48.70
   4   0   6  258.76   41.04
   4   0   7 1044.83  112.17
   4   0   7 1018.07   91.51
   4   0   7  928.16   88.77
   4   0   8  642.47   93.84
   4   0   8  692.25   77.82
   4   0   8  631.62   75.95
   4   0   9    5.10    0.93
   4   0   9   28.59   20.69
   4   0  10  436.14   84.98
   4   0  10  387.91   67.37
   4   1 -11   16.35   14.11
   4   1 -10   66.64   31.74
   4   1 -10  108.68   34.65
   4   1  -9  -32.95   25.95
   4   1  -9    5.30    8.74
   4   1  -8 1378.79   76.37
   4   1  -8 1498.17  117.41
   4   1  -7   49.69   22.25
   4   1  -7   48.65   22.33
   4   1  -7   42.65   16.75
   4   1  -6  398.10   62.85
   4   1  -6  506.82   65.57
   4   1  -6  561.01   60.25
   4   1  -5 1521.18  113.31
   4   1  -5 1679.24  107.75
   4   1  -4 2321.56  133.94
   4   1  -3   30.57   11.09
   4   1  -3   34.84   13.93
   4   1  -3   25.56   10.65
   4   1  -2 1165.67   84.50
   4   1  -2 1012.42   61.58
   4   1  -2 1064.19   71.78
   4   1  -2 1169.19   77.41
   4   1  -1 3645.45  160.69
   4   1  -1 3098.90  141.04
   4   1  -1 3236.69  131.78
   4   1  -1 3348.90  143.74
   4   1  -1 3179.95  147.86
   4   1   0  458.91   43.44
   4   1   0  455.91   38.16
   4   1   0  476.23   31.86
   4   1   0  473.85   31.72
   4   1   0  463.10   40.64
   4   1   0  477.18   45.10
   4   1   1  789.49   56.10
   4   1   1  727.10   57.23
   4   1   1  776.22   56.48
   4   1   1  730.43   53.14
   4   1   2   77.33   15.81
   4   1   2   84.30   18.56
   4   1   2   88.72   19.08
   4   1   2   59.39   14.91
   4   1   2   95.12   16.11
   4   1   2   68.44   10.32
   4   1   3  553.08   56.12
   4   1   3  505.76   50.98
   4   1   3  471.69   35.69
   4   1   3  504.00   46.68
   4   1   3  434.90   33.73
   4   1   4    2.82    1.28
   4   1   4   12.84    6.47
   4   1   4    5.89    3.67
   4   1   4    8.39    3.12
   4   1   5 2291.16  147.20
   4   1   5 2157.86  122.89
   4   1   5 2440.10  136.42
   4   1   5 2314.18  120.02
   4   1   6   17.90    7.72
   4   1   6   24.56   11.24
   4   1   6   29.32   11.88
   4   1   7  129.23   30.90
   4   1   7  144.89   38.48
   4   1   8  120.68   31.82
   4   1   8  183.32   45.97
   4   1   8  185.25   33.74
   4   1   9 1873.08  165.82
   4   1   9 1648.18  140.03
   4   1  10   50.68   22.29
   4   1  10  100.22   36.70
   4   1  11  141.64   42.18
   4   1  11  275.60   68.30
   4   2 -11    7.79   17.44
   4   2 -10  572.50   98.66
   4   2 -10  906.14   99.74
   4   2  -9   99.76   33.98
   4   2  -9  243.03   47.50
   4   2  -8  239.62   54.13
   4   2  -8  373.62   57.15
   4   2  -7   59.65   26.07
   4   2  -7   69.22   14.86
   4   2  -7   27.81   14.95
   4   2  -6 1218.20   75.31
   4   2  -6 1227.76   97.33
   4   2  -5    8.18    7.79
   4   2  -5    5.41   11.08
   4   2  -4 5047.94  255.61
   4   2  -4 6399.30  260.56
   4   2  -3 1421.49   88.29
   4   2  -3 1461.64  105.37
   4   2  -3 1590.54   98.74
   4   2  -2  649.35   46.93
   4   2  -2  703.15   60.68
   4   2  -2  763.24   61.88
   4   2  -2  792.28   67.63
   4   2  -1  131.88   24.83
   4   2  -1  114.35   13.11
   4   2  -1   86.81   13.21
   4   2  -1  102.99   17.77
   4   2  -1  113.50   21.12
   4   2  -1  126.76   21.96
   4   2   0 4651.11  191.35
   4   2   0 4258.06  149.30
   4   2   0 3995.60  159.89
   4   2   0 4109.75  171.66
   4   2   0 3990.92  164.23
   4   2   0 4717.76  193.71
   4   2   0 4264.35  176.69
   4   2   0 4673.84  192.41
   4   2   1  812.41   48.12
   4   2   1  827.14   58.66
   4   2   1  767.52   57.64
   4   2   1  830.05   59.49
   4   2   1  680.67   43.20
   4   2   2   79.97   17.02
   4   2   2   92.76   18.49
   4   2   2   95.61   17.36
   4   2   2   92.35   15.75
   4   2   2   65.27   14.16
   4   2   3   15.82    8.54
   4   2   3   16.10    8.17
   4   2   3   12.76    6.63
   4   2   3   25.21   10.65
   4   2   3   19.02    7.62
   4   2   3   18.97    4.94
   4   2   3   16.11    7.11
   4   2   4  856.40   70.72
   4   2   4  800.24   66.63
   4   2   4  768.09   46.90
   4   2   4  777.73   50.41
   4   2   4  730.80   42.05
   4   2   4  856.22   67.11
   4   2   5   54.70   16.40
   4   2   5   57.06   14.46
   4   2   5   69.08   11.97
   4   2   6 1681.89  120.76
   4   2   6 1667.52   93.30
   4   2   6 1614.03  113.07
   4   2   6 1345.01   94.51
   4   2   6 1547.40   81.67
   4   2   7  516.03   68.60
   4   2   7  527.15   46.61
   4   2   7  527.24   64.20
   4   2   7  546.51   45.20
   4   2   8   11.50    6.35
   4   2   8   60.02   26.43
   4   2   8   45.72   11.92
   4   2   8   52.73   13.44
   4   2   9  414.24   71.14
   4   2   9  360.26   61.10
   4   2  10  758.07  103.67
   4   2  10  581.60   84.03
   4   2  11  280.59   60.24
   4   2  11  324.25   71.33
   4   2  12  -10.08   16.28
   4   3 -11  350.59   79.70
   4   3 -10  171.27   54.64
   4   3  -9  836.26  113.39
   4   3  -9 1293.09  118.17
   4   3  -8   83.07   31.82
   4   3  -8  117.74   32.76
   4   3  -7  143.60   39.86
   4   3  -7  237.79   30.22
   4   3  -7  213.86   42.09
   4   3  -6  228.59   45.20
   4   3  -6  349.69   40.25
   4   3  -6  364.92   52.86
   4   3  -5 1773.18  129.63
   4   3  -5 2037.29  115.11
   4   3  -4  160.05   30.93
   4   3  -4  211.26   30.03
   4   3  -4  235.87   37.71
   4   3  -3  644.83   56.53
   4   3  -3  638.06   66.23
   4   3  -3  725.58   58.00
   4   3  -3  845.29   71.61
   4   3  -2 2232.59  111.15
   4   3  -2 2104.71  125.78
   4   3  -2 2459.27  124.24
   4   3  -2 2616.33  139.23
   4   3  -2 2679.48  149.47
   4   3  -1 1863.79   80.85
   4   3  -1 2122.63  117.93
   4   3  -1 2138.81  119.19
   4   3   0   46.92   13.98
   4   3   0   53.26   15.23
   4   3   0   29.00    7.70
   4   3   0   35.75   11.13
   4   3   0   22.82    8.97
   4   3   0   28.06   10.27
   4   3   1  720.40   55.86
   4   3   1  644.87   33.49
   4   3   1  665.82   53.85
   4   3   1  685.85   56.91
   4   3   1  693.90   47.57
   4   3   2 2278.85  112.79
   4   3   2 2100.96   89.35
   4   3   2 2069.92   86.37
   4   3   2 2289.82  113.65
   4   3   2 1888.35   85.16
   4   3   2 2297.93  115.15
   4   3   3  505.28   46.49
   4   3   3  469.62   39.71
   4   3   3  497.64   37.86
   4   3   3  527.95   48.04
   4   3   3  471.28   42.31
   4   3   3  502.06   48.41
   4   3   4 1162.96   78.53
   4   3   4 1241.65   80.16
   4   3   4 1098.62   73.83
   4   3   4 1142.80   68.89
   4   3   4 1349.54   87.73
   4   3   5  109.10   24.32
   4   3   5  130.22   23.31
   4   3   5  123.33   23.65
   4   3   6   -3.98    6.60
   4   3   6    0.69    4.07
   4   3   7   46.52   17.26
   4   3   7   54.95   15.28
   4   3   7   75.63   23.31
   4   3   8 2326.86  119.28
   4   3   8 2228.58  161.99
   4   3   8 2106.19  153.18
   4   3   9  113.39   32.30
   4   3   9  149.21   40.03
   4   3  10  213.76   48.91
   4   3  10  259.35   54.81
   4   3  11   89.02   33.19
   4   3  11  107.58   38.32
   4   3  12  812.64  114.91
   4   3  12  722.20  104.68
   4   4 -10  284.96   68.16
   4   4  -9   -5.75   16.64
   4   4  -8    3.45   16.38
   4   4  -8    8.37    4.82
   4   4  -7  823.31   96.80
   4   4  -7 1028.38   95.78
   4   4  -6  151.31   35.99
   4   4  -6  205.91   40.54
   4   4  -6  163.83   29.69
   4   4  -6  201.39   41.14
   4   4  -5 2532.36  140.51
   4   4  -5 2168.87  150.78
   4   4  -5 2418.86  152.99
   4   4  -4  576.83   61.00
   4   4  -4  671.60   77.30
   4   4  -4  759.23   68.04
   4   4  -4  730.73   74.47
   4   4  -3  895.06   70.01
   4   4  -3 1011.90   96.07
   4   4  -3 1088.15   81.28
   4   4  -3 1050.68   87.35
   4   4  -2  204.95   26.33
   4   4  -2  240.31   35.27
   4   4  -2  257.40   35.52
   4   4  -2  258.37   40.07
   4   4  -1 6355.98  239.75
   4   4  -1 7160.43  278.54
   4   4  -1 6995.55  288.09
   4   4  -1 6677.98  288.08
   4   4   0 2481.65  115.02
   4   4   0 3250.87  150.59
   4   4   0 2878.73  144.33
   4   4   0 2874.03  152.10
   4   4   0 2822.91  142.25
   4   4   1   20.18    6.47
   4   4   1   39.72   13.12
   4   4   1   41.68   11.10
   4   4   1   34.98   13.41
   4   4   2    4.71    2.31
   4   4   2   11.34    6.54
   4   4   2   13.95    7.55
   4   4   2    4.75    2.29
   4   4   2   -0.51    3.09
   4   4   3 1968.40  105.12
   4   4   3 1983.95   93.83
   4   4   3 1834.15   74.71
   4   4   3 2033.00  114.06
   4   4   3 2039.13  111.79
   4   4   3 1999.50  108.91
   4   4   3 1852.14   78.50
   4   4   4  215.02   29.56
   4   4   4  198.06   27.66
   4   4   4  194.36   22.67
   4   4   4  231.28   32.87
   4   4   4  183.56   19.09
   4   4   4  207.62   32.32
   4   4   5 1071.40   78.06
   4   4   5  977.72   70.91
   4   4   5 1091.33   78.17
   4   4   5 1068.40   84.22
   4   4   6  310.92   41.45
   4   4   6  292.93   38.30
   4   4   6  266.25   42.03
   4   4   7  205.58   38.57
   4   4   7  220.87   32.56
   4   4   7  198.99   36.71
   4   4   8  161.93   38.30
   4   4   8  211.52   42.26
   4   4   8  243.09   33.43
   4   4   9 1688.59  100.60
   4   4   9 1642.76  134.31
   4   4   9 1525.30  133.11
   4   4  10  709.32   89.85
   4   4  10  593.78   83.63
   4   4  11   26.18   11.39
   4   4  11   -7.80   14.42
   4   4  12  282.54   63.14
   4   4  12  368.48   72.01
   4   4  13  306.54   69.41
   4   5  -9   57.02   29.12
   4   5  -8   25.91   16.88
   4   5  -7   94.69   32.44
   4   5  -7  158.24   40.50
   4   5  -7  169.13   39.96
   4   5  -6 1146.48  114.64
   4   5  -6 1300.74  113.29
   4   5  -5  277.87   46.90
   4   5  -5  449.33   68.93
   4   5  -5  428.05   60.26
   4   5  -4  444.60   56.24
   4   5  -4  664.42   84.68
   4   5  -4  663.51   74.43
   4   5  -3  941.58   77.74
   4   5  -3 1210.12  114.59
   4   5  -3 1189.82   99.62
   4   5  -2 1851.51  106.69
   4   5  -2 2074.76  156.69
   4   5  -2 2150.16  134.57
   4   5  -1   89.08   16.54
   4   5  -1   68.47   16.97
   4   5  -1  120.67   33.96
   4   5  -1  100.35   24.16
   4   5   0  723.88   43.46
   4   5   0  715.78   49.90
   4   5   0  708.22   62.25
   4   5   1 2253.29  126.54
   4   5   1 2655.70  144.88
   4   5   1 2527.10  118.13
   4   5   2 1830.06   84.68
   4   5   2 1818.37  107.69
   4   5   2 1828.92   89.54
   4   5   2 2018.01  118.93
   4   5   2 1824.52  106.13
   4   5   3   25.19   11.23
   4   5   3   16.34    7.79
   4   5   3   10.07    5.24
   4   5   3   14.32    7.54
   4   5   3   12.84    4.45
   4   5   3   32.82   13.47
   4   5   4  169.81   28.44
   4   5   4  137.59   23.06
   4   5   4  164.96   24.05
   4   5   4  139.65   27.29
   4   5   4  145.42   18.87
   4   5   5  207.79   33.87
   4   5   5  192.93   28.59
   4   5   5  224.46   32.76
   4   5   5  203.45   24.16
   4   5   5  229.48   36.16
   4   5   5  189.79   23.69
   4   5   6   17.95    4.04
   4   5   6   17.00    7.67
   4   5   6   23.24   10.31
   4   5   7 1808.86  113.62
   4   5   7 1608.46  122.93
   4   5   8  285.55   49.97
   4   5   8  349.12   44.81
   4   5   8  350.08   49.72
   4   5   9   83.00   27.00
   4   5   9   91.46   21.62
   4   5   9  138.06   32.66
   4   5  10  136.33   39.45
   4   5  10  175.59   40.39
   4   5  11 1761.63  146.96
   4   5  11 1442.48  143.75
   4   5  12  222.72   54.59
   4   5  12  304.41   63.11
   4   5  13  339.65   69.04
   4   6  -9   18.08   11.83
   4   6  -8  257.59   58.21
   4   6  -7  171.59   43.75
   4   6  -7  241.45   48.55
   4   6  -6  226.14   48.00
   4   6  -6  391.57   72.06
   4   6  -6  300.79   53.86
   4   6  -5   74.75   25.66
   4   6  -5  159.70   44.71
   4   6  -5  180.88   40.01
   4   6  -4  461.81   61.11
   4   6  -4  647.92   91.95
   4   6  -4  588.86   71.91
   4   6  -3  114.52   27.30
   4   6  -3  196.06   47.90
   4   6  -3  207.85   41.30
   4   6  -3  174.09   37.07
   4   6  -2 3373.98  180.47
   4   6  -2 3576.99  207.72
   4   6  -2 3724.80  238.22
   4   6  -2 3616.52  201.40
   4   6  -1 1714.33  104.67
   4   6  -1 1917.25  133.44
   4   6  -1 1986.39  161.93
   4   6  -1 1691.05  124.24
   4   6   0  323.73   33.74
   4   6   0  390.15   54.08
   4   6   0  358.03   47.27
   4   6   0  467.19   72.58
   4   6   0  434.20   55.45
   4   6   0  299.35   39.45
   4   6   1  618.03   67.22
   4   6   1  566.77   57.84
   4   6   1  600.70   83.56
   4   6   1  561.70   62.75
   4   6   1  460.78   49.00
   4   6   2 2217.61  137.06
   4   6   2 1944.69  120.00
   4   6   2 2269.34  135.34
   4   6   2 1894.83  114.35
   4   6   2 2129.61  109.01
   4   6   3 1144.02   82.96
   4   6   3 1339.25   75.68
   4   6   3 1325.00  101.22
   4   6   3 1369.74   77.67
   4   6   3 1208.20   86.24
   4   6   4  272.24   34.64
   4   6   4  291.78   33.34
   4   6   4  299.80   44.37
   4   6   4  245.49   37.48
   4   6   4  301.48   32.01
   4   6   5   43.59   16.91
   4   6   5   52.81   14.41
   4   6   5    9.64    7.54
   4   6   5   46.74   15.52
   4   6   5   54.24   13.35
   4   6   6  498.62   49.77
   4   6   6  622.90   48.65
   4   6   6  621.16   66.28
   4   6   6  563.68   63.56
   4   6   6  602.53   52.62
   4   6   7   69.05   23.15
   4   6   7   61.30   20.76
   4   6   7   77.10   18.03
   4   6   8 1251.98  100.63
   4   6   8 1404.04   97.07
   4   6   8 1149.37  108.60
   4   6   9  574.80   63.46
   4   6   9  614.63   66.81
   4   6   9  477.95   70.18
   4   6  10   53.65   23.81
   4   6  10   62.17   22.25
   4   6  11  101.98   35.76
   4   6  11  109.34   29.69
   4   6  12  860.05   98.43
   4   6  12  594.65   93.07
   4   6  13  340.07   65.19
   4   7  -8  208.81   54.67
   4   7  -7  466.66   78.59
   4   7  -6  177.17   44.90
   4   7  -6  294.85   68.01
   4   7  -6  234.77   49.09
   4   7  -5  158.21   39.10
   4   7  -5  187.99   52.13
   4   7  -5  187.74   43.78
   4   7  -4   55.12   21.78
   4   7  -4   79.16   34.41
   4   7  -4   49.90   19.78
   4   7  -3 1048.17   98.54
   4   7  -3 1273.48  138.73
   4   7  -3 1102.77  105.26
   4   7  -2  526.09   63.55
   4   7  -2  548.56   77.33
   4   7  -2  716.34   99.41
   4   7  -2  469.06   64.99
   4   7  -1  760.56   70.76
   4   7  -1  744.70   88.48
   4   7  -1  840.63  107.71
   4   7  -1  704.94   78.44
   4   7   0 1484.66   98.71
   4   7   0 1891.60  141.37
   4   7   0 1921.77  164.63
   4   7   0 1792.75  128.95
   4   7   0 1688.55  112.60
   4   7   1 1419.97   88.34
   4   7   1 1642.32  126.38
   4   7   1 1335.68  104.34
   4   7   1 1653.97  149.65
   4   7   1 1646.95  118.72
   4   7   1 1522.86   99.64
   4   7   1 1306.98   93.60
   4   7   2   36.51   11.43
   4   7   2   56.56   21.18
   4   7   2   44.11   12.12
   4   7   2   25.12   16.83
   4   7   2   68.90   18.15
   4   7   3  485.97   46.25
   4   7   3  536.37   66.49
   4   7   3  473.35   53.99
   4   7   3  465.69   50.44
   4   7   4  699.09   61.06
   4   7   4  756.00   79.22
   4   7   4  718.29   66.24
   4   7   5  239.82   32.83
   4   7   5  310.66   48.10
   4   7   5  262.00   40.16
   4   7   6  291.16   36.81
   4   7   6  411.61   55.81
   4   7   6  349.73   48.63
   4   7   6  389.57   43.58
   4   7   7  222.38   41.81
   4   7   7  161.50   35.45
   4   7   7  198.37   32.99
   4   7   8   13.13    3.65
   4   7   8   11.69    7.97
   4   7   8   -8.10   11.64
   4   7   8   19.22   10.75
   4   7   9   89.58   32.27
   4   7   9  111.77   27.48
   4   7  10 1474.05  111.84
   4   7  10 1278.76  128.88
   4   7  11  382.64   69.74
   4   7  11  444.24   61.49
   4   7  12  183.64   49.76
   4   7  12  199.98   44.00
   4   8  -6   10.70    1.50
   4   8  -6   -6.50   20.74
   4   8  -5  244.54   53.55
   4   8  -5  288.72   72.45
   4   8  -4  130.28   36.89
   4   8  -4  185.97   54.91
   4   8  -3  933.13   99.79
   4   8  -3 1191.08  144.68
   4   8  -2  763.55   85.18
   4   8  -2  915.89  125.35
   4   8  -1  279.34   45.88
   4   8  -1  403.86   79.49
   4   8   0  188.37   34.51
   4   8   0  246.45   60.32
   4   8   0  247.41   41.88
   4   8   1 1732.38  113.29
   4   8   1 2086.17  160.10
   4   8   1 2059.46  138.36
   4   8   1 2334.74  190.43
   4   8   1 1835.09  124.53
   4   8   1 1775.25  115.19
   4   8   2 1507.72  128.50
   4   8   2 1261.80  102.86
   4   8   2 1567.83  149.46
   4   8   2 1396.79  100.36
   4   8   2 1128.52   87.62
   4   8   3    4.05    5.89
   4   8   3    9.22    9.14
   4   8   3    9.17   10.47
   4   8   3   10.56   11.74
   4   8   3    3.16    7.51
   4   8   4  105.77   24.05
   4   8   4   94.11   30.45
   4   8   4  111.18   27.71
   4   8   4  134.35   26.60
   4   8   5  591.88   74.41
   4   8   5  531.90   55.63
   4   8   5  506.47   59.03
   4   8   6  694.37   81.76
   4   8   6  551.02   65.46
   4   8   6  685.58   65.05
   4   8   7  508.05   68.86
   4   8   7  477.99   63.78
   4   8   7  533.49   58.77
   4   8   8  148.00   36.43
   4   8   8  168.80   34.38
   4   8   9   17.60    7.79
   4   8   9   35.52   13.41
   4   8  10   -1.30    7.98
   4   8  10    1.50    1.25
   4   8  11  733.49   99.72
   4   8  11  640.70   80.00
   4   8  12  416.69   78.53
   4   9  -5   20.93   21.06
   4   9  -4  557.44   83.73
   4   9  -4  657.00  118.62
   4   9  -3  316.38   60.13
   4   9  -3  398.86   86.60
   4   9  -2  604.38   80.74
   4   9  -2  567.36  104.77
   4   9  -1  665.53   81.05
   4   9  -1  742.23  116.34
   4   9   0  837.15   85.27
   4   9   0  979.52  131.93
   4   9   0  893.44   90.75
   4   9   1  334.94   49.15
   4   9   1  379.50   79.20
   4   9   1  426.56   58.38
   4   9   2  535.13   68.74
   4   9   2  628.55   98.04
   4   9   2  621.14   68.95
   4   9   2  427.54   50.81
   4   9   3 1216.77  104.43
   4   9   3 1421.88  146.70
   4   9   3 1061.50   85.59
   4   9   3 1241.84   98.96
   4   9   4  541.32   66.86
   4   9   4  717.00  100.29
   4   9   4  541.63   62.69
   4   9   4  531.69   59.66
   4   9   5   12.68    8.64
   4   9   5   13.51    4.37
   4   9   5   20.81   12.54
   4   9   6  238.71   41.36
   4   9   6  205.65   37.31
   4   9   7   45.20   18.01
   4   9   7   69.17   20.33
   4   9   8    7.17    6.42
   4   9   8   24.07   15.47
   4   9   9  784.10   95.79
   4   9   9  875.78   89.16
   4   9  10  426.65   73.23
   4   9  10  446.78   66.33
   4   9  11  124.86   42.63
   4   9  11  119.33   34.75
   4  10  -3  223.14   68.41
   4  10  -2  361.15   87.49
   4  10  -1  162.42   40.73
   4  10  -1  208.30   64.68
   4  10   0  874.08   96.04
   4  10   0 1188.02  154.93
   4  10   0  965.55  102.47
   4  10   1 1067.77  103.01
   4  10   1 1401.91  163.76
   4  10   1 1249.51  114.88
   4  10   2  125.63   44.98
   4  10   2  145.69   37.29
   4  10   3   87.35   22.01
   4  10   3   87.54   26.37
   4  10   3  121.10   47.90
   4  10   3   92.67   26.46
   4  10   4  866.24   92.15
   4  10   4  992.31  126.53
   4  10   4  876.28   88.93
   4  10   4  840.75   77.20
   4  10   5 1057.59  104.05
   4  10   5 1272.91  106.51
   4  10   5 1141.90   95.39
   4  10   6  142.58   31.86
   4  10   6  117.33   33.35
   4  10   6  142.35   33.48
   4  10   7  -12.58   14.02
   4  10   7   12.00    4.50
   4  10   8   31.28   17.14
   4  10   8   61.02   22.49
   4  10   9  117.35   34.16
   4  10   9  128.73   34.78
   4  10  10  487.56   79.86
   4  10  10  615.15   80.94
   4  10  11  543.06   89.08
   4  10  11  444.08   70.87
   4  11   0  461.58  101.35
   4  11   1  709.94  121.38
   4  11   1  690.25   90.27
   4  11   2 1114.65  149.56
   4  11   2 1041.20  109.93
   4  11   3  697.10  113.94
   4  11   3  579.74   78.24
   4  11   4  153.09   38.30
   4  11   4  259.07   68.08
   4  11   4  192.50   43.23
   4  11   5   96.95   30.33
   4  11   5  128.70   45.48
   4  11   5  153.24   37.43
   4  11   6  284.30   55.06
   4  11   6  337.05   56.20
   4  11   6  297.67   48.53
   4  11   7   64.53   23.53
   4  11   7   66.67   25.06
   4  11   7   37.39   18.13
   4  11   8  191.57   43.54
   4  11   8  162.19   40.27
   4  11   9  295.45   58.33
   4  11   9  334.29   59.58
   4  11  10   10.80   11.81
   4  11  10    0.48    1.62
   4  11  11   44.21   24.31
   4  11  11   50.01   24.25
   4  12   2  170.72   45.97
   4  12   3  572.09   83.77
   4  12   4  911.83  107.57
   4  12   4 1271.91  159.94
   4  12   4 1187.03  121.31
   4  12   5   -9.74   19.68
   4  12   5    5.78    3.85
   4  12   5    8.20   10.61
   4  12   6   -4.10   10.79
   4  12   6   10.57    5.41
   4  12   7  191.28   49.24
   4  12   7  198.56   46.56
   4  12   8  477.05   78.16
   4  12   8  454.52   72.58
   4  12   9  202.59   52.37
   4  12   9  281.65   58.05
   4  12  10  261.64   56.48
   5  -7  -8   19.54   11.02
   5  -7  -7  361.08   71.61
   5  -7  -6  129.16   39.63
   5  -7  -5   16.34   11.13
   5  -7  -4  243.23   54.33
   5  -7  -3   20.96    8.95
   5  -7  -2   -0.19   12.82
   5  -7  -1  480.49   80.29
   5  -6 -10  117.74   41.51
   5  -6  -9  855.84  111.75
   5  -6  -8   56.75   25.11
   5  -6  -7   63.11   28.10
   5  -6  -6   61.02   29.75
   5  -6  -5  896.02  103.20
   5  -6  -4   78.49   27.44
   5  -6  -3  304.52   55.73
   5  -6  -2   20.38   14.66
   5  -6  -1  185.44   44.69
   5  -6   0  355.31   66.62
   5  -6   0  370.49   74.66
   5  -6   1  984.54  117.30
   5  -6   1  963.93  126.94
   5  -5 -11  377.77   77.06
   5  -5 -10  786.07  106.22
   5  -5  -9   21.97   17.54
   5  -5  -8  565.19   81.49
   5  -5  -7  249.57   52.55
   5  -5  -6   87.15   29.80
   5  -5  -5  132.87   35.21
   5  -5  -4  202.58   42.53
   5  -5  -3    4.02    6.09
   5  -5  -2  315.59   55.01
   5  -5  -1  873.47   94.77
   5  -5   0    4.02    5.75
   5  -5   0   21.96   14.26
   5  -5   1   56.38   21.66
   5  -5   1   54.17   27.14
   5  -5   2  433.61   72.09
   5  -5   2  393.24   76.73
   5  -5   3 1060.97  122.10
   5  -5   3  987.40  130.09
   5  -5   4   16.00   18.30
   5  -5   5  126.87   45.45
   5  -4 -11  109.92   39.09
   5  -4 -10 1318.08  141.23
   5  -4  -9  280.15   59.27
   5  -4  -8  167.14   42.56
   5  -4  -7   18.85   14.50
   5  -4  -6 1344.63  117.89
   5  -4  -5   35.41   20.35
   5  -4  -4   92.67   26.48
   5  -4  -3   -6.58    7.45
   5  -4  -2  433.51   59.33
   5  -4  -1  292.79   47.89
   5  -4   0 1384.69  117.11
   5  -4   1   90.97   29.35
   5  -4   1  107.17   35.51
   5  -4   2   17.97    9.31
   5  -4   2   12.83   15.17
   5  -4   3  294.91   57.71
   5  -4   3  355.45   71.01
   5  -4   4 1002.96  119.94
   5  -4   4 1181.30  140.75
   5  -4   5   39.68   22.48
   5  -4   5   27.90   19.13
   5  -4   6   48.00   26.96
   5  -3 -12  196.19   59.15
   5  -3 -11 1097.04  136.74
   5  -3 -10   39.79   24.97
   5  -3  -9  657.89   90.56
   5  -3  -8  372.74   62.06
   5  -3  -7  548.10   71.64
   5  -3  -6   40.75   18.13
   5  -3  -5  858.89   84.54
   5  -3  -4  147.28   31.34
   5  -3  -3   23.81   11.82
   5  -3  -2  525.28   60.01
   5  -3  -1  252.13   41.94
   5  -3   0   31.42   15.99
   5  -3   1  530.20   66.38
   5  -3   1  631.02   81.03
   5  -3   2 1142.74  106.74
   5  -3   2 1315.39  126.10
   5  -3   3   14.33   14.46
   5  -3   4  299.80   64.57
   5  -3   5  319.51   69.32
   5  -3   5  266.18   55.19
   5  -3   6  911.60  125.63
   5  -3   6  728.09   98.90
   5  -2 -12   10.29   13.73
   5  -2 -12   13.10   14.50
   5  -2 -11  657.37  105.17
   5  -2 -10  492.64   84.03
   5  -2  -9  324.64   62.02
   5  -2  -8  114.34   35.04
   5  -2  -7 2672.34  175.96
   5  -2  -6  368.86   53.41
   5  -2  -5    4.03    4.29
   5  -2  -4   12.92   10.65
   5  -2  -3 1061.34   82.11
   5  -2  -2   44.79   14.64
   5  -2  -1 1355.15   95.70
   5  -2   0   42.48   15.33
   5  -2   1   83.50   23.11
   5  -2   2  547.22   66.55
   5  -2   2  622.65   77.69
   5  -2   2  759.35   58.99
   5  -2   3 2601.93  190.40
   5  -2   3 3211.57  152.75
   5  -2   4  212.83   49.76
   5  -2   4  203.92   31.64
   5  -2   5   12.06    4.39
   5  -2   5    3.67    5.35
   5  -2   6  146.13   45.55
   5  -2   6  102.13   32.01
   5  -2   7  679.42  104.39
   5  -2   7  563.40   81.86
   5  -1 -12  976.51  144.25
   5  -1 -12 1185.67  127.06
   5  -1 -11   -9.85   17.39
   5  -1 -11   -4.65   13.17
   5  -1 -11   16.54   12.25
   5  -1 -10  750.08  107.53
   5  -1  -9  408.86   72.69
   5  -1  -8 1384.25  129.75
   5  -1  -7   17.45    9.48
   5  -1  -6 1316.30  107.86
   5  -1  -5  545.06   60.19
   5  -1  -4  363.63   45.12
   5  -1  -3   43.43   14.14
   5  -1  -2  752.10   60.73
   5  -1  -1   12.53    6.24
   5  -1   0  378.38   42.26
   5  -1   1 1149.39   87.06
   5  -1   1 1156.94   79.23
   5  -1   2  320.41   51.12
   5  -1   2  389.86   42.09
   5  -1   3  127.46   24.25
   5  -1   3  108.00   32.52
   5  -1   3  120.97   18.56
   5  -1   4  643.55   80.41
   5  -1   4  588.07   34.58
   5  -1   4  785.79   66.96
   5  -1   5 1587.22  143.60
   5  -1   5 1441.33  116.93
   5  -1   6   71.26   21.76
   5  -1   6   62.26   24.05
   5  -1   6   77.31   24.37
   5  -1   7  415.72   78.60
   5  -1   7  360.46   59.33
   5  -1   8   84.04   36.18
   5   0 -12  126.17   48.22
   5   0 -11  526.29   99.96
   5   0 -11  590.70   85.72
   5   0 -10  221.43   56.64
   5   0 -10  238.57   63.37
   5   0 -10  264.33   53.75
   5   0  -9   31.13   20.69
   5   0  -9   40.54   23.03
   5   0  -9   33.91   14.57
   5   0  -8 1816.83  154.73
   5   0  -7 1061.89  105.54
   5   0  -6  376.65   55.39
   5   0  -5   28.06   13.87
   5   0  -4 2142.49  125.06
   5   0  -3  212.06   29.79
   5   0  -2  744.15   66.42
   5   0  -2  792.31   57.07
   5   0  -1   68.40   17.92
   5   0  -1   58.72   13.60
   5   0   0  652.90   50.92
   5   0   0  670.60   34.29
   5   0   0  766.95   63.73
   5   0   1  104.60   20.42
   5   0   1  115.62   22.10
   5   0   1  105.74   17.66
   5   0   2 3709.05  191.95
   5   0   2 3784.08  172.38
   5   0   2 3385.65  155.85
   5   0   2 3425.85  155.57
   5   0   3  296.58   47.24
   5   0   3  440.78   47.11
   5   0   3  392.53   36.61
   5   0   3  357.69   37.56
   5   0   4   24.69   11.08
   5   0   4   18.36    5.04
   5   0   5  199.51   34.26
   5   0   5  185.83   41.35
   5   0   6 2176.89  168.57
   5   0   6 2202.81  141.05
   5   0   6 2054.45  136.66
   5   0   7  233.97   42.62
   5   0   7  215.38   52.14
   5   0   7  278.39   46.15
   5   0   8   84.22   26.57
   5   0   8   86.08   33.98
   5   0   9  125.48   36.03
   5   0   9   79.38   33.90
   5   1 -11   75.42   36.90
   5   1 -11  161.17   44.98
   5   1 -10   53.42   30.16
   5   1 -10   37.14   21.71
   5   1  -9 1513.83  158.78
   5   1  -9 1980.34  152.82
   5   1  -8  120.13   38.68
   5   1  -8  155.75   41.27
   5   1  -8  163.99   37.86
   5   1  -7 1387.40  134.13
   5   1  -7 1534.83  132.93
   5   1  -7 1768.19  129.55
   5   1  -6  634.79   75.12
   5   1  -6  670.22   72.10
   5   1  -5 1045.91   91.05
   5   1  -5 1164.61   92.19
   5   1  -4   53.58   16.77
   5   1  -3 1975.16  104.39
   5   1  -3 1431.78  102.58
   5   1  -2  233.71   32.12
   5   1  -2  315.22   31.52
   5   1  -2  311.14   36.67
   5   1  -2  362.26   42.75
   5   1  -1    6.00    7.58
   5   1  -1    9.86    5.11
   5   1  -1    9.08    5.78
   5   1  -1    5.56    7.89
   5   1   0  219.62   23.35
   5   1   0  234.93   30.11
   5   1   0  208.10   20.67
   5   1   0  189.95   27.58
   5   1   0  229.43   34.11
   5   1   1  559.44   43.00
   5   1   1  651.22   56.45
   5   1   1  603.75   54.28
   5   1   1  538.54   49.05
   5   1   2  122.44   23.05
   5   1   2  118.21   24.99
   5   1   2   96.46   22.49
   5   1   2  130.77   23.62
   5   1   2   98.49   14.41
   5   1   3 1096.91   68.08
   5   1   3 1190.66   82.85
   5   1   3  997.16   60.06
   5   1   4 1782.80  124.84
   5   1   4 1684.67   93.55
   5   1   4 1987.16  117.47
   5   1   4 1745.73   82.00
   5   1   5  272.59   47.35
   5   1   5  217.23   31.07
   5   1   5  280.51   41.37
   5   1   5  200.27   29.87
   5   1   6  353.54   58.13
   5   1   6  392.82   45.87
   5   1   6  353.19   50.33
   5   1   7  355.50   62.89
   5   1   7  406.69   57.01
   5   1   8  796.60  102.77
   5   1   8  813.86   88.58
   5   1   9   71.73   27.96
   5   1   9   82.97   34.68
   5   1  10  470.93   89.22
   5   1  10  424.59   72.02
   5   2 -11  105.83   46.85
   5   2 -10   21.51   15.08
   5   2 -10   26.72   17.64
   5   2  -9  544.59   89.63
   5   2  -9  841.08   96.75
   5   2  -8 1050.42  120.57
   5   2  -8 1399.56  121.27
   5   2  -7  278.20   56.62
   5   2  -7  432.06   44.86
   5   2  -7  446.29   63.12
   5   2  -6    4.84    3.42
   5   2  -6   14.98   11.82
   5   2  -5 1763.62  133.15
   5   2  -5 1902.56  128.07
   5   2  -5 2122.35  133.45
   5   2  -4  833.77   71.40
   5   2  -4  907.17   78.15
   5   2  -3    1.39    4.95
   5   2  -3    4.08    5.96
   5   2  -3    4.46    6.92
   5   2  -2   83.49   15.07
   5   2  -2   52.46   13.47
   5   2  -2   75.23   18.78
   5   2  -2   69.17   18.05
   5   2  -2   85.71   20.60
   5   2  -1 1144.93   58.99
   5   2  -1 1041.32   63.37
   5   2  -1 1200.36   73.40
   5   2  -1 1205.95   83.91
   5   2  -1 1313.95   83.64
   5   2   0  138.80   25.60
   5   2   0  118.82   12.83
   5   2   0  124.76   17.84
   5   2   0  129.24   18.51
   5   2   0  126.26   18.68
   5   2   0  138.34   25.45
   5   2   0  145.41   21.60
   5   2   1 2696.31  110.45
   5   2   1 2872.09  129.95
   5   2   1 2762.04  141.20
   5   2   1 2744.16  142.48
   5   2   1 2536.85  119.19
   5   2   2  222.34   30.54
   5   2   2  165.55   25.37
   5   2   2  199.21   28.73
   5   2   2  171.95   28.31
   5   2   3  141.38   26.08
   5   2   3  214.66   33.55
   5   2   3  201.54   30.76
   5   2   3  153.33   14.74
   5   2   3  150.56   22.93
   5   2   4    7.62    4.42
   5   2   4    2.58    2.87
   5   2   5 3281.06  180.74
   5   2   5 2940.89  141.11
   5   2   5 3109.23  135.96
   5   2   5 3278.38  172.51
   5   2   6  674.67   75.74
   5   2   6  526.80   52.26
   5   2   6  713.74   51.44
   5   2   6  658.83   69.67
   5   2   7    9.80    6.11
   5   2   7   20.95    9.00
   5   2   7    6.69    3.35
   5   2   8   64.82   24.47
   5   2   8   24.39   10.63
   5   2   8   29.01   18.93
   5   2   9  796.69  104.00
   5   2   9  813.92   95.10
   5   2  10  129.87   39.59
   5   2  10  163.11   49.53
   5   2  11   91.71   32.67
   5   2  11   80.58   35.50
   5   3 -11   47.06   26.61
   5   3 -10  962.72  128.74
   5   3  -9   69.19   29.44
   5   3  -9  109.37   33.92
   5   3  -8  869.19  107.32
   5   3  -8 1236.78  115.72
   5   3  -7  258.79   52.88
   5   3  -7  356.99   42.13
   5   3  -7  314.85   53.60
   5   3  -6 1717.09  104.04
   5   3  -6 1613.22  124.90
   5   3  -5  264.83   44.38
   5   3  -5  305.66   47.72
   5   3  -4 2288.61  142.54
   5   3  -4 2984.27  162.77
   5   3  -3  683.98   60.10
   5   3  -3  717.73   72.53
   5   3  -3  796.88   73.08
   5   3  -2  122.26   20.07
   5   3  -2  115.47   24.82
   5   3  -2  146.03   29.60
   5   3  -1   12.44    3.73
   5   3  -1   17.25    6.84
   5   3  -1   18.67    7.80
   5   3  -1   15.92    9.13
   5   3   0 1273.47   56.63
   5   3   0 1300.64   77.69
   5   3   0 1112.26   67.01
   5   3   0 1435.89   96.14
   5   3   0 1318.59   82.98
   5   3   0 1212.52   87.18
   5   3   1   16.47    8.92
   5   3   1   13.56    4.52
   5   3   1    4.27    2.37
   5   3   1   15.19    6.48
   5   3   1   18.49    8.57
   5   3   1   26.43    8.76
   5   3   2  922.09   52.93
   5   3   2 1131.95   64.43
   5   3   2  954.40   57.02
   5   3   2 1022.97   75.47
   5   3   2 1000.65   75.24
   5   3   2  964.91   54.29
   5   3   3 1123.31   69.40
   5   3   3 1333.01   82.40
   5   3   3 1091.37   69.31
   5   3   3 1131.80   75.38
   5   3   3 1051.21   47.00
   5   3   3 1211.37   84.68
   5   3   4  374.28   42.10
   5   3   4  499.04   54.03
   5   3   4  442.86   44.95
   5   3   4  370.95   24.98
   5   3   4  402.39   38.69
   5   3   4  440.24   49.86
   5   3   5  385.52   46.76
   5   3   5  327.24   30.83
   5   3   5  374.86   48.46
   5   3   6 1259.02   98.57
   5   3   6 1173.26   83.14
   5   3   6  908.58   67.65
   5   3   6 1212.90   97.66
   5   3   7 1602.09  125.73
   5   3   7 1545.68   99.96
   5   3   7 1541.34  122.27
   5   3   8  235.45   47.94
   5   3   8  340.83   58.89
   5   3   8  302.17   38.62
   5   3   9  302.73   56.91
   5   3   9  391.65   67.17
   5   3  10  114.05   34.69
   5   3  10   71.42   29.11
   5   3  11   53.95   28.09
   5   3  11   35.59   19.01
   5   3  12   22.63   19.42
   5   4 -10   15.79   15.71
   5   4  -9  545.24   90.73
   5   4  -9 1041.04  112.27
   5   4  -8  200.02   49.64
   5   4  -8  435.48   68.88
   5   4  -7    4.60    3.32
   5   4  -7   25.19   17.68
   5   4  -6 1236.37  111.95
   5   4  -6 1634.76  128.66
   5   4  -5 1625.01  120.24
   5   4  -5 1919.34  137.20
   5   4  -4  319.93   42.93
   5   4  -4  360.26   52.79
   5   4  -3    4.60    3.35
   5   4  -3   10.34   10.85
   5   4  -2 1949.01   95.78
   5   4  -2 1852.52  116.24
   5   4  -2 2048.51  132.16
   5   4  -1  593.82   33.44
   5   4  -1  569.09   49.90
   5   4  -1  641.06   66.05
   5   4  -1  665.54   65.96
   5   4   0  684.12   46.59
   5   4   0  810.18   72.01
   5   4   0  802.35   67.35
   5   4   0  728.14   65.04
   5   4   1   23.44   11.37
   5   4   1   14.37    3.61
   5   4   1   18.55    7.53
   5   4   1   25.08    9.43
   5   4   2  206.13   14.17
   5   4   2  235.89   35.13
   5   4   2  225.92   33.91
   5   4   2  189.94   21.92
   5   4   3   66.43   17.84
   5   4   3   39.54    9.60
   5   4   3   75.47   19.16
   5   4   3   55.78    9.43
   5   4   3   38.87   12.65
   5   4   4 3831.81  174.75
   5   4   4 3819.50  168.46
   5   4   4 4312.26  196.97
   5   4   4 3759.07  180.39
   5   4   4 4111.34  199.03
   5   4   4 4017.85  142.36
   5   4   5  556.30   53.99
   5   4   5  552.52   51.77
   5   4   5  591.77   57.83
   5   4   5  551.50   60.54
   5   4   6   43.89   16.99
   5   4   6   50.55   16.87
   5   4   6   50.86   15.38
   5   4   7    6.90    8.65
   5   4   7   11.62    8.88
   5   4   7   21.85   12.26
   5   4   8 1719.23  132.79
   5   4   8 1694.69  107.67
   5   4   8 1558.47  131.66
   5   4   9  562.50   76.40
   5   4   9  529.38   53.71
   5   4   9  501.63   73.54
   5   4  10   93.06   30.95
   5   4  10   76.04   29.48
   5   4  11   37.47   14.97
   5   4  11   51.15   26.33
   5   4  12  119.36   41.99
   5   4  12  152.81   47.91
   5   5 -10  187.41   53.82
   5   5  -9  118.14   39.00
   5   5  -8  143.27   42.36
   5   5  -8  209.44   47.26
   5   5  -7 1001.73  108.75
   5   5  -7 1766.15  143.78
   5   5  -6  204.54   41.12
   5   5  -6  275.74   51.87
   5   5  -5 3080.20  172.37
   5   5  -5 3041.60  188.85
   5   5  -4  810.54   73.46
   5   5  -4 1046.82   90.28
   5   5  -4 1012.14   96.95
   5   5  -3  689.40   60.35
   5   5  -3  850.82   77.98
   5   5  -3  876.20   86.75
   5   5  -2  564.58   47.47
   5   5  -2  543.22   57.74
   5   5  -2  641.97   65.86
   5   5  -2  685.85   73.45
   5   5  -1 1610.50   76.72
   5   5  -1 1895.45  118.82
   5   5  -1 1747.17  122.07
   5   5   0  289.10   39.35
   5   5   0  267.68   26.34
   5   5   0  371.09   47.77
   5   5   0  302.02   45.55
   5   5   0  295.58   41.03
   5   5   0  277.75   38.76
   5   5   1  484.85   49.92
   5   5   1  582.20   60.98
   5   5   1  428.18   48.70
   5   5   1  493.33   57.01
   5   5   2  278.00   36.90
   5   5   2  292.19   41.51
   5   5   2  270.70   37.86
   5   5   3  732.88   44.61
   5   5   3  862.50   74.45
   5   5   3  781.94   42.39
   5   5   3  817.49   70.17
   5   5   3  747.87   67.64
   5   5   4    5.30    1.82
   5   5   4   11.09    6.04
   5   5   4    5.66    2.26
   5   5   4   16.15    3.70
   5   5   4    9.28    3.40
   5   5   4    7.24    8.73
   5   5   5 1131.20   80.95
   5   5   5 1288.13   72.38
   5   5   5 1312.97   96.65
   5   5   5 1196.54   95.75
   5   5   5 1226.23   64.09
   5   5   6 1831.77  106.37
   5   5   6 1918.34  121.83
   5   5   6 1719.62  124.89
   5   5   7  840.50   74.72
   5   5   7  749.09   81.67
   5   5   8  144.06   36.64
   5   5   8  180.19   32.65
   5   5   8  187.51   36.13
   5   5   9  390.23   49.72
   5   5   9  460.19   63.14
   5   5   9  408.68   65.76
   5   5  10  316.79   61.29
   5   5  10  466.77   69.19
   5   5  11  138.46   39.84
   5   5  11  182.64   45.65
   5   5  12  246.41   60.61
   5   5  12  379.50   70.85
   5   6  -9  101.19   35.92
   5   6  -8   13.87   12.63
   5   6  -7  333.43   61.17
   5   6  -7  514.73   77.65
   5   6  -6 1780.65  151.96
   5   6  -6 2101.60  159.93
   5   6  -5  639.92   74.03
   5   6  -5  967.10   96.27
   5   6  -5  812.24   99.15
   5   6  -5  821.15   94.35
   5   6  -4   23.74   14.56
   5   6  -4   14.47   13.63
   5   6  -4   -2.03    9.51
   5   6  -4   -8.20   10.31
   5   6  -3 1255.27   93.67
   5   6  -3 1444.30  116.48
   5   6  -3 1387.04  132.59
   5   6  -3 1403.61  119.80
   5   6  -2 1268.05   86.53
   5   6  -2 1404.54  133.18
   5   6  -2 1293.32  106.85
   5   6  -2 1278.85  111.23
   5   6  -1    3.67    2.25
   5   6  -1   -0.04    2.88
   5   6  -1   -2.92    4.55
   5   6   0   24.65   12.59
   5   6   0   15.18    5.11
   5   6   0   34.02   15.86
   5   6   0   -5.58    8.44
   5   6   0   13.36    8.63
   5   6   1  955.47   80.16
   5   6   1 1235.34   96.88
   5   6   1 1024.34   90.45
   5   6   1  989.86   80.23
   5   6   2  362.16   45.46
   5   6   2  427.84   55.52
   5   6   2  381.48   35.89
   5   6   2  396.61   52.50
   5   6   2  345.08   44.18
   5   6   3 2329.83  107.80
   5   6   3 2636.03  155.76
   5   6   3 2421.46  111.64
   5   6   3 2500.58  147.16
   5   6   3 2344.16  138.00
   5   6   4  323.87   32.94
   5   6   4  363.76   50.35
   5   6   4  367.69   31.74
   5   6   4  348.87   46.58
   5   6   5   19.02    8.42
   5   6   5    4.90    6.30
   5   6   5   15.53   12.07
   5   6   5    9.07    6.18
   5   6   6    2.00    5.24
   5   6   6    8.26    6.24
   5   6   6   -0.88    1.33
   5   6   6    3.80    4.12
   5   6   7 3100.53  177.32
   5   6   7 3226.43  154.00
   5   6   7 3011.52  186.26
   5   6   7 3107.39  151.10
   5   6   8 1015.96   89.01
   5   6   8 1064.96   82.64
   5   6   8  848.00   94.51
   5   6   9  250.76   51.60
   5   6   9  293.86   45.43
   5   6   9  272.20   43.85
   5   6  10   55.26   26.17
   5   6  10   84.40   24.51
   5   6  10  116.70   30.32
   5   6  11  723.72   85.18
   5   6  11  540.69   86.95
   5   6  12  174.93   50.31
   5   7  -7  243.08   52.06
   5   7  -6  505.92   73.40
   5   7  -6  644.97   97.22
   5   7  -6  775.09   96.13
   5   7  -5  350.24   56.75
   5   7  -5  467.80   81.90
   5   7  -5  496.63   74.47
   5   7  -4  866.84   88.28
   5   7  -4 1274.40  121.68
   5   7  -4 1140.57  131.49
   5   7  -4 1081.85  111.06
   5   7  -3  756.96   76.51
   5   7  -3  945.19  101.85
   5   7  -3  807.40  108.05
   5   7  -3  723.83   88.21
   5   7  -2 1671.19  113.42
   5   7  -2 1968.64  149.83
   5   7  -2 1877.91  168.85
   5   7  -2 1769.96  140.12
   5   7  -1  924.86   69.81
   5   7  -1 1076.75  104.28
   5   7  -1 1059.47  121.54
   5   7  -1  970.17   97.13
   5   7   0   30.04    8.90
   5   7   0   45.82   21.23
   5   7   0   50.63   20.29
   5   7   0   35.39   15.24
   5   7   1  150.76   29.84
   5   7   1  205.41   41.47
   5   7   1  193.12   35.73
   5   7   1  167.67   28.63
   5   7   1  200.18   39.63
   5   7   2  755.36   81.08
   5   7   2  629.69   65.09
   5   7   2  697.29   75.05
   5   7   2  564.98   59.85
   5   7   3  196.21   33.74
   5   7   3  249.20   45.05
   5   7   3  195.96   35.07
   5   7   3  211.12   28.71
   5   7   4  580.74   60.77
   5   7   4  666.36   52.71
   5   7   4  693.73   75.86
   5   7   4  702.91   54.24
   5   7   4  640.74   65.81
   5   7   5  826.23   84.18
   5   7   5  853.12   60.96
   5   7   5  705.32   74.07
   5   7   6  644.21   73.31
   5   7   6  624.15   70.94
   5   7   6  722.27   56.70
   5   7   7   14.55   11.28
   5   7   7   37.58   18.37
   5   7   8  646.89   75.46
   5   7   8  579.11   77.33
   5   7   8  649.49   61.75
   5   7   9  915.63   89.79
   5   7   9  944.91   77.54
   5   7   9  808.74   97.13
   5   7   9  904.58   80.46
   5   7  10  579.73   70.30
   5   7  10  619.86   66.73
   5   7  10  500.00   78.99
   5   7  11   62.98   28.68
   5   7  12  129.32   40.80
   5   8  -5   -4.81   12.34
   5   8  -5   39.02   22.44
   5   8  -5   14.08   12.78
   5   8  -4  547.60   74.23
   5   8  -4  727.34   92.58
   5   8  -3 1179.19  106.08
   5   8  -3 1451.08  157.51
   5   8  -3 1280.16  122.78
   5   8  -2  251.82   42.61
   5   8  -2  322.96   62.16
   5   8  -2  301.89   69.51
   5   8  -2  255.13   49.62
   5   8  -1   -0.40    5.68
   5   8  -1    4.51    7.43
   5   8  -1   12.10    5.61
   5   8  -1   -6.36    4.66
   5   8   0  674.99   59.29
   5   8   0  928.13  101.54
   5   8   0  973.58  121.01
   5   8   0  905.65   95.11
   5   8   1  901.89   97.62
   5   8   1  683.00   76.01
   5   8   1  969.02  119.46
   5   8   1  853.53   90.25
   5   8   1  814.91   73.21
   5   8   1  692.96   69.65
   5   8   2  408.62   62.87
   5   8   2  288.68   47.06
   5   8   2  332.64   43.73
   5   8   2  274.13   41.31
   5   8   3   68.27   19.73
   5   8   3  109.61   30.78
   5   8   3   80.56   23.20
   5   8   3   79.02   19.37
   5   8   4   47.71   17.92
   5   8   4   20.94   14.08
   5   8   4   23.16   11.71
   5   8   4   54.20   15.31
   5   8   5   66.16   21.06
   5   8   5   71.31   22.85
   5   8   5   75.27   18.30
   5   8   6 2393.01  167.93
   5   8   6 2281.13  155.07
   5   8   6 2621.06  137.43
   5   8   7 1133.90  107.99
   5   8   7 1018.84  100.26
   5   8   7 1251.66   87.97
   5   8   8   35.04   18.79
   5   8   8   23.74   15.79
   5   8   8   26.23   13.37
   5   8   9   -9.11   16.25
   5   8   9    6.91    7.82
   5   8   9    5.20    8.64
   5   8  10 1189.38  127.02
   5   8  10 1239.61  105.63
   5   8  11  819.47  109.19
   5   9  -5  503.15   99.00
   5   9  -4  594.75  108.05
   5   9  -3  792.03  124.18
   5   9  -2  742.54   82.59
   5   9  -2  955.88  133.56
   5   9  -1  279.60   44.68
   5   9  -1  382.29   80.34
   5   9   0  589.64   62.45
   5   9   0  792.36  102.32
   5   9   0  834.94  119.81
   5   9   1  513.49   79.21
   5   9   1  493.62   88.70
   5   9   1  441.23   58.31
   5   9   2  545.77   79.98
   5   9   2  450.58   62.78
   5   9   2  508.39   88.09
   5   9   2  444.65   56.60
   5   9   2  455.81   55.30
   5   9   3  138.12   29.73
   5   9   3  140.91   38.67
   5   9   3  124.03   30.62
   5   9   3  149.59   30.41
   5   9   4   46.41   17.57
   5   9   4   66.43   26.05
   5   9   4   52.59   18.24
   5   9   4   88.19   22.52
   5   9   5  453.80   70.73
   5   9   5  397.19   60.13
   5   9   5  514.36   55.86
   5   9   5  345.47   51.55
   5   9   6   64.19   21.62
   5   9   6   46.58   23.46
   5   9   6   80.56   21.58
   5   9   7  634.33   84.68
   5   9   7  531.53   70.46
   5   9   7  643.19   64.80
   5   9   8  816.15   96.17
   5   9   8  770.56   90.76
   5   9   8  874.58   79.76
   5   9   9  413.58   69.53
   5   9   9  567.10   66.04
   5   9  10   25.26   16.78
   5   9  10   59.42   22.47
   5   9  11  285.02   62.88
   5  10  -4  680.81  123.54
   5  10  -3  429.71   95.46
   5  10  -2   21.87    8.27
   5  10  -1  789.04  128.06
   5  10   0  959.65  139.52
   5  10   1    7.56    6.30
   5  10   1   15.42   11.78
   5  10   2    5.71    5.32
   5  10   2   36.02   18.37
   5  10   2   31.05   20.53
   5  10   2    1.24    7.01
   5  10   3   97.10   25.41
   5  10   3  116.97   32.38
   5  10   3  139.97   31.80
   5  10   4  180.21   34.99
   5  10   4  191.54   42.02
   5  10   4  276.99   45.91
   5  10   5  695.34   83.78
   5  10   5  730.30   74.99
   5  10   5  642.85   72.89
   5  10   6  409.15   64.67
   5  10   6  529.88   62.64
   5  10   6  416.01   60.32
   5  10   7   14.55   12.25
   5  10   7    2.36    7.34
   5  10   8   18.29   13.69
   5  10   8   -1.00    1.43
   5  10   9  971.41  110.21
   5  10   9 1091.84   99.64
   5  10  10  847.55  107.86
   5  10  11   13.40   18.92
   5  11  -1  741.87  131.48
   5  11   0  449.60   98.71
   5  11   1  741.58  123.86
   5  11   1  628.18   82.73
   5  11   2    9.31   13.55
   5  11   2   10.71   10.58
   5  11   3   15.28   12.86
   5  11   3   25.33   14.94
   5  11   3   31.03   18.69
   5  11   4  150.95   33.42
   5  11   4  270.28   52.74
   5  11   4  249.39   47.45
   5  11   5  173.28   36.48
   5  11   5  155.02   38.14
   5  11   5  215.57   42.16
   5  11   6  352.69   61.28
   5  11   6  437.42   61.75
   5  11   6  292.74   51.06
   5  11   7  399.21   66.83
   5  11   7  412.52   60.91
   5  11   7  400.94   62.03
   5  11   8  261.59   52.62
   5  11   8  290.87   50.82
   5  11   9   -4.18   11.33
   5  11   9   -8.89   12.01
   5  11  10  397.76   74.08
   5  12   2  281.90   56.68
   5  12   3  500.97   99.97
   5  12   3  413.91   69.56
   5  12   4   49.57   24.44
   5  12   4   33.67   15.43
   5  12   5  121.50   37.20
   5  12   5   98.20   31.58
   5  12   6   27.46   17.11
   5  12   6   23.05   16.61
   5  12   7   38.13   20.67
   5  12   7   49.95   23.70
   5  12   8  456.38   79.12
   5  12   8  565.83   77.11
   5  12   8  437.89   69.56
   5  12   9  550.35   82.77
   5  12  10   -8.84   11.54
   5  13   4  454.76   75.86
   5  13   5   37.58   19.81
   5  13   6  104.39   32.49
   5  13   7  158.05   42.62
   6  -6  -8  219.86   56.38
   6  -6  -7   42.14   22.74
   6  -6  -6  105.29   37.31
   6  -6  -5  315.11   61.65
   6  -6  -4 1032.92  114.86
   6  -6  -3   69.16   28.68
   6  -6  -2  -11.19   14.16
   6  -6  -1  231.79   54.00
   6  -6  -1  281.89   67.12
   6  -5 -10   55.43   30.38
   6  -5  -9  641.92   94.15
   6  -5  -8   20.65   16.78
   6  -5  -7   24.36   16.58
   6  -5  -6  112.83   34.45
   6  -5  -5  535.73   75.81
   6  -5  -4  162.67   39.94
   6  -5  -3  715.06   86.32
   6  -5  -2  358.18   60.71
   6  -5  -1  159.96   40.39
   6  -5   0  102.50   33.00
   6  -5   0  169.64   50.25
   6  -5   1  487.99   79.08
   6  -5   1  468.82   86.33
   6  -5   2  220.46   52.46
   6  -5   2  198.71   55.47
   6  -4 -11  300.67   70.89
   6  -4 -10  286.14   64.61
   6  -4  -9  -14.90   12.86
   6  -4  -8   53.10   24.31
   6  -4  -7  231.88   48.94
   6  -4  -6   54.33   21.91
   6  -4  -5  885.48   94.34
   6  -4  -4   89.74   26.68
   6  -4  -3   90.33   26.24
   6  -4  -2  132.72   33.69
   6  -4  -1 1923.59  144.74
   6  -4   0  141.72   37.32
   6  -4   1    8.11   10.86
   6  -4   1    7.91    8.60
   6  -4   2   31.58   17.00
   6  -4   2   30.83   21.75
   6  -4   3  650.81   94.32
   6  -4   3  745.47  110.41
   6  -4   4    1.76   16.39
   6  -4   5  191.92   52.23
   6  -3 -11    4.66   10.37
   6  -3 -10  809.44  108.92
   6  -3  -9    8.80    7.38
   6  -3  -8   32.23   20.05
   6  -3  -7   -0.21    2.64
   6  -3  -6  857.95   90.65
   6  -3  -5  116.59   31.04
   6  -3  -4  663.28   73.73
   6  -3  -3  211.33   39.17
   6  -3  -2  378.18   54.01
   6  -3  -1  239.04   42.71
   6  -3   0 1224.76  105.63
   6  -3   1  479.74   65.56
   6  -3   1  446.05   72.43
   6  -3   2   83.33   27.04
   6  -3   2   53.02   21.49
   6  -3   3  155.71   41.07
   6  -3   3  172.65   46.75
   6  -3   4  187.74   47.80
   6  -3   4  127.80   43.73
   6  -3   5   30.13   19.23
   6  -3   5    8.46   12.15
   6  -2 -11  917.59  125.92
   6  -2 -10   25.23   18.87
   6  -2  -9  114.56   38.03
   6  -2  -8  241.50   50.78
   6  -2  -7   74.71   25.96
   6  -2  -6  142.57   34.62
   6  -2  -5   91.65   26.41
   6  -2  -4  146.05   30.88
   6  -2  -3  167.37   31.48
   6  -2  -2 2288.36  138.93
   6  -2  -1  209.83   35.82
   6  -2   0   27.97   14.67
   6  -2   1   23.22   11.80
   6  -2   2 1625.51  125.25
   6  -2   2 1578.70  141.01
   6  -2   3  129.09   34.53
   6  -2   3  126.49   39.36
   6  -2   4  184.68   48.77
   6  -2   5    1.94    9.84
   6  -2   5   -0.82    5.42
   6  -2   6  161.23   49.69
   6  -1 -12   21.77   17.82
   6  -1 -11  665.75  113.90
   6  -1 -11  782.31  117.01
   6  -1 -11  912.15  112.09
   6  -1 -10  112.46   37.07
   6  -1  -9  317.87   62.77
   6  -1  -8   17.81   13.51
   6  -1  -7 1145.60  109.18
   6  -1  -6   47.13   19.99
   6  -1  -5  395.81   51.84
   6  -1  -4   41.55   14.57
   6  -1  -3  863.08   72.33
   6  -1  -2  105.34   22.38
   6  -1  -1 2085.20  121.87
   6  -1   0  696.56   63.97
   6  -1   1  376.47   48.65
   6  -1   2  132.68   26.08
   6  -1   2  134.80   29.08
   6  -1   2  126.02   33.98
   6  -1   3  786.85   91.39
   6  -1   3  987.36   78.00
   6  -1   3  742.98   58.32
   6  -1   4  226.11   48.68
   6  -1   4  256.29   39.59
   6  -1   5   17.66   11.58
   6  -1   5    5.43   10.25
   6  -1   6  287.23   64.24
   6  -1   6  226.93   44.93
   6  -1   7   80.71   35.17
   6  -1   8   65.33   32.72
   6   0 -12 1324.79  144.84
   6   0 -11  184.55   55.12
   6   0 -11  174.08   47.72
   6   0 -10   88.40   35.56
   6   0 -10   54.75   26.85
   6   0 -10  147.97   43.73
   6   0  -9  263.26   59.08
   6   0  -9  320.91   61.57
   6   0  -8  542.05   80.21
   6   0  -7    9.35   10.46
   6   0  -6  317.22   50.57
   6   0  -5  285.54   43.87
   6   0  -4   39.50   14.71
   6   0  -3 1608.26   99.93
   6   0  -2  236.06   31.46
   6   0  -1   54.70   14.04
   6   0   0  115.41   21.76
   6   0   1 3138.12  158.42
   6   0   1 2917.33  151.42
   6   0   2  192.70   32.04
   6   0   2  164.31   35.63
   6   0   2  201.10   32.97
   6   0   2  166.16   26.96
   6   0   2  174.06   25.64
   6   0   3  294.79   50.07
   6   0   3  339.24   44.07
   6   0   3  266.97   33.59
   6   0   3  242.22   32.66
   6   0   4    7.53    4.26
   6   0   4    5.25    6.77
   6   0   4    3.90    3.45
   6   0   5  828.31   98.53
   6   0   5  859.40   79.84
   6   0   5 1042.52   89.31
   6   0   6   63.36   22.05
   6   0   6   45.53   21.54
   6   0   6   61.93   18.30
   6   0   7  497.70   84.36
   6   0   7  582.20   73.30
   6   0   8   11.14   17.23
   6   0   9  -10.51    7.21
   6   1 -11  328.69   78.51
   6   1 -11  397.66   74.65
   6   1 -10  575.23  100.58
   6   1 -10  700.57   96.52
   6   1  -9   76.33   33.33
   6   1  -9   50.92   22.62
   6   1  -8 1262.29  138.41
   6   1  -8 1516.04  140.93
   6   1  -8 1756.64  142.59
   6   1  -7  176.35   41.95
   6   1  -7  238.91   47.79
   6   1  -6    6.77    7.27
   6   1  -6    6.28    5.99
   6   1  -5   51.02   18.08
   6   1  -5   75.05   23.92
   6   1  -4 1490.35  102.60
   6   1  -3   -3.01    4.91
   6   1  -2 1661.83  108.99
   6   1  -2 2016.33  102.87
   6   1  -2 1998.51  119.46
   6   1  -1  423.68   36.75
   6   1  -1  346.27   41.33
   6   1  -1  380.87   45.21
   6   1   0  851.22   56.64
   6   1   0  794.42   66.96
   6   1   0  813.02   48.47
   6   1   0  761.85   65.15
   6   1   0  871.91   74.95
   6   1   1   18.94    7.45
   6   1   1   -5.85    8.13
   6   1   1   10.60    7.12
   6   1   2 2026.90  131.88
   6   1   2 2310.71  131.14
   6   1   2 2038.66  120.90
   6   1   3  922.75   85.76
   6   1   3 1072.53   83.98
   6   1   3 1075.23   74.23
   6   1   3  900.30   59.44
   6   1   4  362.49   54.20
   6   1   4  371.29   34.78
   6   1   4  410.90   52.45
   6   1   4  354.25   36.23
   6   1   5   46.51   17.93
   6   1   5   31.53   16.39
   6   1   5   44.47   14.95
   6   1   6  339.40   59.96
   6   1   6  383.73   55.48
   6   1   7   10.07   10.27
   6   1   7    1.16    3.55
   6   1   8    9.35    6.33
   6   1   8   35.64   21.47
   6   1   9  283.26   57.20
   6   1   9  418.20   80.75
   6   1  10    9.81    6.55
   6   2 -11  157.76   54.24
   6   2 -11  193.73   52.52
   6   2 -10  180.01   53.96
   6   2 -10  288.18   60.77
   6   2  -9  969.12  123.86
   6   2  -9 1339.24  130.33
   6   2  -8  184.46   48.89
   6   2  -8  272.25   54.27
   6   2  -7  261.63   54.39
   6   2  -7  283.64   51.83
   6   2  -6  250.88   50.15
   6   2  -6  309.62   50.67
   6   2  -6  324.57   52.71
   6   2  -5   84.41   23.73
   6   2  -5   89.82   24.46
   6   2  -4  354.59   44.53
   6   2  -4  360.16   50.97
   6   2  -3  490.50   46.73
   6   2  -3  452.23   53.81
   6   2  -2  115.60   19.13
   6   2  -2  101.35   19.75
   6   2  -2  141.10   26.55
   6   2  -2  110.34   25.45
   6   2  -1  175.50   20.14
   6   2  -1  156.89   23.00
   6   2  -1  166.14   26.02
   6   2  -1  157.15   29.70
   6   2  -1  183.11   29.73
   6   2   0 3553.56  144.17
   6   2   0 3502.01  162.07
   6   2   0 3603.17  161.94
   6   2   0 3641.12  155.86
   6   2   0 3616.39  182.61
   6   2   0 3644.07  169.11
   6   2   0 3882.90  191.69
   6   2   1  808.35   49.81
   6   2   1  841.43   64.98
   6   2   1  730.88   51.65
   6   2   1  784.40   70.14
   6   2   1  783.48   70.46
   6   2   2   16.96    8.80
   6   2   2   16.34   10.86
   6   2   2   25.69   11.26
   6   2   2   13.41    6.25
   6   2   3   86.94   22.25
   6   2   3   71.50   17.90
   6   2   4 2798.11  161.21
   6   2   4 2620.81  128.73
   6   2   4 2931.30  159.44
   6   2   4 2502.19  112.80
   6   2   5  400.84   56.79
   6   2   5  403.76   32.51
   6   2   5  370.82   36.03
   6   2   5  421.65   54.46
   6   2   5  331.67   33.67
   6   2   6  595.58   75.57
   6   2   6  483.86   64.08
   6   2   6  552.33   47.91
   6   2   7   18.64   14.25
   6   2   7    1.17    4.22
   6   2   8   94.87   29.78
   6   2   8   95.18   32.96
   6   2   9    8.56   10.36
   6   2   9    6.26   11.37
   6   2  10  814.95  116.61
   6   2  10  578.54   87.40
   6   2  11   80.71   34.60
   6   2  11   20.93   22.69
   6   3 -11  371.29   82.42
   6   3 -10  144.50   49.97
   6   3 -10  197.20   50.82
   6   3  -9  689.21  100.34
   6   3  -9  783.35  100.10
   6   3  -8  491.41   78.40
   6   3  -8  546.06   78.53
   6   3  -7  380.82   64.53
   6   3  -7  436.62   51.10
   6   3  -7  413.43   65.22
   6   3  -6  332.50   55.74
   6   3  -6  415.44   50.52
   6   3  -6  382.77   58.74
   6   3  -5 1073.36   97.58
   6   3  -5 1281.94  107.31
   6   3  -4  175.17   33.25
   6   3  -4  185.30   36.81
   6   3  -3  599.16   66.19
   6   3  -2   20.02    7.54
   6   3  -2    8.26    4.77
   6   3  -1 1095.11   49.87
   6   3  -1 1157.03   78.07
   6   3  -1 1316.10   96.96
   6   3  -1 1268.29   90.08
   6   3   0   38.39   13.46
   6   3   0   29.24    7.88
   6   3   0   41.06   11.81
   6   3   0   33.23    9.66
   6   3   0   37.51   14.98
   6   3   0   34.15   11.78
   6   3   1 2843.34  105.26
   6   3   1 3032.91  130.70
   6   3   1 2521.11  107.67
   6   3   1 2796.99  123.41
   6   3   1 2943.10  135.24
   6   3   1 2889.12  158.08
   6   3   1 3150.75  164.11
   6   3   1 2682.15  130.80
   6   3   2 1260.07   77.38
   6   3   2  944.93   58.62
   6   3   2 1075.23   70.71
   6   3   2 1188.41   87.32
   6   3   2 1031.46   82.73
   6   3   2  997.63   59.17
   6   3   3  695.48   61.48
   6   3   3  570.76   48.67
   6   3   3  628.90   54.81
   6   3   3  615.72   57.73
   6   3   3  629.66   62.53
   6   3   3  512.50   33.69
   6   3   4    2.21    8.50
   6   3   4    8.52    6.40
   6   3   4    6.28    7.51
   6   3   4    3.55    1.78
   6   3   4    5.49    1.70
   6   3   4    5.33    2.01
   6   3   4   -0.73    2.60
   6   3   5  834.16   49.03
   6   3   5  979.85   63.35
   6   3   5  980.64   87.23
   6   3   6  250.85   43.96
   6   3   6  297.18   48.10
   6   3   6  189.12   24.95
   6   3   7   11.35   11.09
   6   3   7    7.51    4.15
   6   3   7   20.47   10.76
   6   3   8  149.90   37.73
   6   3   8  178.94   32.48
   6   3   8  180.19   44.82
   6   3   9  103.92   34.93
   6   3   9  202.98   50.12
   6   3  10   12.65   13.65
   6   3  10   31.13   20.35
   6   3  11  128.59   42.41
   6   3  11  146.43   50.59
   6   4 -10  842.30  117.07
   6   4  -9  396.19   74.23
   6   4  -9  525.42   83.20
   6   4  -8  255.38   56.34
   6   4  -8  320.91   62.07
   6   4  -7  310.62   56.77
   6   4  -7  405.92   66.06
   6   4  -6  443.12   62.77
   6   4  -6  615.50   64.00
   6   4  -6  543.32   74.41
   6   4  -5   34.62   15.57
   6   4  -5   43.75   17.40
   6   4  -5   40.13   16.54
   6   4  -4  379.07   46.07
   6   4  -4  387.62   50.19
   6   4  -4  441.12   60.32
   6   4  -3  227.69   30.21
   6   4  -3  234.05   38.25
   6   4  -3  237.47   42.96
   6   4  -2   10.03    2.69
   6   4  -2   10.20    4.27
   6   4  -2   -4.48    5.24
   6   4  -2   19.17   11.62
   6   4  -1 1019.74   49.44
   6   4  -1 1112.78   78.85
   6   4   0  816.82   50.96
   6   4   0  969.17   81.23
   6   4   0  900.41   68.94
   6   4   0  830.05   72.14
   6   4   1   35.99   13.83
   6   4   1   31.16    7.89
   6   4   1   27.03   15.43
   6   4   1   30.73   10.70
   6   4   2   96.66   23.41
   6   4   2  101.80    9.41
   6   4   2   96.05   13.83
   6   4   2   84.79   11.57
   6   4   2   82.15   21.24
   6   4   2   71.53   14.66
   6   4   3 2483.08  117.21
   6   4   3 2966.28  125.37
   6   4   3 2843.86  151.15
   6   4   3 2574.06  105.60
   6   4   3 2976.00  158.64
   6   4   4 1041.52   72.21
   6   4   4 1183.36   76.58
   6   4   4 1264.22   93.69
   6   4   4 1203.53   84.69
   6   4   4 1273.90   97.20
   6   4   5   29.49   12.54
   6   4   5   -5.30    5.01
   6   4   5   30.61   12.53
   6   4   5   13.95    3.22
   6   4   5   14.43    7.22
   6   4   6   11.35    7.77
   6   4   6   12.48    8.78
   6   4   6    5.91    2.56
   6   4   7 1041.42   94.67
   6   4   7  892.96   80.81
   6   4   7  888.27   92.54
   6   4   8  299.01   53.75
   6   4   8  320.07   55.66
   6   4   8  298.47   43.68
   6   4   9  605.35   83.06
   6   4   9  576.95   82.26
   6   4  10   25.01   16.33
   6   4  10    8.71    6.74
   6   4  11  -13.17   12.74
   6   4  11  -27.58   23.05
   6   5  -9  500.30   81.47
   6   5  -8  448.83   72.83
   6   5  -8  647.90   91.86
   6   5  -7  294.57   53.84
   6   5  -7  467.13   74.37
   6   5  -6  878.71   82.93
   6   5  -6  853.18   97.84
   6   5  -5  405.22   52.64
   6   5  -5  520.90   63.12
   6   5  -5  535.80   73.18
   6   5  -4   59.05   16.87
   6   5  -4   62.99   20.35
   6   5  -4   54.51   23.05
   6   5  -3   53.15   14.51
   6   5  -3   57.74   20.79
   6   5  -3   43.35   19.66
   6   5  -2  650.69   45.74
   6   5  -2  651.67   64.24
   6   5  -2  750.46   73.88
   6   5  -2  798.43   84.08
   6   5  -1   87.73   24.47
   6   5  -1   75.84   17.68
   6   5  -1   52.59   22.61
   6   5   0 2060.48  100.90
   6   5   0 2152.58  127.39
   6   5   0 2527.00  145.28
   6   5   0 2469.36  152.14
   6   5   0 2139.08  133.55
   6   5   0 2018.49  134.14
   6   5   1  564.60   56.36
   6   5   1  812.08   74.74
   6   5   1  656.05   71.43
   6   5   1  625.70   58.16
   6   5   1  611.55   64.05
   6   5   2  773.73   66.18
   6   5   2  851.94   77.36
   6   5   2  677.15   67.39
   6   5   2  812.03   76.21
   6   5   3  109.15   25.55
   6   5   3   88.98   11.90
   6   5   3   86.67   24.02
   6   5   3   62.89   18.15
   6   5   4 1838.53   98.93
   6   5   4 2024.54   87.11
   6   5   4 2110.13  132.79
   6   5   4 1926.44  120.91
   6   5   4 2013.45  130.09
   6   5   5  679.43   58.52
   6   5   5  784.98   55.23
   6   5   5  853.61   78.03
   6   5   5  786.85   67.20
   6   5   5  818.82   78.80
   6   5   5  647.37   32.47
   6   5   5  736.34   32.01
   6   5   6   21.42   12.02
   6   5   6   38.04   16.52
   6   5   6   34.53   12.33
   6   5   6   47.47    9.17
   6   5   7   43.51   21.30
   6   5   7   52.26   18.16
   6   5   8  485.33   61.30
   6   5   8  473.05   57.81
   6   5   8  409.04   64.86
   6   5   9   25.01   15.17
   6   5   9   20.11   10.22
   6   5   9   45.17   20.81
   6   5  10   75.10   30.70
   6   5  10   85.13   30.06
   6   5  11  272.56   62.70
   6   5  11  278.34   58.22
   6   6  -8  122.11   40.08
   6   6  -7  471.35   69.51
   6   6  -7  765.75  101.13
   6   6  -6  382.30   56.63
   6   6  -6  459.40   74.38
   6   6  -5  237.18   40.50
   6   6  -5  406.67   59.14
   6   6  -5  291.47   56.78
   6   6  -4  352.95   45.98
   6   6  -4  438.50   61.10
   6   6  -4  425.59   66.68
   6   6  -3   90.12   20.17
   6   6  -3  125.53   32.33
   6   6  -3  137.22   34.98
   6   6  -2   43.63   11.05
   6   6  -2   54.75   19.84
   6   6  -2   50.77   18.00
   6   6  -2   40.12   18.30
   6   6  -1  452.50   28.48
   6   6  -1  496.60   48.56
   6   6  -1  695.75   73.50
   6   6  -1  645.88   76.06
   6   6   0  136.43   29.73
   6   6   0  116.40   17.84
   6   6   0  168.96   35.01
   6   6   0  170.88   31.72
   6   6   0  151.15   33.48
   6   6   1   22.67    9.45
   6   6   1   52.84   18.82
   6   6   1   39.49   13.27
   6   6   1   29.46   11.96
   6   6   2 1398.40  101.30
   6   6   2 1739.82  121.83
   6   6   2 1456.09  106.37
   6   6   2 1546.99  115.36
   6   6   3 1117.71   56.00
   6   6   3 1333.41  104.06
   6   6   3 1169.20   95.50
   6   6   3 1086.34   90.79
   6   6   4    0.39    8.51
   6   6   4   -0.09    1.49
   6   6   4   13.85   10.44
   6   6   4    0.14    0.97
   6   6   4   11.48    9.89
   6   6   5   36.46   14.79
   6   6   5   27.96    9.84
   6   6   5   38.77   14.62
   6   6   5   52.18    8.93
   6   6   6 1350.38   75.90
   6   6   6 1378.95  109.85
   6   6   6 1386.44  114.40
   6   6   6 1462.66   71.45
   6   6   7  892.68   66.47
   6   6   7  820.97   81.56
   6   6   7  796.29   87.49
   6   6   7  843.32   57.11
   6   6   8   57.01   23.34
   6   6   8  102.85   23.63
   6   6   8  110.09   27.97
   6   6   9   48.86   22.37
   6   6   9   30.07   13.13
   6   6   9   38.32   15.55
   6   6  10   -1.83   13.75
   6   6  10   29.02   16.62
   6   6  11   37.03   25.02
   6   7  -7  722.37  100.69
   6   7  -6  985.55  115.63
   6   7  -5   68.89   22.04
   6   7  -5   32.01   12.10
   6   7  -4  115.57   28.09
   6   7  -4  202.95   45.68
   6   7  -4  129.62   38.06
   6   7  -3  501.53   55.62
   6   7  -3  543.12   74.61
   6   7  -3  557.45   78.30
   6   7  -2  350.78   39.69
   6   7  -2  468.10   65.96
   6   7  -2  389.74   65.04
   6   7  -1  682.26   47.28
   6   7  -1  965.89   94.31
   6   7  -1  679.73   63.37
   6   7  -1 1047.75  101.18
   6   7   0  249.20   43.35
   6   7   0  326.08   53.29
   6   7   0  209.39   42.72
   6   7   1  374.60   51.15
   6   7   1  444.75   61.19
   6   7   1  340.75   54.97
   6   7   1  336.57   49.19
   6   7   2   37.04   14.64
   6   7   2   47.64   17.29
   6   7   2   55.34   18.51
   6   7   2   24.32   13.51
   6   7   3 2337.66  148.78
   6   7   3 2671.14  168.81
   6   7   3 2605.90  162.80
   6   7   3 2638.28  123.79
   6   7   3 2395.65  150.51
   6   7   4 1162.74   69.05
   6   7   4 1349.04  110.62
   6   7   4 1071.34   95.56
   6   7   4 1266.67   70.54
   6   7   4 1145.60   96.90
   6   7   5  215.81   40.49
   6   7   5  179.23   26.46
   6   7   5  239.52   44.74
   6   7   5  232.00   25.16
   6   7   6   46.90   21.22
   6   7   6   79.66   25.72
   6   7   6   61.48   12.77
   6   7   7  852.18   55.84
   6   7   7  804.14   86.10
   6   7   7  823.18   91.56
   6   7   7  915.40   61.74
   6   7   8  505.54   66.76
   6   7   8  438.52   44.77
   6   7   8  475.68   71.37
   6   7   9    2.46   13.24
   6   7   9    7.00    7.53
   6   7  10   91.27   33.73
   6   7  10  124.44   32.12
   6   7  11   91.05   34.50
   6   8  -6  259.50   59.73
   6   8  -5  401.91   72.07
   6   8  -4  462.37   75.38
   6   8  -4  357.33   67.21
   6   8  -3  322.19   62.25
   6   8  -3  266.30   56.19
   6   8  -2  202.89   33.28
   6   8  -2  226.93   48.99
   6   8  -2  240.74   49.78
   6   8  -1  125.62   21.34
   6   8  -1  188.46   45.30
   6   8  -1  212.77   47.28
   6   8   0   47.86   22.53
   6   8   0   52.26   20.04
   6   8   1  616.34   78.56
   6   8   1  414.49   57.49
   6   8   1  480.70   68.23
   6   8   1  416.25   56.62
   6   8   2 1013.37  101.61
   6   8   2  812.36   82.43
   6   8   2  913.86   95.64
   6   8   2 1066.47   78.58
   6   8   2  815.80   81.05
   6   8   3   73.51   22.57
   6   8   3  160.20   39.06
   6   8   3   61.40   18.40
   6   8   3  135.05   33.31
   6   8   4   73.90   23.50
   6   8   4   84.42   18.00
   6   8   4  136.59   36.18
   6   8   4  103.67   27.40
   6   8   5 1616.98  131.62
   6   8   5 1547.73   90.23
   6   8   5 1321.83  112.25
   6   8   6 1193.07  112.26
   6   8   6 1056.34  100.05
   6   8   7   -0.54   12.15
   6   8   7   16.90   12.22
   6   8   8   31.21   16.77
   6   8   8   11.74    9.77
   6   8   8   50.14   15.46
   6   8   9  199.48   47.31
   6   8   9  172.09   39.82
   6   8  10   83.11   32.10
   6   8  10  138.92   36.16
   6   8  11  430.19   77.57
   6   9  -5  282.05   70.61
   6   9  -5  313.75   66.07
   6   9  -4  274.77   71.33
   6   9  -4  261.87   58.51
   6   9  -3  604.71  103.33
   6   9  -3  587.28   88.74
   6   9  -2   26.72   13.65
   6   9  -2   81.62   38.82
   6   9  -2   48.81   22.24
   6   9  -1  -22.23   12.54
   6   9  -1    3.36   13.08
   6   9   0  412.37   71.38
   6   9   0  335.30   60.30
   6   9   1  511.87   78.90
   6   9   1  415.35   61.86
   6   9   1  531.53   75.28
   6   9   2 1299.72  124.76
   6   9   2 1003.27   97.79
   6   9   2 1183.37   91.39
   6   9   2  861.30   85.61
   6   9   3 1040.41  110.44
   6   9   3  724.21   82.23
   6   9   3  730.86   77.78
   6   9   3  960.57   78.03
   6   9   4  274.27   55.60
   6   9   4  230.17   44.52
   6   9   4  310.90   40.99
   6   9   4  267.14   45.45
   6   9   5  175.97   38.33
   6   9   5  196.00   44.62
   6   9   5  201.00   40.87
   6   9   5  211.79   32.44
   6   9   6 1067.68  113.08
   6   9   6 1185.03   83.88
   6   9   6  976.84   98.52
   6   9   7 1126.93  114.09
   6   9   7 1006.50   78.31
   6   9   7 1002.45  103.08
   6   9   8    1.11    3.42
   6   9   8    4.66    3.55
   6   9   9   33.77   19.76
   6   9   9    3.54   15.43
   6   9  10  218.29   52.73
   6   9  10  245.34   53.08
   6   9  11  152.61   45.14
   6  10  -4  617.78  113.09
   6  10  -3  182.15   60.71
   6  10  -2  362.21   82.39
   6  10  -1    5.63   17.49
   6  10   0  -15.28   24.18
   6  10   1  453.01   81.70
   6  10   2  170.27   34.12
   6  10   2  193.31   48.20
   6  10   2  135.61   34.69
   6  10   2  167.98   35.28
   6  10   3  168.62   36.03
   6  10   3  125.34   39.06
   6  10   3  149.08   36.93
   6  10   3  224.65   39.79
   6  10   4 1003.15  117.66
   6  10   4 1043.58  103.70
   6  10   4 1136.23   91.91
   6  10   4  848.95   88.38
   6  10   5  965.87  114.61
   6  10   5  885.34   97.57
   6  10   5 1084.16   88.29
   6  10   5  935.61   93.98
   6  10   6   20.62   11.29
   6  10   6   30.76   18.72
   6  10   6   31.28   12.78
   6  10   6   33.23   12.84
   6  10   7   60.92   26.89
   6  10   7   86.25   34.15
   6  10   7   89.45   23.38
   6  10   8  584.12   86.13
   6  10   8  478.82   74.45
   6  10   9  620.63   89.35
   6  10   9  637.89   89.88
   6  10  10   88.26   36.35
   6  11  -2   76.29   41.76
   6  11  -1  197.22   65.92
   6  11   0  594.45  110.87
   6  11   2  216.77   44.18
   6  11   3  106.08   29.45
   6  11   3  101.61   29.84
   6  11   3  109.83   30.64
   6  11   4  315.77   57.81
   6  11   4  422.72   59.42
   6  11   4  335.02   53.98
   6  11   5  602.40   94.35
   6  11   5  486.58   73.15
   6  11   5  590.52   69.42
   6  11   5  440.03   64.57
   6  11   6  934.79  105.08
   6  11   6 1130.27   97.25
   6  11   6  870.35   95.63
   6  11   7  102.46   32.14
   6  11   7   70.00   26.95
   6  11   7   98.63   26.99
   6  11   8   59.87   24.75
   6  11   9  226.37   52.54
   6  11  10  439.19   79.90
   6  12   3  232.65   49.40
   6  12   4  508.47   79.46
   6  12   4  531.77   73.27
   6  12   5  154.99   43.19
   6  12   5  159.72   38.99
   6  12   6   81.37   27.53
   6  12   6   72.96   26.38
   6  12   6   80.79   26.20
   6  12   7  565.17   84.66
   6  12   7  516.65   75.70
   6  12   8  710.40   97.92
   6  12   8  541.74   81.38
   6  12   9   -0.93   14.25
   6  12  10   16.46   11.25
   6  13   3  231.71   52.60
   6  13   4  372.25   65.70
   6  13   5  562.12   79.88
   7  -6  -5  562.48   87.08
   7  -5  -8  405.61   74.03
   7  -5  -7  146.30   43.37
   7  -5  -6  341.09   64.91
   7  -5  -5   58.57   24.44
   7  -5  -4 1017.71  110.09
   7  -5  -3  176.26   42.58
   7  -5  -2   54.57   23.97
   7  -5  -1   34.21   19.25
   7  -5   0  318.09   63.59
   7  -4 -10   71.01   33.38
   7  -4  -9  387.79   72.46
   7  -4  -8    7.99   10.65
   7  -4  -7  229.71   50.98
   7  -4  -6  689.37   87.75
   7  -4  -5  397.25   65.42
   7  -4  -4    4.36    8.99
   7  -4  -3  275.21   50.96
   7  -4  -2  696.29   83.86
   7  -4  -1   -3.70    4.93
   7  -4   0  247.07   51.01
   7  -4   0  263.98   62.37
   7  -4   1   39.52   23.31
   7  -4   1    8.49    5.80
   7  -4   2   89.84   32.62
   7  -4   2   61.82   30.54
   7  -3 -10   14.69   13.00
   7  -3  -9   92.89   32.28
   7  -3  -8  134.50   39.59
   7  -3  -7  534.67   75.14
   7  -3  -6   16.87   12.62
   7  -3  -5 1494.07  126.15
   7  -3  -4  337.54   54.11
   7  -3  -3  283.13   48.51
   7  -3  -2   12.11    9.32
   7  -3  -1  873.85   90.32
   7  -3   0   32.12   16.18
   7  -3   1   17.40   14.69
   7  -3   1   15.61   13.45
   7  -3   2   40.93   17.20
   7  -3   2   54.27   24.66
   7  -3   3  151.76   43.51
   7  -3   3  170.32   51.89
   7  -3   4   87.34   34.05
   7  -3   4   50.28   28.91
   7  -2 -11   16.30   19.47
   7  -2 -10  477.18   84.89
   7  -2  -9    7.64    9.38
   7  -2  -8  117.22   36.84
   7  -2  -7  395.98   62.89
   7  -2  -6  746.58   82.79
   7  -2  -5   -2.39   10.66
   7  -2  -4  349.05   53.17
   7  -2  -3  940.34   86.44
   7  -2  -2  451.10   56.98
   7  -2  -1    6.33    6.06
   7  -2   0  180.52   36.42
   7  -2   1  524.80   66.35
   7  -2   1  476.46   76.83
   7  -2   2    9.56   11.56
   7  -2   2    8.65   11.39
   7  -2   3  494.41   72.25
   7  -2   3  557.32   87.68
   7  -2   4   21.28   15.66
   7  -2   4   -1.64   12.48
   7  -2   5   32.18   25.23
   7  -1 -11  118.32   44.57
   7  -1 -11  196.63   54.25
   7  -1 -10   34.88   20.22
   7  -1  -9   19.35   17.35
   7  -1  -8  391.44   66.44
   7  -1  -7   14.23    8.97
   7  -1  -6  996.11   95.69
   7  -1  -5  372.18   52.57
   7  -1  -4  555.55   63.25
   7  -1  -3    3.95    5.38
   7  -1  -2 2020.11  125.45
   7  -1  -1  241.80   37.00
   7  -1   0    2.40    4.33
   7  -1   1  -12.21   10.67
   7  -1   2  566.35   67.02
   7  -1   2  555.57   78.32
   7  -1   2  536.37   54.10
   7  -1   2  754.77   70.85
   7  -1   3   -0.48    6.79
   7  -1   3    2.73    5.33
   7  -1   3    4.75   13.12
   7  -1   4  501.79   81.25
   7  -1   5  133.51   43.97
   7  -1   6   96.41   36.65
   7  -1   7  127.49   47.88
   7   0 -11  393.88   86.62
   7   0 -11  365.19   80.81
   7   0 -11  636.28   98.88
   7   0 -10   22.40    8.40
   7   0 -10   52.06   27.34
   7   0 -10   66.98   31.53
   7   0  -9    3.85    7.25
   7   0  -9    9.75   10.97
   7   0  -8   39.86   17.48
   7   0  -7 1143.07  112.22
   7   0  -6   69.22   22.10
   7   0  -5  326.48   48.14
   7   0  -4  618.96   62.88
   7   0  -3 1052.69   81.66
   7   0  -2   18.41    9.27
   7   0  -1  502.88   50.14
   7   0   0  892.32   71.19
   7   0   1  367.74   45.10
   7   0   1  399.42   27.14
   7   0   1  387.72   46.12
   7   0   1  404.25   52.66
   7   0   2   25.67   12.52
   7   0   2   13.56    8.10
   7   0   2   15.87   11.44
   7   0   2   39.25   14.81
   7   0   3   11.18    5.59
   7   0   3   12.96    5.97
   7   0   3   13.83   14.78
   7   0   3   27.81   10.92
   7   0   4  146.28   32.41
   7   0   4   73.75   29.12
   7   0   5   25.27   10.67
   7   0   5   28.65   12.33
   7   0   6  994.04  121.67
   7   0   6 1124.76  104.58
   7   0   7   87.40   38.19
   7   0   8   52.54   30.18
   7   1 -11   58.40   35.58
   7   1 -11   64.04   32.36
   7   1 -10   11.62    7.59
   7   1 -10   -6.97   14.91
   7   1  -9  250.06   58.16
   7   1  -9  244.62   61.41
   7   1  -9  372.92   70.33
   7   1  -8   71.19   28.97
   7   1  -8   38.47   19.02
   7   1  -7  691.23   85.48
   7   1  -7  764.39   94.17
   7   1  -6  298.47   50.25
   7   1  -6  391.20   63.02
   7   1  -5  348.05   50.26
   7   1  -5  333.12   54.43
   7   1  -4    9.72    7.79
   7   1  -4   21.92   17.79
   7   1  -3 2532.03  137.30
   7   1  -3 2773.73  162.65
   7   1  -2  719.16   57.75
   7   1  -2  690.92   70.06
   7   1  -1  305.93   33.74
   7   1  -1  313.94   43.71
   7   1   0  103.05   19.61
   7   1   0  109.78   15.69
   7   1   0  116.63   24.74
   7   1   1 1424.27   90.33
   7   1   1 1611.62   78.26
   7   1   1 1325.60   99.48
   7   1   1 1634.46  113.80
   7   1   2  106.01   22.08
   7   1   2   85.27   25.01
   7   1   2   93.92   23.43
   7   1   3  317.22   52.04
   7   1   3  397.03   52.60
   7   1   3  313.36   41.42
   7   1   4   30.75   14.51
   7   1   4   14.01   10.24
   7   1   4   43.94   13.54
   7   1   5  209.34   46.55
   7   1   5  340.74   52.35
   7   1   6   16.09   12.19
   7   1   6   12.62    9.65
   7   1   7  769.39  107.02
   7   1   7  998.70  102.22
   7   1   8  381.88   78.31
   7   1   8  402.15   65.83
   7   1   9   13.54   18.20
   7   2 -11   54.48   32.08
   7   2 -11  119.44   41.79
   7   2 -10  122.36   45.20
   7   2 -10  183.13   51.17
   7   2  -9  134.07   42.75
   7   2  -9  112.86   37.18
   7   2  -8  773.83  105.19
   7   2  -8  976.93  111.51
   7   2  -7   72.57   26.94
   7   2  -7   69.66   25.85
   7   2  -7   73.11   26.99
   7   2  -6  238.38   43.99
   7   2  -6  237.23   48.63
   7   2  -5  247.29   41.84
   7   2  -5  235.48   45.24
   7   2  -4 1718.99  112.72
   7   2  -4 1715.99  128.16
   7   2  -3  147.23   24.99
   7   2  -3  176.12   34.05
   7   2  -2  735.91   53.52
   7   2  -2  734.87   71.72
   7   2  -1  837.77   67.72
   7   2  -1  928.23   82.53
   7   2   0 1061.91   60.86
   7   2   0  975.56   74.23
   7   2   0 1036.85   64.90
   7   2   0  906.79   81.32
   7   2   0  993.47   89.40
   7   2   1   14.45    8.81
   7   2   1    9.74    7.89
   7   2   1    2.41    2.22
   7   2   1    2.93    3.73
   7   2   1    4.84    3.33
   7   2   2  245.31   30.04
   7   2   2  239.85   38.42
   7   2   2  280.13   43.13
   7   2   2  259.96   41.09
   7   2   3  215.70   38.51
   7   2   3  213.53   38.48
   7   2   3  224.93   36.35
   7   2   4   -2.64    7.08
   7   2   4   -1.22    7.31
   7   2   4    8.41    4.05
   7   2   5  561.41   74.27
   7   2   5  497.02   41.54
   7   2   5  473.61   45.20
   7   2   5  537.37   67.45
   7   2   6   80.79   26.19
   7   2   6   92.54   30.42
   7   2   7   27.81   15.56
   7   2   7    4.43    8.54
   7   2   8   90.25   30.83
   7   2   8   95.11   35.44
   7   2   9 1069.69  133.69
   7   2   9  954.64  111.55
   7   2  10  115.26   38.61
   7   2  10  136.56   48.90
   7   3 -10  190.95   56.72
   7   3 -10  205.56   55.55
   7   3  -9  148.28   44.98
   7   3  -9  287.81   63.78
   7   3  -8   67.20   26.80
   7   3  -8   49.24   24.20
   7   3  -7  105.84   33.81
   7   3  -7  168.70   33.92
   7   3  -7  165.80   44.06
   7   3  -6  354.10   59.00
   7   3  -6  466.86   69.03
   7   3  -5   52.17   18.45
   7   3  -5   50.98   20.03
   7   3  -4 2185.43  150.90
   7   3  -3 1228.51   73.92
   7   3  -3 1258.70  102.04
   7   3  -2  535.15   39.21
   7   3  -2  475.83   59.97
   7   3  -1  122.07   14.28
   7   3  -1   92.58   16.82
   7   3  -1  107.19   23.12
   7   3  -1  118.80   29.19
   7   3   0 2447.71   95.35
   7   3   0 2282.82  115.98
   7   3   0 2100.21  116.70
   7   3   0 2555.33  152.90
   7   3   0 2162.11  127.20
   7   3   0 2487.22  150.65
   7   3   1  767.71   42.31
   7   3   1  794.40   61.83
   7   3   1  684.67   53.60
   7   3   1  817.67   78.55
   7   3   1  675.38   56.17
   7   3   1  721.23   73.50
   7   3   2    2.64    4.99
   7   3   2   28.64   12.81
   7   3   2   15.38    5.09
   7   3   2   15.04    8.10
   7   3   2   11.66    4.77
   7   3   2   15.36    6.42
   7   3   3   52.27   17.82
   7   3   3   39.29   12.29
   7   3   3   61.09   18.15
   7   3   3   48.24   10.68
   7   3   3   64.13   19.07
   7   3   4  712.97   61.92
   7   3   4  752.14   75.62
   7   3   4  551.13   34.30
   7   3   5  148.58   34.51
   7   3   5  220.26   41.40
   7   3   5  155.27   24.77
   7   3   5  149.27   14.83
   7   3   6  822.83   88.96
   7   3   6  721.04   82.69
   7   3   7  163.44   39.93
   7   3   7  237.83   50.19
   7   3   8   66.68   26.89
   7   3   8   58.07   21.37
   7   3   8   74.81   28.98
   7   3   9   25.57   15.65
   7   3   9   28.58   20.91
   7   3  10  704.26  108.24
   7   3  10  684.94   97.58
   7   4 -10  353.52   74.42
   7   4  -9  479.91   82.81
   7   4  -9  661.86   97.12
   7   4  -8  106.32   34.51
   7   4  -8  169.34   46.10
   7   4  -7   28.21   13.42
   7   4  -7   14.04    7.44
   7   4  -7    3.94   11.28
   7   4  -6   17.67   13.31
   7   4  -6   10.87   11.59
   7   4  -6   -0.83    3.70
   7   4  -5 1273.59  102.61
   7   4  -5 1494.76  112.86
   7   4  -5 1372.03  122.10
   7   4  -4  149.29   28.21
   7   4  -4  167.31   33.31
   7   4  -4  176.58   38.95
   7   4  -3 1150.07   78.90
   7   4  -3 1268.64  107.77
   7   4  -2  557.42   42.36
   7   4  -2  759.33   52.17
   7   4  -2  714.26   70.66
   7   4  -1 1240.31   62.02
   7   4  -1 1321.57   92.08
   7   4   0  150.33   32.24
   7   4   0  191.48   17.25
   7   4   0  135.28   25.17
   7   4   0  156.08   24.89
   7   4   0  180.09   35.99
   7   4   0  138.34   28.06
   7   4   1  780.87   46.07
   7   4   1  712.05   61.36
   7   4   1  707.53   50.73
   7   4   1  778.47   79.89
   7   4   1  700.37   60.30
   7   4   1  795.60   76.64
   7   4   2  868.99   42.70
   7   4   2  948.63   40.87
   7   4   2  945.00   61.00
   7   4   2  919.76   61.86
   7   4   2  795.93   52.23
   7   4   2  883.95   68.88
   7   4   2  828.31   79.60
   7   4   2  925.57   86.08
   7   4   2  769.73   58.95
   7   4   3  295.15   30.04
   7   4   3  394.28   43.01
   7   4   3  393.08   40.65
   7   4   3  358.91   49.71
   7   4   3  364.90   50.40
   7   4   3  341.52   29.94
   7   4   4  153.71   33.21
   7   4   4  111.71   21.05
   7   4   4  133.15   27.22
   7   4   4  188.38   30.20
   7   4   4  142.40   28.01
   7   4   5  318.90   39.92
   7   4   5  272.11   47.52
   7   4   6    3.52    2.05
   7   4   6    7.24    0.06
   7   4   7   98.23   31.09
   7   4   7  122.44   30.38
   7   4   7  152.81   37.26
   7   4   8 1427.49  127.55
   7   4   8 1112.07   97.63
   7   4   8 1101.83  115.20
   7   4   9  337.42   64.22
   7   4   9  372.83   66.93
   7   4  10  115.72   38.35
   7   4  10   98.30   37.70
   7   5  -9  174.77   48.34
   7   5  -8   20.80   16.70
   7   5  -7  216.52   44.33
   7   5  -7  249.82   54.81
   7   5  -6  139.43   33.71
   7   5  -6  226.46   42.42
   7   5  -6  220.63   50.25
   7   5  -5  385.62   50.21
   7   5  -5  495.00   63.38
   7   5  -5  478.66   71.04
   7   5  -4  507.15   51.60
   7   5  -4  630.47   71.81
   7   5  -4  633.66   79.70
   7   5  -3  651.65   51.32
   7   5  -3  668.36   74.07
   7   5  -3  753.56   85.42
   7   5  -2  464.29   31.40
   7   5  -2  282.77   25.30
   7   5  -2  372.54   48.20
   7   5  -2  532.97   64.15
   7   5  -2  543.75   69.13
   7   5  -1 2048.00  136.90
   7   5  -1 2356.19  153.39
   7   5   0 1624.24  107.57
   7   5   0 1426.59   85.42
   7   5   0 1950.14  127.53
   7   5   0 1909.26  136.50
   7   5   0 1669.42  121.36
   7   5   1  139.73   32.47
   7   5   1  137.24   30.85
   7   5   1  120.28   15.47
   7   5   1  114.58   23.67
   7   5   1  135.14   32.90
   7   5   1  109.14   23.54
   7   5   2  242.02   40.03
   7   5   2  231.76   17.43
   7   5   2  195.01   32.12
   7   5   2  197.59   16.23
   7   5   2  273.59   43.99
   7   5   2  198.46   28.87
   7   5   2  195.08   38.81
   7   5   3 1270.90   57.31
   7   5   3 1373.80   62.23
   7   5   3 1260.85   57.20
   7   5   3 1437.93  108.12
   7   5   3 1205.18  101.75
   7   5   3 1209.69  100.77
   7   5   4  756.13   54.56
   7   5   4  859.56   54.64
   7   5   4  928.52   85.31
   7   5   4  812.85   76.25
   7   5   4  798.89   81.33
   7   5   5  268.55   35.02
   7   5   5  335.19   36.79
   7   5   5  361.31   52.95
   7   5   5  288.18   41.73
   7   5   5  305.87   50.62
   7   5   6   -6.21   11.21
   7   5   6   33.69   15.61
   7   5   6   25.42   12.05
   7   5   7   99.11   31.28
   7   5   7  145.36   33.83
   7   5   7  111.21   27.09
   7   5   8   22.95   15.81
   7   5   8   47.57   18.89
   7   5   8   14.12   12.78
   7   5   9  943.88  100.06
   7   5   9  809.03   81.95
   7   5   9 1003.30  112.93
   7   5  10  362.97   70.19
   7   5  11   36.13   25.69
   7   6  -8   66.25   29.61
   7   6  -7  232.55   56.07
   7   6  -6  960.50  114.06
   7   6  -5  231.99   37.52
   7   6  -5  310.38   52.06
   7   6  -5  299.23   58.50
   7   6  -4  453.22   49.23
   7   6  -4  642.74   77.10
   7   6  -4  583.73   80.98
   7   6  -3  186.54   25.98
   7   6  -3  172.80   37.55
   7   6  -3  244.54   50.05
   7   6  -2 1299.14   66.29
   7   6  -2 1516.92  119.48
   7   6  -2 1634.42  133.04
   7   6  -1  355.50   40.88
   7   6  -1  431.83   60.35
   7   6  -1  470.12   67.46
   7   6   0 1215.25   69.26
   7   6   0 1283.92   98.78
   7   6   0 1535.00  117.23
   7   6   0 1451.54  122.84
   7   6   0 1136.57  101.51
   7   6   1 1244.29   96.95
   7   6   1 1666.25  122.20
   7   6   1 1481.13  122.44
   7   6   1 1315.57  107.89
   7   6   2 1027.77   84.66
   7   6   2 1167.03  100.06
   7   6   2  930.68   87.59
   7   6   2 1037.23   97.39
   7   6   3   85.45   24.39
   7   6   3  128.80   31.37
   7   6   3   88.28   22.64
   7   6   3   91.47   26.36
   7   6   4  228.99   22.93
   7   6   4  309.89   50.50
   7   6   4  264.31   43.28
   7   6   4  290.91   47.75
   7   6   5  190.30   37.75
   7   6   5  167.56   25.67
   7   6   5  235.84   43.09
   7   6   5  175.20   14.36
   7   6   5  164.16   32.92
   7   6   6   41.93   18.32
   7   6   6   53.31   18.83
   7   6   6   43.76   11.40
   7   6   7  467.39   47.56
   7   6   7  457.43   61.68
   7   6   7  434.62   67.10
   7   6   8  447.19   61.92
   7   6   8  481.01   73.29
   7   6   9    8.63   13.10
   7   6   9    6.78    8.65
   7   6  10  159.74   48.09
   7   6  11  750.80  107.41
   7   7  -7  265.69   62.10
   7   7  -6   29.68   18.31
   7   7  -5  173.08   42.37
   7   7  -5  122.40   39.14
   7   7  -4  350.49   59.17
   7   7  -4  382.38   70.30
   7   7  -3  154.96   38.47
   7   7  -3  137.02   37.39
   7   7  -2 1198.05  113.41
   7   7  -2 1359.66  128.25
   7   7  -1 1269.98  113.77
   7   7  -1 1104.80  114.44
   7   7   0  266.95   48.99
   7   7   0  228.66   41.44
   7   7   0  238.24   48.46
   7   7   1  454.74   57.68
   7   7   1  612.81   74.94
   7   7   1  532.71   71.14
   7   7   1  467.63   60.59
   7   7   2 1077.50   92.52
   7   7   2 1017.93   94.67
   7   7   2 1147.83  106.50
   7   7   3 1527.46  114.04
   7   7   3 1738.50  133.61
   7   7   3 1483.65  121.51
   7   7   3 1447.43  115.20
   7   7   4   33.33   16.22
   7   7   4   25.43    7.25
   7   7   4   15.92   10.60
   7   7   4   17.77   14.36
   7   7   5   22.62   13.77
   7   7   5   39.10   19.57
   7   7   6  294.62   51.80
   7   7   6  262.04   47.99
   7   7   7  272.56   53.41
   7   7   7  232.19   46.11
   7   7   8  763.55   86.09
   7   7   8  813.50   98.49
   7   7   9  310.48   62.88
   7   7   9  286.81   51.45
   7   7  10    0.78   10.03
   7   8  -6  147.63   44.67
   7   8  -5  173.55   48.52
   7   8  -4   14.21    4.70
   7   8  -4   -6.88   11.83
   7   8  -3  906.84  104.98
   7   8  -3  890.75  108.65
   7   8  -2  645.18   86.89
   7   8  -2  704.22   93.02
   7   8  -1  882.00   98.77
   7   8  -1  816.15   99.02
   7   8   0  812.87   93.26
   7   8   0  739.20   92.04
   7   8   1 1174.15  103.03
   7   8   1 1549.03  130.90
   7   8   1 1342.81  122.61
   7   8   1  971.89   96.29
   7   8   2  740.78   78.11
   7   8   2  918.38   98.44
   7   8   2  726.07   86.53
   7   8   2  598.15   72.39
   7   8   3  320.54   57.07
   7   8   3  229.88   42.08
   7   8   3  278.88   47.28
   7   8   3  296.73   52.06
   7   8   4  572.17   69.05
   7   8   4  589.79   79.23
   7   8   4  518.84   70.09
   7   8   4  614.80   47.62
   7   8   4  471.48   65.24
   7   8   5  246.39   45.96
   7   8   5  294.28   52.12
   7   8   5  237.37   26.53
   7   8   6   24.21   16.03
   7   8   6   28.41   16.15
   7   8   7  270.76   52.33
   7   8   7  345.26   59.41
   7   8   8   -4.07    8.70
   7   8   8   16.91   15.56
   7   8   9    4.67   12.82
   7   8   9    3.18    2.63
   7   8  10  320.29   65.97
   7   8  10  330.75   57.89
   7   9  -5  178.00   52.17
   7   9  -4  170.34   45.32
   7   9  -4  145.65   45.70
   7   9  -3  271.32   59.76
   7   9  -3  172.00   48.44
   7   9  -2  593.25   88.45
   7   9  -2  557.10   86.55
   7   9  -1  324.71   63.93
   7   9  -1  345.99   67.06
   7   9   0  171.76   45.40
   7   9   0  107.71   36.88
   7   9   1 1512.39  136.97
   7   9   1 1102.93  107.46
   7   9   1 1216.84  122.83
   7   9   2 1277.03  113.03
   7   9   2 1426.35  130.30
   7   9   2 1086.57  104.38
   7   9   3    3.59    5.03
   7   9   3   12.67    8.35
   7   9   3   13.94   11.15
   7   9   3   19.52   11.54
   7   9   4   30.89   14.11
   7   9   4   45.77   26.76
   7   9   4   40.92   19.37
   7   9   4    5.78    4.46
   7   9   5  471.52   74.28
   7   9   5  446.10   64.82
   7   9   5  446.09   64.27
   7   9   6  854.67  101.12
   7   9   6  885.61   96.04
   7   9   7  198.83   45.39
   7   9   7  192.96   45.54
   7   9   8   38.88   21.18
   7   9   8   41.30   20.74
   7   9   9   31.90   19.45
   7   9   9   18.30   12.53
   7   9  10   31.17   20.27
   7   9  10   12.82   12.14
   7  10  -4  369.42   74.51
   7  10  -3  476.89   84.51
   7  10  -2  369.60   76.33
   7  10  -2  316.06   68.31
   7  10  -1  172.56   50.54
   7  10  -1  178.69   47.32
   7  10   0  745.48  103.57
   7  10   0  621.34   91.05
   7  10   1  863.08  110.79
   7  10   1  683.38   95.13
   7  10   2  239.78   46.02
   7  10   2  413.44   72.63
   7  10   2  284.35   53.37
   7  10   3  780.59  101.45
   7  10   3  585.78   77.06
   7  10   3  744.22   71.04
   7  10   3  480.59   68.27
   7  10   4  560.01   84.37
   7  10   4  444.13   67.29
   7  10   4  419.18   63.51
   7  10   4  553.47   58.69
   7  10   5  207.66   44.81
   7  10   5  224.92   53.69
   7  10   5  200.08   45.72
   7  10   5  259.03   37.60
   7  10   6  155.49   40.64
   7  10   6  186.35   49.28
   7  10   6  129.90   35.71
   7  10   7  150.88   40.55
   7  10   7  104.05   36.60
   7  10   8    1.88    3.41
   7  10   8  -13.74   18.45
   7  10   9  204.40   51.63
   7  10   9  133.56   41.62
   7  10  10  312.69   65.22
   7  10  10  295.48   62.55
   7  11   0  546.88   93.97
   7  11   1 1251.73  145.32
   7  11   2  290.44   65.38
   7  11   3   75.37   26.77
   7  11   3   92.63   35.16
   7  11   3  135.86   38.78
   7  11   3  148.12   33.66
   7  11   4  724.92  103.70
   7  11   4  530.03   77.07
   7  11   4  668.85   71.76
   7  11   4  500.99   71.14
   7  11   5 1404.31  145.69
   7  11   5 1155.50  117.54
   7  11   5 1044.57  107.69
   7  11   6   10.17   11.21
   7  11   6   14.40   19.25
   7  11   6    0.66    3.90
   7  11   7    0.08    7.15
   7  11   7   -4.37    7.08
   7  11   8   43.15   21.76
   7  11   8   51.89   27.18
   7  11   9  291.50   63.03
   7  11   9  227.29   56.08
   7  12   3  361.20   65.95
   7  12   4  250.86   49.78
   7  12   4  311.63   61.16
   7  12   5  138.49   38.14
   7  12   5  239.92   61.98
   7  12   5  183.55   47.62
   7  12   6  285.49   55.95
   7  12   6  294.81   60.28
   7  12   7   51.74   19.69
   7  12   7   33.11   13.31
   7  12   8   -1.10    9.96
   7  12   9  132.92   41.61
   8  -5  -6   -1.73    6.42
   8  -5  -5  460.45   77.44
   8  -5  -4   -1.96   12.78
   8  -5  -3  161.91   44.59
   8  -4  -8  292.29   61.77
   8  -4  -7  127.41   41.69
   8  -4  -6  241.92   53.90
   8  -4  -5   -9.98   16.62
   8  -4  -4  372.82   63.62
   8  -4  -3   -0.69    8.81
   8  -4  -2   11.62    7.67
   8  -4  -1  195.95   46.37
   8  -4   0  138.29   38.40
   8  -4   1   31.66   18.58
   8  -3 -10  580.17   95.03
   8  -3  -9  379.41   71.85
   8  -3  -8   60.04   27.56
   8  -3  -7   40.29   20.45
   8  -3  -6  619.38   82.55
   8  -3  -5  158.02   40.02
   8  -3  -4   16.05   11.35
   8  -3  -3    0.40    8.89
   8  -3  -2  443.66   64.26
   8  -3  -1    7.74    7.72
   8  -3   0  668.75   83.73
   8  -3   1   47.56   23.02
   8  -3   1   52.21   24.17
   8  -3   2   59.97   28.83
   8  -3   2   64.84   30.90
   8  -3   3   55.31   28.77
   8  -2 -10  -13.27   15.89
   8  -2  -9  450.41   78.80
   8  -2  -8  129.96   39.87
   8  -2  -7  558.26   78.50
   8  -2  -6   18.46    9.90
   8  -2  -5  647.61   78.55
   8  -2  -4  120.86   32.41
   8  -2  -3   32.20   16.81
   8  -2  -2   94.08   26.94
   8  -2  -1  378.36   55.26
   8  -2   0   12.35    7.77
   8  -2   1  375.64   59.10
   8  -2   1  416.21   76.82
   8  -2   2  611.02   80.28
   8  -2   2  614.13   95.90
   8  -2   3  139.18   39.86
   8  -2   3  182.59   52.42
   8  -2   4   95.18   34.53
   8  -2   4  159.41   49.14
   8  -1 -10  625.48   97.91
   8  -1  -9  296.36   63.45
   8  -1  -8   14.09   13.71
   8  -1  -7  946.67  101.78
   8  -1  -6  706.63   81.62
   8  -1  -5   63.49   23.51
   8  -1  -4   12.54    6.20
   8  -1  -3  940.96   86.03
   8  -1  -2   91.22   24.56
   8  -1  -1  445.66   55.30
   8  -1   0    6.11    8.69
   8  -1   1  200.42   38.49
   8  -1   1  195.08   34.35
   8  -1   2    3.85    3.47
   8  -1   2   20.99   13.98
   8  -1   3 1406.50  123.14
   8  -1   3 1382.53  142.19
   8  -1   4  181.45   44.45
   8  -1   4  149.69   46.46
   8  -1   5  -19.02   10.15
   8  -1   5    7.99    6.28
   8  -1   6   78.26   38.91
   8   0 -10  206.86   54.91
   8   0  -9  115.20   39.34
   8   0  -9  145.04   45.10
   8   0  -8 1052.95  118.13
   8   0  -8 1650.03  156.27
   8   0  -7   44.96   21.33
   8   0  -6 1473.66  122.08
   8   0  -5  331.48   50.15
   8   0  -4  331.00   46.83
   8   0  -3   26.87   13.39
   8   0  -2  803.33   70.92
   8   0  -1   53.90   16.53
   8   0  -1   60.19   20.88
   8   0   0  114.62   25.16
   8   0   0   94.54   24.25
   8   0   1  445.42   52.98
   8   0   1  422.16   52.19
   8   0   2  422.64   54.63
   8   0   2  373.93   65.58
   8   0   2  450.37   54.09
   8   0   2  559.62   67.27
   8   0   3   66.77   24.39
   8   0   3   50.69   18.30
   8   0   3   63.13   25.33
   8   0   4  504.91   70.44
   8   0   4  534.94   83.50
   8   0   4  620.19   74.45
   8   0   5  826.73  111.25
   8   0   6  328.84   71.18
   8   0   7  135.97   49.61
   8   1 -10  120.76   47.61
   8   1 -10  202.64   56.93
   8   1  -9    7.49   15.84
   8   1  -9  -18.02   17.67
   8   1  -9  -33.72   25.12
   8   1  -8  520.38   79.57
   8   1  -8  756.85  104.05
   8   1  -7 1168.37  116.13
   8   1  -7 1601.10  149.16
   8   1  -6  454.50   64.72
   8   1  -6  626.19   86.04
   8   1  -5   63.73   21.47
   8   1  -5   67.21   27.48
   8   1  -4 1050.16   86.00
   8   1  -4 1175.73  109.76
   8   1  -3  612.76   58.90
   8   1  -3  664.38   76.24
   8   1  -2   49.44   14.91
   8   1  -2   75.14   22.78
   8   1  -1    4.58    2.49
   8   1  -1    8.42    9.33
   8   1   0  481.76   47.96
   8   1   0  429.47   55.59
   8   1   1   15.57    4.48
   8   1   1   18.72    8.85
   8   1   1   14.80    6.21
   8   1   1    8.50    6.30
   8   1   2 1616.99  106.68
   8   1   2 1447.09  124.57
   8   1   2 1521.12  113.20
   8   1   2 1829.49  131.59
   8   1   3  301.17   43.57
   8   1   3  254.70   49.77
   8   1   3  252.97   40.45
   8   1   3  347.00   53.29
   8   1   4   75.55   25.26
   8   1   4   39.53   19.03
   8   1   5   26.92   17.29
   8   1   5   19.76   11.33
   8   1   6 1328.68  143.54
   8   1   6 1599.18  135.39
   8   1   7  246.57   62.83
   8   1   8   27.00   17.07
   8   2 -10   29.05   15.95
   8   2 -10   38.19   28.49
   8   2  -9  894.12  120.73
   8   2  -9 1317.94  144.63
   8   2  -8  159.22   48.29
   8   2  -8  219.94   55.92
   8   2  -7  894.73   97.94
   8   2  -7 1046.02  119.29
   8   2  -6  430.15   61.59
   8   2  -6  412.50   69.43
   8   2  -5 1394.29  109.13
   8   2  -5 1439.37  129.22
   8   2  -4  359.26   47.21
   8   2  -4  359.04   57.98
   8   2  -3 1410.59   92.51
   8   2  -3 1307.05  111.92
   8   2  -2  307.85   34.74
   8   2  -2  324.38   49.74
   8   2  -1   17.90    7.53
   8   2  -1    7.63   10.77
   8   2   0   17.59    7.07
   8   2   0   27.86   14.04
   8   2   1  731.04   56.00
   8   2   1  815.58   56.67
   8   2   1  668.22   73.92
   8   2   1  790.35   82.01
   8   2   2   21.89   10.19
   8   2   2    3.84    1.29
   8   2   2   15.38   12.44
   8   2   2   22.61    8.45
   8   2   2    3.03    6.63
   8   2   3  312.95   41.16
   8   2   3  310.54   50.96
   8   2   3  316.68   51.77
   8   2   3  341.21   48.24
   8   2   4  726.47   84.93
   8   2   4  762.31   82.88
   8   2   4  668.72   63.47
   8   2   5  597.09   81.23
   8   2   5  544.79   72.45
   8   2   6   65.47   22.85
   8   2   6   55.16   24.06
   8   2   7  386.47   74.02
   8   2   7  378.73   64.66
   8   2   8  438.51   82.83
   8   2   8  504.45   78.51
   8   2   9  182.63   56.00
   8   3 -10    6.96   10.23
   8   3  -9   63.14   30.97
   8   3  -9  100.66   37.42
   8   3  -8  824.80  107.21
   8   3  -8 1074.75  125.33
   8   3  -7  331.41   60.88
   8   3  -7  414.93   71.67
   8   3  -6   26.68   15.77
   8   3  -6   -2.05    9.24
   8   3  -5  971.78  103.92
   8   3  -4  761.68   66.62
   8   3  -4  851.16   90.65
   8   3  -3   18.53    7.35
   8   3  -3   11.00    8.50
   8   3  -2    6.66    4.76
   8   3  -2    1.49    2.37
   8   3  -1  829.90   48.97
   8   3  -1  628.79   54.82
   8   3  -1  777.68   81.20
   8   3   0  409.62   30.86
   8   3   0  357.47   41.22
   8   3   0  430.07   59.36
   8   3   1  698.41   44.14
   8   3   1  654.80   62.02
   8   3   1  690.25   76.13
   8   3   1  567.72   55.19
   8   3   1  652.25   73.87
   8   3   2  122.20   30.84
   8   3   2  117.54   18.03
   8   3   2   25.01   12.41
   8   3   2   79.38   18.00
   8   3   2   84.95   18.22
   8   3   2  123.11   31.19
   8   3   3   74.11   24.53
   8   3   3   53.77   13.73
   8   3   3   73.94   20.86
   8   3   3   69.21   21.24
   8   3   4   -0.73    5.82
   8   3   4   16.66   14.18
   8   3   4   -5.29    9.71
   8   3   5 2264.70  158.45
   8   3   5 1838.96  113.50
   8   3   5 2180.00  154.13
   8   3   6  598.28   80.56
   8   3   6  579.06   76.85
   8   3   7  -13.97   15.22
   8   3   7   10.36   12.73
   8   3   8    9.27    5.78
   8   3   8    0.61   12.06
   8   3   9 1060.47  133.20
   8   3   9  889.06  110.39
   8   4  -9  173.33   51.01
   8   4  -8  464.67   80.53
   8   4  -7  238.22   48.95
   8   4  -7  271.92   48.04
   8   4  -7  240.58   54.00
   8   4  -6 1002.56   99.91
   8   4  -6 1313.85  111.46
   8   4  -6 1301.84  127.74
   8   4  -5  538.29   64.12
   8   4  -5  584.21   79.08
   8   4  -4  953.53   82.00
   8   4  -4 1135.99  108.77
   8   4  -3  590.37   55.64
   8   4  -3  576.01   73.07
   8   4  -2  385.82   34.62
   8   4  -2  548.02   68.93
   8   4  -1  386.57   33.02
   8   4  -1  327.15   44.54
   8   4   0  725.77   49.10
   8   4   0  681.54   61.29
   8   4   0  576.80   55.15
   8   4   0  791.11   84.08
   8   4   0  689.12   76.58
   8   4   1  101.43   28.62
   8   4   1  152.53   23.02
   8   4   1  124.32   24.03
   8   4   1  112.83   20.03
   8   4   1  134.21   32.71
   8   4   1  107.64   22.81
   8   4   2  253.16   43.62
   8   4   2  248.57   21.61
   8   4   2  313.35   21.51
   8   4   2  273.63   34.44
   8   4   2  242.70   34.46
   8   4   2  240.44   29.16
   8   4   2  235.77   34.10
   8   4   2  251.81   46.01
   8   4   2  205.71   29.55
   8   4   3  276.99   47.38
   8   4   3  235.35   28.52
   8   4   3  322.91   29.75
   8   4   3  351.61   44.91
   8   4   3  323.46   41.98
   8   4   3  331.47   50.36
   8   4   4  617.16   67.77
   8   4   4  686.36   78.03
   8   4   5   -4.48   11.97
   8   4   5    8.12    7.98
   8   4   5    2.22    4.34
   8   4   6  678.53   79.35
   8   4   6  656.74   82.29
   8   4   7  912.81   98.92
   8   4   7  790.67   88.40
   8   4   7  825.22   96.50
   8   4   8  489.37   76.44
   8   4   8  346.09   56.49
   8   4   8  364.75   65.99
   8   4   9   58.74   27.71
   8   4  10  196.82   52.43
   8   5  -9  661.38  105.29
   8   5  -8  324.95   69.64
   8   5  -7  -17.59   17.05
   8   5  -6  539.16   70.38
   8   5  -6  519.60   81.20
   8   5  -5 1703.28  134.09
   8   5  -5 1657.13  145.71
   8   5  -4  347.90   40.92
   8   5  -4  495.67   65.62
   8   5  -4  413.82   65.85
   8   5  -3   16.59    6.95
   8   5  -3   45.12   18.94
   8   5  -3   33.55   19.32
   8   5  -2 1023.83   51.94
   8   5  -2 1146.04  100.79
   8   5  -2 1196.80  110.67
   8   5  -1  689.58   64.41
   8   5  -1  822.23   89.87
   8   5   0   85.17   23.84
   8   5   0   83.00   18.31
   8   5   0   81.27   21.80
   8   5   0   81.11   24.55
   8   5   1   66.26   22.67
   8   5   1   52.94   15.86
   8   5   1   53.87   12.35
   8   5   1   60.49   22.54
   8   5   1   51.25   16.71
   8   5   2  232.14   43.13
   8   5   2  264.37   27.88
   8   5   2  227.72   35.66
   8   5   2  216.86   24.01
   8   5   2  279.87   49.54
   8   5   2  249.20   34.25
   8   5   3   59.85   19.69
   8   5   3   66.06    8.37
   8   5   3   70.09    8.06
   8   5   3   85.99   16.15
   8   5   3   57.70   11.32
   8   5   3   65.29   13.84
   8   5   3   84.49   27.48
   8   5   4 1649.19   94.53
   8   5   4 1598.90  124.38
   8   5   4 1434.28  113.74
   8   5   4 1456.99  121.75
   8   5   5  538.64   53.75
   8   5   5  498.69   66.83
   8   5   5  396.47   52.28
   8   5   5  494.77   67.77
   8   5   6  -11.68   15.23
   8   5   6    7.51    7.91
   8   5   7    6.45   10.63
   8   5   7  -12.31   11.74
   8   5   8 1254.26  113.14
   8   5   8 1347.38  131.45
   8   5   9  585.03   88.98
   8   5  10   13.56   15.03
   8   6  -8   94.79   38.20
   8   6  -7  974.58  122.83
   8   6  -6  552.92   73.53
   8   6  -6  538.96   86.15
   8   6  -5 1026.46  102.92
   8   6  -5  889.94  108.19
   8   6  -4  844.35   92.95
   8   6  -4  897.71  104.39
   8   6  -3  843.69   91.69
   8   6  -3  899.82  102.22
   8   6  -2  741.58   84.34
   8   6  -2  628.97   83.78
   8   6  -1  877.87   91.56
   8   6  -1  824.93   96.16
   8   6   0  354.39   49.28
   8   6   0  404.21   59.15
   8   6   0  396.42   63.45
   8   6   1    4.69    6.42
   8   6   1   10.14    3.16
   8   6   1   16.56   11.87
   8   6   1    1.45    5.99
   8   6   2   12.33   10.00
   8   6   2   25.08   13.10
   8   6   2   -8.74    7.87
   8   6   2   13.26   12.40
   8   6   3  651.63   67.93
   8   6   3  764.64   82.25
   8   6   3  582.50   71.31
   8   6   3  649.21   78.27
   8   6   4   70.24   24.22
   8   6   4   64.34   23.14
   8   6   4   42.82   18.44
   8   6   5  848.32   90.41
   8   6   5  807.16   80.67
   8   6   5  841.03   90.62
   8   6   6  786.06   87.39
   8   6   6  836.84   93.68
   8   6   7  448.17   65.71
   8   6   7  453.32   70.51
   8   6   8    5.78    8.59
   8   6   8   16.11   10.05
   8   6   9  406.86   63.03
   8   6   9  533.09   84.66
   8   6  10  467.42   82.97
   8   7  -7  128.37   45.00
   8   7  -6 1165.26  136.13
   8   7  -5  723.83   89.39
   8   7  -5  635.63   94.60
   8   7  -4   28.53   15.92
   8   7  -4   13.40   10.47
   8   7  -3  699.74   86.13
   8   7  -3  643.72   90.85
   8   7  -2 1680.11  141.20
   8   7  -2 1798.94  154.75
   8   7  -1  445.03   68.22
   8   7  -1  450.23   71.68
   8   7   0   -0.91    4.95
   8   7   0   -2.48    7.78
   8   7   1  515.16   62.47
   8   7   1  659.33   80.03
   8   7   1  523.63   76.80
   8   7   1  418.61   62.60
   8   7   2  413.51   54.88
   8   7   2  516.76   71.44
   8   7   2  358.47   61.77
   8   7   2  358.55   57.12
   8   7   3  398.59   53.93
   8   7   3  379.21   60.63
   8   7   3  365.72   57.33
   8   7   3  365.34   59.57
   8   7   4  295.30   50.34
   8   7   4  338.95   56.69
   8   7   4  288.73   51.48
   8   7   5   73.30   25.50
   8   7   5   82.09   26.29
   8   7   5   94.07   28.05
   8   7   6   16.78   14.23
   8   7   6   30.83   17.10
   8   7   7 1469.69  128.76
   8   7   7 1482.02  135.63
   8   7   8  849.89   95.26
   8   7   8  927.54  108.65
   8   7   9   -0.29    9.29
   8   7   9    4.70    3.94
   8   7  10   46.51   27.28
   8   8  -6  295.21   69.80
   8   8  -5  543.97   92.24
   8   8  -4  971.30  110.24
   8   8  -4  973.99  120.67
   8   8  -3  846.33  102.14
   8   8  -3  995.43  118.51
   8   8  -2  618.41   84.83
   8   8  -2  699.26   96.50
   8   8  -1  955.80  105.97
   8   8  -1  903.49  109.25
   8   8   0  136.77   37.67
   8   8   0   75.05   27.62
   8   8   1   33.39   14.99
   8   8   1  101.64   32.70
   8   8   1   52.04   19.45
   8   8   1   76.80   29.64
   8   8   2  634.99   75.04
   8   8   2  956.33  102.55
   8   8   2  775.83   93.59
   8   8   2  711.50   83.02
   8   8   3  470.37   62.47
   8   8   3  536.09   76.33
   8   8   3  350.51   57.76
   8   8   3  416.16   65.77
   8   8   4  345.42   53.58
   8   8   4  411.94   67.80
   8   8   4  336.81   58.19
   8   8   4  338.41   55.81
   8   8   5  288.19   53.10
   8   8   5  306.80   57.70
   8   8   6  430.19   68.79
   8   8   6  413.42   66.38
   8   8   7   71.81   27.37
   8   8   7   44.07   21.94
   8   8   8  639.27   84.55
   8   8   8  762.28   97.70
   8   8   9  681.81   88.04
   8   8   9  846.56  108.04
   8   8  10  209.28   55.06
   8   8  10  157.75   40.75
   8   9  -5   -8.27    7.31
   8   9  -4  142.59   42.00
   8   9  -4  199.84   53.28
   8   9  -3 1173.08  128.65
   8   9  -3 1103.08  131.67
   8   9  -2  711.60   98.90
   8   9  -2  778.52  105.39
   8   9  -1   34.67   20.90
   8   9  -1   -3.20   16.09
   8   9   0  581.95   84.80
   8   9   0  432.37   74.94
   8   9   1  766.81   87.66
   8   9   1  878.45  105.37
   8   9   1  829.13  103.05
   8   9   2   74.06   25.66
   8   9   2  135.15   36.62
   8   9   2   91.15   29.08
   8   9   2  106.31   34.73
   8   9   3   25.90   12.49
   8   9   3   18.19   13.80
   8   9   3    6.05    8.17
   8   9   3   14.79   12.77
   8   9   4  123.31   34.00
   8   9   4  127.05   36.90
   8   9   4  127.96   33.87
   8   9   4  119.13   34.36
   8   9   5   61.81   21.20
   8   9   5   39.58   19.28
   8   9   5   50.16   24.27
   8   9   6  796.65   98.50
   8   9   6  803.82   95.32
   8   9   7  639.37   89.97
   8   9   7  738.39   94.49
   8   9   8   17.25   14.70
   8   9   8    9.70   12.92
   8   9   9   -8.17   13.51
   8   9   9   -0.09    6.63
   8   9  10  553.36   81.58
   8  10  -3  343.31   71.06
   8  10  -3  326.49   72.34
   8  10  -2  872.08  116.35
   8  10  -2  899.13  119.12
   8  10  -1  501.54   86.07
   8  10  -1  434.20   79.62
   8  10   0  749.86  103.88
   8  10   0  542.42   88.17
   8  10   1  441.06   78.50
   8  10   1  292.69   61.59
   8  10   2  671.21   85.00
   8  10   2  666.03   93.86
   8  10   2  552.44   75.80
   8  10   3   -0.08    3.14
   8  10   3  -10.05   13.01
   8  10   4    3.20    1.21
   8  10   4    7.98   11.33
   8  10   4   -9.40   15.50
   8  10   5  258.30   51.79
   8  10   5  290.19   60.50
   8  10   5  315.88   56.83
   8  10   6  219.62   49.48
   8  10   6  295.11   62.12
   8  10   6  308.03   57.40
   8  10   7  430.53   75.13
   8  10   7  382.41   67.36
   8  10   8  632.29   92.09
   8  10   8  626.91   90.61
   8  10   9  358.04   72.15
   8  10   9  299.14   62.97
   8  10  10  -11.71   14.07
   8  11  -2   24.03   24.02
   8  11  -1  293.95   69.40
   8  11  -1  288.51   68.61
   8  11   0  881.44  120.71
   8  11   0  737.99  108.05
   8  11   1  432.37   82.53
   8  11   2   13.44    5.17
   8  11   2   11.87   11.25
   8  11   3   92.39   31.21
   8  11   3  149.46   40.42
   8  11   4   56.01   21.08
   8  11   4   69.47   35.36
   8  11   4   84.31   30.42
   8  11   5   83.24   30.02
   8  11   5  182.51   51.50
   8  11   5  143.40   38.05
   8  11   6  298.38   58.21
   8  11   6  435.54   80.76
   8  11   6  323.65   61.97
   8  11   7   63.85   27.04
   8  11   7   69.16   31.42
   8  11   7   51.61   25.95
   8  11   8   17.29   19.60
   8  11   8   31.34   21.75
   8  11   9  611.51   96.17
   8  11   9  563.71   90.31
   8  11  10  532.87   89.94
   8  12   2   52.88   30.35
   8  12   3   69.70   26.61
   8  12   3  143.93   44.68
   8  12   3  131.16   40.06
   8  12   4   55.39   22.62
   8  12   4   69.13   32.01
   8  12   4   65.94   26.70
   8  12   5  482.45   90.97
   8  12   5  398.45   70.48
   8  12   5  356.33   64.61
   8  12   6   69.37   31.82
   8  12   7   96.21   33.72
   8  12   8   95.89   33.55
   9  -4  -6   25.86   17.90
   9  -4  -5  398.91   71.69
   9  -4  -4   15.95    9.46
   9  -4  -3  348.45   64.27
   9  -4  -2  202.47   49.08
   9  -3  -8  115.15   39.52
   9  -3  -7  104.84   36.64
   9  -3  -6   14.40   16.10
   9  -3  -5  259.32   53.98
   9  -3  -4  179.67   43.61
   9  -3  -3   49.54   21.80
   9  -3  -2  130.42   36.64
   9  -3  -1  921.20  101.83
   9  -3   0  186.82   45.93
   9  -3   1  -11.16   13.01
   9  -2  -9  202.64   53.34
   9  -2  -8  151.39   43.11
   9  -2  -7    2.15    5.67
   9  -2  -6  472.36   72.14
   9  -2  -5   12.77   10.65
   9  -2  -4  300.05   54.24
   9  -2  -3  154.11   38.57
   9  -2  -2  501.38   68.28
   9  -2  -1   18.40   13.60
   9  -2   0  749.43   86.14
   9  -2   1  316.73   55.62
   9  -2   1  306.43   71.05
   9  -2   2  112.95   35.41
   9  -2   2  143.17   48.52
   9  -2   3   15.63   10.62
   9  -1  -8  153.11   43.54
   9  -1  -7  122.21   36.80
   9  -1  -6   51.49   22.67
   9  -1  -5  244.57   46.54
   9  -1  -4   63.42   23.44
   9  -1  -3   29.92   15.00
   9  -1  -2  952.24   90.09
   9  -1  -1  311.05   48.53
   9  -1  -1  310.16   50.69
   9  -1   0   -0.56    6.77
   9  -1   0   13.84   11.18
   9  -1   1   78.82   25.60
   9  -1   1   88.94   34.25
   9  -1   2  858.56   92.30
   9  -1   2  814.08  110.62
   9  -1   3  117.26   34.01
   9  -1   3  202.74   54.61
   9  -1   4   15.98   11.81
   9  -1   4   31.19   13.05
   9  -1   5   15.74    8.69
   9   0  -8   46.65   22.33
   9   0  -8   72.81   32.73
   9   0  -7  519.79   75.80
   9   0  -7  697.57  102.87
   9   0  -6   71.43   26.10
   9   0  -6   99.89   36.26
   9   0  -5   48.28   19.28
   9   0  -5   98.52   35.10
   9   0  -4   15.38   12.34
   9   0  -4   42.14   20.12
   9   0  -3  569.80   64.61
   9   0  -3  654.19   81.78
   9   0  -2   19.60   11.40
   9   0  -2    5.67    9.33
   9   0  -1 1407.32  101.88
   9   0  -1 1127.88  103.77
   9   0   0  434.58   53.52
   9   0   0  364.30   53.60
   9   0   1  326.39   47.69
   9   0   1  329.69   49.73
   9   0   2  -12.88   10.09
   9   0   2    5.11    8.84
   9   0   3  736.10   82.05
   9   0   3  714.43   99.43
   9   0   4  184.52   43.22
   9   0   4  157.86   47.48
   9   0   5   -9.69    8.11
   9   0   5   14.57   11.44
   9   0   6   60.62   28.26
   9   0   6  124.55   45.79
   9   1  -8 1031.89  132.62
   9   1  -7   79.32   27.67
   9   1  -7  104.57   42.32
   9   1  -6  436.83   63.45
   9   1  -6  607.48   91.24
   9   1  -5  154.65   34.07
   9   1  -5  193.30   48.90
   9   1  -4   -5.33    3.49
   9   1  -4    1.39   10.27
   9   1  -3  335.90   44.43
   9   1  -3  332.37   56.56
   9   1  -2  689.38   64.04
   9   1  -2  594.27   74.60
   9   1  -1  104.25   23.26
   9   1  -1   77.95   24.85
   9   1   0  113.28   23.93
   9   1   0  114.90   29.16
   9   1   1 1349.63   96.29
   9   1   1 1244.39  106.07
   9   1   2  484.96   56.05
   9   1   2  377.07   64.56
   9   1   2  399.95   56.06
   9   1   2  585.65   73.95
   9   1   3   26.02   15.31
   9   1   3   -5.19    4.37
   9   1   3   19.49   10.61
   9   1   4   44.00   20.85
   9   1   4   29.72   15.56
   9   1   4   40.66   20.02
   9   1   5  586.71   76.52
   9   1   5  620.45   95.06
   9   1   5  616.54   83.77
   9   1   6   85.28   38.18
   9   1   7  223.00   60.34
   9   2  -8  361.77   72.62
   9   2  -8  736.58  108.30
   9   2  -7  573.64   93.30
   9   2  -6    0.96    8.35
   9   2  -5    5.11    6.20
   9   2  -5    7.78    8.51
   9   2  -4  812.08   75.27
   9   2  -4  865.31   98.98
   9   2  -3   29.92   11.91
   9   2  -3   27.28   15.23
   9   2  -2  870.76   67.16
   9   2  -2  934.94   95.51
   9   2  -1  255.28   32.62
   9   2  -1  233.33   43.70
   9   2   0  594.35   50.73
   9   2   0  453.93   62.75
   9   2   1    1.50    1.76
   9   2   1   -1.10    4.00
   9   2   1   -4.52   11.45
   9   2   2 1799.01  108.28
   9   2   2 1619.31  133.44
   9   2   2 1750.70  132.44
   9   2   2 1968.48  146.25
   9   2   3  537.89   56.49
   9   2   3  491.44   69.75
   9   2   3  508.22   64.61
   9   2   3  585.57   76.77
   9   2   4   93.42   28.47
   9   2   4   64.61   22.43
   9   2   4   60.35   20.64
   9   2   5    8.99   11.47
   9   2   5    2.45    2.55
   9   2   6  461.19   80.60
   9   2   6  512.73   77.40
   9   2   7   97.20   31.89
   9   2   7   92.90   39.55
   9   3  -8  390.98   77.34
   9   3  -7  365.62   71.02
   9   3  -6  182.99   43.81
   9   3  -6  206.51   49.47
   9   3  -5  417.02   68.89
   9   3  -4   48.86   21.38
   9   3  -3  550.81   74.99
   9   3  -2  121.54   32.30
   9   3  -1   84.02   15.12
   9   3  -1   56.10   19.83
   9   3   0  875.04   54.24
   9   3   0  782.57   87.44
   9   3   1  954.15   56.27
   9   3   1  922.56   93.43
   9   3   1  964.54   95.90
   9   3   2   12.94    5.25
   9   3   2   48.08   13.10
   9   3   2   57.70   20.76
   9   3   2   42.53   13.63
   9   3   2   42.36   17.47
   9   3   3   96.86   27.15
   9   3   3  106.73   20.90
   9   3   3  115.84   29.83
   9   3   3  118.03   30.55
   9   3   4 1367.65   95.08
   9   3   4 1589.35  129.63
   9   3   4 1458.17  127.48
   9   3   4 1285.34  105.34
   9   3   5  716.41   90.33
   9   3   5  752.80   91.56
   9   3   6   61.15   24.73
   9   3   6  115.11   38.52
   9   3   7    9.89   13.77
   9   3   7   52.71   26.20
   9   3   8  113.79   37.08
   9   4  -8  988.19  126.60
   9   4  -7  444.62   66.77
   9   4  -7  359.73   70.63
   9   4  -6  172.12   39.88
   9   4  -6  163.64   45.32
   9   4  -5  539.25   80.62
   9   4  -4  332.37   59.04
   9   4  -3  234.93   48.27
   9   4  -2   80.40   25.26
   9   4  -1  825.70   91.02
   9   4   0  167.21   39.47
   9   4   1 1772.17  109.29
   9   4   1 1722.66  140.84
   9   4   1 1689.16  136.97
   9   4   2  757.82   66.55
   9   4   2  800.74   90.81
   9   4   2  794.59   88.02
   9   4   3  422.78   53.60
   9   4   3  387.25   47.33
   9   4   3  355.11   57.51
   9   4   3  360.54   57.66
   9   4   4   54.57   21.97
   9   4   4   82.61   25.55
   9   4   4   84.80   25.85
   9   4   5  883.46   81.68
   9   4   5  972.70  105.99
   9   4   6  347.99   61.88
   9   4   7    5.59   12.39
   9   4   7   -7.87    4.37
   9   4   8  -18.98   13.05
   9   4   9  147.95   43.87
   9   5  -8  110.97   40.46
   9   5  -7  119.58   41.78
   9   5  -6  698.70   87.44
   9   5  -6  886.22  110.45
   9   5  -5  344.31   59.41
   9   5  -5  455.69   76.10
   9   5  -4  386.39   61.28
   9   5  -4  471.88   73.12
   9   5  -3  156.05   36.94
   9   5  -3  146.97   37.20
   9   5  -2    9.55    9.08
   9   5  -1  134.04   34.55
   9   5   0  834.20   75.67
   9   5   0  869.68   98.00
   9   5   1   98.64   29.16
   9   5   1  131.93   27.78
   9   5   1  117.26   36.08
   9   5   2  218.48   45.73
   9   5   2  218.87   30.59
   9   5   2  203.36   34.86
   9   5   2  203.34   46.30
   9   5   3 1364.05   90.71
   9   5   3 1247.05   96.76
   9   5   3 1279.22  116.40
   9   5   3 1261.42  119.54
   9   5   4 1010.27  102.26
   9   5   4  899.90   92.51
   9   5   5  -12.21   13.83
   9   5   5  -15.72   10.94
   9   5   5   -4.19    7.49
   9   5   6   43.46   15.13
   9   5   6   38.71   19.50
   9   5   7  446.20   70.39
   9   5   7  515.87   78.88
   9   5   8  337.69   67.74
   9   5   8  320.01   58.81
   9   5   9  232.05   56.85
   9   6  -7  168.61   50.30
   9   6  -6  256.91   51.92
   9   6  -6  295.31   64.66
   9   6  -5  824.86   96.46
   9   6  -5  714.80   98.43
   9   6  -4   44.44   22.30
   9   6  -4    9.94    6.06
   9   6  -3   30.31   16.35
   9   6  -3   43.96   24.73
   9   6  -2  398.58   63.32
   9   6  -2  446.87   70.85
   9   6  -1  444.23   65.54
   9   6  -1  504.10   75.63
   9   6   0  771.90   87.28
   9   6   0  785.25   96.67
   9   6   1  274.39   52.09
   9   6   1  307.50   46.07
   9   6   1  392.42   59.84
   9   6   1  375.42   64.87
   9   6   2  331.52   47.88
   9   6   2  342.72   55.60
   9   6   2  312.31   55.81
   9   6   2  313.47   58.70
   9   6   3  156.99   38.58
   9   6   3  236.66   44.96
   9   6   3  199.62   36.28
   9   6   3  233.99   48.80
   9   6   4 1247.03  114.67
   9   6   4 1154.06  110.12
   9   6   4 1101.84  109.39
   9   6   5  850.00   95.52
   9   6   5  773.28   82.68
   9   6   5  874.56   97.49
   9   6   6  108.70   33.33
   9   6   6   79.02   26.84
   9   6   6   94.51   25.65
   9   6   7   18.64   17.05
   9   6   7   22.93   12.89
   9   6   8  456.61   71.37
   9   6   8  504.79   80.90
   9   6   9  208.63   54.37
   9   7  -6  862.57  119.13
   9   7  -5  325.48   62.16
   9   7  -5  425.63   78.21
   9   7  -4  239.37   53.22
   9   7  -4  343.18   66.52
   9   7  -3   56.78   24.90
   9   7  -3   51.90   27.34
   9   7  -2   30.01   15.52
   9   7  -2   10.71    9.77
   9   7  -1  737.47   90.46
   9   7  -1  750.47   98.01
   9   7   0  171.56   42.34
   9   7   0  131.93   39.05
   9   7   1  210.56   45.08
   9   7   1  246.34   48.79
   9   7   1  187.11   37.27
   9   7   1  224.45   51.60
   9   7   2  702.43   75.61
   9   7   2  805.87   92.91
   9   7   2  776.42   97.19
   9   7   2  661.49   84.13
   9   7   3 1133.82   99.69
   9   7   3 1280.06  119.41
   9   7   3 1207.04  115.24
   9   7   3 1216.19  120.11
   9   7   4   44.76   18.51
   9   7   4   63.09   25.99
   9   7   4   38.59   17.48
   9   7   4   73.68   24.61
   9   7   5  139.52   37.82
   9   7   5  179.66   43.04
   9   7   5  170.60   39.30
   9   7   6  730.78   90.94
   9   7   6  673.44   89.21
   9   7   7  603.49   82.86
   9   7   7  640.13   89.26
   9   7   8   68.03   33.48
   9   7   8   59.49   26.85
   9   7   9   66.47   31.31
   9   7   9   65.90   25.25
   9   8  -5  394.94   81.82
   9   8  -4  143.87   40.17
   9   8  -4  109.52   39.94
   9   8  -3  363.12   66.77
   9   8  -3  275.02   61.62
   9   8  -2  754.95   97.31
   9   8  -2  773.67  105.06
   9   8  -1  182.52   45.70
   9   8  -1  149.75   45.59
   9   8   0   65.54   28.43
   9   8   0  106.39   35.69
   9   8   1  230.14   47.53
   9   8   1  218.86   48.27
   9   8   1  165.13   37.52
   9   8   1  264.33   59.23
   9   8   2  304.56   55.72
   9   8   2  258.93   47.45
   9   8   2  405.47   67.26
   9   8   2  264.67   56.49
   9   8   3 1073.13  101.97
   9   8   3 1270.12  123.57
   9   8   3 1088.50  117.31
   9   8   3  992.93  106.75
   9   8   4  828.62   89.69
   9   8   4  987.66  110.29
   9   8   4  798.91   96.38
   9   8   4  820.65   95.55
   9   8   5  103.75   33.33
   9   8   5  104.54   33.96
   9   8   5   92.62   26.77
   9   8   5   86.92   29.55
   9   8   6   77.09   29.84
   9   8   6   60.13   26.26
   9   8   7  663.54   89.48
   9   8   7  672.17   92.29
   9   8   8  563.52   82.79
   9   8   8  664.19   96.22
   9   8   9  -11.57   16.42
   9   8   9    6.96    7.82
   9   9  -4  339.51   67.94
   9   9  -4  320.86   72.22
   9   9  -3  583.17   89.88
   9   9  -3  511.61   88.84
   9   9  -2  272.56   60.29
   9   9  -2  279.96   64.65
   9   9  -1  331.30   64.13
   9   9  -1  281.23   62.16
   9   9   0   40.79   24.25
   9   9   0   17.14   22.73
   9   9   1  199.19   50.44
   9   9   1  130.20   35.84
   9   9   1   95.49   34.27
   9   9   2  760.27   88.09
   9   9   2  906.35  110.58
   9   9   2  723.25   90.98
   9   9   3  165.10   41.37
   9   9   3  199.61   50.63
   9   9   3  193.99   41.42
   9   9   3  219.60   51.79
   9   9   4  172.74   41.80
   9   9   4  196.47   48.09
   9   9   4  137.49   35.50
   9   9   4   97.38   28.60
   9   9   5  697.58   85.28
   9   9   5  817.70  102.50
   9   9   5  589.00   83.07
   9   9   6 1134.64  122.59
   9   9   6 1073.79  116.36
   9   9   7   53.93   24.05
   9   9   7   72.89   29.36
   9   9   8  110.86   40.24
   9   9   8   64.37   26.03
   9   9   9  152.72   41.86
   9   9  10   89.27   31.95
   9  10  -3  679.96  103.34
   9  10  -2   31.95   19.80
   9  10  -2   39.84   25.95
   9  10  -1   -6.28   15.50
   9  10  -1    1.89    9.75
   9  10   0  147.64   45.30
   9  10   0  170.27   47.64
   9  10   1  519.42   86.68
   9  10   1  461.00   80.93
   9  10   2  421.71   67.25
   9  10   2  768.54  102.42
   9  10   2  711.17   98.67
   9  10   2  405.70   67.99
   9  10   3  848.99   96.45
   9  10   3  877.64  111.30
   9  10   3  829.31  107.29
   9  10   3  593.81   84.68
   9  10   4  177.02   46.06
   9  10   4  180.16   48.58
   9  10   4  196.00   44.62
   9  10   5  135.09   38.37
   9  10   5  189.71   50.86
   9  10   5  236.39   49.96
   9  10   6  699.07   92.11
   9  10   6  812.54  107.13
   9  10   6  855.55  103.63
   9  10   7 1038.35  121.10
   9  10   7  948.99  114.86
   9  10   8   24.83   20.40
   9  10   8   44.28   25.85
   9  10   9   -8.65   11.81
   9  10  10  155.37   45.02
   9  11  -2  306.32   72.54
   9  11  -1   23.97   15.70
   9  11   0  105.55   41.78
   9  11   0    8.44    5.49
   9  11   1  402.58   80.04
   9  11   1  269.26   63.38
   9  11   2  449.28   83.58
   9  11   2  336.84   62.98
   9  11   2  360.94   73.59
   9  11   3   18.69   10.82
   9  11   3   15.23   14.95
   9  11   4  250.34   54.99
   9  11   4  369.14   74.94
   9  11   4  281.32   56.84
   9  11   5  904.98  118.62
   9  11   5  826.96  100.85
   9  11   5  629.94   91.39
   9  11   6   97.63   34.68
   9  11   6  127.10   42.10
   9  11   6  123.24   36.12
   9  11   7   80.81   33.96
   9  11   7   89.56   36.98
   9  11   7   89.26   35.07
   9  11   8  328.13   71.38
   9  12   3   50.69   24.31
   9  12   4  175.00   45.93
   9  12   5  342.25   66.00
   9  12   6  713.14   99.20
   9  12   7   58.57   26.76
  10  -2  -2   11.14   15.51
  10  -1  -4  438.55   74.14
  10  -1  -3  356.08   64.71
  10  -1  -2  470.42   71.87
  10  -1  -1   -4.72    4.58
  10  -1   1  245.57   63.97
  10  -1   2  100.30   40.53
  10   0  -6  730.73  107.33
  10   0  -5  435.76   77.45
  10   0  -4  437.05   74.00
  10   0  -3   41.09   20.62
  10   0  -2  992.06  105.31
  10   0  -1  351.57   57.98
  10   0   0   18.36   13.10
  10   0   1   11.59   13.11
  10   0   2  386.67   74.59
  10   0   3   28.47   20.05
  10   0   4  196.29   54.35
  10   1  -7 1001.57  134.24
  10   1  -6   76.53   34.11
  10   1  -5  388.24   74.02
  10   1  -4  461.60   75.50
  10   1  -3  899.68  103.64
  10   1  -2   13.93   11.26
  10   1  -1  400.36   61.89
  10   1   0  279.15   50.40
  10   1   1  197.10   40.60
  10   1   2  -27.52   17.78
  10   1   3  117.64   35.58
  10   1   3   98.34   33.68
  10   1   4   -2.40   15.32
  10   1   5   31.21   23.30
  10   2  -7  181.22   54.33
  10   2  -6  281.85   63.88
  10   2  -5  381.59   73.25
  10   2  -4   55.58   23.09
  10   2  -3 1035.22  110.25
  10   2  -2  539.24   75.31
  10   2  -1   78.45   25.85
  10   2   0   34.19   16.42
  10   2   1  748.95   85.89
  10   2   2  291.40   55.21
  10   2   2  282.85   51.06
  10   2   2  336.22   59.37
  10   2   3   53.72   25.85
  10   2   3   36.66   20.00
  10   2   4   29.94   17.49
  10   2   4    3.99    9.79
  10   2   5  233.30   53.84
  10   2   5  208.79   54.67
  10   3  -7   83.64   34.48
  10   3  -6  182.36   50.84
  10   3  -5  109.81   37.41
  10   3  -4 1109.10  120.90
  10   3  -3   97.56   32.24
  10   3  -2  601.93   80.42
  10   3  -1  517.97   73.36
  10   3   0  844.21   93.96
  10   3   1   76.72   26.58
  10   3   2  246.09   50.94
  10   3   2  221.09   43.70
  10   3   2  243.18   49.13
  10   3   3  114.30   35.31
  10   3   3  131.92   33.64
  10   3   3  108.85   31.07
  10   3   4   15.62    8.74
  10   3   4   -1.35    5.08
  10   3   5  142.88   41.36
  10   3   6  144.95   41.35
  10   3   7  -35.80   26.12
  10   4  -7  106.17   31.51
  10   4  -7   77.63   34.98
  10   4  -6  190.18   50.24
  10   4  -5   99.59   35.06
  10   4  -4  819.12  102.42
  10   4  -3  926.24  104.91
  10   4  -2  319.59   58.37
  10   4  -1   43.77   22.21
  10   4   0 1031.54  108.38
  10   4   1  716.14   64.47
  10   4   1  637.19   83.53
  10   4   1  614.76   82.28
  10   4   2  -19.12   18.06
  10   4   2   -6.25    7.14
  10   4   2    1.20    4.37
  10   4   2   -1.97    3.13
  10   4   3    5.29    3.14
  10   4   3   -2.05    5.27
  10   4   3    1.57    6.42
  10   4   4  355.86   64.55
  10   4   4  377.72   58.99
  10   4   5   79.71   30.42
  10   4   6  271.31   58.55
  10   4   7   47.74   23.69
  10   4   7   51.08   24.36
  10   4   8   41.57   25.75
  10   5  -6   12.63   11.50
  10   5  -6   23.05   12.91
  10   5  -5  777.20   95.70
  10   5  -5  923.07  113.53
  10   5  -4  287.00   55.86
  10   5  -4  344.96   65.70
  10   5  -3  485.15   76.75
  10   5  -2  424.81   70.48
  10   5  -1 1040.70  111.93
  10   5   0  248.02   52.35
  10   5   1  396.05   51.07
  10   5   1  410.46   69.51
  10   5   1  446.77   69.21
  10   5   2  419.92   51.79
  10   5   2  422.66   70.85
  10   5   2  414.91   66.36
  10   5   3  303.90   59.15
  10   5   3  379.02   49.63
  10   5   3  312.85   58.86
  10   5   4   28.49   17.09
  10   5   4   11.25    6.42
  10   5   4   23.84   13.05
  10   5   5  312.07   61.86
  10   5   6   37.58   17.73
  10   5   6   75.34   28.64
  10   5   7   26.38   17.04
  10   5   7   57.07   27.62
  10   5   8  292.94   64.60
  10   5   8  313.73   63.76
  10   6  -6  175.60   51.94
  10   6  -5   77.05   30.56
  10   6  -5   52.25   26.47
  10   6  -4  454.66   72.96
  10   6  -4  441.68   75.26
  10   6  -3  207.26   47.19
  10   6  -3  254.43   53.58
  10   6  -2   29.50   10.99
  10   6  -2   38.09   18.59
  10   6  -1  933.09  100.87
  10   6  -1 1019.82  115.30
  10   6   0 1190.46  114.71
  10   6   0 1298.13  131.87
  10   6   1  123.22   35.18
  10   6   1  129.07   36.02
  10   6   1  129.91   29.58
  10   6   1  124.91   37.36
  10   6   2   30.73   14.67
  10   6   2   57.87   21.68
  10   6   2   44.13   16.73
  10   6   2   52.81   25.90
  10   6   3  719.31   74.59
  10   6   3  682.22   84.06
  10   6   3  716.18   94.84
  10   6   3  798.04   94.11
  10   6   4  648.35   71.63
  10   6   4  608.52   81.06
  10   6   4  623.17   85.61
  10   6   4  676.87   85.88
  10   6   5   28.16   14.16
  10   6   5   52.09   24.17
  10   6   5   87.54   27.14
  10   6   6    4.91   18.98
  10   6   6    8.55    9.61
  10   6   7   33.96   20.94
  10   6   7   46.36   18.45
  10   6   8    6.96   15.55
  10   6   8   24.59   19.74
  10   7  -5  261.59   57.23
  10   7  -5  277.18   63.78
  10   7  -4  171.59   45.25
  10   7  -4  159.27   46.85
  10   7  -3   83.93   34.17
  10   7  -3   51.59   23.44
  10   7  -2  970.89  110.00
  10   7  -2 1072.06  122.01
  10   7  -1  636.19   86.72
  10   7  -1  771.56  101.40
  10   7   0  537.12   78.29
  10   7   0  581.22   88.81
  10   7   1  593.45   70.46
  10   7   1  667.38   85.41
  10   7   1  788.88  102.89
  10   7   1  565.92   81.09
  10   7   2  521.81   66.58
  10   7   2  618.57   82.39
  10   7   2  708.07   97.05
  10   7   2  575.74   81.39
  10   7   3  177.12   43.95
  10   7   3  185.74   43.56
  10   7   3  154.61   33.97
  10   7   3  171.07   45.24
  10   7   4  261.92   55.19
  10   7   4  259.37   52.75
  10   7   4  258.82   45.58
  10   7   4  282.80   56.87
  10   7   5  162.95   42.26
  10   7   5  184.71   45.51
  10   7   5  166.85   37.60
  10   7   5  186.10   43.47
  10   7   6    0.18   10.31
  10   7   6   -0.35   15.33
  10   7   6   18.17   10.77
  10   7   7   47.72   29.02
  10   7   7   44.73   23.01
  10   7   8  346.51   69.03
  10   7   8  213.60   52.76
  10   8  -4  231.08   55.28
  10   8  -4  282.65   64.47
  10   8  -3   99.88   36.75
  10   8  -3   30.81   19.73
  10   8  -2  263.84   58.42
  10   8  -2  296.66   64.51
  10   8  -1  939.64  111.58
  10   8  -1  877.20  114.64
  10   8   0  259.61   56.59
  10   8   0  333.69   68.59
  10   8   1   45.93   19.79
  10   8   1   27.24   13.21
  10   8   1   58.51   27.38
  10   8   2  472.66   66.33
  10   8   2  712.06   93.55
  10   8   2  672.11   96.32
  10   8   2  553.32   81.04
  10   8   3  952.13   97.04
  10   8   3 1149.48  120.10
  10   8   3 1013.21  118.05
  10   8   3  946.76  108.65
  10   8   4   33.79   16.16
  10   8   4   51.27   20.56
  10   8   4   30.03   15.27
  10   8   4   36.18   20.98
  10   8   5   37.63   20.19
  10   8   5   68.89   29.35
  10   8   5   28.71   16.82
  10   8   5   24.74   12.62
  10   8   6  153.06   44.06
  10   8   6  107.26   36.00
  10   8   7  338.16   67.37
  10   8   7  288.04   60.53
  10   8   8  225.60   54.63
  10   8   9  142.50   41.76
  10   9  -4   10.23   14.13
  10   9  -3  358.80   72.21
  10   9  -2  398.93   74.67
  10   9  -2  442.41   82.64
  10   9  -1  511.52   84.55
  10   9  -1  486.89   85.91
  10   9   0  541.47   86.29
  10   9   0  460.02   84.07
  10   9   1  773.11  102.50
  10   9   1  692.55  103.81
  10   9   2  511.00   72.35
  10   9   2  763.10  101.86
  10   9   2  671.12   99.91
  10   9   2  562.78   82.79
  10   9   3  257.35   56.06
  10   9   3  304.17   62.44
  10   9   3  294.55   53.72
  10   9   3  255.96   58.96
  10   9   4  523.60   73.17
  10   9   4  550.39   86.86
  10   9   4  519.75   79.12
  10   9   4  472.52   79.23
  10   9   5   86.70   30.32
  10   9   5  127.85   40.77
  10   9   5  105.85   32.65
  10   9   5   74.09   30.04
  10   9   6    5.86   14.02
  10   9   6    1.74    6.96
  10   9   6   -1.41    7.86
  10   9   7  201.52   51.02
  10   9   7  153.58   44.39
  10   9   8   29.10   23.60
  10   9   9   31.66   22.87
  10  10  -3   -2.85   11.67
  10  10  -2  448.07   84.08
  10  10  -1  400.50   78.44
  10  10  -1  461.67   86.82
  10  10   0   45.72   23.77
  10  10   0   55.83   25.32
  10  10   1  453.72   81.14
  10  10   1  325.48   71.40
  10  10   2  944.76  105.30
  10  10   2 1198.91  133.25
  10  10   2  985.47  124.36
  10  10   2  827.19  105.61
  10  10   3  151.62   41.36
  10  10   3  193.80   53.76
  10  10   3  189.42   44.59
  10  10   3  234.38   56.26
  10  10   4   36.16   21.63
  10  10   4   20.95   20.47
  10  10   4   32.86   21.72
  10  10   4   26.84   18.27
  10  10   5  158.35   45.94
  10  10   5  226.86   55.04
  10  10   5  191.98   44.78
  10  10   6  514.42   78.27
  10  10   6  528.20   86.32
  10  10   6  518.10   85.33
  10  10   7   26.79   13.06
  10  10   7   38.97   22.81
  10  10   7   24.22   15.19
  10  10   8   28.39   19.52
  10  11   1  618.19  101.08
  10  11   2  408.43   81.15
  10  11   2  338.05   71.81
  10  11   3  660.34  103.16
  10  11   3  521.84   80.53
  10  11   3  578.82   95.79
  10  11   3  448.58   77.36
  10  11   4  159.09   45.78
  10  11   4  207.33   57.36
  10  11   4  106.76   34.79
  10  11   5  186.77   47.95
  10  11   5  217.47   50.79
  10  11   6   91.36   36.91
  10  12   3    1.38    4.65
  10  12   4  211.79   54.03
  11  -1  -3  101.42   36.27
  11  -1  -2   14.23   11.92
  11   0  -4   32.44   20.81
  11   0  -3  317.53   64.53
  11   0  -2  125.37   38.71
  11   0  -1   61.48   22.95
  11   0   1   14.14   13.31
  11   0   2   12.20   10.71
  11   1  -5  361.84   74.62
  11   1  -4  373.52   72.35
  11   1  -3  104.68   36.61
  11   1  -2  416.16   70.48
  11   1  -1   62.16   27.18
  11   1   0    9.16    9.02
  11   1   1   59.57   29.32
  11   1   2  351.70   70.06
  11   1   3   22.45   15.81
  11   2  -5   22.86   15.39
  11   2  -4  280.26   61.99
  11   2  -3  665.88   92.33
  11   2  -2   42.32   20.33
  11   2  -1   16.20   12.07
  11   2   0  125.32   35.18
  11   2   1   66.15   29.11
  11   2   1   43.71   20.04
  11   2   2  379.70   68.02
  11   3  -5  848.57  116.97
  11   3  -4  515.87   84.34
  11   3  -3  584.83   87.66
  11   3  -2  212.30   48.61
  11   3  -1    3.22    6.48
  11   3   0   14.62   15.05
  11   3   1  404.72   67.54
  11   3   2   87.81   30.66
  11   3   3  199.32   51.26
  11   3   4  233.44   56.19
  11   3   5  333.57   68.45
  11   4  -5  161.54   48.33
  11   4  -4  935.91  116.73
  11   4  -3  215.21   51.10
  11   4  -2   19.21   16.20
  11   4  -1  265.86   55.36
  11   4   0  234.57   50.68
  11   4   1    1.02    9.53
  11   4   2   53.50   25.43
  11   4   2  100.01   32.56
  11   4   3   54.92   24.42
  11   4   3   46.12   21.56
  11   4   4    7.58    2.89
  11   4   5  667.71   98.97
  11   4   6  430.59   80.16
  11   5  -6  366.31   67.96
  11   5  -5  251.69   54.73
  11   5  -5  272.77   63.38
  11   5  -4  510.75   85.98
  11   5  -3  387.87   71.55
  11   5  -2  195.62   49.90
  11   5  -1  321.72   62.83
  11   5   0  460.99   75.41
  11   5   1  252.54   56.00
  11   5   2  104.57   36.89
  11   5   2   89.94   24.94
  11   5   2   98.82   36.71
  11   5   3   30.47   17.78
  11   5   3   14.85   15.80
  11   5   4  232.95   54.27
  11   5   5    2.53    4.33
  11   5   6  303.33   63.47
  11   5   6  387.94   75.20
  11   5   7  239.23   58.04
  11   6  -5  888.35  109.93
  11   6  -4  520.69   81.85
  11   6  -4  551.53   88.01
  11   6  -3   19.56   21.41
  11   6  -3   31.57   16.47
  11   6  -2  412.98   69.47
  11   6  -2  368.08   70.34
  11   6  -1  735.15   92.83
  11   6  -1  975.55  114.70
  11   6   0   92.28   32.13
  11   6   0   90.91   33.33
  11   6   1   30.70   18.59
  11   6   1   30.27   13.34
  11   6   1   11.09    7.84
  11   6   2  111.59   37.43
  11   6   2  115.93   33.40
  11   6   2   60.29   19.68
  11   6   2   79.74   33.16
  11   6   3   25.52   21.66
  11   6   3   12.94    6.58
  11   6   3   84.16   24.44
  11   6   3   61.26   26.96
  11   6   4  469.74   61.69
  11   6   4  416.56   70.13
  11   6   4  415.34   70.09
  11   6   4  456.18   76.71
  11   6   5  345.03   65.22
  11   6   5  358.17   55.07
  11   6   5  491.91   82.38
  11   6   6   20.98   15.76
  11   6   6   18.88   10.08
  11   6   7  -13.05   12.29
  11   7  -5  210.54   54.56
  11   7  -4  624.61   93.11
  11   7  -3  484.45   81.10
  11   7  -3  645.47   96.86
  11   7  -2  490.59   79.12
  11   7  -2  538.75   86.46
  11   7  -1  300.36   60.02
  11   7  -1  426.59   76.33
  11   7   0  423.00   71.23
  11   7   0  488.57   82.81
  11   7   1    7.84    8.12
  11   7   1    6.20    1.38
  11   7   2   12.14    8.66
  11   7   2   -9.29   12.01
  11   7   2   32.70   11.62
  11   7   2   44.79   25.98
  11   7   3  318.35   63.09
  11   7   3  263.12   54.96
  11   7   3  252.70   45.72
  11   7   3  233.68   56.88
  11   7   4  240.10   54.73
  11   7   4  165.48   42.67
  11   7   4  190.09   41.01
  11   7   4  174.23   46.40
  11   7   5  343.24   66.09
  11   7   5  304.61   62.10
  11   7   5  210.13   43.68
  11   7   5  214.46   49.49
  11   7   6  196.78   52.50
  11   7   6  246.63   58.91
  11   7   7  258.56   62.73
  11   7   8   45.50   25.32
  11   8  -4   41.85   23.11
  11   8  -3  211.86   55.38
  11   8  -2  764.68  104.34
  11   8  -2  834.69  114.01
  11   8  -1  572.02   88.05
  11   8  -1  504.99   86.95
  11   8   0   56.78   26.09
  11   8   0   23.96   23.30
  11   8   1  215.80   51.66
  11   8   1  199.14   54.28
  11   8   2  288.46   59.96
  11   8   2  320.89   62.02
  11   8   2  256.11   48.25
  11   8   2  310.13   67.73
  11   8   3    3.71    4.89
  11   8   3   16.63   14.91
  11   8   3    8.93   10.12
  11   8   3   11.30    6.12
  11   8   4  262.22   57.69
  11   8   4  275.61   58.77
  11   8   4  162.67   39.06
  11   8   4  206.51   52.88
  11   8   5   78.29   31.57
  11   8   5   63.16   29.27
  11   8   5   26.84   15.89
  11   8   5   54.49   23.20
  11   8   6   13.71   14.19
  11   8   6    7.05   11.15
  11   8   6   25.13   18.77
  11   8   6    6.64   12.64
  11   8   7  375.22   74.88
  11   9  -3  600.50   97.36
  11   9  -2  184.39   52.93
  11   9  -1  790.99  110.29
  11   9  -1  857.54  120.31
  11   9   0  276.86   63.11
  11   9   0  243.50   62.45
  11   9   1  357.36   68.76
  11   9   1  274.78   66.06
  11   9   2  185.74   48.19
  11   9   2  264.64   60.63
  11   9   2  220.42   47.07
  11   9   2  313.07   69.67
  11   9   3  408.98   74.69
  11   9   3  394.92   62.95
  11   9   3  386.10   73.18
  11   9   3  480.05   84.87
  11   9   4   65.40   30.45
  11   9   4   68.21   30.27
  11   9   4   59.00   22.77
  11   9   4   16.32    3.65
  11   9   5   34.81   21.75
  11   9   5   47.89   24.83
  11   9   5   60.93   24.39
  11   9   5   37.20   23.65
  11   9   6  258.49   59.90
  11   9   6  218.83   49.61
  11   9   7  149.83   42.52
  11  10   0  192.24   53.75
  11  10   1  491.96   86.57
  11  10   1  434.92   85.26
  11  10   2  222.41   57.23
  11  10   2  125.81   36.90
  11  10   2  179.87   54.47
  11  10   3   34.97   21.65
  11  10   3   69.38   34.10
  11  10   3   41.49   19.75
  11  10   3   82.69   36.12
  11  10   4   33.43   22.78
  11  10   4   21.10   10.60
  11  10   4   74.13   33.69
  11  10   5   90.31   32.17
  11  10   5   15.55   18.19
  11  10   6   97.80   34.12
  12   1  -2   38.00   22.62
  12   1  -1  367.33   67.41
  12   2  -2  392.67   70.80
  12   2  -1   54.85   24.71
  12   2   0   53.13   22.48
  12   3  -3  208.88   54.17
  12   3  -2  134.86   41.75
  12   3  -1   97.22   35.20
  12   3   0  323.10   62.26
  12   3   1   58.53   26.03
  12   4  -3  282.70   61.54
  12   4  -2  104.42   36.81
  12   4  -1   27.66   16.64
  12   4   0  119.01   36.48
  12   4   1  516.41   81.71
  12   4   2   43.29   26.19
  12   4   3  100.16   38.19
  12   4   4  541.12   91.98
  12   5  -3    2.17    8.74
  12   5  -2   10.38   11.96
  12   5  -1  279.36   60.32
  12   5   0  143.16   43.06
  12   5   1  376.98   72.40
  12   5   2  357.66   69.50
  12   5   3  383.31   74.91
  12   5   4  101.57   37.38
  12   6  -5  425.45   77.93
  12   6  -4   48.47   24.94
  12   6  -3   82.73   32.48
  12   6  -2   -5.10    6.47
  12   6  -2   -3.73   14.86
  12   6  -1   -8.63   12.30
  12   6  -1    0.92   13.36
  12   6   0  575.05   91.46
  12   6   1  164.34   49.27
  12   6   2   60.23   29.20
  12   6   3  289.52   60.25
  12   6   3  495.01   84.03
  12   6   3  355.24   70.77
  12   6   4  739.20  105.36
  12   7  -4   93.82   37.08
  12   7  -3   19.41   20.42
  12   7  -2  135.70   41.99
  12   7  -1  230.55   53.34
  12   7  -1  259.71   60.23
  12   7   0   30.51   17.36
  12   7   0   54.04   27.27
  12   7   1  125.49   38.54
  12   7   1  255.41   62.51
  12   7   2  143.00   43.20
  12   7   2  150.49   42.62
  12   7   2  189.75   40.05
  12   7   2  177.09   52.50
  12   7   3   88.35   32.30
  12   7   3   90.35   31.65
  12   7   3  105.67   29.99
  12   7   3   75.28   37.24
  12   7   4  347.60   57.17
  12   7   4  459.42   80.34
  12   8  -1  317.29   66.07
  12   8   0  252.41   58.18
  12   8   0  225.48   59.05
  12   8   1   51.97   26.19
  12   8   1   95.66   41.21
  12   8   2   90.86   35.44
  12   8   2  153.14   43.39
  12   8   2   87.82   28.47
  12   8   2  173.47   51.89
  12   8   3  497.45   70.80
  12   8   3  608.65   99.78
  12   8   4  184.22   42.05
  12   8   4  206.30   53.65
  12   8   5   77.50   28.39
  12   8   5   61.81   27.01
  12   8   6  285.99   56.25
  12   9   2   94.73   31.57
  12   9   2   47.84   28.59
  12   9   3  284.67   55.14
  12   9   3  322.97   73.56
  12   9   4  508.15   74.54
  12   9   4  535.60   94.02
  12   9   5  120.35   37.22
  12   9   5   52.42   25.91
  12   9   6   37.84   22.76
  12  10   3  351.97   64.52
  12  10   5  224.98   60.05
  13   4   0  363.43   70.92
  13   5   0  414.28   77.33
  13   5   1  682.40  100.25
  13   6   1  176.75   51.01
  13   6   2  225.45   58.67
  13   7   2   33.13   20.33
  13   7   3  281.84   67.20
  13   8   3  167.24   53.00
   0   0   0    0.00    0.00



_computing_structure_solution     'SHELXT 2014/5 (Sheldrick, 2014)'
_computing_structure_solution     'SHELXT 2014/5 (Sheldrick, 2014)'
_computing_structure_solution     'SHELXT 2014/5 (Sheldrick, 2014)'
;
_shelx_hkl_checksum              65043
loop_
_space_group_symop_operation_xyz
'x, y, z'
'-x, -y, -z'
loop_
_atom_site_label
_atom_site_type_symbol
_atom_site_fract_x
_atom_site_fract_y
_atom_site_fract_z
_atom_site_U_iso_or_equiv
_atom_site_adp_type
_atom_site_occupancy
_atom_site_site_symmetry_order
_atom_site_calc_flag
_atom_site_refinement_flags_posn
_atom_site_refinement_flags_adp
_atom_site_refinement_flags_occupancy
_atom_site_disorder_assembly
_atom_site_disorder_group
Bi1 Bi 0.22323(3) 0.29570(3) 0.65060(3) 0.00768(11) Uani 1 1 d . . . . .
Br1 Br 0.37216(9) -0.04950(8) 0.82934(8) 0.01785(18) Uani 1 1 d . . . . .
Br2 Br 0.16703(8) 0.41123(8) 0.87217(7) 0.01179(17) Uani 1 1 d . . . . .
Br3 Br 0.10178(8) 0.66453(8) 0.43033(7) 0.01093(17) Uani 1 1 d . . . . .
O1 O 0.4600(5) 0.2953(6) 0.6602(5) 0.0115(11) Uani 1 1 d . . . . .
O2 O 0.3415(6) 0.2073(6) 0.4647(5) 0.0129(11) Uani 1 1 d . . . . .
N1 N 0.5977(7) 0.1601(7) 0.6601(6) 0.0088(12) Uani 1 1 d . . . . .
N2 N 0.3835(7) 0.3120(7) 0.3650(6) 0.0100(13) Uani 1 1 d . . . . .
C1 C 0.6948(9) 0.0383(9) 0.7890(8) 0.0176(17) Uani 1 1 d . . . . .
H1 H 0.661348 0.044617 0.877084 0.021 Uiso 1 1 calc R U . . .
C2 C 0.8434(9) -0.0963(9) 0.7930(8) 0.0164(17) Uani 1 1 d . . . . .
H2 H 0.911570 -0.184345 0.884109 0.020 Uiso 1 1 calc R U . . .
C3 C 0.8933(8) -0.1034(8) 0.6650(8) 0.0119(16) Uani 1 1 d . . . . .
H3 H 0.996417 -0.194636 0.667080 0.014 Uiso 1 1 calc R U . . .
C4 C 0.7906(8) 0.0247(8) 0.5330(8) 0.0095(14) Uani 1 1 d . U . . .
H4 H 0.823101 0.021737 0.443801 0.011 Uiso 1 1 calc R U . . .
C5 C 0.6403(8) 0.1572(8) 0.5318(7) 0.0062(14) Uani 1 1 d . U . . .
C6 C 0.5279(8) 0.2972(8) 0.3930(7) 0.0071(14) Uani 1 1 d . U . . .
C7 C 0.5721(8) 0.4050(8) 0.2898(7) 0.0104(15) Uani 1 1 d . . . . .
H7 H 0.673594 0.395187 0.308903 0.012 Uiso 1 1 calc R U . . .
C8 C 0.4673(9) 0.5271(9) 0.1588(8) 0.0149(16) Uani 1 1 d . . . . .
H8 H 0.494546 0.604778 0.088103 0.018 Uiso 1 1 calc R U . . .
C9 C 0.3244(9) 0.5353(9) 0.1314(8) 0.0148(16) Uani 1 1 d . . . . .
H9 H 0.253350 0.616363 0.040129 0.018 Uiso 1 1 calc R U . . .
C10 C 0.2828(8) 0.4257(8) 0.2364(8) 0.0138(16) Uani 1 1 d . . . . .
H10 H 0.183414 0.431023 0.217391 0.017 Uiso 1 1 calc R U . . .
loop_
_atom_site_aniso_label
_atom_site_aniso_U_11
_atom_site_aniso_U_22
_atom_site_aniso_U_33
_atom_site_aniso_U_23
_atom_site_aniso_U_13
_atom_site_aniso_U_12
Bi1 0.00951(16) 0.00534(15) 0.00716(16) -0.00065(11) 0.00229(11) -0.00452(12)
Br1 0.0298(4) 0.0066(3) 0.0100(4) -0.0008(3) 0.0033(3) -0.0060(3)
Br2 0.0151(4) 0.0109(3) 0.0091(4) -0.0027(3) 0.0041(3) -0.0076(3)
Br3 0.0135(4) 0.0081(3) 0.0121(4) -0.0026(3) 0.0028(3) -0.0073(3)
O1 0.006(2) 0.014(3) 0.016(3) -0.010(2) 0.004(2) -0.004(2)
O2 0.018(3) 0.011(2) 0.015(3) -0.005(2) 0.004(2) -0.011(2)
N1 0.012(3) 0.006(3) 0.007(3) -0.001(2) 0.001(3) -0.005(2)
N2 0.014(3) 0.011(3) 0.013(3) -0.009(3) 0.007(3) -0.009(3)
C1 0.018(4) 0.017(4) 0.008(4) 0.004(3) -0.001(3) -0.009(3)
C2 0.019(4) 0.013(4) 0.013(4) 0.002(3) 0.004(3) -0.011(3)
C3 0.010(4) 0.007(3) 0.018(4) -0.002(3) 0.004(3) -0.006(3)
C4 0.0095(17) 0.0094(16) 0.0103(17) -0.0038(11) 0.0019(10) -0.0056(11)
C5 0.0065(16) 0.0063(16) 0.0069(17) -0.0024(10) 0.0010(9) -0.0043(11)
C6 0.0079(17) 0.0067(16) 0.0067(17) -0.0033(11) 0.0017(10) -0.0032(11)
C7 0.014(4) 0.004(3) 0.012(4) -0.001(3) 0.003(3) -0.005(3)
C8 0.024(4) 0.013(4) 0.009(4) -0.004(3) 0.006(3) -0.011(3)
C9 0.017(4) 0.012(4) 0.009(4) -0.002(3) -0.002(3) -0.004(3)
C10 0.012(4) 0.013(4) 0.012(4) -0.006(3) -0.005(3) -0.002(3)
loop_
_atom_type_symbol
_atom_type_description
_atom_type_scat_dispersion_real
_atom_type_scat_dispersion_imag
_atom_type_scat_source
C C 0.0033 0.0016 'International Tables Vol C Tables 4.2.6.8 and 6.1.1.4'
H H 0.0000 0.0000 'International Tables Vol C Tables 4.2.6.8 and 6.1.1.4'
Bi Bi -4.1077 10.2566 'International Tables Vol C Tables 4.2.6.8 and 6.1.1.4'
Br Br -0.2901 2.4595 'International Tables Vol C Tables 4.2.6.8 and 6.1.1.4'
N N 0.0061 0.0033 'International Tables Vol C Tables 4.2.6.8 and 6.1.1.4'
O O 0.0106 0.0060 'International Tables Vol C Tables 4.2.6.8 and 6.1.1.4'
loop_
_geom_angle_atom_site_label_1
_geom_angle_atom_site_label_2
_geom_angle_atom_site_label_3
_geom_angle
_geom_angle_site_symmetry_1
_geom_angle_site_symmetry_3
_geom_angle_publ_flag
O1 Bi1 O2 75.87(15) . . ?
O1 Bi1 Br1 91.58(11) . . ?
O2 Bi1 Br1 86.20(10) . . ?
O1 Bi1 Br2 86.59(12) . . ?
O2 Bi1 Br2 162.39(10) . . ?
Br1 Bi1 Br2 95.95(2) . . ?
O1 Bi1 Br3 81.98(11) . . ?
O2 Bi1 Br3 86.60(10) . . ?
Br1 Bi1 Br3 171.33(2) . . ?
Br2 Bi1 Br3 89.48(2) . . ?
O1 Bi1 Br3 168.09(12) . 2_566 ?
O2 Bi1 Br3 95.66(10) . 2_566 ?
Br1 Bi1 Br3 96.24(2) . 2_566 ?
Br2 Bi1 Br3 101.46(2) . 2_566 ?
Br3 Bi1 Br3 89.264(19) . 2_566 ?
Bi1 Br3 Bi1 90.736(19) . 2_566 ?
N1 O1 Bi1 120.6(3) . . ?
N2 O2 Bi1 116.6(3) . . ?
O1 N1 C1 117.8(6) . . ?
O1 N1 C5 119.6(5) . . ?
C1 N1 C5 122.4(6) . . ?
O2 N2 C10 118.7(5) . . ?
O2 N2 C6 119.7(5) . . ?
C10 N2 C6 121.5(6) . . ?
N1 C1 C2 119.6(7) . . ?
N1 C1 H1 120.2 . . ?
C2 C1 H1 120.2 . . ?
C1 C2 C3 120.2(7) . . ?
C1 C2 H2 119.9 . . ?
C3 C2 H2 119.9 . . ?
C2 C3 C4 119.0(7) . . ?
C2 C3 H3 120.5 . . ?
C4 C3 H3 120.5 . . ?
C3 C4 C5 119.7(7) . . ?
C3 C4 H4 120.1 . . ?
C5 C4 H4 120.1 . . ?
N1 C5 C4 119.1(6) . . ?
N1 C5 C6 119.6(6) . . ?
C4 C5 C6 121.3(6) . . ?
N2 C6 C7 119.9(6) . . ?
N2 C6 C5 118.7(6) . . ?
C7 C6 C5 121.3(6) . . ?
C8 C7 C6 119.4(6) . . ?
C8 C7 H7 120.3 . . ?
C6 C7 H7 120.3 . . ?
C9 C8 C7 119.5(7) . . ?
C9 C8 H8 120.3 . . ?
C7 C8 H8 120.3 . . ?
C8 C9 C10 120.1(7) . . ?
C8 C9 H9 119.9 . . ?
C10 C9 H9 119.9 . . ?
N2 C10 C9 119.5(6) . . ?
N2 C10 H10 120.2 . . ?
C9 C10 H10 120.2 . . ?
loop_
_geom_bond_atom_site_label_1
_geom_bond_atom_site_label_2
_geom_bond_distance
_geom_bond_site_symmetry_2
_geom_bond_publ_flag
Bi1 O1 2.272(4) . ?
Bi1 O2 2.385(5) . ?
Bi1 Br1 2.7085(7) . ?
Bi1 Br2 2.7859(8) . ?
Bi1 Br3 3.0061(7) . ?
Bi1 Br3 3.0479(7) 2_566 ?
O1 N1 1.336(7) . ?
O2 N2 1.333(7) . ?
N1 C1 1.341(8) . ?
N1 C5 1.352(9) . ?
N2 C10 1.340(8) . ?
N2 C6 1.349(8) . ?
C1 C2 1.379(10) . ?
C1 H1 0.9500 . ?
C2 C3 1.379(10) . ?
C2 H2 0.9500 . ?
C3 C4 1.388(9) . ?
C3 H3 0.9500 . ?
C4 C5 1.389(9) . ?
C4 H4 0.9500 . ?
C5 C6 1.483(8) . ?
C6 C7 1.380(9) . ?
C7 C8 1.380(9) . ?
C7 H7 0.9500 . ?
C8 C9 1.364(9) . ?
C8 H8 0.9500 . ?
C9 C10 1.384(10) . ?
C9 H9 0.9500 . ?
C10 H10 0.9500 . ?
loop_
_geom_hbond_atom_site_label_D
_geom_hbond_atom_site_label_H
_geom_hbond_atom_site_label_A
_geom_hbond_distance_DH
_geom_hbond_distance_HA
_geom_hbond_distance_DA
_geom_hbond_angle_DHA
_geom_hbond_site_symmetry_A
_geom_hbond_publ_flag
C1 H1 Br1 0.95 2.99 3.920(8) 167.6 2_657 yes
C2 H2 Br2 0.95 2.96 3.613(7) 127.4 2_657 yes
C7 H7 Br2 0.95 3.01 3.717(7) 131.9 2_666 yes
C10 H10 Br2 0.95 2.94 3.841(7) 158.1 2_566 yes
loop_
_geom_torsion_atom_site_label_1
_geom_torsion_atom_site_label_2
_geom_torsion_atom_site_label_3
_geom_torsion_atom_site_label_4
_geom_torsion
_geom_torsion_site_symmetry_1
_geom_torsion_site_symmetry_2
_geom_torsion_site_symmetry_3
_geom_torsion_site_symmetry_4
_geom_torsion_publ_flag
Bi1 O1 N1 C1 -97.2(5) . . . . ?
Bi1 O1 N1 C5 87.8(6) . . . . ?
Bi1 O2 N2 C10 -98.3(6) . . . . ?
Bi1 O2 N2 C6 84.2(6) . . . . ?
O1 N1 C1 C2 -175.2(6) . . . . ?
C5 N1 C1 C2 -0.4(9) . . . . ?
N1 C1 C2 C3 1.4(10) . . . . ?
C1 C2 C3 C4 -1.2(9) . . . . ?
C2 C3 C4 C5 0.0(9) . . . . ?
O1 N1 C5 C4 173.9(5) . . . . ?
C1 N1 C5 C4 -0.8(9) . . . . ?
O1 N1 C5 C6 -4.6(8) . . . . ?
C1 N1 C5 C6 -179.3(5) . . . . ?
C3 C4 C5 N1 1.0(8) . . . . ?
C3 C4 C5 C6 179.4(5) . . . . ?
O2 N2 C6 C7 179.7(6) . . . . ?
C10 N2 C6 C7 2.3(10) . . . . ?
O2 N2 C6 C5 3.3(9) . . . . ?
C10 N2 C6 C5 -174.1(6) . . . . ?
N1 C5 C6 N2 -64.1(8) . . . . ?
C4 C5 C6 N2 117.4(7) . . . . ?
N1 C5 C6 C7 119.5(7) . . . . ?
C4 C5 C6 C7 -59.0(8) . . . . ?
N2 C6 C7 C8 0.0(10) . . . . ?
C5 C6 C7 C8 176.4(6) . . . . ?
C6 C7 C8 C9 -2.2(10) . . . . ?
C7 C8 C9 C10 2.1(11) . . . . ?
O2 N2 C10 C9 -179.9(6) . . . . ?
C6 N2 C10 C9 -2.4(10) . . . . ?
C8 C9 C10 N2 0.2(11) . . . . ?
