#------------------------------------------------------------------------------
#$Date: 2021-07-05 20:11:05 +0300 (Mon, 05 Jul 2021) $
#$Revision: 267125 $
#$URL: file:///home/coder/svn-repositories/cod/cif/7/24/28/7242893.cif $
#------------------------------------------------------------------------------
#
# This file is available in the Crystallography Open Database (COD),
# http://www.crystallography.net/
#
# All data on this site have been placed in the public domain by the
# contributors.
#
data_7242893
loop_
_publ_author_name
'Fiore, Cecilia'
'Shemchuk, Oleksii'
'Grepioni, Fabrizia'
'Turner, Raymond J.'
'Braga, Dario'
_publ_section_title
;
 Proflavine and zinc chloride &#x201C;team chemistry&#x201D;: combining
 antibacterial agents via solid-state interaction
;
_journal_issue                   25
_journal_name_full               CrystEngComm
_journal_page_first              4494
_journal_page_last               4499
_journal_paper_doi               10.1039/D1CE00612F
_journal_volume                  23
_journal_year                    2021
_chemical_formula_moiety         'C13 H12 Cl3 N3 Zn'
_chemical_formula_sum            'C13 H12 Cl3 N3 Zn'
_chemical_formula_weight         382
_space_group_IT_number           2
_space_group_name_Hall           '-P 1'
_space_group_name_H-M_alt        'P -1'
_symmetry_cell_setting           triclinic
_symmetry_space_group_name_Hall  '-P 1'
_symmetry_space_group_name_H-M   'P -1'
_audit_update_record
;
2021-05-06 deposited with the CCDC.	2021-05-20 downloaded from the CCDC.
;
_cell_angle_alpha                104.8578(3)
_cell_angle_beta                 104.4355(1)
_cell_angle_gamma                85.7581(1)
_cell_formula_units_Z            2
_cell_length_a                   12.1724(1)
_cell_length_b                   9.6326(3)
_cell_length_c                   6.7045(1)
_cell_measurement_temperature    298
_cell_volume                     735.80(3)
_diffrn_ambient_temperature      298
_diffrn_measurement_device_type  'Panalytical Xpert PRO'
_diffrn_radiation_probe          x-ray
_diffrn_radiation_type           'Cu K\a'
_diffrn_radiation_wavelength     1.54180
_exptl_crystal_density_diffrn    1.724
_pd_char_colour                  yellow
_pd_proc_ls_prof_R_factor        0.0308
_pd_proc_ls_prof_wR_expected     0.0302
_pd_proc_ls_prof_wR_factor       0.0390
_refine_ls_goodness_of_fit_all   1.29098
_refine_ls_number_parameters     0.000000
_refine_ls_R_I_factor            0.0089
_refine_ls_shift/su_max          0
_cod_data_source_file            d1ce00612f2.cif
_cod_data_source_block           ZnCl3(HPF)
_cod_depositor_comments
'Adding full bibliography for 7242890--7242893.cif.'
_cod_original_cell_volume        735.81
_cod_database_code               7242893
loop_
_symmetry_equiv_pos_as_xyz
'x, y, z '
'-x, -y, -z '
loop_
_atom_site_label
_atom_site_type_symbol
_atom_site_symmetry_multiplicity
_atom_site_fract_x
_atom_site_fract_y
_atom_site_fract_z
_atom_site_occupancy
_atom_site_B_iso_or_equiv
N1 N 2 -0.9532(5) 0.8724(7) 0.7369(7) 1 1.5
N2 N 2 -1.2833(6) 1.1703(9) 0.702(2) 1 1.5
N3 N 2 -0.6369(6) 0.5498(9) 0.735(2) 1 1.5
C1 C 2 -1.0035(5) 1.0050(7) 0.7598(9) 1 1.5
C2 C 2 -0.9319(5) 1.1270(7) 0.8142(12) 1 1.5
C3 C 2 -0.8395(5) 0.8472(7) 0.7644(10) 1 1.5
C4 C 2 -0.6814(5) 0.6843(9) 0.7602(18) 1 1.5
C5 C 2 -1.1200(5) 1.0207(8) 0.7258(12) 1 1.5
H3 H 2 -1.1651(5) 0.9401(8) 0.6914(15) 1 1.8
C6 C 2 -0.7972(5) 0.7088(7) 0.7361(12) 1 1.5
H4 H 2 -0.8460(5) 0.6318(7) 0.7012(11) 1 1.8
C7 C 2 -1.1698(6) 1.1548(8) 0.7423(16) 1 1.5
C8 C 2 -0.7685(5) 0.9686(8) 0.8182(15) 1 1.5
C9 C 2 -0.6107(5) 0.8049(10) 0.810(2) 1 1.5
H5 H 2 -0.5333(5) 0.7894(11) 0.822(3) 1 1.8
C10 C 2 -0.8165(5) 1.1033(7) 0.8406(16) 1 1.5
H6 H 2 -0.7694(6) 1.1819(8) 0.875(2) 1 1.8
C11 C 2 -0.9878(6) 1.2638(7) 0.8288(15) 1 1.5
H7 H 2 -0.9448(7) 1.3460(7) 0.8617(19) 1 1.8
C12 C 2 -0.6503(5) 0.9391(9) 0.841(2) 1 1.5
H8 H 2 -0.5999(5) 1.0148(10) 0.878(3) 1 1.8
C13 C 2 -1.1006(6) 1.2763(7) 0.7965(16) 1 1.5
H9 H 2 -1.1342(7) 1.3671(8) 0.8098(19) 1 1.8
H12 H 2 -1.0042(5) 0.7861(7) 0.7005(9) 1 1.8
Zn1 Zn 2 -0.6828 0.3859 0.4634 1 1
Cl1 Cl 2 -0.8744 0.3903 0.4279 1 0.9
Cl2 Cl 2 -0.6417 0.4629 0.1953 1 0.9
Cl3 Cl 2 -0.6029 0.1808 0.5205 1 0.9
H10 H 2 -1.32 1.127 0.77 1 1.8
H11 H 2 -1.3 1.276 0.7 1 1.8
H13 H 2 -0.65 0.514 0.86 1 1.8
H14 H 2 -0.55 0.564 0.77 1 1.8
loop_
_pd_proc_point_id
_pd_meas_2theta_scan
_pd_proc_intensity_total
_pd_calc_intensity_total
_pd_proc_ls_weight
1 5.00507 790.74629 870.25000 0.00115
2 5.01807 791.24152 858.48993 0.00116
3 5.03107 791.72466 841.00000 0.00119
4 5.04407 792.19581 829.43994 0.00121
5 5.05707 792.65504 835.20996 0.00120
6 5.07007 793.10243 829.43994 0.00121
7 5.08307 793.53807 817.96002 0.00122
8 5.09607 793.96205 835.20996 0.00120
9 5.10907 794.37446 846.81000 0.00118
10 5.12207 794.77536 852.64001 0.00117
11 5.13507 795.16485 852.64001 0.00117
12 5.14807 795.54301 841.00000 0.00119
13 5.16107 795.90993 841.00000 0.00119
14 5.17407 796.26568 852.64001 0.00117
15 5.18707 796.61036 823.69006 0.00121
16 5.20007 796.94404 812.25000 0.00123
17 5.21307 797.26681 829.43994 0.00121
18 5.22607 797.57875 841.00000 0.00119
19 5.23907 797.87995 823.69006 0.00121
20 5.25207 798.17049 829.43994 0.00121
21 5.26507 798.45048 846.81000 0.00118
22 5.27807 798.71999 846.81000 0.00118
23 5.29107 798.97910 858.48993 0.00116
24 5.30407 799.22792 817.96002 0.00122
25 5.31707 799.46651 823.69006 0.00121
26 5.33007 799.69496 817.96002 0.00122
27 5.34307 799.91336 806.56000 0.00124
28 5.35607 800.12179 812.25000 0.00123
29 5.36907 800.32036 817.96002 0.00122
30 5.38207 800.50913 812.25000 0.00123
31 5.39507 800.68819 806.56000 0.00124
32 5.40807 800.85764 812.25000 0.00123
33 5.42107 801.01759 823.69006 0.00121
34 5.43407 801.16812 817.96002 0.00122
35 5.44707 801.30933 817.96002 0.00122
36 5.46007 801.44132 823.69006 0.00121
37 5.47307 801.56431 817.96002 0.00122
38 5.48607 801.67849 829.43994 0.00121
39 5.49907 801.78429 817.96002 0.00122
40 5.51207 801.88194 812.25000 0.00123
41 5.52507 801.97164 778.40997 0.00128
42 5.53807 802.04905 817.96002 0.00122
43 5.55107 802.11704 806.56000 0.00124
44 5.56407 802.17631 829.43994 0.00121
45 5.57707 802.22694 812.25000 0.00123
46 5.59007 802.26901 812.25000 0.00123
47 5.60307 802.30258 841.00000 0.00119
48 5.61607 802.32775 806.56000 0.00124
49 5.62907 802.34458 841.00000 0.00119
50 5.64207 802.35316 817.96002 0.00122
51 5.65507 802.35356 778.40997 0.00128
52 5.66807 802.34586 812.25000 0.00123
53 5.68107 802.33013 806.56000 0.00124
54 5.69407 802.30646 784.00000 0.00128
55 5.70707 802.27493 817.96002 0.00122
56 5.72007 802.23559 835.20996 0.00120
57 5.73307 802.18854 812.25000 0.00123
58 5.74607 802.13384 817.96002 0.00122
59 5.75907 802.07158 800.88995 0.00125
60 5.77207 802.00183 812.25000 0.00123
61 5.78507 801.92465 835.20996 0.00120
62 5.79807 801.84014 829.43994 0.00121
63 5.81107 801.74837 806.56000 0.00124
64 5.82407 801.64940 795.24005 0.00126
65 5.83707 801.54331 806.56000 0.00124
66 5.85007 801.43017 789.61005 0.00127
67 5.86307 801.31008 789.61005 0.00127
68 5.87607 801.18309 800.88995 0.00125
69 5.88907 801.04927 778.40997 0.00128
70 5.90207 800.90869 795.24005 0.00126
71 5.91507 800.76146 789.61005 0.00127
72 5.92807 800.60761 761.76001 0.00131
73 5.94107 800.44724 789.61005 0.00127
74 5.95407 800.28040 800.88995 0.00125
75 5.96707 800.10718 795.24005 0.00126
76 5.98007 799.92766 784.00000 0.00128
77 5.99307 799.74189 772.83997 0.00129
78 6.00607 799.54994 789.61005 0.00127
79 6.01907 799.35190 795.24005 0.00126
80 6.03207 799.14784 789.61005 0.00127
81 6.04507 798.93783 812.25000 0.00123
82 6.05807 798.72192 800.88995 0.00125
83 6.07107 798.50020 800.88995 0.00125
84 6.08407 798.27275 784.00000 0.00128
85 6.09707 798.03962 789.61005 0.00127
86 6.11007 797.80089 795.24005 0.00126
87 6.12307 797.55664 795.24005 0.00126
88 6.13607 797.30702 784.00000 0.00128
89 6.14907 797.05212 772.83997 0.00129
90 6.16207 796.79210 778.40997 0.00128
91 6.17507 796.52701 778.40997 0.00128
92 6.18807 796.25693 778.40997 0.00128
93 6.20107 795.98196 778.40997 0.00128
94 6.21407 795.70225 789.61005 0.00127
95 6.22707 795.41789 784.00000 0.00128
96 6.24007 795.12898 772.83997 0.00129
97 6.25307 794.83565 772.83997 0.00129
98 6.26607 794.53810 772.83997 0.00129
99 6.27907 794.23666 772.83997 0.00129
100 6.29207 793.93150 772.83997 0.00129
101 6.30507 793.62307 761.76001 0.00131
102 6.31807 793.31201 767.29004 0.00130
103 6.33107 793.00265 784.00000 0.00128
104 6.34407 792.69312 778.40997 0.00128
105 6.35707 792.37486 767.29004 0.00130
106 6.37007 792.03957 756.25000 0.00132
107 6.38307 791.70017 756.25000 0.00132
108 6.39607 791.35675 761.76001 0.00131
109 6.40907 791.00944 795.24005 0.00126
110 6.42207 790.65835 789.61005 0.00127
111 6.43507 790.30354 772.83997 0.00129
112 6.44807 789.94512 772.83997 0.00129
113 6.46107 789.58330 767.29004 0.00130
114 6.47407 789.21848 767.29004 0.00130
115 6.48707 788.85067 767.29004 0.00130
116 6.50007 788.47994 784.00000 0.00128
117 6.51307 788.10637 761.76001 0.00131
118 6.52607 787.73029 767.29004 0.00130
119 6.53907 787.35150 761.76001 0.00131
120 6.55207 786.97017 750.75995 0.00133
121 6.56507 786.58650 750.75995 0.00133
122 6.57807 786.20165 756.25000 0.00132
123 6.59107 785.81551 750.75995 0.00133
124 6.60407 785.42641 767.29004 0.00130
125 6.61707 785.03399 761.76001 0.00131
126 6.63007 784.64035 767.29004 0.00130
127 6.64307 784.24596 745.28998 0.00134
128 6.65607 783.85091 778.40997 0.00128
129 6.66907 783.45564 761.76001 0.00131
130 6.68207 783.06122 739.84003 0.00135
131 6.69507 782.66974 739.84003 0.00135
132 6.70807 782.28062 739.84003 0.00135
133 6.72107 781.89280 756.25000 0.00132
134 6.73407 781.50470 767.29004 0.00130
135 6.74707 781.09387 778.40997 0.00128
136 6.76007 780.64339 745.28998 0.00134
137 6.77307 780.16434 750.75995 0.00133
138 6.78607 779.66993 739.84003 0.00135
139 6.79907 779.19870 745.28998 0.00134
140 6.81207 778.74164 756.25000 0.00132
141 6.82507 778.29294 739.84003 0.00135
142 6.83807 777.84953 756.25000 0.00132
143 6.85107 777.41001 734.41003 0.00136
144 6.86407 776.97258 750.75995 0.00133
145 6.87707 776.53618 761.76001 0.00131
146 6.89007 776.10068 756.25000 0.00132
147 6.90307 775.66639 750.75995 0.00133
148 6.91607 775.23359 723.60999 0.00138
149 6.92907 774.80192 767.29004 0.00130
150 6.94207 774.37267 745.28998 0.00134
151 6.95507 773.94768 756.25000 0.00132
152 6.96807 773.52709 761.76001 0.00131
153 6.98107 773.10990 750.75995 0.00133
154 6.99407 772.69672 734.41003 0.00136
155 7.00707 772.28818 750.75995 0.00133
156 7.02007 771.88823 734.41003 0.00136
157 7.03307 771.49676 745.28998 0.00134
158 7.04607 771.11481 761.76001 0.00131
159 7.05907 770.74388 745.28998 0.00134
160 7.07207 770.38990 756.25000 0.00132
161 7.08507 770.05334 750.75995 0.00133
162 7.09807 769.73699 729.00000 0.00137
163 7.11107 769.44411 750.75995 0.00133
164 7.12407 769.18157 756.25000 0.00132
165 7.13707 768.97302 767.29004 0.00130
166 7.15007 768.82358 734.41003 0.00136
167 7.16307 768.75228 739.84003 0.00135
168 7.17607 768.78466 756.25000 0.00132
169 7.18907 769.06402 756.25000 0.00132
170 7.20207 769.62101 761.76001 0.00131
171 7.21507 770.49391 745.28998 0.00134
172 7.22807 771.70639 756.25000 0.00132
173 7.24107 773.33792 767.29004 0.00130
174 7.25407 775.25335 750.75995 0.00133
175 7.26707 777.44168 734.41003 0.00136
176 7.28007 779.90740 756.25000 0.00132
177 7.29307 782.75089 756.25000 0.00132
178 7.30607 786.01552 734.41003 0.00136
179 7.31907 789.69250 767.29004 0.00130
180 7.33207 793.83548 778.40997 0.00128
181 7.34507 798.60189 772.83997 0.00129
182 7.35807 804.28520 778.40997 0.00128
183 7.37107 810.87442 778.40997 0.00128
184 7.38407 818.54665 800.88995 0.00125
185 7.39707 827.55246 795.24005 0.00126
186 7.41007 839.10153 795.24005 0.00126
187 7.42307 853.09332 812.25000 0.00123
188 7.43607 869.65442 852.64001 0.00117
189 7.44907 888.62316 870.25000 0.00115
190 7.46207 906.56987 888.03998 0.00113
191 7.47507 911.20635 894.00995 0.00112
192 7.48807 898.39025 870.25000 0.00115
193 7.50107 868.08018 835.20996 0.00120
194 7.51407 831.96122 795.24005 0.00126
195 7.52707 805.85529 761.76001 0.00131
196 7.54007 787.69691 767.29004 0.00130
197 7.55307 776.15782 772.83997 0.00129
198 7.56607 769.06738 745.28998 0.00134
199 7.57907 764.39204 729.00000 0.00137
200 7.59207 760.82400 739.84003 0.00135
201 7.60507 758.06016 745.28998 0.00134
202 7.61807 755.87282 729.00000 0.00137
203 7.63107 754.16141 729.00000 0.00137
204 7.64407 752.67328 734.41003 0.00136
205 7.65707 751.36711 723.60999 0.00138
206 7.67007 750.20527 723.60999 0.00138
207 7.68307 749.18462 718.23993 0.00139
208 7.69607 748.24362 723.60999 0.00138
209 7.70907 747.36670 729.00000 0.00137
210 7.72207 746.54480 723.60999 0.00138
211 7.73507 745.77600 734.41003 0.00136
212 7.74807 745.04569 739.84003 0.00135
213 7.76107 744.34308 739.84003 0.00135
214 7.77407 743.66487 712.89001 0.00140
215 7.78707 743.01048 707.56000 0.00141
216 7.80007 742.37765 723.60999 0.00138
217 7.81307 741.75927 723.60999 0.00138
218 7.82607 741.15399 723.60999 0.00138
219 7.83907 740.56085 712.89001 0.00140
220 7.85207 739.98093 718.23993 0.00139
221 7.86507 739.40899 723.60999 0.00138
222 7.87807 738.84451 723.60999 0.00138
223 7.89107 738.28707 712.89001 0.00140
224 7.90407 737.74141 707.56000 0.00141
225 7.91707 737.20118 696.95996 0.00143
226 7.93007 736.66594 691.68994 0.00145
227 7.94307 736.13595 702.25000 0.00142
228 7.95607 735.61498 723.60999 0.00138
229 7.96907 735.09893 718.23993 0.00139
230 7.98207 734.58712 707.56000 0.00141
231 7.99507 734.07938 696.95996 0.00143
232 8.00807 733.57585 729.00000 0.00137
233 8.02107 733.07650 734.41003 0.00136
234 8.03407 732.58067 707.56000 0.00141
235 8.04707 732.08832 707.56000 0.00141
236 8.06007 731.59937 691.68994 0.00145
237 8.07307 731.11416 718.23993 0.00139
238 8.08607 730.63207 723.60999 0.00138
239 8.09907 730.15318 723.60999 0.00138
240 8.11207 729.67732 734.41003 0.00136
241 8.12507 729.20483 761.76001 0.00131
242 8.13807 728.73532 723.60999 0.00138
243 8.15107 728.26888 718.23993 0.00139
244 8.16407 727.80547 712.89001 0.00140
245 8.17707 727.34536 691.68994 0.00145
246 8.19007 726.88864 707.56000 0.00141
247 8.20307 726.43583 712.89001 0.00140
248 8.21607 725.98717 702.25000 0.00142
249 8.22907 725.54264 723.60999 0.00138
250 8.24207 725.10246 702.25000 0.00142
251 8.25507 724.66697 723.60999 0.00138
252 8.26807 724.23738 729.00000 0.00137
253 8.28107 723.81382 729.00000 0.00137
254 8.29407 723.39757 712.89001 0.00140
255 8.30707 722.99085 707.56000 0.00141
256 8.32007 722.60032 723.60999 0.00138
257 8.33307 722.23328 734.41003 0.00136
258 8.34607 721.89100 707.56000 0.00141
259 8.35907 721.56714 723.60999 0.00138
260 8.37207 721.21110 696.95996 0.00143
261 8.38507 720.85828 712.89001 0.00140
262 8.39807 720.51541 739.84003 0.00135
263 8.41107 720.18843 718.23993 0.00139
264 8.42407 719.88844 712.89001 0.00140
265 8.43707 719.62880 702.25000 0.00142
266 8.45007 719.41179 723.60999 0.00138
267 8.46307 719.23979 702.25000 0.00142
268 8.47607 718.95468 734.41003 0.00136
269 8.48907 718.69009 718.23993 0.00139
270 8.50207 718.44828 723.60999 0.00138
271 8.51507 718.22816 729.00000 0.00137
272 8.52807 718.02783 734.41003 0.00136
273 8.54107 717.79874 734.41003 0.00136
274 8.55407 717.46128 707.56000 0.00141
275 8.56707 716.99286 707.56000 0.00141
276 8.58007 716.38401 718.23993 0.00139
277 8.59307 715.77314 723.60999 0.00138
278 8.60607 715.24264 723.60999 0.00138
279 8.61907 714.77547 729.00000 0.00137
280 8.63207 714.35936 734.41003 0.00136
281 8.64507 713.98307 718.23993 0.00139
282 8.65807 713.62904 723.60999 0.00138
283 8.67107 713.29022 718.23993 0.00139
284 8.68407 712.96414 712.89001 0.00140
285 8.69707 712.64990 718.23993 0.00139
286 8.71007 712.34627 712.89001 0.00140
287 8.72307 712.05064 702.25000 0.00142
288 8.73607 711.76213 712.89001 0.00140
289 8.74907 711.47975 712.89001 0.00140
290 8.76207 711.20536 712.89001 0.00140
291 8.77507 710.94905 723.60999 0.00138
292 8.78807 710.70649 718.23993 0.00139
293 8.80107 710.47266 696.95996 0.00143
294 8.81407 710.25078 712.89001 0.00140
295 8.82707 710.03960 734.41003 0.00136
296 8.84007 709.83930 707.56000 0.00141
297 8.85307 709.65044 696.95996 0.00143
298 8.86607 709.47647 707.56000 0.00141
299 8.87907 709.31778 702.25000 0.00142
300 8.89207 709.17367 707.56000 0.00141
301 8.90507 709.04506 734.41003 0.00136
302 8.91807 708.93545 723.60999 0.00138
303 8.93107 708.84895 712.89001 0.00140
304 8.94407 708.78332 712.89001 0.00140
305 8.95707 708.74023 712.89001 0.00140
306 8.97007 708.72281 712.89001 0.00140
307 8.98307 708.74417 707.56000 0.00141
308 8.99607 708.80119 712.89001 0.00140
309 9.00907 708.89794 729.00000 0.00137
310 9.02207 709.03754 718.23993 0.00139
311 9.03507 709.22218 707.56000 0.00141
312 9.04807 709.44550 707.56000 0.00141
313 9.06107 709.71830 718.23993 0.00139
314 9.07407 710.05066 729.00000 0.00137
315 9.08707 710.47090 745.28998 0.00134
316 9.10007 710.98983 750.75995 0.00133
317 9.11307 711.60883 745.28998 0.00134
318 9.12607 712.34161 739.84003 0.00135
319 9.13907 713.23049 718.23993 0.00139
320 9.15207 714.34124 723.60999 0.00138
321 9.16507 715.67623 739.84003 0.00135
322 9.17807 717.27935 750.75995 0.00133
323 9.19107 719.22148 761.76001 0.00131
324 9.20407 721.78040 750.75995 0.00133
325 9.21707 725.01936 745.28998 0.00134
326 9.23007 729.16037 734.41003 0.00136
327 9.24307 734.44729 761.76001 0.00131
328 9.25607 742.16792 750.75995 0.00133
329 9.26907 752.43043 772.83997 0.00129
330 9.28207 765.28558 795.24005 0.00126
331 9.29507 780.85975 817.96002 0.00122
332 9.30807 799.96263 789.61005 0.00127
333 9.32107 822.41182 846.81000 0.00118
334 9.33407 848.00178 870.25000 0.00115
335 9.34707 877.03824 864.35999 0.00116
336 9.36007 910.69509 924.15997 0.00108
337 9.37307 950.85969 954.81000 0.00105
338 9.38607 997.48803 992.25000 0.00101
339 9.39907 1051.70588 1043.28992 0.00096
340 9.41207 1115.35748 1128.95984 0.00089
341 9.42507 1194.71911 1232.00989 0.00081
342 9.43807 1284.24329 1346.89001 0.00074
343 9.45107 1374.96201 1451.60986 0.00069
344 9.46407 1455.37553 1513.21008 0.00066
345 9.47707 1460.58713 1451.60986 0.00069
346 9.49007 1381.45101 1332.25000 0.00075
347 9.50307 1254.05935 1225.00000 0.00082
348 9.51607 1106.35469 1056.25000 0.00095
349 9.52907 983.98884 948.63995 0.00105
350 9.54207 901.53229 894.00995 0.00112
351 9.55507 844.38521 852.64001 0.00117
352 9.56807 806.24958 829.43994 0.00121
353 9.58107 781.51806 812.25000 0.00123
354 9.59407 764.67624 789.61005 0.00127
355 9.60707 751.80267 767.29004 0.00130
356 9.62007 741.92379 734.41003 0.00136
357 9.63307 734.31659 772.83997 0.00129
358 9.64607 728.63720 767.29004 0.00130
359 9.65907 723.91635 767.29004 0.00130
360 9.67207 719.98790 756.25000 0.00132
361 9.68507 716.70046 767.29004 0.00130
362 9.69807 714.05941 739.84003 0.00135
363 9.71107 711.78310 767.29004 0.00130
364 9.72407 709.80897 739.84003 0.00135
365 9.73707 708.09749 723.60999 0.00138
366 9.75007 706.64348 707.56000 0.00141
367 9.76307 705.37481 729.00000 0.00137
368 9.77607 704.24215 723.60999 0.00138
369 9.78907 703.22973 723.60999 0.00138
370 9.80207 702.33633 712.89001 0.00140
371 9.81507 701.55098 734.41003 0.00136
372 9.82807 700.83982 718.23993 0.00139
373 9.84107 700.19615 723.60999 0.00138
374 9.85407 699.61617 712.89001 0.00140
375 9.86707 699.10710 739.84003 0.00135
376 9.88007 698.64505 734.41003 0.00136
377 9.89307 698.22721 712.89001 0.00140
378 9.90607 697.85176 729.00000 0.00137
379 9.91907 697.52730 718.23993 0.00139
380 9.93207 697.26456 734.41003 0.00136
381 9.94507 697.06285 729.00000 0.00137
382 9.95807 696.88306 729.00000 0.00137
383 9.97107 696.63661 718.23993 0.00139
384 9.98407 696.40890 712.89001 0.00140
385 9.99707 696.19698 723.60999 0.00138
386 10.01007 696.00420 729.00000 0.00137
387 10.02307 695.84453 729.00000 0.00137
388 10.03607 695.70330 712.89001 0.00140
389 10.04907 695.57674 696.95996 0.00143
390 10.06207 695.46417 681.21002 0.00147
391 10.07507 695.36559 691.68994 0.00145
392 10.08807 695.28364 702.25000 0.00142
393 10.10107 695.21700 718.23993 0.00139
394 10.11407 695.16456 723.60999 0.00138
395 10.12707 695.12312 712.89001 0.00140
396 10.14007 695.08104 718.23993 0.00139
397 10.15307 695.04884 707.56000 0.00141
398 10.16607 695.02558 702.25000 0.00142
399 10.17907 695.01038 723.60999 0.00138
400 10.19207 695.00627 723.60999 0.00138
401 10.20507 695.00765 712.89001 0.00140
402 10.21807 695.02285 729.00000 0.00137
403 10.23107 695.04616 756.25000 0.00132
404 10.24407 695.07790 739.84003 0.00135
405 10.25707 695.11842 723.60999 0.00138
406 10.27007 695.16671 723.60999 0.00138
407 10.28307 695.22248 707.56000 0.00141
408 10.29607 695.28573 707.56000 0.00141
409 10.30907 695.35730 707.56000 0.00141
410 10.32207 695.43634 696.95996 0.00143
411 10.33507 695.52246 696.95996 0.00143
412 10.34807 695.61558 696.95996 0.00143
413 10.36107 695.71644 696.95996 0.00143
414 10.37407 695.82478 712.89001 0.00140
415 10.38707 695.93996 718.23993 0.00139
416 10.40007 696.06196 723.60999 0.00138
417 10.41307 696.19119 712.89001 0.00140
418 10.42607 696.32797 723.60999 0.00138
419 10.43907 696.47158 745.28998 0.00134
420 10.45207 696.62192 702.25000 0.00142
421 10.46507 696.77918 718.23993 0.00139
422 10.47807 696.94463 696.95996 0.00143
423 10.49107 697.11882 723.60999 0.00138
424 10.50407 697.30214 707.56000 0.00141
425 10.51707 697.49531 718.23993 0.00139
426 10.53007 697.70112 729.00000 0.00137
427 10.54307 697.91922 734.41003 0.00136
428 10.55607 698.15051 734.41003 0.00136
429 10.56907 698.39671 729.00000 0.00137
430 10.58207 698.66931 702.25000 0.00142
431 10.59507 698.98305 712.89001 0.00140
432 10.60807 699.33920 745.28998 0.00134
433 10.62107 699.72473 723.60999 0.00138
434 10.63407 700.04110 723.60999 0.00138
435 10.64707 700.39706 723.60999 0.00138
436 10.66007 700.75479 712.89001 0.00140
437 10.67307 701.12476 723.60999 0.00138
438 10.68607 701.54290 723.60999 0.00138
439 10.69907 702.02408 734.41003 0.00136
440 10.71207 702.53217 723.60999 0.00138
441 10.72507 703.05133 745.28998 0.00134
442 10.73807 703.62466 696.95996 0.00143
443 10.75107 704.29861 729.00000 0.00137
444 10.76407 705.07045 729.00000 0.00137
445 10.77707 705.88245 750.75995 0.00133
446 10.79007 706.72262 729.00000 0.00137
447 10.80307 707.68549 739.84003 0.00135
448 10.81607 708.76904 702.25000 0.00142
449 10.82907 709.90849 734.41003 0.00136
450 10.84207 711.03199 712.89001 0.00140
451 10.85507 711.99105 756.25000 0.00132
452 10.86807 712.52716 761.76001 0.00131
453 10.88107 712.90463 739.84003 0.00135
454 10.89407 713.29272 739.84003 0.00135
455 10.90707 713.91213 718.23993 0.00139
456 10.92007 714.93406 756.25000 0.00132
457 10.93307 716.17866 712.89001 0.00140
458 10.94607 717.54916 739.84003 0.00135
459 10.95907 718.92597 745.28998 0.00134
460 10.97207 719.65294 756.25000 0.00132
461 10.98507 719.50731 739.84003 0.00135
462 10.99807 718.67222 729.00000 0.00137
463 11.01107 717.37959 734.41003 0.00136
464 11.02407 716.44374 739.84003 0.00135
465 11.03707 715.91887 750.75995 0.00133
466 11.05007 715.71459 723.60999 0.00138
467 11.06307 715.76721 723.60999 0.00138
468 11.07607 716.03583 739.84003 0.00135
469 11.08907 716.44960 756.25000 0.00132
470 11.10207 716.99832 739.84003 0.00135
471 11.11507 717.60359 734.41003 0.00136
472 11.12807 718.18741 739.84003 0.00135
473 11.14107 718.81828 734.41003 0.00136
474 11.15407 719.48286 750.75995 0.00133
475 11.16707 720.17784 739.84003 0.00135
476 11.18007 720.90104 756.25000 0.00132
477 11.19307 721.63914 729.00000 0.00137
478 11.20607 722.39245 739.84003 0.00135
479 11.21907 723.19392 718.23993 0.00139
480 11.23207 724.10959 739.84003 0.00135
481 11.24507 725.06327 729.00000 0.00137
482 11.25807 726.05173 723.60999 0.00138
483 11.27107 727.07758 734.41003 0.00136
484 11.28407 728.14115 756.25000 0.00132
485 11.29707 729.24683 761.76001 0.00131
486 11.31007 730.38750 778.40997 0.00128
487 11.32307 731.56973 778.40997 0.00128
488 11.33607 732.79569 761.76001 0.00131
489 11.34907 734.07828 761.76001 0.00131
490 11.36207 735.42371 761.76001 0.00131
491 11.37507 736.82488 750.75995 0.00133
492 11.38807 738.28484 756.25000 0.00132
493 11.40107 739.81717 745.28998 0.00134
494 11.41407 741.43531 750.75995 0.00133
495 11.42707 743.13268 745.28998 0.00134
496 11.44007 744.91184 761.76001 0.00131
497 11.45307 746.78916 784.00000 0.00128
498 11.46607 748.79051 778.40997 0.00128
499 11.47907 750.92678 789.61005 0.00127
500 11.49207 753.19962 800.88995 0.00125
501 11.50507 755.61377 784.00000 0.00128
502 11.51807 758.16509 784.00000 0.00128
503 11.53107 760.84481 795.24005 0.00126
504 11.54407 763.68673 812.25000 0.00123
505 11.55707 766.71613 812.25000 0.00123
506 11.57007 769.98879 800.88995 0.00125
507 11.58307 773.54868 812.25000 0.00123
508 11.59607 777.38592 817.96002 0.00122
509 11.60907 781.53527 841.00000 0.00119
510 11.62207 786.13362 835.20996 0.00120
511 11.63507 791.10547 835.20996 0.00120
512 11.64807 796.44492 835.20996 0.00120
513 11.66107 802.17152 835.20996 0.00120
514 11.67407 808.48267 858.48993 0.00116
515 11.68707 815.45695 858.48993 0.00116
516 11.70007 823.22930 846.81000 0.00118
517 11.71307 831.82745 835.20996 0.00120
518 11.72607 841.46918 852.64001 0.00117
519 11.73907 852.40140 864.35999 0.00116
520 11.75207 865.05787 894.00995 0.00112
521 11.76507 879.48956 912.04004 0.00110
522 11.77807 896.17435 900.00000 0.00111
523 11.79107 915.63824 942.49005 0.00106
524 11.80407 939.71569 973.44006 0.00103
525 11.81707 968.73776 1024.00000 0.00098
526 11.83007 1004.25386 1030.40991 0.00097
527 11.84307 1048.10822 1049.76013 0.00095
528 11.85607 1106.44661 1115.56006 0.00090
529 11.86907 1180.43264 1197.15991 0.00084
530 11.88207 1270.79504 1253.16016 0.00080
531 11.89507 1380.59486 1361.61011 0.00073
532 11.90807 1515.31768 1482.25000 0.00067
533 11.92107 1678.12364 1640.25000 0.00061
534 11.93407 1869.18698 1806.25000 0.00055
535 11.94707 2098.16680 2025.00000 0.00049
536 11.96007 2373.82508 2323.23999 0.00043
537 11.97307 2709.21928 2672.89014 0.00037
538 11.98607 3089.57692 3124.81006 0.00032
539 11.99907 3506.99190 3588.01025 0.00028
540 12.01207 3927.38339 4006.88989 0.00025
541 12.02507 4179.07521 4212.01025 0.00024
542 12.03807 4281.33295 4212.01025 0.00024
543 12.05107 4304.63095 4096.00000 0.00024
544 12.06407 4311.92333 3956.41016 0.00025
545 12.07707 4389.01057 4096.00000 0.00024
546 12.09007 4608.82625 4422.25000 0.00023
547 12.10307 4983.81166 5012.64063 0.00020
548 12.11607 5483.52971 5640.00977 0.00018
549 12.12907 5983.41785 6416.00977 0.00016
550 12.14207 6347.24341 6922.23926 0.00014
551 12.15507 6358.61105 6674.88965 0.00015
552 12.16807 5796.02565 5959.83936 0.00017
553 12.18107 5017.13745 4858.08936 0.00021
554 12.19407 4137.60844 3856.40991 0.00026
555 12.20707 3277.37886 2948.48999 0.00034
556 12.22007 2650.17903 2332.88989 0.00043
557 12.23307 2184.06553 1980.25000 0.00050
558 12.24607 1848.85187 1713.96008 0.00058
559 12.25907 1611.95398 1552.36011 0.00064
560 12.27207 1456.27277 1391.28992 0.00072
561 12.28507 1336.28493 1354.23999 0.00074
562 12.29807 1242.98268 1260.25000 0.00079
563 12.31107 1169.80047 1149.21008 0.00087
564 12.32407 1114.59064 1142.43994 0.00088
565 12.33707 1069.73217 1075.83997 0.00093
566 12.35007 1032.34899 1069.29004 0.00094
567 12.36307 1001.08973 1043.28992 0.00096
568 12.37607 975.57578 992.25000 0.00101
569 12.38907 954.17903 954.81000 0.00105
570 12.40207 935.63000 954.81000 0.00105
571 12.41507 919.56594 948.63995 0.00105
572 12.42807 905.83077 948.63995 0.00105
573 12.44107 894.22931 906.01001 0.00110
574 12.45407 883.99260 894.00995 0.00112
575 12.46707 874.89701 894.00995 0.00112
576 12.48007 866.90719 876.16003 0.00114
577 12.49307 860.03299 870.25000 0.00115
578 12.50607 853.88023 864.35999 0.00116
579 12.51907 848.41919 864.35999 0.00116
580 12.53207 843.57911 846.81000 0.00118
581 12.54507 839.45089 852.64001 0.00117
582 12.55807 835.79779 846.81000 0.00118
583 12.57107 832.66397 852.64001 0.00117
584 12.58407 829.98649 812.25000 0.00123
585 12.59707 827.79117 823.69006 0.00121
586 12.61007 825.96002 858.48993 0.00116
587 12.62307 824.48105 846.81000 0.00118
588 12.63607 823.32128 817.96002 0.00122
589 12.64907 822.44931 823.69006 0.00121
590 12.66207 821.60469 817.96002 0.00122
591 12.67507 820.58448 817.96002 0.00122
592 12.68807 818.80320 823.69006 0.00121
593 12.70107 816.59485 841.00000 0.00119
594 12.71407 814.23358 829.43994 0.00121
595 12.72707 811.96366 823.69006 0.00121
596 12.74007 810.13213 812.25000 0.00123
597 12.75307 808.69373 806.56000 0.00124
598 12.76607 807.53892 812.25000 0.00123
599 12.77907 806.70192 806.56000 0.00124
600 12.79207 806.13421 800.88995 0.00125
601 12.80507 805.75901 795.24005 0.00126
602 12.81807 805.54334 784.00000 0.00128
603 12.83107 805.41301 812.25000 0.00123
604 12.84407 805.33099 829.43994 0.00121
605 12.85707 805.31873 817.96002 0.00122
606 12.87007 805.34821 800.88995 0.00125
607 12.88307 805.32492 812.25000 0.00123
608 12.89607 805.27667 817.96002 0.00122
609 12.90907 805.23136 806.56000 0.00124
610 12.92207 805.21493 812.25000 0.00123
611 12.93507 805.27403 806.56000 0.00124
612 12.94807 805.40572 829.43994 0.00121
613 12.96107 805.69232 835.20996 0.00120
614 12.97407 806.04343 841.00000 0.00119
615 12.98707 806.45145 829.43994 0.00121
616 13.00007 806.90262 835.20996 0.00120
617 13.01307 807.39737 841.00000 0.00119
618 13.02607 807.93895 817.96002 0.00122
619 13.03907 808.52446 800.88995 0.00125
620 13.05207 809.13571 817.96002 0.00122
621 13.06507 809.77757 806.56000 0.00124
622 13.07807 810.45970 806.56000 0.00124
623 13.09107 811.17907 784.00000 0.00128
624 13.10407 811.93204 778.40997 0.00128
625 13.11707 812.71815 789.61005 0.00127
626 13.13007 813.54420 829.43994 0.00121
627 13.14307 814.40978 812.25000 0.00123
628 13.15607 815.32488 789.61005 0.00127
629 13.16907 816.28945 806.56000 0.00124
630 13.18207 817.31791 823.69006 0.00121
631 13.19507 818.41828 800.88995 0.00125
632 13.20807 819.58829 829.43994 0.00121
633 13.22107 820.71911 817.96002 0.00122
634 13.23407 821.89963 823.69006 0.00121
635 13.24707 823.14336 812.25000 0.00123
636 13.26007 824.44686 823.69006 0.00121
637 13.27307 825.82780 812.25000 0.00123
638 13.28607 827.30644 829.43994 0.00121
639 13.29907 828.90390 841.00000 0.00119
640 13.31207 830.60137 823.69006 0.00121
641 13.32507 832.40103 829.43994 0.00121
642 13.33807 834.35920 817.96002 0.00122
643 13.35107 836.48687 806.56000 0.00124
644 13.36407 838.78495 817.96002 0.00122
645 13.37707 841.26557 864.35999 0.00116
646 13.39007 843.97245 852.64001 0.00117
647 13.40307 846.85490 835.20996 0.00120
648 13.41607 849.84273 835.20996 0.00120
649 13.42907 852.83373 858.48993 0.00116
650 13.44207 855.41210 858.48993 0.00116
651 13.45507 857.51200 876.16003 0.00114
652 13.46807 859.41558 841.00000 0.00119
653 13.48107 861.19520 864.35999 0.00116
654 13.49407 863.23366 876.16003 0.00114
655 13.50707 865.57834 876.16003 0.00114
656 13.52007 868.26895 864.35999 0.00116
657 13.53307 871.16557 876.16003 0.00114
658 13.54607 874.14256 870.25000 0.00115
659 13.55907 876.93314 864.35999 0.00116
660 13.57207 879.86368 912.04004 0.00110
661 13.58507 883.03389 888.03998 0.00113
662 13.59807 886.55984 876.16003 0.00114
663 13.61107 890.58275 912.04004 0.00110
664 13.62407 895.14873 906.01001 0.00110
665 13.63707 900.29639 906.01001 0.00110
666 13.65007 905.98319 912.04004 0.00110
667 13.66307 912.21515 930.25000 0.00107
668 13.67607 919.02368 912.04004 0.00110
669 13.68907 926.68848 930.25000 0.00107
670 13.70207 935.12614 967.21002 0.00103
671 13.71507 944.43496 998.56000 0.00100
672 13.72807 954.84397 992.25000 0.00101
673 13.74107 967.00144 998.56000 0.00100
674 13.75407 980.70957 1043.28992 0.00096
675 13.76707 996.21462 1036.84009 0.00096
676 13.78007 1013.78414 1062.75989 0.00094
677 13.79307 1034.92469 1069.29004 0.00094
678 13.80607 1059.91101 1115.56006 0.00090
679 13.81907 1089.31338 1169.64001 0.00085
680 13.83207 1124.08404 1218.01013 0.00082
681 13.84507 1167.56562 1246.08997 0.00080
682 13.85807 1223.36277 1303.20984 0.00077
683 13.87107 1293.39443 1376.40991 0.00073
684 13.88407 1381.32596 1444.00000 0.00069
685 13.89707 1495.67867 1528.80994 0.00065
686 13.91007 1652.74702 1656.49011 0.00060
687 13.92307 1849.66521 1849.00000 0.00054
688 13.93607 2090.64605 2061.16016 0.00049
689 13.94907 2381.01392 2342.56006 0.00043
690 13.96207 2750.55153 2672.89014 0.00037
691 13.97507 3182.49665 3091.35986 0.00032
692 13.98807 3677.10738 3588.01025 0.00028
693 14.00107 4231.81182 4238.00977 0.00024
694 14.01407 4829.88692 4956.16016 0.00020
695 14.02707 5339.18943 5490.80957 0.00018
696 14.04007 5642.51131 5806.43945 0.00017
697 14.05307 5659.35290 5715.35986 0.00017
698 14.06607 5258.93877 5256.25000 0.00019
699 14.07907 4653.57420 4610.41016 0.00022
700 14.09207 3983.16001 3906.25000 0.00026
701 14.10507 3319.07975 3214.89014 0.00031
702 14.11807 2754.86044 2662.55981 0.00038
703 14.13107 2365.81733 2304.00000 0.00043
704 14.14407 2084.56616 2052.08984 0.00049
705 14.15707 1892.24999 1900.95984 0.00053
706 14.17007 1771.49005 1831.83997 0.00055
707 14.18307 1711.06623 1755.61011 0.00057
708 14.19607 1681.42625 1730.55981 0.00058
709 14.20907 1678.15795 1772.40991 0.00056
710 14.22207 1694.76593 1780.84009 0.00056
711 14.23507 1715.63731 1780.84009 0.00056
712 14.24807 1723.09987 1797.76013 0.00056
713 14.26107 1703.58096 1772.40991 0.00056
714 14.27407 1631.31294 1681.00000 0.00059
715 14.28707 1542.82503 1600.00000 0.00063
716 14.30007 1446.45097 1521.00000 0.00066
717 14.31307 1349.56405 1406.25000 0.00071
718 14.32607 1268.38621 1303.20984 0.00077
719 14.33907 1205.85604 1267.35986 0.00079
720 14.35207 1158.21417 1211.03992 0.00083
721 14.36507 1122.86841 1169.64001 0.00085
722 14.37807 1098.30445 1128.95984 0.00089
723 14.39107 1079.87045 1095.60986 0.00091
724 14.40407 1065.90119 1089.00000 0.00092
725 14.41707 1055.22580 1108.88989 0.00090
726 14.43007 1047.50468 1075.83997 0.00093
727 14.44307 1041.97909 1069.29004 0.00094
728 14.45607 1038.30411 1049.76013 0.00095
729 14.46907 1036.12597 1030.40991 0.00097
730 14.48207 1035.37100 1043.28992 0.00096
731 14.49507 1035.91196 1043.28992 0.00096
732 14.50807 1037.66375 1049.76013 0.00095
733 14.52107 1040.58714 1024.00000 0.00098
734 14.53407 1044.64310 1056.25000 0.00095
735 14.54707 1049.89385 1030.40991 0.00097
736 14.56007 1056.53471 1062.75989 0.00094
737 14.57307 1064.73607 1069.29004 0.00094
738 14.58607 1074.44448 1075.83997 0.00093
739 14.59907 1085.84581 1122.25000 0.00089
740 14.61207 1099.21529 1149.21008 0.00087
741 14.62507 1115.44397 1183.36011 0.00085
742 14.63807 1134.40698 1218.01013 0.00082
743 14.65107 1156.64029 1225.00000 0.00082
744 14.66407 1182.82449 1246.08997 0.00080
745 14.67707 1215.63667 1274.49011 0.00078
746 14.69007 1255.43512 1346.89001 0.00074
747 14.70307 1303.67944 1413.75989 0.00071
748 14.71607 1362.59056 1466.88989 0.00068
749 14.72907 1439.00927 1568.15991 0.00064
750 14.74207 1540.01149 1689.20984 0.00059
751 14.75507 1668.77141 1797.76013 0.00056
752 14.76807 1831.22505 1971.36011 0.00051
753 14.78107 2038.79862 2134.44019 0.00047
754 14.79407 2310.01679 2480.04004 0.00040
755 14.80707 2637.59020 2704.00000 0.00037
756 14.82007 3026.65438 3069.16016 0.00033
757 14.83307 3483.76624 3576.03979 0.00028
758 14.84607 4030.89970 4108.80957 0.00024
759 14.85907 4615.67342 4664.89063 0.00021
760 14.87207 5180.56789 5184.00000 0.00019
761 14.88507 5670.11961 5580.08936 0.00018
762 14.89807 5876.45281 5730.48975 0.00017
763 14.91107 5776.23009 5670.09033 0.00018
764 14.92407 5514.80621 5358.23975 0.00019
765 14.93707 5176.04938 4984.35986 0.00020
766 14.95007 4820.01049 4802.49023 0.00021
767 14.96307 4550.85305 4610.41016 0.00022
768 14.97607 4385.36596 4624.00000 0.00022
769 14.98907 4268.87329 4596.84033 0.00022
770 15.00207 4095.66134 4448.88965 0.00022
771 15.01507 3863.48499 4134.49023 0.00024
772 15.02807 3537.59673 3672.35986 0.00027
773 15.04107 3147.88995 3237.61011 0.00031
774 15.05407 2750.52436 2745.76025 0.00036
775 15.06707 2391.61621 2352.25000 0.00043
776 15.08007 2082.62516 1980.25000 0.00050
777 15.09307 1840.53927 1764.00000 0.00057
778 15.10607 1672.16175 1616.04004 0.00062
779 15.11907 1542.00978 1466.88989 0.00068
780 15.13207 1442.16702 1391.28992 0.00072
781 15.14507 1364.56437 1354.23999 0.00074
782 15.15807 1306.47234 1267.35986 0.00079
783 15.17107 1259.09303 1211.03992 0.00083
784 15.18407 1220.38721 1176.48999 0.00085
785 15.19707 1188.08128 1135.69006 0.00088
786 15.21007 1161.67259 1122.25000 0.00089
787 15.22307 1139.46559 1102.23999 0.00091
788 15.23607 1120.52162 1089.00000 0.00092
789 15.24907 1104.16149 1075.83997 0.00093
790 15.26207 1090.08522 1030.40991 0.00097
791 15.27507 1077.95641 1004.89008 0.00100
792 15.28807 1067.28652 998.56000 0.00100
793 15.30107 1057.89618 985.95996 0.00101
794 15.31407 1049.56180 992.25000 0.00101
795 15.32707 1042.37063 998.56000 0.00100
796 15.34007 1035.93865 998.56000 0.00100
797 15.35307 1030.23607 1004.89008 0.00100
798 15.36607 1025.07527 998.56000 0.00100
799 15.37907 1020.52020 967.21002 0.00103
800 15.39207 1016.40875 942.49005 0.00106
801 15.40507 1012.73310 948.63995 0.00105
802 15.41807 1009.40997 948.63995 0.00105
803 15.43107 1006.43640 942.49005 0.00106
804 15.44407 1003.75552 948.63995 0.00105
805 15.45707 1001.33600 948.63995 0.00105
806 15.47007 999.14815 942.49005 0.00106
807 15.48307 997.15715 936.36005 0.00107
808 15.49607 995.34708 930.25000 0.00107
809 15.50907 993.67775 912.04004 0.00110
810 15.52207 992.27833 906.01001 0.00110
811 15.53507 991.01914 936.36005 0.00107
812 15.54807 989.90182 948.63995 0.00105
813 15.56107 988.88980 924.15997 0.00108
814 15.57407 987.98449 930.25000 0.00107
815 15.58707 987.14887 924.15997 0.00108
816 15.60007 986.38000 918.08997 0.00109
817 15.61307 985.67996 924.15997 0.00108
818 15.62607 985.17503 918.08997 0.00109
819 15.63907 984.77995 924.15997 0.00108
820 15.65207 984.46070 924.15997 0.00108
821 15.66507 984.20858 912.04004 0.00110
822 15.67807 984.01980 906.01001 0.00110
823 15.69107 983.89234 900.00000 0.00111
824 15.70407 983.83503 918.08997 0.00109
825 15.71707 983.81706 924.15997 0.00108
826 15.73007 983.78692 906.01001 0.00110
827 15.74307 983.90325 900.00000 0.00111
828 15.75607 984.06443 894.00995 0.00112
829 15.76907 984.28472 906.01001 0.00110
830 15.78207 984.55834 894.00995 0.00112
831 15.79507 984.88610 924.15997 0.00108
832 15.80807 985.12472 900.00000 0.00111
833 15.82107 985.41194 924.15997 0.00108
834 15.83407 985.74087 918.08997 0.00109
835 15.84707 986.09871 906.01001 0.00110
836 15.86007 986.62135 900.00000 0.00111
837 15.87307 987.06616 906.01001 0.00110
838 15.88607 987.77347 906.01001 0.00110
839 15.89907 988.56458 924.15997 0.00108
840 15.91207 989.45675 930.25000 0.00107
841 15.92507 990.43379 924.15997 0.00108
842 15.93807 991.44809 930.25000 0.00107
843 15.95107 992.45341 918.08997 0.00109
844 15.96407 993.35047 912.04004 0.00110
845 15.97707 993.91268 900.00000 0.00111
846 15.99007 994.17962 912.04004 0.00110
847 16.00307 994.20208 918.08997 0.00109
848 16.01607 994.07032 906.01001 0.00110
849 16.02907 994.01905 918.08997 0.00109
850 16.04207 994.08947 906.01001 0.00110
851 16.05507 994.28067 876.16003 0.00114
852 16.06807 994.59071 954.81000 0.00105
853 16.08107 995.01399 900.00000 0.00111
854 16.09407 995.49979 924.15997 0.00108
855 16.10707 996.04182 948.63995 0.00105
856 16.12007 996.63258 936.36005 0.00107
857 16.13307 997.27381 954.81000 0.00105
858 16.14607 997.94928 894.00995 0.00112
859 16.15907 998.65578 918.08997 0.00109
860 16.17207 999.38899 930.25000 0.00107
861 16.18507 1000.14850 924.15997 0.00108
862 16.19807 1000.92465 906.01001 0.00110
863 16.21107 1001.68764 924.15997 0.00108
864 16.22407 1002.41832 918.08997 0.00109
865 16.23707 1003.11086 936.36005 0.00107
866 16.25007 1003.73731 918.08997 0.00109
867 16.26307 1004.33285 912.04004 0.00110
868 16.27607 1004.93817 936.36005 0.00107
869 16.28907 1005.61855 942.49005 0.00106
870 16.30207 1006.33565 942.49005 0.00106
871 16.31507 1007.08570 930.25000 0.00107
872 16.32807 1007.86101 924.15997 0.00108
873 16.34107 1008.66013 918.08997 0.00109
874 16.35407 1009.48504 924.15997 0.00108
875 16.36707 1010.32823 942.49005 0.00106
876 16.38007 1011.18382 930.25000 0.00107
877 16.39307 1012.04603 936.36005 0.00107
878 16.40607 1012.90281 961.00000 0.00104
879 16.41907 1013.73713 967.21002 0.00103
880 16.43207 1014.56095 967.21002 0.00103
881 16.44507 1015.39100 942.49005 0.00106
882 16.45807 1016.24459 924.15997 0.00108
883 16.47107 1017.14750 936.36005 0.00107
884 16.48407 1018.02447 954.81000 0.00105
885 16.49707 1018.93839 948.63995 0.00105
886 16.51007 1019.82881 954.81000 0.00105
887 16.52307 1020.72793 942.49005 0.00106
888 16.53607 1021.65479 942.49005 0.00106
889 16.54907 1022.60937 954.81000 0.00105
890 16.56207 1023.58978 954.81000 0.00105
891 16.57507 1024.59922 942.49005 0.00106
892 16.58807 1025.65062 942.49005 0.00106
893 16.60107 1026.75970 942.49005 0.00106
894 16.61407 1027.93811 979.68994 0.00102
895 16.62707 1029.20005 998.56000 0.00100
896 16.64007 1030.46961 998.56000 0.00100
897 16.65307 1031.84089 992.25000 0.00101
898 16.66607 1033.32191 979.68994 0.00102
899 16.67907 1034.83894 985.95996 0.00101
900 16.69207 1036.43147 985.95996 0.00101
901 16.70507 1038.10581 961.00000 0.00104
902 16.71807 1039.76757 942.49005 0.00106
903 16.73107 1041.33468 973.44006 0.00103
904 16.74407 1042.72355 985.95996 0.00101
905 16.75707 1043.66514 973.44006 0.00103
906 16.77007 1044.26255 967.21002 0.00103
907 16.78307 1044.68317 961.00000 0.00104
908 16.79607 1045.05238 979.68994 0.00102
909 16.80907 1045.54378 985.95996 0.00101
910 16.82207 1046.21850 973.44006 0.00103
911 16.83507 1047.00311 973.44006 0.00103
912 16.84807 1047.89284 967.21002 0.00103
913 16.86107 1048.89000 961.00000 0.00104
914 16.87407 1049.98135 973.44006 0.00103
915 16.88707 1051.15318 961.00000 0.00104
916 16.90007 1052.39629 967.21002 0.00103
917 16.91307 1053.69090 961.00000 0.00104
918 16.92607 1055.02889 979.68994 0.00102
919 16.93907 1056.43067 992.25000 0.00101
920 16.95207 1057.88738 985.95996 0.00101
921 16.96507 1059.39995 985.95996 0.00101
922 16.97807 1060.95925 973.44006 0.00103
923 16.99107 1062.59196 998.56000 0.00100
924 17.00407 1064.28197 992.25000 0.00101
925 17.01707 1065.97935 979.68994 0.00102
926 17.03007 1067.65210 1004.89008 0.00100
927 17.04307 1069.31504 1004.89008 0.00100
928 17.05607 1071.00627 992.25000 0.00101
929 17.06907 1072.77826 1004.89008 0.00100
930 17.08207 1074.75746 1011.23993 0.00099
931 17.09507 1076.96338 979.68994 0.00102
932 17.10807 1079.31353 992.25000 0.00101
933 17.12107 1081.81609 1004.89008 0.00100
934 17.13407 1084.47227 1011.23993 0.00099
935 17.14707 1087.30746 1004.89008 0.00100
936 17.16007 1090.28265 1017.60999 0.00098
937 17.17307 1093.37086 1024.00000 0.00098
938 17.18607 1096.55520 1024.00000 0.00098
939 17.19907 1099.72050 1030.40991 0.00097
940 17.21207 1102.98662 1075.83997 0.00093
941 17.22507 1106.44872 1069.29004 0.00094
942 17.23807 1110.22362 1089.00000 0.00092
943 17.25107 1114.41683 1017.60999 0.00098
944 17.26407 1119.19279 1075.83997 0.00093
945 17.27707 1124.56897 1049.76013 0.00095
946 17.29007 1130.83875 1089.00000 0.00092
947 17.30307 1138.06732 1095.60986 0.00091
948 17.31607 1146.54478 1095.60986 0.00091
949 17.32907 1156.39137 1115.56006 0.00090
950 17.34207 1168.49123 1135.69006 0.00088
951 17.35507 1182.94819 1149.21008 0.00087
952 17.36807 1200.19198 1162.80994 0.00086
953 17.38107 1220.27472 1190.25000 0.00084
954 17.39407 1244.04515 1232.00989 0.00081
955 17.40707 1271.16655 1253.16016 0.00080
956 17.42007 1300.80309 1288.81006 0.00078
957 17.43307 1331.48585 1332.25000 0.00075
958 17.44607 1360.50604 1391.28992 0.00072
959 17.45907 1381.49557 1413.75989 0.00071
960 17.47207 1397.35563 1398.76013 0.00071
961 17.48507 1409.74418 1459.24011 0.00069
962 17.49807 1421.30200 1428.83997 0.00070
963 17.51107 1434.99946 1436.41016 0.00070
964 17.52407 1457.86765 1482.25000 0.00067
965 17.53707 1493.67971 1489.95984 0.00067
966 17.55007 1545.37117 1521.00000 0.00066
967 17.56307 1617.41308 1576.09009 0.00063
968 17.57607 1718.65250 1656.49011 0.00060
969 17.58907 1855.23974 1780.84009 0.00056
970 17.60207 2025.15926 2007.03992 0.00050
971 17.61507 2230.48459 2180.89014 0.00046
972 17.62807 2480.38723 2410.80981 0.00041
973 17.64107 2772.12993 2756.25000 0.00036
974 17.65407 3079.23795 3113.63989 0.00032
975 17.66707 3378.41766 3516.48999 0.00028
976 17.68007 3623.91478 3844.00000 0.00026
977 17.69307 3705.25401 3956.41016 0.00025
978 17.70607 3648.09945 3844.00000 0.00026
979 17.71907 3473.51628 3588.01025 0.00028
980 17.73207 3212.49302 3271.84009 0.00031
981 17.74507 2904.68675 2905.21021 0.00034
982 17.75807 2595.92865 2550.25000 0.00039
983 17.77107 2306.88609 2180.89014 0.00046
984 17.78407 2060.85443 1909.69006 0.00052
985 17.79707 1888.11212 1780.84009 0.00056
986 17.81007 1756.70825 1672.81018 0.00060
987 17.82307 1660.25343 1592.01013 0.00063
988 17.83607 1592.50476 1552.36011 0.00064
989 17.84907 1552.61218 1536.64001 0.00065
990 17.86207 1530.65002 1521.00000 0.00066
991 17.87507 1523.80085 1497.69006 0.00067
992 17.88807 1530.05764 1528.80994 0.00065
993 17.90107 1549.47241 1552.36011 0.00064
994 17.91407 1580.70407 1576.09009 0.00063
995 17.92707 1617.05421 1648.35986 0.00061
996 17.94007 1652.45343 1681.00000 0.00059
997 17.95307 1682.07964 1689.20984 0.00059
998 17.96607 1684.79984 1730.55981 0.00058
999 17.97907 1664.36596 1722.25000 0.00058
1000 17.99207 1628.14629 1664.63989 0.00060
1001 18.00507 1581.09076 1616.04004 0.00062
1002 18.01807 1527.56170 1552.36011 0.00064
1003 18.03107 1475.95320 1521.00000 0.00066
1004 18.04407 1430.10029 1474.56006 0.00068
1005 18.05707 1393.19126 1436.41016 0.00070
1006 18.07007 1370.46384 1413.75989 0.00071
1007 18.08307 1357.42697 1383.84009 0.00072
1008 18.09607 1353.96749 1383.84009 0.00072
1009 18.10907 1358.74463 1383.84009 0.00072
1010 18.12207 1371.76924 1391.28992 0.00072
1011 18.13507 1391.02524 1413.75989 0.00071
1012 18.14807 1416.77297 1413.75989 0.00071
1013 18.16107 1445.35582 1421.29004 0.00070
1014 18.17407 1472.35633 1459.24011 0.00069
1015 18.18707 1493.53575 1482.25000 0.00067
1016 18.20007 1501.93343 1482.25000 0.00067
1017 18.21307 1493.25656 1505.43994 0.00066
1018 18.22607 1476.96108 1497.69006 0.00067
1019 18.23907 1455.67861 1482.25000 0.00067
1020 18.25207 1432.37268 1451.60986 0.00069
1021 18.26507 1409.29621 1436.41016 0.00070
1022 18.27807 1391.29905 1444.00000 0.00069
1023 18.29107 1379.33543 1406.25000 0.00071
1024 18.30407 1374.79215 1391.28992 0.00072
1025 18.31707 1377.78236 1406.25000 0.00071
1026 18.33007 1387.51967 1413.75989 0.00071
1027 18.34307 1402.84214 1436.41016 0.00070
1028 18.35607 1425.15944 1474.56006 0.00068
1029 18.36907 1455.62588 1505.43994 0.00066
1030 18.38207 1494.89275 1528.80994 0.00065
1031 18.39507 1544.01475 1616.04004 0.00062
1032 18.40807 1607.05243 1722.25000 0.00058
1033 18.42107 1692.41122 1806.25000 0.00055
1034 18.43407 1801.34415 1883.56018 0.00053
1035 18.44707 1938.48254 1989.15991 0.00050
1036 18.46007 2110.25275 2190.23999 0.00046
1037 18.47307 2338.89048 2420.64014 0.00041
1038 18.48607 2611.57143 2652.25000 0.00038
1039 18.49907 2925.71455 2970.25000 0.00034
1040 18.51207 3276.73829 3271.84009 0.00031
1041 18.52507 3642.54805 3648.16016 0.00027
1042 18.53807 3948.05433 4006.88989 0.00025
1043 18.55107 4144.23352 4096.00000 0.00024
1044 18.56407 4196.26135 4134.49023 0.00024
1045 18.57707 4048.10374 3931.29004 0.00025
1046 18.59007 3791.81602 3660.25000 0.00027
1047 18.60307 3480.42545 3375.60986 0.00030
1048 18.61607 3136.76764 3014.01025 0.00033
1049 18.62907 2783.37600 2724.84009 0.00037
1050 18.64207 2477.92220 2470.09009 0.00040
1051 18.65507 2225.99094 2171.55981 0.00046
1052 18.66807 2027.31966 2052.08984 0.00049
1053 18.68107 1879.68284 1927.21008 0.00052
1054 18.69407 1780.23250 1857.60986 0.00054
1055 18.70707 1705.70568 1705.68994 0.00059
1056 18.72007 1652.34276 1681.00000 0.00059
1057 18.73307 1618.56903 1648.35986 0.00061
1058 18.74607 1603.01980 1664.63989 0.00060
1059 18.75907 1600.00073 1624.08997 0.00062
1060 18.77207 1607.92574 1648.35986 0.00061
1061 18.78507 1627.07967 1656.49011 0.00060
1062 18.79807 1653.04849 1681.00000 0.00059
1063 18.81107 1681.57013 1747.23999 0.00057
1064 18.82407 1708.36759 1738.89001 0.00058
1065 18.83707 1719.85278 1772.40991 0.00056
1066 18.85007 1719.09580 1755.61011 0.00057
1067 18.86307 1713.54538 1697.44006 0.00059
1068 18.87607 1707.11168 1780.84009 0.00056
1069 18.88907 1703.39328 1738.89001 0.00058
1070 18.90207 1708.58487 1755.61011 0.00057
1071 18.91507 1733.28906 1772.40991 0.00056
1072 18.92807 1781.49704 1831.83997 0.00055
1073 18.94107 1856.35259 1900.95984 0.00053
1074 18.95407 1957.62154 1989.15991 0.00050
1075 18.96707 2092.77050 2106.81006 0.00047
1076 18.98007 2253.43544 2237.29004 0.00045
1077 18.99307 2427.33655 2401.00000 0.00042
1078 19.00607 2603.52873 2540.16016 0.00039
1079 19.01907 2742.96235 2601.00000 0.00038
1080 19.03207 2802.26286 2672.89014 0.00037
1081 19.04507 2786.27926 2631.68994 0.00038
1082 19.05807 2696.86598 2580.63989 0.00039
1083 19.07107 2546.16444 2440.36011 0.00041
1084 19.08407 2371.28845 2304.00000 0.00043
1085 19.09707 2186.37863 2152.96021 0.00046
1086 19.11007 2000.79077 2061.16016 0.00049
1087 19.12307 1840.01731 1936.00000 0.00052
1088 19.13607 1711.53930 1764.00000 0.00057
1089 19.14907 1608.26926 1672.81018 0.00060
1090 19.16207 1527.64619 1616.04004 0.00062
1091 19.17507 1469.30418 1576.09009 0.00063
1092 19.18807 1423.87164 1497.69006 0.00067
1093 19.20107 1387.04742 1444.00000 0.00069
1094 19.21407 1357.47334 1451.60986 0.00069
1095 19.22707 1334.68586 1413.75989 0.00071
1096 19.24007 1316.05641 1361.61011 0.00073
1097 19.25307 1300.36157 1361.61011 0.00073
1098 19.26607 1287.17193 1361.61011 0.00073
1099 19.27907 1276.56647 1332.25000 0.00075
1100 19.29207 1267.80125 1310.44006 0.00076
1101 19.30507 1260.35092 1310.44006 0.00076
1102 19.31807 1254.10895 1303.20984 0.00077
1103 19.33107 1249.05065 1260.25000 0.00079
1104 19.34407 1244.95044 1246.08997 0.00080
1105 19.35707 1241.38224 1274.49011 0.00078
1106 19.37007 1238.14872 1296.00000 0.00077
1107 19.38307 1235.16302 1288.81006 0.00078
1108 19.39607 1231.88185 1288.81006 0.00078
1109 19.40907 1228.51167 1267.35986 0.00079
1110 19.42207 1225.16062 1232.00989 0.00081
1111 19.43507 1221.99674 1253.16016 0.00080
1112 19.44807 1219.17901 1274.49011 0.00078
1113 19.46107 1216.77111 1239.04004 0.00081
1114 19.47407 1214.70309 1225.00000 0.00082
1115 19.48707 1213.00210 1232.00989 0.00081
1116 19.50007 1211.61309 1253.16016 0.00080
1117 19.51307 1210.48145 1246.08997 0.00080
1118 19.52607 1209.55195 1246.08997 0.00080
1119 19.53907 1208.82989 1232.00989 0.00081
1120 19.55207 1208.27997 1253.16016 0.00080
1121 19.56507 1207.88157 1239.04004 0.00081
1122 19.57807 1207.62176 1239.04004 0.00081
1123 19.59107 1207.49800 1246.08997 0.00080
1124 19.60407 1207.50162 1246.08997 0.00080
1125 19.61707 1207.63215 1267.35986 0.00079
1126 19.63007 1207.88570 1281.63989 0.00078
1127 19.64307 1208.27914 1239.04004 0.00081
1128 19.65607 1208.74820 1218.01013 0.00082
1129 19.66907 1209.27726 1260.25000 0.00079
1130 19.68207 1209.85185 1260.25000 0.00079
1131 19.69507 1210.52126 1260.25000 0.00079
1132 19.70807 1211.27843 1260.25000 0.00079
1133 19.72107 1212.10384 1232.00989 0.00081
1134 19.73407 1212.99844 1260.25000 0.00079
1135 19.74707 1214.05587 1260.25000 0.00079
1136 19.76007 1215.27680 1246.08997 0.00080
1137 19.77307 1216.65431 1267.35986 0.00079
1138 19.78607 1218.22716 1246.08997 0.00080
1139 19.79907 1219.90541 1288.81006 0.00078
1140 19.81207 1221.68138 1253.16016 0.00080
1141 19.82507 1223.55493 1303.20984 0.00077
1142 19.83807 1225.63871 1260.25000 0.00079
1143 19.85107 1227.90986 1296.00000 0.00077
1144 19.86407 1230.26029 1274.49011 0.00078
1145 19.87707 1232.60692 1281.63989 0.00078
1146 19.89007 1235.08189 1288.81006 0.00078
1147 19.90307 1237.74285 1310.44006 0.00076
1148 19.91607 1240.58528 1281.63989 0.00078
1149 19.92907 1243.67519 1324.96008 0.00075
1150 19.94207 1247.00491 1296.00000 0.00077
1151 19.95507 1250.59286 1332.25000 0.00075
1152 19.96807 1254.44517 1332.25000 0.00075
1153 19.98107 1258.64461 1303.20984 0.00077
1154 19.99407 1263.25068 1303.20984 0.00077
1155 20.00707 1268.28026 1339.55994 0.00075
1156 20.02007 1273.73515 1332.25000 0.00075
1157 20.03307 1279.67703 1346.89001 0.00074
1158 20.04607 1286.15518 1332.25000 0.00075
1159 20.05907 1293.26217 1296.00000 0.00077
1160 20.07207 1300.99988 1346.89001 0.00074
1161 20.08507 1309.46385 1376.40991 0.00073
1162 20.09807 1319.00731 1361.61011 0.00073
1163 20.11107 1329.63126 1391.28992 0.00072
1164 20.12407 1341.39670 1376.40991 0.00073
1165 20.13707 1354.43763 1421.29004 0.00070
1166 20.15007 1369.59067 1444.00000 0.00069
1167 20.16307 1386.88126 1436.41016 0.00070
1168 20.17607 1406.48929 1444.00000 0.00069
1169 20.18907 1428.75875 1482.25000 0.00067
1170 20.20207 1455.23407 1521.00000 0.00066
1171 20.21507 1486.85285 1576.09009 0.00063
1172 20.22807 1524.04052 1544.48999 0.00065
1173 20.24107 1567.85938 1600.00000 0.00063
1174 20.25407 1621.64172 1689.20984 0.00059
1175 20.26707 1689.99906 1747.23999 0.00057
1176 20.28007 1774.03638 1789.28992 0.00056
1177 20.29307 1876.67382 1936.00000 0.00052
1178 20.30607 2003.78956 2034.00989 0.00049
1179 20.31907 2168.29122 2190.23999 0.00046
1180 20.33207 2364.23373 2391.21021 0.00042
1181 20.34507 2590.07996 2641.96021 0.00038
1182 20.35807 2844.06610 2883.69019 0.00035
1183 20.37107 3112.01628 3169.68994 0.00032
1184 20.38407 3354.36098 3540.25000 0.00028
1185 20.39707 3545.48297 3757.68994 0.00027
1186 20.41007 3666.65884 3844.00000 0.00026
1187 20.42307 3686.60549 3745.44019 0.00027
1188 20.43607 3677.02596 3708.81030 0.00027
1189 20.44907 3662.62793 3648.16016 0.00027
1190 20.46207 3659.96877 3588.01025 0.00028
1191 20.47507 3682.64427 3552.15991 0.00028
1192 20.48807 3781.15186 3564.09009 0.00028
1193 20.50107 3942.54199 3757.68994 0.00027
1194 20.51407 4156.49572 4057.69019 0.00025
1195 20.52707 4409.52093 4422.25000 0.00023
1196 20.54007 4617.31200 4761.00000 0.00021
1197 20.55307 4709.73513 4914.00977 0.00020
1198 20.56607 4683.71615 4858.08936 0.00021
1199 20.57907 4539.77250 4610.41016 0.00022
1200 20.59207 4299.25334 4342.81006 0.00023
1201 20.60507 4022.87414 4044.95972 0.00025
1202 20.61807 3733.28049 3696.63989 0.00027
1203 20.63107 3448.66299 3410.56006 0.00029
1204 20.64407 3202.20167 3136.00000 0.00032
1205 20.65707 3027.02234 2937.64014 0.00034
1206 20.67007 2918.74071 2840.88989 0.00035
1207 20.68307 2873.64479 2819.60986 0.00035
1208 20.69607 2879.40048 2851.56006 0.00035
1209 20.70907 2920.61971 2937.64014 0.00034
1210 20.72207 2977.21919 2992.09009 0.00033
1211 20.73507 3034.87575 3047.04004 0.00033
1212 20.74807 3095.11394 3091.35986 0.00032
1213 20.76107 3149.73939 3080.25000 0.00032
1214 20.77407 3175.90885 3080.25000 0.00032
1215 20.78707 3130.57618 3036.00977 0.00033
1216 20.80007 3033.85347 2970.25000 0.00034
1217 20.81307 2896.56999 2830.23999 0.00035
1218 20.82607 2729.95969 2672.89014 0.00037
1219 20.83907 2553.29316 2510.00977 0.00040
1220 20.85207 2374.97637 2361.95996 0.00042
1221 20.86507 2201.58483 2209.00000 0.00045
1222 20.87807 2041.68784 2088.48999 0.00048
1223 20.89107 1913.58718 1962.48999 0.00051
1224 20.90407 1808.09319 1831.83997 0.00055
1225 20.91707 1723.11421 1772.40991 0.00056
1226 20.93007 1656.45492 1738.89001 0.00058
1227 20.94307 1606.96858 1722.25000 0.00058
1228 20.95607 1566.32948 1656.49011 0.00060
1229 20.96907 1533.31062 1656.49011 0.00060
1230 20.98207 1506.67821 1568.15991 0.00064
1231 20.99507 1486.32748 1576.09009 0.00063
1232 21.00807 1469.52688 1576.09009 0.00063
1233 21.02107 1455.84198 1560.25000 0.00064
1234 21.03407 1444.94629 1576.09009 0.00063
1235 21.04707 1437.05395 1528.80994 0.00065
1236 21.06007 1431.19352 1513.21008 0.00066
1237 21.07307 1427.14328 1536.64001 0.00065
1238 21.08607 1424.85177 1560.25000 0.00064
1239 21.09907 1424.48673 1552.36011 0.00064
1240 21.11207 1425.92680 1528.80994 0.00065
1241 21.12507 1428.94358 1521.00000 0.00066
1242 21.13807 1433.61697 1576.09009 0.00063
1243 21.15107 1440.03506 1560.25000 0.00064
1244 21.16407 1448.81434 1568.15991 0.00064
1245 21.17707 1459.65005 1568.15991 0.00064
1246 21.19007 1472.77414 1624.08997 0.00062
1247 21.20307 1488.36246 1640.25000 0.00061
1248 21.21607 1507.58721 1656.49011 0.00060
1249 21.22907 1530.65342 1656.49011 0.00060
1250 21.24207 1557.78230 1738.89001 0.00058
1251 21.25507 1589.57615 1738.89001 0.00058
1252 21.26807 1628.10812 1780.84009 0.00056
1253 21.28107 1675.59953 1823.29004 0.00055
1254 21.29407 1732.39720 1883.56018 0.00053
1255 21.30707 1800.39175 1944.80981 0.00051
1256 21.32007 1883.38616 2079.35986 0.00048
1257 21.33307 1991.67780 2199.61011 0.00045
1258 21.34607 2125.95536 2246.76025 0.00045
1259 21.35907 2291.94709 2401.00000 0.00042
1260 21.37207 2495.72977 2621.44019 0.00038
1261 21.38507 2773.82742 2830.23999 0.00035
1262 21.39807 3117.26986 3080.25000 0.00032
1263 21.41107 3529.32173 3504.64014 0.00029
1264 21.42407 4011.33240 3868.84009 0.00026
1265 21.43707 4571.92711 4369.20996 0.00023
1266 21.45007 5143.35260 4886.01025 0.00020
1267 21.46307 5657.55380 5416.95996 0.00018
1268 21.47607 6056.15828 5745.64063 0.00017
1269 21.48907 6207.03047 5867.55957 0.00017
1270 21.50207 6086.90917 5852.25000 0.00017
1271 21.51507 5812.17783 5685.16016 0.00018
1272 21.52807 5423.65591 5329.00000 0.00019
1273 21.54107 4956.93900 4942.09033 0.00020
1274 21.55407 4433.11836 4422.25000 0.00023
1275 21.56707 3913.89823 3893.76025 0.00026
1276 21.58007 3428.10041 3492.80981 0.00029
1277 21.59307 3004.62512 3124.81006 0.00032
1278 21.60607 2687.14898 2809.00000 0.00036
1279 21.61907 2430.27158 2580.63989 0.00039
1280 21.63207 2224.71809 2391.21021 0.00042
1281 21.64507 2061.56243 2227.84009 0.00045
1282 21.65807 1939.18103 2116.00000 0.00047
1283 21.67107 1840.24179 2043.04004 0.00049
1284 21.68407 1758.37224 1909.69006 0.00052
1285 21.69707 1690.64520 1874.88989 0.00053
1286 21.71007 1636.19668 1849.00000 0.00054
1287 21.72307 1591.43451 1755.61011 0.00057
1288 21.73607 1553.14555 1713.96008 0.00058
1289 21.74907 1520.57718 1664.63989 0.00060
1290 21.76207 1493.31750 1624.08997 0.00062
1291 21.77507 1470.98185 1616.04004 0.00062
1292 21.78807 1451.85197 1608.00989 0.00062
1293 21.80107 1435.76388 1584.03992 0.00063
1294 21.81407 1422.24700 1584.03992 0.00063
1295 21.82707 1411.88631 1560.25000 0.00064
1296 21.84007 1403.73722 1536.64001 0.00065
1297 21.85307 1398.43108 1528.80994 0.00065
1298 21.86607 1395.76788 1505.43994 0.00066
1299 21.87907 1396.19055 1513.21008 0.00066
1300 21.89207 1399.82411 1482.25000 0.00067
1301 21.90507 1408.52391 1497.69006 0.00067
1302 21.91807 1421.57099 1513.21008 0.00066
1303 21.93107 1439.21082 1513.21008 0.00066
1304 21.94407 1461.64063 1528.80994 0.00065
1305 21.95707 1489.46027 1521.00000 0.00066
1306 21.97007 1518.40707 1552.36011 0.00064
1307 21.98307 1545.77462 1568.15991 0.00064
1308 21.99607 1568.43769 1584.03992 0.00063
1309 22.00907 1574.78991 1616.04004 0.00062
1310 22.02207 1569.11324 1600.00000 0.00063
1311 22.03507 1553.56656 1584.03992 0.00063
1312 22.04807 1530.50971 1576.09009 0.00063
1313 22.06107 1501.81585 1552.36011 0.00064
1314 22.07407 1470.82003 1521.00000 0.00066
1315 22.08707 1439.01654 1466.88989 0.00068
1316 22.10007 1408.05372 1444.00000 0.00069
1317 22.11307 1382.44435 1436.41016 0.00070
1318 22.12607 1361.23055 1436.41016 0.00070
1319 22.13907 1344.16406 1398.76013 0.00071
1320 22.15207 1331.01707 1369.00000 0.00073
1321 22.16507 1321.85464 1383.84009 0.00072
1322 22.17807 1314.78071 1398.76013 0.00071
1323 22.19107 1309.58697 1398.76013 0.00071
1324 22.20407 1306.12860 1361.61011 0.00073
1325 22.21707 1304.35464 1354.23999 0.00074
1326 22.23007 1303.64919 1361.61011 0.00073
1327 22.24307 1303.98219 1346.89001 0.00074
1328 22.25607 1305.54775 1354.23999 0.00074
1329 22.26907 1308.26089 1354.23999 0.00074
1330 22.28207 1311.94043 1361.61011 0.00073
1331 22.29507 1316.65143 1361.61011 0.00073
1332 22.30807 1323.03163 1383.84009 0.00072
1333 22.32107 1331.02386 1406.25000 0.00071
1334 22.33407 1340.57568 1383.84009 0.00072
1335 22.34707 1351.85612 1398.76013 0.00071
1336 22.36007 1365.72169 1406.25000 0.00071
1337 22.37307 1382.70767 1444.00000 0.00069
1338 22.38607 1402.90236 1428.83997 0.00070
1339 22.39907 1426.82698 1451.60986 0.00069
1340 22.41207 1455.97499 1459.24011 0.00069
1341 22.42507 1493.09682 1482.25000 0.00067
1342 22.43807 1538.54150 1560.25000 0.00064
1343 22.45107 1593.96800 1576.09009 0.00063
1344 22.46407 1661.87703 1648.35986 0.00061
1345 22.47707 1753.20844 1713.96008 0.00058
1346 22.49007 1867.00059 1831.83997 0.00055
1347 22.50307 2006.50275 1918.43994 0.00052
1348 22.51607 2174.88147 2079.35986 0.00048
1349 22.52907 2386.43875 2294.41016 0.00044
1350 22.54207 2625.24241 2550.25000 0.00039
1351 22.55507 2875.39740 2840.88989 0.00035
1352 22.56807 3120.62785 3158.44019 0.00032
1353 22.58107 3315.12955 3410.56006 0.00029
1354 22.59407 3407.35449 3504.64014 0.00029
1355 22.60707 3407.88626 3540.25000 0.00028
1356 22.62007 3325.17240 3387.23999 0.00030
1357 22.63307 3175.55750 3203.55981 0.00031
1358 22.64607 2986.17820 2970.25000 0.00034
1359 22.65907 2774.09469 2724.84009 0.00037
1360 22.67207 2548.54140 2480.04004 0.00040
1361 22.68507 2320.94337 2237.29004 0.00045
1362 22.69807 2124.05909 2016.01013 0.00050
1363 22.71107 1957.75544 1840.41016 0.00054
1364 22.72407 1820.65328 1722.25000 0.00058
1365 22.73707 1710.63511 1608.00989 0.00062
1366 22.75007 1629.15387 1568.15991 0.00064
1367 22.76307 1563.68280 1528.80994 0.00065
1368 22.77607 1510.38244 1451.60986 0.00069
1369 22.78907 1467.10195 1421.29004 0.00070
1370 22.80207 1433.47033 1413.75989 0.00071
1371 22.81507 1406.54252 1354.23999 0.00074
1372 22.82807 1384.34734 1383.84009 0.00072
1373 22.84107 1366.32968 1354.23999 0.00074
1374 22.85407 1352.73814 1361.61011 0.00073
1375 22.86707 1343.18133 1391.28992 0.00072
1376 22.88007 1336.62530 1361.61011 0.00073
1377 22.89307 1332.98393 1332.25000 0.00075
1378 22.90607 1332.74204 1339.55994 0.00075
1379 22.91907 1335.30886 1383.84009 0.00072
1380 22.93207 1339.30907 1339.55994 0.00075
1381 22.94507 1343.99131 1324.96008 0.00075
1382 22.95807 1346.94184 1354.23999 0.00074
1383 22.97107 1346.21223 1332.25000 0.00075
1384 22.98407 1341.87445 1310.44006 0.00076
1385 22.99707 1334.03150 1324.96008 0.00075
1386 23.01007 1323.19047 1303.20984 0.00077
1387 23.02307 1311.26369 1310.44006 0.00076
1388 23.03607 1298.67193 1310.44006 0.00076
1389 23.04907 1285.67899 1281.63989 0.00078
1390 23.06207 1273.02142 1288.81006 0.00078
1391 23.07507 1262.02072 1267.35986 0.00079
1392 23.08807 1252.80744 1274.49011 0.00078
1393 23.10107 1245.43128 1274.49011 0.00078
1394 23.11407 1240.28727 1296.00000 0.00077
1395 23.12707 1237.05722 1288.81006 0.00078
1396 23.14007 1235.41954 1288.81006 0.00078
1397 23.15307 1235.32750 1281.63989 0.00078
1398 23.16607 1237.11287 1253.16016 0.00080
1399 23.17907 1240.98537 1260.25000 0.00079
1400 23.19207 1246.59212 1281.63989 0.00078
1401 23.20507 1253.80892 1267.35986 0.00079
1402 23.21807 1262.48335 1253.16016 0.00080
1403 23.23107 1271.58585 1267.35986 0.00079
1404 23.24407 1279.20763 1281.63989 0.00078
1405 23.25707 1284.27515 1296.00000 0.00077
1406 23.27007 1285.85228 1281.63989 0.00078
1407 23.28307 1282.40996 1296.00000 0.00077
1408 23.29607 1276.44812 1281.63989 0.00078
1409 23.30907 1269.01039 1239.04004 0.00081
1410 23.32207 1260.58717 1232.00989 0.00081
1411 23.33507 1251.28294 1232.00989 0.00081
1412 23.34807 1241.95451 1246.08997 0.00080
1413 23.36107 1233.52657 1260.25000 0.00079
1414 23.37407 1226.46974 1281.63989 0.00078
1415 23.38707 1221.15566 1274.49011 0.00078
1416 23.40007 1218.05125 1260.25000 0.00079
1417 23.41307 1216.32870 1260.25000 0.00079
1418 23.42607 1215.95543 1246.08997 0.00080
1419 23.43907 1216.82341 1246.08997 0.00080
1420 23.45207 1218.82058 1253.16016 0.00080
1421 23.46507 1221.90645 1267.35986 0.00079
1422 23.47807 1226.48556 1246.08997 0.00080
1423 23.49107 1232.85223 1260.25000 0.00079
1424 23.50407 1241.22847 1303.20984 0.00077
1425 23.51707 1251.80795 1253.16016 0.00080
1426 23.53007 1264.58396 1288.81006 0.00078
1427 23.54307 1278.73171 1310.44006 0.00076
1428 23.55607 1293.39455 1310.44006 0.00076
1429 23.56907 1307.54990 1376.40991 0.00073
1430 23.58207 1318.98802 1398.76013 0.00071
1431 23.59507 1325.73616 1398.76013 0.00071
1432 23.60807 1328.71599 1436.41016 0.00070
1433 23.62107 1325.78024 1406.25000 0.00071
1434 23.63407 1318.33314 1361.61011 0.00073
1435 23.64707 1306.75525 1383.84009 0.00072
1436 23.66007 1292.81867 1361.61011 0.00073
1437 23.67307 1277.58211 1324.96008 0.00075
1438 23.68607 1262.25484 1317.68994 0.00076
1439 23.69907 1247.94773 1288.81006 0.00078
1440 23.71207 1234.70225 1274.49011 0.00078
1441 23.72507 1223.26110 1239.04004 0.00081
1442 23.73807 1213.83719 1253.16016 0.00080
1443 23.75107 1206.39745 1232.00989 0.00081
1444 23.76407 1200.70933 1225.00000 0.00082
1445 23.77707 1196.70043 1190.25000 0.00084
1446 23.79007 1193.85519 1197.15991 0.00084
1447 23.80307 1191.99551 1239.04004 0.00081
1448 23.81607 1191.06841 1218.01013 0.00082
1449 23.82907 1191.02548 1197.15991 0.00084
1450 23.84207 1191.71923 1197.15991 0.00084
1451 23.85507 1193.10303 1218.01013 0.00082
1452 23.86807 1195.22358 1239.04004 0.00081
1453 23.88107 1198.44345 1204.09009 0.00083
1454 23.89407 1202.74751 1225.00000 0.00082
1455 23.90707 1208.29738 1218.01013 0.00082
1456 23.92007 1215.31912 1246.08997 0.00080
1457 23.93307 1224.73711 1232.00989 0.00081
1458 23.94607 1236.82919 1253.16016 0.00080
1459 23.95907 1251.73579 1281.63989 0.00078
1460 23.97207 1269.75518 1274.49011 0.00078
1461 23.98507 1291.47129 1296.00000 0.00077
1462 23.99807 1316.58387 1310.44006 0.00076
1463 24.01107 1342.44239 1391.28992 0.00072
1464 24.02407 1366.92130 1398.76013 0.00071
1465 24.03707 1387.61271 1383.84009 0.00072
1466 24.05007 1398.28412 1406.25000 0.00071
1467 24.06307 1400.20801 1428.83997 0.00070
1468 24.07607 1395.81682 1391.28992 0.00072
1469 24.08907 1386.62554 1398.76013 0.00071
1470 24.10207 1374.70047 1369.00000 0.00073
1471 24.11507 1360.68163 1383.84009 0.00072
1472 24.12807 1346.30892 1406.25000 0.00071
1473 24.14107 1333.01741 1361.61011 0.00073
1474 24.15407 1322.34111 1354.23999 0.00074
1475 24.16707 1315.95685 1339.55994 0.00075
1476 24.18007 1312.56134 1324.96008 0.00075
1477 24.19307 1311.41392 1332.25000 0.00075
1478 24.20607 1312.32232 1346.89001 0.00074
1479 24.21907 1314.47107 1346.89001 0.00074
1480 24.23207 1318.54332 1361.61011 0.00073
1481 24.24507 1324.73219 1324.96008 0.00075
1482 24.25807 1334.03772 1354.23999 0.00074
1483 24.27107 1347.05046 1346.89001 0.00074
1484 24.28407 1364.28770 1339.55994 0.00075
1485 24.29707 1386.56268 1361.61011 0.00073
1486 24.31007 1415.90291 1413.75989 0.00071
1487 24.32307 1455.97992 1466.88989 0.00068
1488 24.33607 1507.15972 1482.25000 0.00067
1489 24.34907 1571.00407 1489.95984 0.00067
1490 24.36207 1650.15091 1592.01013 0.00063
1491 24.37507 1754.80580 1705.68994 0.00059
1492 24.38807 1879.36371 1814.75989 0.00055
1493 24.40107 2021.57455 1953.64001 0.00051
1494 24.41407 2178.28673 2171.55981 0.00046
1495 24.42707 2336.09843 2381.43994 0.00042
1496 24.44007 2466.78648 2530.08984 0.00040
1497 24.45307 2556.01136 2683.23999 0.00037
1498 24.46607 2593.45061 2724.84009 0.00037
1499 24.47907 2561.84086 2693.61011 0.00037
1500 24.49207 2489.48325 2590.81006 0.00039
1501 24.50507 2394.67223 2470.09009 0.00040
1502 24.51807 2283.07381 2313.60986 0.00043
1503 24.53107 2155.67655 2134.44019 0.00047
1504 24.54407 2020.50466 1980.25000 0.00050
1505 24.55707 1891.79413 1849.00000 0.00054
1506 24.57007 1775.68936 1722.25000 0.00058
1507 24.58307 1679.02226 1592.01013 0.00063
1508 24.59607 1607.85852 1536.64001 0.00065
1509 24.60907 1551.74202 1489.95984 0.00067
1510 24.62207 1508.13132 1482.25000 0.00067
1511 24.63507 1472.07753 1482.25000 0.00067
1512 24.64807 1442.61536 1444.00000 0.00069
1513 24.66107 1414.91674 1406.25000 0.00071
1514 24.67407 1387.66259 1376.40991 0.00073
1515 24.68707 1360.48756 1354.23999 0.00074
1516 24.70007 1335.54606 1324.96008 0.00075
1517 24.71307 1312.01453 1310.44006 0.00076
1518 24.72607 1289.31831 1288.81006 0.00078
1519 24.73907 1267.55121 1253.16016 0.00080
1520 24.75207 1248.00910 1218.01013 0.00082
1521 24.76507 1230.87237 1211.03992 0.00083
1522 24.77807 1215.84356 1204.09009 0.00083
1523 24.79107 1203.16423 1204.09009 0.00083
1524 24.80407 1192.42965 1156.00000 0.00087
1525 24.81707 1183.16854 1142.43994 0.00088
1526 24.83007 1174.96210 1169.64001 0.00085
1527 24.84307 1167.71368 1156.00000 0.00087
1528 24.85607 1161.27802 1142.43994 0.00088
1529 24.86907 1155.49711 1135.69006 0.00088
1530 24.88207 1150.26098 1128.95984 0.00089
1531 24.89507 1145.53718 1122.25000 0.00089
1532 24.90807 1141.28621 1102.23999 0.00091
1533 24.92107 1137.50169 1102.23999 0.00091
1534 24.93407 1134.10577 1115.56006 0.00090
1535 24.94707 1131.02221 1115.56006 0.00090
1536 24.96007 1128.25055 1122.25000 0.00089
1537 24.97307 1125.74196 1115.56006 0.00090
1538 24.98607 1123.46398 1102.23999 0.00091
1539 24.99907 1121.35425 1135.69006 0.00088
1540 25.01207 1119.39442 1115.56006 0.00090
1541 25.02507 1117.52995 1069.29004 0.00094
1542 25.03807 1115.77026 1108.88989 0.00090
1543 25.05107 1114.07077 1082.41016 0.00092
1544 25.06407 1112.43720 1102.23999 0.00091
1545 25.07707 1110.88234 1095.60986 0.00091
1546 25.09007 1109.44591 1062.75989 0.00094
1547 25.10307 1108.10529 1095.60986 0.00091
1548 25.11607 1106.86670 1075.83997 0.00093
1549 25.12907 1105.73149 1069.29004 0.00094
1550 25.14207 1104.69834 1095.60986 0.00091
1551 25.15507 1103.75609 1062.75989 0.00094
1552 25.16807 1102.87163 1075.83997 0.00093
1553 25.18107 1102.04032 1075.83997 0.00093
1554 25.19407 1101.26649 1049.76013 0.00095
1555 25.20707 1100.53233 1069.29004 0.00094
1556 25.22007 1099.86064 1043.28992 0.00096
1557 25.23307 1099.18290 1043.28992 0.00096
1558 25.24607 1098.51323 1082.41016 0.00092
1559 25.25907 1097.84625 1075.83997 0.00093
1560 25.27207 1097.21829 1082.41016 0.00092
1561 25.28507 1096.61920 1036.84009 0.00096
1562 25.29807 1096.04873 1069.29004 0.00094
1563 25.31107 1095.51976 1049.76013 0.00095
1564 25.32407 1095.03504 1030.40991 0.00097
1565 25.33707 1094.59813 1049.76013 0.00095
1566 25.35007 1094.20885 1024.00000 0.00098
1567 25.36307 1093.90877 1056.25000 0.00095
1568 25.37607 1093.66288 1069.29004 0.00094
1569 25.38907 1093.47260 1075.83997 0.00093
1570 25.40207 1093.33766 1062.75989 0.00094
1571 25.41507 1093.25447 1075.83997 0.00093
1572 25.42807 1093.22691 1082.41016 0.00092
1573 25.44107 1093.25977 1075.83997 0.00093
1574 25.45407 1093.38057 1056.25000 0.00095
1575 25.46707 1093.57399 1075.83997 0.00093
1576 25.48007 1093.83930 1049.76013 0.00095
1577 25.49307 1094.18736 1049.76013 0.00095
1578 25.50607 1094.62777 1043.28992 0.00096
1579 25.51907 1095.17753 1056.25000 0.00095
1580 25.53207 1095.79168 1056.25000 0.00095
1581 25.54507 1096.41397 1062.75989 0.00094
1582 25.55807 1097.08380 1069.29004 0.00094
1583 25.57107 1097.75513 1049.76013 0.00095
1584 25.58407 1098.39587 1062.75989 0.00094
1585 25.59707 1098.99816 1075.83997 0.00093
1586 25.61007 1099.56467 1056.25000 0.00095
1587 25.62307 1100.02999 1056.25000 0.00095
1588 25.63607 1100.49017 1075.83997 0.00093
1589 25.64907 1100.98878 1082.41016 0.00092
1590 25.66207 1101.56398 1049.76013 0.00095
1591 25.67507 1102.23560 1049.76013 0.00095
1592 25.68807 1103.01203 1062.75989 0.00094
1593 25.70107 1104.07616 1062.75989 0.00094
1594 25.71407 1105.43021 1082.41016 0.00092
1595 25.72707 1107.03465 1089.00000 0.00092
1596 25.74007 1108.81876 1069.29004 0.00094
1597 25.75307 1110.67641 1062.75989 0.00094
1598 25.76607 1112.82491 1082.41016 0.00092
1599 25.77907 1115.08113 1108.88989 0.00090
1600 25.79207 1117.45416 1082.41016 0.00092
1601 25.80507 1120.02305 1089.00000 0.00092
1602 25.81807 1122.84991 1102.23999 0.00091
1603 25.83107 1125.99636 1095.60986 0.00091
1604 25.84407 1129.43163 1102.23999 0.00091
1605 25.85707 1133.18416 1102.23999 0.00091
1606 25.87007 1137.33632 1108.88989 0.00090
1607 25.88307 1141.91981 1135.69006 0.00088
1608 25.89607 1147.06758 1142.43994 0.00088
1609 25.90907 1152.74273 1156.00000 0.00087
1610 25.92207 1159.05848 1169.64001 0.00085
1611 25.93507 1166.14890 1162.80994 0.00086
1612 25.94807 1174.25516 1162.80994 0.00086
1613 25.96107 1183.38709 1149.21008 0.00087
1614 25.97407 1193.80924 1162.80994 0.00086
1615 25.98707 1205.74854 1197.15991 0.00084
1616 26.00007 1220.09061 1204.09009 0.00083
1617 26.01307 1236.79349 1204.09009 0.00083
1618 26.02607 1256.44666 1225.00000 0.00082
1619 26.03907 1279.18286 1281.63989 0.00078
1620 26.05207 1307.67186 1310.44006 0.00076
1621 26.06507 1341.88318 1310.44006 0.00076
1622 26.07807 1382.46960 1332.25000 0.00075
1623 26.09107 1430.15032 1421.29004 0.00070
1624 26.10407 1487.33314 1505.43994 0.00066
1625 26.11707 1551.06153 1560.25000 0.00064
1626 26.13007 1617.09561 1624.08997 0.00062
1627 26.14307 1681.36482 1681.00000 0.00059
1628 26.15607 1735.36769 1738.89001 0.00058
1629 26.16907 1767.73194 1806.25000 0.00055
1630 26.18207 1782.78207 1831.83997 0.00055
1631 26.19507 1782.78006 1823.29004 0.00055
1632 26.20807 1771.07683 1814.75989 0.00055
1633 26.22107 1752.07597 1806.25000 0.00055
1634 26.23407 1730.12753 1772.40991 0.00056
1635 26.24707 1706.40251 1738.89001 0.00058
1636 26.26007 1681.92983 1747.23999 0.00057
1637 26.27307 1661.63924 1713.96008 0.00058
1638 26.28607 1651.07105 1705.68994 0.00059
1639 26.29907 1652.38737 1681.00000 0.00059
1640 26.31207 1666.03314 1705.68994 0.00059
1641 26.32507 1694.06356 1764.00000 0.00057
1642 26.33807 1737.00018 1772.40991 0.00056
1643 26.35107 1797.51832 1849.00000 0.00054
1644 26.36407 1872.65355 1927.21008 0.00052
1645 26.37707 1961.50204 2025.00000 0.00049
1646 26.39007 2064.44333 2079.35986 0.00048
1647 26.40307 2173.24860 2209.00000 0.00045
1648 26.41607 2276.53461 2265.75977 0.00044
1649 26.42907 2368.93095 2391.21021 0.00042
1650 26.44207 2449.20044 2500.00000 0.00040
1651 26.45507 2505.69743 2550.25000 0.00039
1652 26.46807 2557.22589 2621.44019 0.00038
1653 26.48107 2610.30494 2611.20996 0.00038
1654 26.49407 2677.62228 2672.89014 0.00037
1655 26.50707 2759.86470 2735.29004 0.00037
1656 26.52007 2862.88444 2830.23999 0.00035
1657 26.53307 2994.90975 2937.64014 0.00034
1658 26.54607 3181.12962 3080.25000 0.00032
1659 26.55907 3433.55452 3329.29004 0.00030
1660 26.57207 3756.24371 3552.15991 0.00028
1661 26.58507 4154.85666 3956.41016 0.00025
1662 26.59807 4671.11579 4422.25000 0.00023
1663 26.61107 5292.65039 4970.25000 0.00020
1664 26.62407 5991.70130 5640.00977 0.00018
1665 26.63707 6748.01631 6642.25000 0.00015
1666 26.65007 7501.35327 7569.00000 0.00013
1667 26.66307 8114.94181 8390.55957 0.00012
1668 26.67607 8534.19318 8968.08984 0.00011
1669 26.68907 8719.01621 9254.43945 0.00011
1670 26.70207 8580.85282 9120.25000 0.00011
1671 26.71507 8257.69339 8649.00000 0.00012
1672 26.72807 7829.48103 8064.04053 0.00012
1673 26.74107 7322.65151 7499.55957 0.00013
1674 26.75407 6728.83788 6855.84033 0.00015
1675 26.76707 6080.21249 6068.41016 0.00016
1676 26.78007 5426.75289 5416.95996 0.00018
1677 26.79307 4798.27532 4637.60986 0.00022
1678 26.80607 4253.42558 4121.63965 0.00024
1679 26.81907 3808.49480 3636.08984 0.00028
1680 26.83207 3441.33088 3226.23999 0.00031
1681 26.84507 3145.91430 3003.03979 0.00033
1682 26.85807 2920.76433 2819.60986 0.00035
1683 26.87107 2741.69551 2631.68994 0.00038
1684 26.88407 2587.94539 2470.09009 0.00040
1685 26.89707 2450.80092 2332.88989 0.00043
1686 26.91007 2325.09792 2246.76025 0.00045
1687 26.92307 2212.07361 2134.44019 0.00047
1688 26.93607 2106.96988 2043.04004 0.00049
1689 26.94907 2009.71239 1962.48999 0.00051
1690 26.96207 1920.22529 1874.88989 0.00053
1691 26.97507 1836.74391 1789.28992 0.00056
1692 26.98807 1758.63214 1713.96008 0.00058
1693 27.00107 1686.89127 1632.16016 0.00061
1694 27.01407 1623.33880 1560.25000 0.00064
1695 27.02707 1569.93856 1513.21008 0.00066
1696 27.04007 1523.66070 1482.25000 0.00067
1697 27.05307 1483.81428 1474.56006 0.00068
1698 27.06607 1450.15443 1466.88989 0.00068
1699 27.07907 1422.21858 1398.76013 0.00071
1700 27.09207 1398.59444 1376.40991 0.00073
1701 27.10507 1378.37932 1361.61011 0.00073
1702 27.11807 1361.52630 1324.96008 0.00075
1703 27.13107 1347.71033 1332.25000 0.00075
1704 27.14407 1336.67623 1346.89001 0.00074
1705 27.15707 1327.92402 1346.89001 0.00074
1706 27.17007 1321.70072 1317.68994 0.00076
1707 27.18307 1317.77568 1303.20984 0.00077
1708 27.19607 1316.33086 1303.20984 0.00077
1709 27.20907 1316.99201 1310.44006 0.00076
1710 27.22207 1320.19867 1324.96008 0.00075
1711 27.23507 1325.94755 1346.89001 0.00074
1712 27.24807 1334.61490 1361.61011 0.00073
1713 27.26107 1346.46968 1361.61011 0.00073
1714 27.27407 1361.67206 1369.00000 0.00073
1715 27.28707 1380.79984 1391.28992 0.00072
1716 27.30007 1404.62381 1428.83997 0.00070
1717 27.31307 1434.67949 1459.24011 0.00069
1718 27.32607 1471.09544 1466.88989 0.00068
1719 27.33907 1515.60154 1497.69006 0.00067
1720 27.35207 1569.44342 1560.25000 0.00064
1721 27.36507 1638.27754 1640.25000 0.00061
1722 27.37807 1721.86693 1747.23999 0.00057
1723 27.39107 1824.03907 1831.83997 0.00055
1724 27.40407 1947.00690 1989.15991 0.00050
1725 27.41707 2102.90733 2097.63989 0.00048
1726 27.43007 2286.63901 2256.25000 0.00044
1727 27.44307 2497.04074 2520.04004 0.00040
1728 27.45607 2730.98087 2745.76025 0.00036
1729 27.46907 2973.22868 2992.09009 0.00033
1730 27.48207 3192.55121 3260.40991 0.00031
1731 27.49507 3378.20022 3457.43994 0.00029
1732 27.50807 3519.53800 3624.04004 0.00028
1733 27.52107 3594.36518 3672.35986 0.00027
1734 27.53407 3616.06938 3672.35986 0.00027
1735 27.54707 3599.86235 3636.08984 0.00028
1736 27.56007 3526.77067 3552.15991 0.00028
1737 27.57307 3407.88024 3352.41016 0.00030
1738 27.58607 3246.71132 3203.55981 0.00031
1739 27.59907 3066.24680 3036.00977 0.00033
1740 27.61207 2879.23981 2819.60986 0.00035
1741 27.62507 2698.86620 2641.96021 0.00038
1742 27.63807 2540.17527 2470.09009 0.00040
1743 27.65107 2400.48129 2323.23999 0.00043
1744 27.66407 2283.72301 2237.29004 0.00045
1745 27.67707 2195.09095 2152.96021 0.00046
1746 27.69007 2135.98945 2097.63989 0.00048
1747 27.70307 2102.31417 2097.63989 0.00048
1748 27.71607 2086.17670 2061.16016 0.00049
1749 27.72907 2076.91802 2043.04004 0.00049
1750 27.74207 2066.26857 2025.00000 0.00049
1751 27.75507 2045.73983 2043.04004 0.00049
1752 27.76807 2006.43916 1980.25000 0.00050
1753 27.78107 1961.78304 1892.25000 0.00053
1754 27.79407 1913.23550 1849.00000 0.00054
1755 27.80707 1864.97360 1866.24011 0.00054
1756 27.82007 1814.76192 1789.28992 0.00056
1757 27.83307 1766.40240 1797.76013 0.00056
1758 27.84607 1721.51250 1705.68994 0.00059
1759 27.85907 1683.99063 1664.63989 0.00060
1760 27.87207 1659.32920 1681.00000 0.00059
1761 27.88507 1647.46378 1624.08997 0.00062
1762 27.89807 1648.03272 1664.63989 0.00060
1763 27.91107 1658.17858 1648.35986 0.00061
1764 27.92407 1673.01709 1648.35986 0.00061
1765 27.93707 1688.26272 1681.00000 0.00059
1766 27.95007 1702.53886 1697.44006 0.00059
1767 27.96307 1710.82752 1738.89001 0.00058
1768 27.97607 1714.96099 1738.89001 0.00058
1769 27.98907 1715.76954 1705.68994 0.00059
1770 28.00207 1710.04458 1664.63989 0.00060
1771 28.01507 1690.74919 1681.00000 0.00059
1772 28.02807 1660.84043 1664.63989 0.00060
1773 28.04107 1623.92377 1600.00000 0.00063
1774 28.05407 1583.11320 1552.36011 0.00064
1775 28.06707 1541.89222 1528.80994 0.00065
1776 28.08007 1503.56018 1497.69006 0.00067
1777 28.09307 1467.54760 1436.41016 0.00070
1778 28.10607 1434.58373 1383.84009 0.00072
1779 28.11907 1405.89939 1398.76013 0.00071
1780 28.13207 1384.07829 1369.00000 0.00073
1781 28.14507 1369.12672 1376.40991 0.00073
1782 28.15807 1362.27837 1346.89001 0.00074
1783 28.17107 1364.32865 1361.61011 0.00073
1784 28.18407 1375.90691 1391.28992 0.00072
1785 28.19707 1395.81004 1436.41016 0.00070
1786 28.21007 1425.56658 1474.56006 0.00068
1787 28.22307 1468.50114 1521.00000 0.00066
1788 28.23607 1524.06665 1584.03992 0.00063
1789 28.24907 1593.17044 1656.49011 0.00060
1790 28.26207 1677.56979 1747.23999 0.00057
1791 28.27507 1782.16574 1909.69006 0.00052
1792 28.28807 1903.43213 2025.00000 0.00049
1793 28.30107 2038.82694 2199.61011 0.00045
1794 28.31407 2185.17409 2371.69019 0.00042
1795 28.32707 2337.17683 2490.01025 0.00040
1796 28.34007 2492.20916 2621.44019 0.00038
1797 28.35307 2638.33037 2745.76025 0.00036
1798 28.36607 2766.72834 2830.23999 0.00035
1799 28.37907 2859.92307 2862.25000 0.00035
1800 28.39207 2887.06001 2862.25000 0.00035
1801 28.40507 2861.87424 2819.60986 0.00035
1802 28.41807 2791.93540 2693.61011 0.00037
1803 28.43107 2687.95230 2570.48999 0.00039
1804 28.44407 2562.40653 2450.25000 0.00041
1805 28.45707 2426.69444 2323.23999 0.00043
1806 28.47007 2281.84749 2180.89014 0.00046
1807 28.48307 2129.73962 2016.01013 0.00050
1808 28.49607 1976.60763 1909.69006 0.00052
1809 28.50907 1834.89553 1806.25000 0.00055
1810 28.52207 1708.16111 1656.49011 0.00060
1811 28.53507 1598.67843 1536.64001 0.00065
1812 28.54807 1511.02525 1474.56006 0.00068
1813 28.56107 1441.22129 1421.29004 0.00070
1814 28.57407 1384.71632 1383.84009 0.00072
1815 28.58707 1339.99685 1332.25000 0.00075
1816 28.60007 1306.70803 1288.81006 0.00078
1817 28.61307 1283.89772 1274.49011 0.00078
1818 28.62607 1269.16950 1260.25000 0.00079
1819 28.63907 1262.05853 1260.25000 0.00079
1820 28.65207 1262.71379 1260.25000 0.00079
1821 28.66507 1271.38859 1267.35986 0.00079
1822 28.67807 1286.14401 1281.63989 0.00078
1823 28.69107 1304.93810 1288.81006 0.00078
1824 28.70407 1325.88709 1324.96008 0.00075
1825 28.71707 1345.65754 1361.61011 0.00073
1826 28.73007 1358.37768 1369.00000 0.00073
1827 28.74307 1364.09626 1361.61011 0.00073
1828 28.75607 1360.23109 1361.61011 0.00073
1829 28.76907 1349.48494 1346.89001 0.00074
1830 28.78207 1333.58300 1339.55994 0.00075
1831 28.79507 1314.70474 1303.20984 0.00077
1832 28.80807 1293.52025 1267.35986 0.00079
1833 28.82107 1270.88976 1253.16016 0.00080
1834 28.83407 1247.37506 1218.01013 0.00082
1835 28.84707 1223.83318 1211.03992 0.00083
1836 28.86007 1199.78440 1190.25000 0.00084
1837 28.87307 1176.34200 1156.00000 0.00087
1838 28.88607 1154.10713 1149.21008 0.00087
1839 28.89907 1131.87841 1108.88989 0.00090
1840 28.91207 1111.17528 1082.41016 0.00092
1841 28.92507 1092.11575 1056.25000 0.00095
1842 28.93807 1074.68618 1062.75989 0.00094
1843 28.95107 1058.32291 1011.23993 0.00099
1844 28.96407 1042.93118 1017.60999 0.00098
1845 28.97707 1028.57474 1030.40991 0.00097
1846 28.99007 1015.36131 1004.89008 0.00100
1847 29.00307 1003.75323 973.44006 0.00103
1848 29.01607 994.15062 961.00000 0.00104
1849 29.02907 986.34472 992.25000 0.00101
1850 29.04207 980.23386 979.68994 0.00102
1851 29.05507 975.93301 961.00000 0.00104
1852 29.06807 973.31415 961.00000 0.00104
1853 29.08107 972.38271 967.21002 0.00103
1854 29.09407 973.01600 954.81000 0.00105
1855 29.10707 975.32757 973.44006 0.00103
1856 29.12007 979.38219 967.21002 0.00103
1857 29.13307 985.92097 985.95996 0.00101
1858 29.14607 994.75114 985.95996 0.00101
1859 29.15907 1005.86542 985.95996 0.00101
1860 29.17207 1019.08436 1017.60999 0.00098
1861 29.18507 1034.16875 1011.23993 0.00099
1862 29.19807 1049.19008 1056.25000 0.00095
1863 29.21107 1062.37187 1036.84009 0.00096
1864 29.22407 1072.40362 1082.41016 0.00092
1865 29.23707 1077.61629 1075.83997 0.00093
1866 29.25007 1076.32647 1075.83997 0.00093
1867 29.26307 1071.96088 1075.83997 0.00093
1868 29.27607 1065.48817 1049.76013 0.00095
1869 29.28907 1057.65777 1062.75989 0.00094
1870 29.30207 1048.37169 1043.28992 0.00096
1871 29.31507 1038.02382 1036.84009 0.00096
1872 29.32807 1027.28205 1043.28992 0.00096
1873 29.34107 1016.66074 1024.00000 0.00098
1874 29.35407 1007.18021 1004.89008 0.00100
1875 29.36707 1000.06336 979.68994 0.00102
1876 29.38007 995.51433 992.25000 0.00101
1877 29.39307 993.47179 954.81000 0.00105
1878 29.40607 993.99288 954.81000 0.00105
1879 29.41907 997.40027 979.68994 0.00102
1880 29.43207 1003.49201 948.63995 0.00105
1881 29.44507 1011.63054 942.49005 0.00106
1882 29.45807 1021.37314 973.44006 0.00103
1883 29.47107 1032.45641 961.00000 0.00104
1884 29.48407 1043.85401 973.44006 0.00103
1885 29.49707 1054.64894 979.68994 0.00102
1886 29.51007 1065.06661 1004.89008 0.00100
1887 29.52307 1075.24406 1056.25000 0.00095
1888 29.53607 1085.77858 1036.84009 0.00096
1889 29.54907 1097.38014 1036.84009 0.00096
1890 29.56207 1110.56794 1049.76013 0.00095
1891 29.57507 1125.35498 1056.25000 0.00095
1892 29.58807 1142.83336 1049.76013 0.00095
1893 29.60107 1163.46625 1089.00000 0.00092
1894 29.61407 1187.24945 1108.88989 0.00090
1895 29.62707 1214.00349 1156.00000 0.00087
1896 29.64007 1245.59765 1149.21008 0.00087
1897 29.65307 1282.79814 1156.00000 0.00087
1898 29.66607 1324.94538 1211.03992 0.00083
1899 29.67907 1374.68375 1274.49011 0.00078
1900 29.69207 1436.84252 1317.68994 0.00076
1901 29.70507 1515.13310 1346.89001 0.00074
1902 29.71807 1608.52491 1451.60986 0.00069
1903 29.73107 1718.00094 1568.15991 0.00064
1904 29.74407 1847.21587 1722.25000 0.00058
1905 29.75707 1991.76244 1909.69006 0.00052
1906 29.77007 2138.36716 2097.63989 0.00048
1907 29.78307 2277.68446 2313.60986 0.00043
1908 29.79607 2392.88234 2470.09009 0.00040
1909 29.80907 2455.36358 2590.81006 0.00039
1910 29.82207 2477.34972 2631.68994 0.00038
1911 29.83507 2463.13377 2631.68994 0.00038
1912 29.84807 2418.54193 2550.25000 0.00039
1913 29.86107 2351.87650 2480.04004 0.00040
1914 29.87407 2269.55994 2450.25000 0.00041
1915 29.88707 2172.58193 2313.60986 0.00043
1916 29.90007 2061.22744 2152.96021 0.00046
1917 29.91307 1938.98014 1998.09009 0.00050
1918 29.92607 1820.01956 1849.00000 0.00054
1919 29.93907 1709.02904 1697.44006 0.00059
1920 29.95207 1610.09474 1552.36011 0.00064
1921 29.96507 1530.65721 1482.25000 0.00067
1922 29.97807 1464.81220 1444.00000 0.00069
1923 29.99107 1411.64206 1361.61011 0.00073
1924 30.00407 1370.67113 1303.20984 0.00077
1925 30.01707 1343.15689 1281.63989 0.00078
1926 30.03007 1325.05973 1260.25000 0.00079
1927 30.04307 1313.93491 1239.04004 0.00081
1928 30.05607 1308.90519 1253.16016 0.00080
1929 30.06907 1309.56204 1246.08997 0.00080
1930 30.08207 1315.58108 1260.25000 0.00079
1931 30.09507 1326.72377 1260.25000 0.00079
1932 30.10807 1343.80167 1281.63989 0.00078
1933 30.12107 1370.67313 1324.96008 0.00075
1934 30.13407 1407.70737 1354.23999 0.00074
1935 30.14707 1454.51304 1391.28992 0.00072
1936 30.16007 1511.53827 1428.83997 0.00070
1937 30.17307 1582.18506 1505.43994 0.00066
1938 30.18607 1665.01029 1632.16016 0.00061
1939 30.19907 1756.37677 1747.23999 0.00057
1940 30.21207 1854.69383 1840.41016 0.00054
1941 30.22507 1960.30745 1927.21008 0.00052
1942 30.23807 2065.88053 2052.08984 0.00049
1943 30.25107 2167.71407 2190.23999 0.00046
1944 30.26407 2259.76779 2265.75977 0.00044
1945 30.27707 2333.20197 2401.00000 0.00042
1946 30.29007 2363.71681 2440.36011 0.00041
1947 30.30307 2363.13242 2410.80981 0.00041
1948 30.31607 2336.34585 2371.69019 0.00042
1949 30.32907 2289.02674 2275.29004 0.00044
1950 30.34207 2227.24750 2218.40991 0.00045
1951 30.35507 2155.61690 2171.55981 0.00046
1952 30.36807 2071.47960 2079.35986 0.00048
1953 30.38107 1976.07186 1998.09009 0.00050
1954 30.39407 1871.00139 1831.83997 0.00055
1955 30.40707 1766.61318 1780.84009 0.00056
1956 30.42007 1668.06280 1632.16016 0.00061
1957 30.43307 1578.88898 1568.15991 0.00064
1958 30.44607 1501.49124 1482.25000 0.00067
1959 30.45907 1437.37422 1451.60986 0.00069
1960 30.47207 1382.08249 1428.83997 0.00070
1961 30.48507 1336.24622 1354.23999 0.00074
1962 30.49807 1298.65245 1346.89001 0.00074
1963 30.51107 1270.39558 1239.04004 0.00081
1964 30.52407 1249.27416 1239.04004 0.00081
1965 30.53707 1232.48912 1232.00989 0.00081
1966 30.55007 1219.76688 1211.03992 0.00083
1967 30.56307 1213.34174 1211.03992 0.00083
1968 30.57607 1213.73577 1183.36011 0.00085
1969 30.58907 1220.14510 1211.03992 0.00083
1970 30.60207 1232.63578 1190.25000 0.00084
1971 30.61507 1252.41993 1232.00989 0.00081
1972 30.62807 1279.23852 1239.04004 0.00081
1973 30.64107 1309.75108 1253.16016 0.00080
1974 30.65407 1342.66995 1310.44006 0.00076
1975 30.66707 1374.31144 1361.61011 0.00073
1976 30.68007 1401.37124 1383.84009 0.00072
1977 30.69307 1423.15753 1391.28992 0.00072
1978 30.70607 1439.13366 1413.75989 0.00071
1979 30.71907 1448.41596 1451.60986 0.00069
1980 30.73207 1447.51937 1497.69006 0.00067
1981 30.74507 1435.81772 1444.00000 0.00069
1982 30.75807 1413.54674 1428.83997 0.00070
1983 30.77107 1380.27976 1421.29004 0.00070
1984 30.78407 1336.93433 1391.28992 0.00072
1985 30.79707 1290.89971 1339.55994 0.00075
1986 30.81007 1243.82137 1281.63989 0.00078
1987 30.82307 1196.85030 1260.25000 0.00079
1988 30.83607 1150.67066 1176.48999 0.00085
1989 30.84907 1105.53889 1135.69006 0.00088
1990 30.86207 1062.76759 1089.00000 0.00092
1991 30.87507 1023.15988 1030.40991 0.00097
1992 30.88807 988.87766 985.95996 0.00101
1993 30.90107 959.44607 973.44006 0.00103
1994 30.91407 933.97570 936.36005 0.00107
1995 30.92707 912.14139 900.00000 0.00111
1996 30.94007 894.15907 900.00000 0.00111
1997 30.95307 879.09658 888.03998 0.00113
1998 30.96607 866.09409 876.16003 0.00114
1999 30.97907 854.88998 835.20996 0.00120
2000 30.99207 845.45464 835.20996 0.00120
2001 31.00507 837.49560 852.64001 0.00117
2002 31.01807 830.56831 829.43994 0.00121
2003 31.03107 824.54448 812.25000 0.00123
2004 31.04407 819.44980 817.96002 0.00122
2005 31.05707 815.16215 812.25000 0.00123
2006 31.07007 811.40722 795.24005 0.00126
2007 31.08307 808.08283 806.56000 0.00124
2008 31.09607 805.15707 812.25000 0.00123
2009 31.10907 802.65368 812.25000 0.00123
2010 31.12207 800.46036 800.88995 0.00125
2011 31.13507 798.60106 795.24005 0.00126
2012 31.14807 797.11589 806.56000 0.00124
2013 31.16107 796.07452 812.25000 0.00123
2014 31.17407 795.51312 812.25000 0.00123
2015 31.18707 795.37043 817.96002 0.00122
2016 31.20007 795.68442 800.88995 0.00125
2017 31.21307 796.55316 789.61005 0.00127
2018 31.22607 798.25097 784.00000 0.00128
2019 31.23907 800.75827 795.24005 0.00126
2020 31.25207 804.16066 817.96002 0.00122
2021 31.26507 808.56646 823.69006 0.00121
2022 31.27807 814.45217 823.69006 0.00121
2023 31.29107 822.00913 829.43994 0.00121
2024 31.30407 831.31227 846.81000 0.00118
2025 31.31707 842.60754 870.25000 0.00115
2026 31.33007 856.70721 876.16003 0.00114
2027 31.34307 874.44631 870.25000 0.00115
2028 31.35607 895.57075 900.00000 0.00111
2029 31.36907 920.17156 924.15997 0.00108
2030 31.38207 948.54521 967.21002 0.00103
2031 31.39507 979.99939 992.25000 0.00101
2032 31.40807 1011.07852 1017.60999 0.00098
2033 31.42107 1039.51575 1049.76013 0.00095
2034 31.43407 1062.93907 1056.25000 0.00095
2035 31.44707 1074.06691 1056.25000 0.00095
2036 31.46007 1076.15291 1082.41016 0.00092
2037 31.47307 1071.10974 1089.00000 0.00092
2038 31.48607 1060.65556 1075.83997 0.00093
2039 31.49907 1046.45767 1036.84009 0.00096
2040 31.51207 1030.00866 1049.76013 0.00095
2041 31.52507 1011.38828 1017.60999 0.00098
2042 31.53807 990.84762 985.95996 0.00101
2043 31.55107 968.45621 967.21002 0.00103
2044 31.56407 946.57909 942.49005 0.00106
2045 31.57707 926.78841 924.15997 0.00108
2046 31.59007 910.20242 912.04004 0.00110
2047 31.60307 897.67126 918.08997 0.00109
2048 31.61607 890.03490 888.03998 0.00113
2049 31.62907 886.07073 870.25000 0.00115
2050 31.64207 885.90521 858.48993 0.00116
2051 31.65507 888.83451 846.81000 0.00118
2052 31.66807 894.62041 882.09003 0.00113
2053 31.68107 901.79507 888.03998 0.00113
2054 31.69407 908.88584 876.16003 0.00114
2055 31.70707 914.91553 876.16003 0.00114
2056 31.72007 920.74022 846.81000 0.00118
2057 31.73307 926.22706 888.03998 0.00113
2058 31.74607 932.01430 888.03998 0.00113
2059 31.75907 939.43094 876.16003 0.00114
2060 31.77207 949.93449 894.00995 0.00112
2061 31.78507 963.39800 876.16003 0.00114
2062 31.79807 979.99702 918.08997 0.00109
2063 31.81107 1000.57718 936.36005 0.00107
2064 31.82407 1027.66535 924.15997 0.00108
2065 31.83707 1059.89649 973.44006 0.00103
2066 31.85007 1096.55042 1030.40991 0.00097
2067 31.86307 1137.32262 1062.75989 0.00094
2068 31.87607 1177.34959 1082.41016 0.00092
2069 31.88907 1211.71147 1162.80994 0.00086
2070 31.90207 1237.98518 1239.04004 0.00081
2071 31.91507 1253.38284 1246.08997 0.00080
2072 31.92807 1252.29255 1225.00000 0.00082
2073 31.94107 1244.13458 1197.15991 0.00084
2074 31.95407 1231.64249 1197.15991 0.00084
2075 31.96707 1216.98554 1190.25000 0.00084
2076 31.98007 1199.87840 1183.36011 0.00085
2077 31.99307 1181.60298 1162.80994 0.00086
2078 32.00607 1163.49735 1128.95984 0.00089
2079 32.01907 1146.21154 1128.95984 0.00089
2080 32.03207 1131.26128 1089.00000 0.00092
2081 32.04507 1120.85390 1082.41016 0.00092
2082 32.05807 1115.10237 1095.60986 0.00091
2083 32.07107 1112.47756 1062.75989 0.00094
2084 32.08407 1112.76599 1102.23999 0.00091
2085 32.09707 1112.89113 1089.00000 0.00092
2086 32.11007 1110.97818 1115.56006 0.00090
2087 32.12307 1102.58089 1102.23999 0.00091
2088 32.13607 1089.19857 1095.60986 0.00091
2089 32.14907 1071.35961 1056.25000 0.00095
2090 32.16207 1049.76124 1043.28992 0.00096
2091 32.17507 1025.26521 1004.89008 0.00100
2092 32.18807 999.27595 967.21002 0.00103
2093 32.20107 972.38457 967.21002 0.00103
2094 32.21407 944.70517 924.15997 0.00108
2095 32.22707 916.43040 894.00995 0.00112
2096 32.24007 888.82705 888.03998 0.00113
2097 32.25307 862.97995 841.00000 0.00119
2098 32.26607 839.31418 806.56000 0.00124
2099 32.27907 818.18786 795.24005 0.00126
2100 32.29207 800.49598 795.24005 0.00126
2101 32.30507 785.64528 795.24005 0.00126
2102 32.31807 773.14845 778.40997 0.00128
2103 32.33107 762.79390 745.28998 0.00134
2104 32.34407 754.47904 739.84003 0.00135
2105 32.35707 747.99567 745.28998 0.00134
2106 32.37007 742.72847 734.41003 0.00136
2107 32.38307 738.31298 729.00000 0.00137
2108 32.39607 734.41618 729.00000 0.00137
2109 32.40907 730.95932 734.41003 0.00136
2110 32.42207 727.39812 739.84003 0.00135
2111 32.43507 723.48760 729.00000 0.00137
2112 32.44807 719.59487 712.89001 0.00140
2113 32.46107 715.86397 718.23993 0.00139
2114 32.47407 712.34115 712.89001 0.00140
2115 32.48707 708.96648 702.25000 0.00142
2116 32.50007 705.77531 707.56000 0.00141
2117 32.51307 702.76754 707.56000 0.00141
2118 32.52607 700.00400 707.56000 0.00141
2119 32.53907 697.50381 707.56000 0.00141
2120 32.55207 695.39958 691.68994 0.00145
2121 32.56507 693.67721 686.44006 0.00146
2122 32.57807 692.46042 696.95996 0.00143
2123 32.59107 691.69227 691.68994 0.00145
2124 32.60407 691.32854 686.44006 0.00146
2125 32.61707 691.42731 681.21002 0.00147
2126 32.63007 692.18113 670.81000 0.00149
2127 32.64307 693.50375 676.00000 0.00148
2128 32.65607 695.29321 686.44006 0.00146
2129 32.66907 697.41961 691.68994 0.00145
2130 32.68207 699.58834 696.95996 0.00143
2131 32.69507 701.35515 691.68994 0.00145
2132 32.70807 702.65311 696.95996 0.00143
2133 32.72107 703.30819 686.44006 0.00146
2134 32.73407 703.08128 702.25000 0.00142
2135 32.74707 702.43868 707.56000 0.00141
2136 32.76007 701.89864 681.21002 0.00147
2137 32.77307 701.49523 696.95996 0.00143
2138 32.78607 701.19527 723.60999 0.00138
2139 32.79907 700.88832 696.95996 0.00143
2140 32.81207 700.53567 670.81000 0.00149
2141 32.82507 699.90972 681.21002 0.00147
2142 32.83807 698.97844 696.95996 0.00143
2143 32.85107 697.85682 676.00000 0.00148
2144 32.86407 696.25567 655.36005 0.00153
2145 32.87707 694.50701 665.63995 0.00150
2146 32.89007 692.59689 665.63995 0.00150
2147 32.90307 690.58053 655.36005 0.00153
2148 32.91607 688.13529 681.21002 0.00147
2149 32.92907 685.15103 660.49005 0.00151
2150 32.94207 681.92083 665.63995 0.00150
2151 32.95507 678.58367 645.15997 0.00155
2152 32.96807 675.21448 660.49005 0.00151
2153 32.98107 671.97918 655.36005 0.00153
2154 32.99407 668.92350 645.15997 0.00155
2155 33.00707 666.13098 665.63995 0.00150
2156 33.02007 663.65610 655.36005 0.00153
2157 33.03307 661.50225 670.81000 0.00149
2158 33.04607 659.74419 676.00000 0.00148
2159 33.05907 658.51483 681.21002 0.00147
2160 33.07207 657.79377 665.63995 0.00150
2161 33.08507 657.57023 696.95996 0.00143
2162 33.09807 657.88551 665.63995 0.00150
2163 33.11107 658.84051 635.04004 0.00157
2164 33.12407 660.43524 686.44006 0.00146
2165 33.13707 662.67930 691.68994 0.00145
2166 33.15007 665.62926 676.00000 0.00148
2167 33.16307 669.52980 686.44006 0.00146
2168 33.17607 674.57488 696.95996 0.00143
2169 33.18907 680.72654 691.68994 0.00145
2170 33.20207 688.06198 702.25000 0.00142
2171 33.21507 696.86658 723.60999 0.00138
2172 33.22807 707.36090 718.23993 0.00139
2173 33.24107 718.72640 745.28998 0.00134
2174 33.25407 730.54224 767.29004 0.00130
2175 33.26707 742.24850 784.00000 0.00128
2176 33.28007 751.69164 806.56000 0.00124
2177 33.29307 758.47392 800.88995 0.00125
2178 33.30607 762.54755 829.43994 0.00121
2179 33.31907 764.04097 829.43994 0.00121
2180 33.33207 763.37146 846.81000 0.00118
2181 33.34507 762.12671 829.43994 0.00121
2182 33.35807 760.73345 852.64001 0.00117
2183 33.37107 759.36505 812.25000 0.00123
2184 33.38407 758.17715 800.88995 0.00125
2185 33.39707 756.83244 795.24005 0.00126
2186 33.41007 755.71575 806.56000 0.00124
2187 33.42307 754.95394 800.88995 0.00125
2188 33.43607 754.34314 795.24005 0.00126
2189 33.44907 753.41167 806.56000 0.00124
2190 33.46207 751.60707 784.00000 0.00128
2191 33.47507 748.59836 795.24005 0.00126
2192 33.48807 743.77710 795.24005 0.00126
2193 33.50107 738.25831 795.24005 0.00126
2194 33.51407 732.43276 789.61005 0.00127
2195 33.52707 726.70219 784.00000 0.00128
2196 33.54007 720.83680 761.76001 0.00131
2197 33.55307 715.21205 750.75995 0.00133
2198 33.56607 709.59127 750.75995 0.00133
2199 33.57907 704.07651 734.41003 0.00136
2200 33.59207 699.11652 729.00000 0.00137
2201 33.60507 695.27298 734.41003 0.00136
2202 33.61807 692.76973 734.41003 0.00136
2203 33.63107 691.71197 723.60999 0.00138
2204 33.64407 692.68271 718.23993 0.00139
2205 33.65707 695.87457 707.56000 0.00141
2206 33.67007 700.99679 712.89001 0.00140
2207 33.68307 708.09226 723.60999 0.00138
2208 33.69607 717.87912 723.60999 0.00138
2209 33.70907 729.90721 745.28998 0.00134
2210 33.72207 743.47880 756.25000 0.00132
2211 33.73507 758.09328 767.29004 0.00130
2212 33.74807 772.27868 778.40997 0.00128
2213 33.76107 783.77095 789.61005 0.00127
2214 33.77407 791.78730 817.96002 0.00122
2215 33.78707 795.66152 823.69006 0.00121
2216 33.80007 793.96603 812.25000 0.00123
2217 33.81307 788.83056 806.56000 0.00124
2218 33.82607 781.85418 784.00000 0.00128
2219 33.83907 773.56995 772.83997 0.00129
2220 33.85207 764.08172 767.29004 0.00130
2221 33.86507 753.16580 750.75995 0.00133
2222 33.87807 741.13019 756.25000 0.00132
2223 33.89107 728.16661 745.28998 0.00134
2224 33.90407 714.68313 729.00000 0.00137
2225 33.91707 701.87081 718.23993 0.00139
2226 33.93007 690.11454 686.44006 0.00146
2227 33.94307 679.63287 681.21002 0.00147
2228 33.95607 670.78274 681.21002 0.00147
2229 33.96907 663.57854 670.81000 0.00149
2230 33.98207 657.52591 665.63995 0.00150
2231 33.99507 652.56740 665.63995 0.00150
2232 34.00807 648.67191 676.00000 0.00148
2233 34.02107 645.75001 665.63995 0.00150
2234 34.03407 643.49445 655.36005 0.00153
2235 34.04707 641.90522 645.15997 0.00155
2236 34.06007 640.93973 660.49005 0.00151
2237 34.07307 640.58823 655.36005 0.00153
2238 34.08607 640.70590 645.15997 0.00155
2239 34.09907 641.35544 635.04004 0.00157
2240 34.11207 642.55922 640.08997 0.00156
2241 34.12507 644.31797 655.36005 0.00153
2242 34.13807 646.57672 655.36005 0.00153
2243 34.15107 649.45582 665.63995 0.00150
2244 34.16407 653.09410 676.00000 0.00148
2245 34.17707 657.45318 660.49005 0.00151
2246 34.19007 662.54792 650.25000 0.00154
2247 34.20307 668.53783 681.21002 0.00147
2248 34.21607 675.86229 686.44006 0.00146
2249 34.22907 684.40098 707.56000 0.00141
2250 34.24207 694.28056 686.44006 0.00146
2251 34.25507 705.68850 686.44006 0.00146
2252 34.26807 719.66249 745.28998 0.00134
2253 34.28107 735.94557 734.41003 0.00136
2254 34.29407 754.77765 756.25000 0.00132
2255 34.30707 776.43663 772.83997 0.00129
2256 34.32007 802.54155 812.25000 0.00123
2257 34.33307 832.64485 846.81000 0.00118
2258 34.34607 866.26295 894.00995 0.00112
2259 34.35907 903.13351 924.15997 0.00108
2260 34.37207 942.87646 973.44006 0.00103
2261 34.38507 983.30786 1017.60999 0.00098
2262 34.39807 1022.84980 1043.28992 0.00096
2263 34.41107 1060.57833 1069.29004 0.00094
2264 34.42407 1095.29181 1082.41016 0.00092
2265 34.43707 1125.44519 1128.95984 0.00089
2266 34.45007 1150.60439 1142.43994 0.00088
2267 34.46307 1169.80918 1149.21008 0.00087
2268 34.47607 1182.07372 1142.43994 0.00088
2269 34.48907 1183.98333 1135.69006 0.00088
2270 34.50207 1181.37553 1149.21008 0.00087
2271 34.51507 1176.23726 1135.69006 0.00088
2272 34.52807 1171.26025 1115.56006 0.00090
2273 34.54107 1167.75093 1082.41016 0.00092
2274 34.55407 1165.07506 1115.56006 0.00090
2275 34.56707 1162.36972 1115.56006 0.00090
2276 34.58007 1157.80089 1115.56006 0.00090
2277 34.59307 1147.61989 1102.23999 0.00091
2278 34.60607 1132.28721 1108.88989 0.00090
2279 34.61907 1111.79908 1075.83997 0.00093
2280 34.63207 1085.46278 1056.25000 0.00095
2281 34.64507 1055.74334 1024.00000 0.00098
2282 34.65807 1026.49613 1024.00000 0.00098
2283 34.67107 997.59643 992.25000 0.00101
2284 34.68407 969.32701 973.44006 0.00103
2285 34.69707 940.61706 942.49005 0.00106
2286 34.71007 911.82495 912.04004 0.00110
2287 34.72307 882.69416 900.00000 0.00111
2288 34.73607 853.57866 876.16003 0.00114
2289 34.74907 826.09428 852.64001 0.00117
2290 34.76207 801.02541 829.43994 0.00121
2291 34.77507 778.11539 806.56000 0.00124
2292 34.78807 757.49666 784.00000 0.00128
2293 34.80107 739.85242 739.84003 0.00135
2294 34.81407 724.30739 756.25000 0.00132
2295 34.82707 710.61382 761.76001 0.00131
2296 34.84007 698.61591 745.28998 0.00134
2297 34.85307 688.49076 712.89001 0.00140
2298 34.86607 679.65615 691.68994 0.00145
2299 34.87907 671.76954 696.95996 0.00143
2300 34.89207 664.79858 696.95996 0.00143
2301 34.90507 658.83909 681.21002 0.00147
2302 34.91807 653.80355 676.00000 0.00148
2303 34.93107 649.65054 665.63995 0.00150
2304 34.94407 646.37540 676.00000 0.00148
2305 34.95707 644.09375 670.81000 0.00149
2306 34.97007 642.74488 660.49005 0.00151
2307 34.98307 642.27305 665.63995 0.00150
2308 34.99607 642.64383 670.81000 0.00149
2309 35.00907 644.10647 686.44006 0.00146
2310 35.02207 646.57584 681.21002 0.00147
2311 35.03507 650.08104 660.49005 0.00151
2312 35.04807 654.69423 665.63995 0.00150
2313 35.06107 660.87734 696.95996 0.00143
2314 35.07407 668.74541 712.89001 0.00140
2315 35.08707 678.34881 718.23993 0.00139
2316 35.10007 689.88379 734.41003 0.00136
2317 35.11307 703.98481 723.60999 0.00138
2318 35.12607 720.98353 739.84003 0.00135
2319 35.13907 740.27984 784.00000 0.00128
2320 35.15207 761.61002 812.25000 0.00123
2321 35.16507 784.67996 841.00000 0.00119
2322 35.17807 807.29215 858.48993 0.00116
2323 35.19107 827.52803 870.25000 0.00115
2324 35.20407 844.30273 882.09003 0.00113
2325 35.21707 857.03255 894.00995 0.00112
2326 35.23007 863.23713 900.00000 0.00111
2327 35.24307 866.78918 906.01001 0.00110
2328 35.25607 869.04103 900.00000 0.00111
2329 35.26907 871.64463 906.01001 0.00110
2330 35.28207 874.85868 918.08997 0.00109
2331 35.29507 878.31823 906.01001 0.00110
2332 35.30807 881.90330 900.00000 0.00111
2333 35.32107 885.30901 912.04004 0.00110
2334 35.33407 887.11667 906.01001 0.00110
2335 35.34707 887.14777 888.03998 0.00113
2336 35.36007 885.02000 882.09003 0.00113
2337 35.37307 879.21933 882.09003 0.00113
2338 35.38607 869.33807 858.48993 0.00116
2339 35.39907 857.78458 876.16003 0.00114
2340 35.41207 844.52084 835.20996 0.00120
2341 35.42507 830.18421 806.56000 0.00124
2342 35.43807 814.80562 806.56000 0.00124
2343 35.45107 798.98920 795.24005 0.00126
2344 35.46407 782.38405 761.76001 0.00131
2345 35.47707 764.94409 761.76001 0.00131
2346 35.49007 746.76037 739.84003 0.00135
2347 35.50307 729.12126 712.89001 0.00140
2348 35.51607 712.32306 707.56000 0.00141
2349 35.52907 696.71165 696.95996 0.00143
2350 35.54207 683.10057 707.56000 0.00141
2351 35.55507 671.37162 696.95996 0.00143
2352 35.56807 661.41097 718.23993 0.00139
2353 35.58107 653.13917 696.95996 0.00143
2354 35.59407 646.79445 660.49005 0.00151
2355 35.60707 642.23345 681.21002 0.00147
2356 35.62007 639.11592 686.44006 0.00146
2357 35.63307 637.22670 691.68994 0.00145
2358 35.64607 636.74270 660.49005 0.00151
2359 35.65907 637.52883 655.36005 0.00153
2360 35.67207 639.10869 660.49005 0.00151
2361 35.68507 641.29524 676.00000 0.00148
2362 35.69807 643.99207 676.00000 0.00148
2363 35.71107 647.20373 655.36005 0.00153
2364 35.72407 650.70365 676.00000 0.00148
2365 35.73707 654.82364 696.95996 0.00143
2366 35.75007 659.76634 686.44006 0.00146
2367 35.76307 666.06706 691.68994 0.00145
2368 35.77607 673.40738 723.60999 0.00138
2369 35.78907 681.39663 707.56000 0.00141
2370 35.80207 689.65837 750.75995 0.00133
2371 35.81507 697.51256 750.75995 0.00133
2372 35.82807 703.37848 778.40997 0.00128
2373 35.84107 707.03834 772.83997 0.00129
2374 35.85407 708.42933 772.83997 0.00129
2375 35.86707 707.66126 789.61005 0.00127
2376 35.88007 704.73245 772.83997 0.00129
2377 35.89307 701.38905 745.28998 0.00134
2378 35.90607 697.82828 761.76001 0.00131
2379 35.91907 694.38610 739.84003 0.00135
2380 35.93207 690.78085 745.28998 0.00134
2381 35.94507 686.91945 691.68994 0.00145
2382 35.95807 683.06875 707.56000 0.00141
2383 35.97107 679.68910 702.25000 0.00142
2384 35.98407 677.20409 681.21002 0.00147
2385 35.99707 676.25297 676.00000 0.00148
2386 36.01007 677.06444 670.81000 0.00149
2387 36.02307 680.06213 665.63995 0.00150
2388 36.03607 685.75900 665.63995 0.00150
2389 36.04907 694.25907 691.68994 0.00145
2390 36.06207 705.51800 707.56000 0.00141
2391 36.07507 719.85726 696.95996 0.00143
2392 36.08807 738.78233 718.23993 0.00139
2393 36.10107 761.71585 734.41003 0.00136
2394 36.11407 788.78391 756.25000 0.00132
2395 36.12707 820.02155 795.24005 0.00126
2396 36.14007 856.43256 846.81000 0.00118
2397 36.15307 894.98863 882.09003 0.00113
2398 36.16607 933.51906 967.21002 0.00103
2399 36.17907 969.82217 1049.76013 0.00095
2400 36.19207 998.11289 1122.25000 0.00089
2401 36.20507 1015.00494 1183.36011 0.00085
2402 36.21807 1021.82348 1197.15991 0.00084
2403 36.23107 1019.25570 1183.36011 0.00085
2404 36.24407 1008.17119 1135.69006 0.00088
2405 36.25707 992.61383 1082.41016 0.00092
2406 36.27007 974.97842 1056.25000 0.00095
2407 36.28307 955.41819 1036.84009 0.00096
2408 36.29607 933.52875 998.56000 0.00100
2409 36.30907 907.82618 961.00000 0.00104
2410 36.32207 880.25515 924.15997 0.00108
2411 36.33507 851.75723 870.25000 0.00115
2412 36.34807 823.38695 806.56000 0.00124
2413 36.36107 797.59050 767.29004 0.00130
2414 36.37407 774.51475 750.75995 0.00133
2415 36.38707 753.90099 712.89001 0.00140
2416 36.40007 735.61987 681.21002 0.00147
2417 36.41307 719.95420 660.49005 0.00151
2418 36.42607 705.71631 650.25000 0.00154
2419 36.43907 692.92673 640.08997 0.00156
2420 36.45207 681.58101 625.00000 0.00160
2421 36.46507 671.88397 620.01001 0.00161
2422 36.47807 663.63998 615.03998 0.00163
2423 36.49107 656.41935 615.03998 0.00163
2424 36.50407 650.19744 610.09003 0.00164
2425 36.51707 644.86724 595.35999 0.00168
2426 36.53007 640.41144 576.00000 0.00174
2427 36.54307 636.77700 590.48999 0.00169
2428 36.55607 634.16090 605.16003 0.00165
2429 36.56907 632.45730 595.35999 0.00168
2430 36.58207 631.91765 610.09003 0.00164
2431 36.59507 632.42262 595.35999 0.00168
2432 36.60807 634.05619 585.64001 0.00171
2433 36.62107 637.00891 595.35999 0.00168
2434 36.63407 641.32079 595.35999 0.00168
2435 36.64707 646.81933 605.16003 0.00165
2436 36.66007 653.32588 595.35999 0.00168
2437 36.67307 660.53412 600.25000 0.00167
2438 36.68607 667.47552 610.09003 0.00164
2439 36.69907 673.52012 615.03998 0.00163
2440 36.71207 678.03340 625.00000 0.00160
2441 36.72507 679.72909 625.00000 0.00160
2442 36.73807 678.81343 615.03998 0.00163
2443 36.75107 676.23863 615.03998 0.00163
2444 36.76407 672.39349 605.16003 0.00165
2445 36.77707 667.84896 600.25000 0.00167
2446 36.79007 662.97840 615.03998 0.00163
2447 36.80307 657.90935 610.09003 0.00164
2448 36.81607 652.52774 620.01001 0.00161
2449 36.82907 646.78600 585.64001 0.00171
2450 36.84207 640.58494 590.48999 0.00169
2451 36.85507 634.57155 610.09003 0.00164
2452 36.86807 629.03248 605.16003 0.00165
2453 36.88107 624.21896 620.01001 0.00161
2454 36.89407 620.58031 605.16003 0.00165
2455 36.90707 618.24257 585.64001 0.00171
2456 36.92007 617.13327 605.16003 0.00165
2457 36.93307 617.25355 580.81000 0.00172
2458 36.94607 618.79175 620.01001 0.00161
2459 36.95907 621.74775 620.01001 0.00161
2460 36.97207 625.84198 625.00000 0.00160
2461 36.98507 630.87351 610.09003 0.00164
2462 36.99807 636.60617 625.00000 0.00160
2463 37.01107 642.67147 630.01001 0.00159
2464 37.02407 649.17221 630.01001 0.00159
2465 37.03707 655.89511 630.01001 0.00159
2466 37.05007 662.82187 650.25000 0.00154
2467 37.06307 670.21512 665.63995 0.00150
2468 37.07607 679.25913 655.36005 0.00153
2469 37.08907 689.59121 681.21002 0.00147
2470 37.10207 701.17081 707.56000 0.00141
2471 37.11507 713.60176 723.60999 0.00138
2472 37.12807 726.48277 718.23993 0.00139
2473 37.14107 738.30246 734.41003 0.00136
2474 37.15407 748.02739 739.84003 0.00135
2475 37.16707 754.86119 767.29004 0.00130
2476 37.18007 757.43862 784.00000 0.00128
2477 37.19307 755.96227 772.83997 0.00129
2478 37.20607 752.01569 784.00000 0.00128
2479 37.21907 746.32457 739.84003 0.00135
2480 37.23207 739.58707 729.00000 0.00137
2481 37.24507 732.33088 723.60999 0.00138
2482 37.25807 724.71388 734.41003 0.00136
2483 37.27107 716.59028 718.23993 0.00139
2484 37.28407 707.88979 696.95996 0.00143
2485 37.29707 698.51663 696.95996 0.00143
2486 37.31007 689.48690 691.68994 0.00145
2487 37.32307 681.28710 707.56000 0.00141
2488 37.33607 674.31409 702.25000 0.00142
2489 37.34907 669.35125 696.95996 0.00143
2490 37.36207 666.29298 686.44006 0.00146
2491 37.37507 665.29241 681.21002 0.00147
2492 37.38807 666.40300 676.00000 0.00148
2493 37.40107 669.90034 660.49005 0.00151
2494 37.41407 675.53390 665.63995 0.00150
2495 37.42707 683.67091 696.95996 0.00143
2496 37.44007 694.43164 676.00000 0.00148
2497 37.45307 708.12700 702.25000 0.00142
2498 37.46607 724.91832 734.41003 0.00136
2499 37.47907 745.25522 745.28998 0.00134
2500 37.49207 770.04360 756.25000 0.00132
2501 37.50507 799.04320 767.29004 0.00130
2502 37.51807 832.36066 784.00000 0.00128
2503 37.53107 869.56331 823.69006 0.00121
2504 37.54407 910.77647 870.25000 0.00115
2505 37.55707 953.74309 918.08997 0.00109
2506 37.57007 995.75294 954.81000 0.00105
2507 37.58307 1035.37582 992.25000 0.00101
2508 37.59607 1070.52140 1024.00000 0.00098
2509 37.60907 1099.24710 1062.75989 0.00094
2510 37.62207 1121.55908 1062.75989 0.00094
2511 37.63507 1138.02626 1069.29004 0.00094
2512 37.64807 1149.06043 1095.60986 0.00091
2513 37.66107 1152.17162 1108.88989 0.00090
2514 37.67407 1149.96881 1115.56006 0.00090
2515 37.68707 1142.06312 1122.25000 0.00089
2516 37.70007 1128.00184 1122.25000 0.00089
2517 37.71307 1106.43260 1089.00000 0.00092
2518 37.72607 1079.11511 1075.83997 0.00093
2519 37.73907 1047.56684 1062.75989 0.00094
2520 37.75207 1012.98603 1017.60999 0.00098
2521 37.76507 976.74568 985.95996 0.00101
2522 37.77807 941.09067 954.81000 0.00105
2523 37.79107 907.00372 924.15997 0.00108
2524 37.80407 874.75896 888.03998 0.00113
2525 37.81707 843.97839 852.64001 0.00117
2526 37.83007 815.74383 829.43994 0.00121
2527 37.84307 789.89822 800.88995 0.00125
2528 37.85607 766.62725 761.76001 0.00131
2529 37.86907 746.15282 718.23993 0.00139
2530 37.88207 729.29114 707.56000 0.00141
2531 37.89507 715.87023 712.89001 0.00140
2532 37.90807 705.47285 718.23993 0.00139
2533 37.92107 697.79583 702.25000 0.00142
2534 37.93407 692.91624 691.68994 0.00145
2535 37.94707 690.29469 702.25000 0.00142
2536 37.96007 688.97721 718.23993 0.00139
2537 37.97307 688.33779 718.23993 0.00139
2538 37.98607 688.06949 702.25000 0.00142
2539 37.99907 687.67183 707.56000 0.00141
2540 38.01207 686.25080 729.00000 0.00137
2541 38.02507 684.48791 707.56000 0.00141
2542 38.03807 682.71945 707.56000 0.00141
2543 38.05107 681.21942 707.56000 0.00141
2544 38.06407 679.98994 712.89001 0.00140
2545 38.07707 679.11587 707.56000 0.00141
2546 38.09007 678.94528 718.23993 0.00139
2547 38.10307 679.74798 729.00000 0.00137
2548 38.11607 681.32577 723.60999 0.00138
2549 38.12907 683.88515 723.60999 0.00138
2550 38.14207 687.82856 750.75995 0.00133
2551 38.15507 693.40128 734.41003 0.00136
2552 38.16807 699.95299 723.60999 0.00138
2553 38.18107 707.10859 718.23993 0.00139
2554 38.19407 714.19505 739.84003 0.00135
2555 38.20707 718.98988 729.00000 0.00137
2556 38.22007 721.31054 729.00000 0.00137
2557 38.23307 721.15116 718.23993 0.00139
2558 38.24607 718.30078 734.41003 0.00136
2559 38.25907 712.60562 734.41003 0.00136
2560 38.27207 706.07344 723.60999 0.00138
2561 38.28507 699.19605 718.23993 0.00139
2562 38.29807 692.12859 712.89001 0.00140
2563 38.31107 684.54820 734.41003 0.00136
2564 38.32407 676.29464 686.44006 0.00146
2565 38.33707 667.61922 712.89001 0.00140
2566 38.35007 658.65489 681.21002 0.00147
2567 38.36307 649.64555 686.44006 0.00146
2568 38.37607 641.39212 655.36005 0.00153
2569 38.38907 634.27477 650.25000 0.00154
2570 38.40207 628.61162 640.08997 0.00156
2571 38.41507 624.60428 625.00000 0.00160
2572 38.42807 622.38297 630.01001 0.00159
2573 38.44107 621.71204 645.15997 0.00155
2574 38.45407 622.82299 640.08997 0.00156
2575 38.46707 625.50851 660.49005 0.00151
2576 38.48007 629.76363 635.04004 0.00157
2577 38.49307 635.31578 640.08997 0.00156
2578 38.50607 642.13101 655.36005 0.00153
2579 38.51907 650.42221 645.15997 0.00155
2580 38.53207 660.15342 670.81000 0.00149
2581 38.54507 671.20835 670.81000 0.00149
2582 38.55807 683.62097 676.00000 0.00148
2583 38.57107 697.97824 696.95996 0.00143
2584 38.58407 713.21432 686.44006 0.00146
2585 38.59707 728.49226 718.23993 0.00139
2586 38.61007 742.88148 707.56000 0.00141
2587 38.62307 754.34953 745.28998 0.00134
2588 38.63607 761.63721 739.84003 0.00135
2589 38.64907 765.10918 739.84003 0.00135
2590 38.66207 765.06030 767.29004 0.00130
2591 38.67507 762.01141 756.25000 0.00132
2592 38.68807 756.80597 761.76001 0.00131
2593 38.70107 750.42849 767.29004 0.00130
2594 38.71407 742.88119 745.28998 0.00134
2595 38.72707 733.99258 745.28998 0.00134
2596 38.74007 723.04928 729.00000 0.00137
2597 38.75307 710.18621 707.56000 0.00141
2598 38.76607 696.39125 681.21002 0.00147
2599 38.77907 682.11401 691.68994 0.00145
2600 38.79207 667.95254 696.95996 0.00143
2601 38.80507 654.72518 686.44006 0.00146
2602 38.81807 642.46524 660.49005 0.00151
2603 38.83107 631.26169 645.15997 0.00155
2604 38.84407 621.14769 645.15997 0.00155
2605 38.85707 612.38967 640.08997 0.00156
2606 38.87007 604.80390 625.00000 0.00160
2607 38.88307 598.33759 615.03998 0.00163
2608 38.89607 592.91720 595.35999 0.00168
2609 38.90907 588.55661 585.64001 0.00171
2610 38.92207 585.29534 580.81000 0.00172
2611 38.93507 582.91818 576.00000 0.00174
2612 38.94807 581.33739 576.00000 0.00174
2613 38.96107 580.50701 571.20996 0.00175
2614 38.97407 580.49050 571.20996 0.00175
2615 38.98707 581.24455 585.64001 0.00171
2616 39.00007 582.71640 595.35999 0.00168
2617 39.01307 584.88962 580.81000 0.00172
2618 39.02607 587.81843 576.00000 0.00174
2619 39.03907 591.64553 580.81000 0.00172
2620 39.05207 596.44867 576.00000 0.00174
2621 39.06507 602.18515 585.64001 0.00171
2622 39.07807 608.97033 605.16003 0.00165
2623 39.09107 617.04703 590.48999 0.00169
2624 39.10407 626.84154 571.20996 0.00175
2625 39.11707 638.23829 595.35999 0.00168
2626 39.13007 651.43885 615.03998 0.00163
2627 39.14307 666.78879 625.00000 0.00160
2628 39.15607 685.34014 655.36005 0.00153
2629 39.16907 706.69937 660.49005 0.00151
2630 39.18207 730.96334 676.00000 0.00148
2631 39.19507 758.45286 696.95996 0.00143
2632 39.20807 789.43239 729.00000 0.00137
2633 39.22107 822.34148 767.29004 0.00130
2634 39.23407 855.76370 795.24005 0.00126
2635 39.24707 888.51896 829.43994 0.00121
2636 39.26007 917.50037 864.35999 0.00116
2637 39.27307 939.90380 888.03998 0.00113
2638 39.28607 956.33748 900.00000 0.00111
2639 39.29907 966.59065 930.25000 0.00107
2640 39.31207 970.59064 936.36005 0.00107
2641 39.32507 970.28238 924.15997 0.00108
2642 39.33807 967.44429 912.04004 0.00110
2643 39.35107 962.31219 888.03998 0.00113
2644 39.36407 955.59235 888.03998 0.00113
2645 39.37707 947.26461 888.03998 0.00113
2646 39.39007 938.00827 912.04004 0.00110
2647 39.40307 928.40535 906.01001 0.00110
2648 39.41607 919.02333 894.00995 0.00112
2649 39.42907 910.70049 918.08997 0.00109
2650 39.44207 903.39472 912.04004 0.00110
2651 39.45507 896.69740 942.49005 0.00106
2652 39.46807 889.59559 942.49005 0.00106
2653 39.48107 880.82301 954.81000 0.00105
2654 39.49407 870.18442 979.68994 0.00102
2655 39.50707 857.35596 979.68994 0.00102
2656 39.52007 842.42225 942.49005 0.00106
2657 39.53307 825.93562 912.04004 0.00110
2658 39.54607 809.66111 894.00995 0.00112
2659 39.55907 793.69096 882.09003 0.00113
2660 39.57207 778.13306 846.81000 0.00118
2661 39.58507 762.50446 829.43994 0.00121
2662 39.59807 746.57948 829.43994 0.00121
2663 39.61107 730.21013 823.69006 0.00121
2664 39.62407 713.49551 778.40997 0.00128
2665 39.63707 696.89815 767.29004 0.00130
2666 39.65007 681.22450 707.56000 0.00141
2667 39.66307 666.70385 702.25000 0.00142
2668 39.67607 653.61334 681.21002 0.00147
2669 39.68907 642.43876 660.49005 0.00151
2670 39.70207 633.00430 645.15997 0.00155
2671 39.71507 624.96458 635.04004 0.00157
2672 39.72807 618.20470 615.03998 0.00163
2673 39.74107 612.83093 620.01001 0.00161
2674 39.75407 608.63694 600.25000 0.00167
2675 39.76707 605.40708 620.01001 0.00161
2676 39.78007 603.10855 630.01001 0.00159
2677 39.79307 601.90564 610.09003 0.00164
2678 39.80607 601.86779 590.48999 0.00169
2679 39.81907 602.82085 620.01001 0.00161
2680 39.83207 604.78394 610.09003 0.00164
2681 39.84507 607.86132 610.09003 0.00164
2682 39.85807 612.47625 590.48999 0.00169
2683 39.87107 618.33094 615.03998 0.00163
2684 39.88407 625.44093 630.01001 0.00159
2685 39.89707 633.81764 645.15997 0.00155
2686 39.91007 643.58412 640.08997 0.00156
2687 39.92307 653.96805 650.25000 0.00154
2688 39.93607 664.30872 670.81000 0.00149
2689 39.94907 674.00401 681.21002 0.00147
2690 39.96207 681.97441 681.21002 0.00147
2691 39.97507 686.87936 712.89001 0.00140
2692 39.98807 689.31317 696.95996 0.00143
2693 40.00107 689.54373 696.95996 0.00143
2694 40.01407 688.02725 686.44006 0.00146
2695 40.02707 685.24939 691.68994 0.00145
2696 40.04007 682.28220 696.95996 0.00143
2697 40.05307 679.18211 686.44006 0.00146
2698 40.06607 676.09260 686.44006 0.00146
2699 40.07907 672.53356 681.21002 0.00147
2700 40.09207 668.55779 686.44006 0.00146
2701 40.10507 664.54301 691.68994 0.00145
2702 40.11807 660.92170 686.44006 0.00146
2703 40.13107 658.07722 665.63995 0.00150
2704 40.14407 656.63511 665.63995 0.00150
2705 40.15707 656.88371 655.36005 0.00153
2706 40.17007 659.18210 625.00000 0.00160
2707 40.18307 663.81154 625.00000 0.00160
2708 40.19607 670.97460 655.36005 0.00153
2709 40.20907 680.32647 665.63995 0.00150
2710 40.22207 692.01058 660.49005 0.00151
2711 40.23507 706.30316 665.63995 0.00150
2712 40.24807 722.46272 686.44006 0.00146
2713 40.26107 739.85294 702.25000 0.00142
2714 40.27407 758.04688 718.23993 0.00139
2715 40.28707 775.68700 723.60999 0.00138
2716 40.30007 791.25301 739.84003 0.00135
2717 40.31307 803.87734 756.25000 0.00132
2718 40.32607 812.76331 767.29004 0.00130
2719 40.33907 815.46171 767.29004 0.00130
2720 40.35207 813.96589 761.76001 0.00131
2721 40.36507 809.51798 767.29004 0.00130
2722 40.37807 802.80583 778.40997 0.00128
2723 40.39107 794.62613 767.29004 0.00130
2724 40.40407 785.69535 739.84003 0.00135
2725 40.41707 776.05566 739.84003 0.00135
2726 40.43007 765.80537 723.60999 0.00138
2727 40.44307 754.60819 712.89001 0.00140
2728 40.45607 742.54640 707.56000 0.00141
2729 40.46907 730.60565 702.25000 0.00142
2730 40.48207 719.47220 707.56000 0.00141
2731 40.49507 709.88198 691.68994 0.00145
2732 40.50807 702.69590 676.00000 0.00148
2733 40.52107 697.85719 660.49005 0.00151
2734 40.53407 695.63069 660.49005 0.00151
2735 40.54707 696.28719 681.21002 0.00147
2736 40.56007 699.61129 681.21002 0.00147
2737 40.57307 704.74172 686.44006 0.00146
2738 40.58607 711.21923 696.95996 0.00143
2739 40.59907 717.61381 696.95996 0.00143
2740 40.61207 723.04470 670.81000 0.00149
2741 40.62507 726.69697 681.21002 0.00147
2742 40.63807 727.85171 691.68994 0.00145
2743 40.65107 724.92134 681.21002 0.00147
2744 40.66407 720.10911 696.95996 0.00143
2745 40.67707 713.92145 696.95996 0.00143
2746 40.69007 706.80947 676.00000 0.00148
2747 40.70307 699.14858 665.63995 0.00150
2748 40.71607 691.18945 650.25000 0.00154
2749 40.72907 682.79231 660.49005 0.00151
2750 40.74207 673.75773 655.36005 0.00153
2751 40.75507 663.63407 645.15997 0.00155
2752 40.76807 652.97563 640.08997 0.00156
2753 40.78107 642.23699 615.03998 0.00163
2754 40.79407 631.68014 625.00000 0.00160
2755 40.80707 621.86268 595.35999 0.00168
2756 40.82007 613.10149 600.25000 0.00167
2757 40.83307 605.33759 625.00000 0.00160
2758 40.84607 598.56095 605.16003 0.00165
2759 40.85907 592.95394 585.64001 0.00171
2760 40.87207 588.37911 605.16003 0.00165
2761 40.88507 584.56904 585.64001 0.00171
2762 40.89807 581.47577 571.20996 0.00175
2763 40.91107 579.10873 595.35999 0.00168
2764 40.92407 577.42526 552.25000 0.00181
2765 40.93707 576.23140 576.00000 0.00174
2766 40.95007 575.51779 605.16003 0.00165
2767 40.96307 575.28243 585.64001 0.00171
2768 40.97607 575.57783 580.81000 0.00172
2769 40.98907 576.29466 576.00000 0.00174
2770 41.00207 577.43891 561.69006 0.00178
2771 41.01507 579.01921 600.25000 0.00167
2772 41.02807 581.12829 595.35999 0.00168
2773 41.04107 583.69000 580.81000 0.00172
2774 41.05407 586.72584 600.25000 0.00167
2775 41.06707 590.25941 585.64001 0.00171
2776 41.08007 594.42748 600.25000 0.00167
2777 41.09307 599.19792 640.08997 0.00156
2778 41.10607 604.57529 630.01001 0.00159
2779 41.11907 610.63317 635.04004 0.00157
2780 41.13207 617.54667 650.25000 0.00154
2781 41.14507 625.43915 645.15997 0.00155
2782 41.15807 634.32026 640.08997 0.00156
2783 41.17107 644.37056 670.81000 0.00149
2784 41.18407 655.86102 681.21002 0.00147
2785 41.19707 669.25849 696.95996 0.00143
2786 41.21007 684.45406 712.89001 0.00140
2787 41.22307 701.76405 707.56000 0.00141
2788 41.23607 721.45175 734.41003 0.00136
2789 41.24907 744.39702 761.76001 0.00131
2790 41.26207 769.87944 761.76001 0.00131
2791 41.27507 797.97220 795.24005 0.00126
2792 41.28807 828.43116 835.20996 0.00120
2793 41.30107 860.33739 864.35999 0.00116
2794 41.31407 891.72412 912.04004 0.00110
2795 41.32707 921.77584 948.63995 0.00105
2796 41.34007 949.32828 967.21002 0.00103
2797 41.35307 971.32218 985.95996 0.00101
2798 41.36607 988.69677 1024.00000 0.00098
2799 41.37907 1003.67093 1049.76013 0.00095
2800 41.39207 1017.39333 1030.40991 0.00097
2801 41.40507 1030.49999 1036.84009 0.00096
2802 41.41807 1044.84235 1069.29004 0.00094
2803 41.43107 1061.35942 1069.29004 0.00094
2804 41.44407 1079.80006 1089.00000 0.00092
2805 41.45707 1098.40040 1108.88989 0.00090
2806 41.47007 1115.83148 1115.56006 0.00090
2807 41.48307 1131.30246 1128.95984 0.00089
2808 41.49607 1142.14192 1190.25000 0.00084
2809 41.50907 1148.12048 1204.09009 0.00083
2810 41.52207 1149.55244 1197.15991 0.00084
2811 41.53507 1145.64351 1197.15991 0.00084
2812 41.54807 1136.38836 1183.36011 0.00085
2813 41.56107 1124.65770 1162.80994 0.00086
2814 41.57407 1112.17654 1142.43994 0.00088
2815 41.58707 1099.08767 1156.00000 0.00087
2816 41.60007 1085.36646 1162.80994 0.00086
2817 41.61307 1071.67330 1128.95984 0.00089
2818 41.62607 1058.56886 1095.60986 0.00091
2819 41.63907 1045.38009 1069.29004 0.00094
2820 41.65207 1031.84436 1056.25000 0.00095
2821 41.66507 1019.44135 1036.84009 0.00096
2822 41.67807 1008.52476 1030.40991 0.00097
2823 41.69107 999.34326 1024.00000 0.00098
2824 41.70407 993.39557 1011.23993 0.00099
2825 41.71707 991.58507 1011.23993 0.00099
2826 41.73007 994.55575 998.56000 0.00100
2827 41.74307 1002.26996 985.95996 0.00101
2828 41.75607 1015.36249 985.95996 0.00101
2829 41.76907 1034.27208 1017.60999 0.00098
2830 41.78207 1057.20994 1043.28992 0.00096
2831 41.79507 1082.03588 1069.29004 0.00094
2832 41.80807 1107.49226 1095.60986 0.00091
2833 41.82107 1131.50037 1128.95984 0.00089
2834 41.83407 1150.26339 1156.00000 0.00087
2835 41.84707 1162.91107 1149.21008 0.00087
2836 41.86007 1170.19921 1149.21008 0.00087
2837 41.87307 1171.61908 1149.21008 0.00087
2838 41.88607 1167.00624 1149.21008 0.00087
2839 41.89907 1158.96051 1142.43994 0.00088
2840 41.91207 1148.38688 1135.69006 0.00088
2841 41.92507 1135.55741 1108.88989 0.00090
2842 41.93807 1119.99060 1095.60986 0.00091
2843 41.95107 1102.15898 1095.60986 0.00091
2844 41.96407 1083.04888 1062.75989 0.00094
2845 41.97707 1062.85361 1049.76013 0.00095
2846 41.99007 1041.62490 1030.40991 0.00097
2847 42.00307 1021.05809 1004.89008 0.00100
2848 42.01607 1002.12617 992.25000 0.00101
2849 42.02907 985.22336 985.95996 0.00101
2850 42.04207 970.99252 948.63995 0.00105
2851 42.05507 960.91720 942.49005 0.00106
2852 42.06807 954.89621 954.81000 0.00105
2853 42.08107 952.74517 942.49005 0.00106
2854 42.09407 954.41215 924.15997 0.00108
2855 42.10707 960.46645 954.81000 0.00105
2856 42.12007 969.66855 954.81000 0.00105
2857 42.13307 981.40661 961.00000 0.00104
2858 42.14607 994.78014 954.81000 0.00105
2859 42.15907 1008.40497 998.56000 0.00100
2860 42.17207 1020.90886 979.68994 0.00102
2861 42.18507 1033.55094 1004.89008 0.00100
2862 42.19807 1045.71131 1036.84009 0.00096
2863 42.21107 1057.41695 1043.28992 0.00096
2864 42.22407 1069.60431 1069.29004 0.00094
2865 42.23707 1082.74075 1075.83997 0.00093
2866 42.25007 1095.04519 1108.88989 0.00090
2867 42.26307 1105.49377 1102.23999 0.00091
2868 42.27607 1112.40403 1122.25000 0.00089
2869 42.28907 1113.02415 1135.69006 0.00088
2870 42.30207 1107.87084 1156.00000 0.00087
2871 42.31507 1098.26500 1135.69006 0.00088
2872 42.32807 1085.33895 1089.00000 0.00092
2873 42.34107 1070.74418 1089.00000 0.00092
2874 42.35407 1056.41387 1056.25000 0.00095
2875 42.36707 1043.06602 1056.25000 0.00095
2876 42.38007 1031.37383 1030.40991 0.00097
2877 42.39307 1021.19740 1017.60999 0.00098
2878 42.40607 1011.33523 1036.84009 0.00096
2879 42.41907 1001.92760 998.56000 0.00100
2880 42.43207 993.03634 1017.60999 0.00098
2881 42.44507 983.52994 1049.76013 0.00095
2882 42.45807 973.45706 1056.25000 0.00095
2883 42.47107 962.77000 1069.29004 0.00094
2884 42.48407 951.29185 1011.23993 0.00099
2885 42.49707 938.01332 1030.40991 0.00097
2886 42.51007 925.30384 1004.89008 0.00100
2887 42.52307 913.45437 967.21002 0.00103
2888 42.53607 902.78238 942.49005 0.00106
2889 42.54907 893.75470 906.01001 0.00110
2890 42.56207 886.79376 936.36005 0.00107
2891 42.57507 881.31293 882.09003 0.00113
2892 42.58807 876.72251 900.00000 0.00111
2893 42.60107 872.28995 912.04004 0.00110
2894 42.61407 868.13283 888.03998 0.00113
2895 42.62707 863.78361 846.81000 0.00118
2896 42.64007 859.37562 835.20996 0.00120
2897 42.65307 855.34749 817.96002 0.00122
2898 42.66607 852.28894 835.20996 0.00120
2899 42.67907 850.15287 812.25000 0.00123
2900 42.69207 849.44644 800.88995 0.00125
2901 42.70507 850.17072 829.43994 0.00121
2902 42.71807 852.04851 823.69006 0.00121
2903 42.73107 854.42821 806.56000 0.00124
2904 42.74407 855.94029 829.43994 0.00121
2905 42.75707 855.99009 829.43994 0.00121
2906 42.77007 854.99828 806.56000 0.00124
2907 42.78307 853.03528 829.43994 0.00121
2908 42.79607 850.38179 852.64001 0.00117
2909 42.80907 847.92316 846.81000 0.00118
2910 42.82207 846.77820 829.43994 0.00121
2911 42.83507 847.27907 829.43994 0.00121
2912 42.84807 849.82313 835.20996 0.00120
2913 42.86107 854.15132 823.69006 0.00121
2914 42.87407 860.43062 823.69006 0.00121
2915 42.88707 869.18465 829.43994 0.00121
2916 42.90007 881.04078 841.00000 0.00119
2917 42.91307 896.15406 852.64001 0.00117
2918 42.92607 915.17790 841.00000 0.00119
2919 42.93907 939.50890 870.25000 0.00115
2920 42.95207 969.73448 924.15997 0.00108
2921 42.96507 1005.72082 948.63995 0.00105
2922 42.97807 1047.35859 954.81000 0.00105
2923 42.99107 1094.79635 998.56000 0.00100
2924 43.00407 1146.66581 1056.25000 0.00095
2925 43.01707 1199.78648 1108.88989 0.00090
2926 43.03007 1252.03424 1162.80994 0.00086
2927 43.04307 1299.99657 1218.01013 0.00082
2928 43.05607 1338.88766 1267.35986 0.00079
2929 43.06907 1365.42814 1310.44006 0.00076
2930 43.08207 1381.06929 1354.23999 0.00074
2931 43.09507 1384.87639 1361.61011 0.00073
2932 43.10807 1377.13160 1354.23999 0.00074
2933 43.12107 1361.31624 1324.96008 0.00075
2934 43.13407 1340.11502 1324.96008 0.00075
2935 43.14707 1314.49816 1317.68994 0.00076
2936 43.16007 1284.79124 1274.49011 0.00078
2937 43.17307 1250.66797 1260.25000 0.00079
2938 43.18607 1212.57344 1218.01013 0.00082
2939 43.19907 1171.00527 1156.00000 0.00087
2940 43.21207 1125.92634 1142.43994 0.00088
2941 43.22507 1078.92615 1089.00000 0.00092
2942 43.23807 1031.97204 1056.25000 0.00095
2943 43.25107 985.92957 985.95996 0.00101
2944 43.26407 942.10078 961.00000 0.00104
2945 43.27707 901.62772 918.08997 0.00109
2946 43.29007 864.97775 870.25000 0.00115
2947 43.30307 831.69360 835.20996 0.00120
2948 43.31607 802.04850 835.20996 0.00120
2949 43.32907 776.19925 800.88995 0.00125
2950 43.34207 753.75083 767.29004 0.00130
2951 43.35507 734.01826 756.25000 0.00132
2952 43.36807 716.75143 729.00000 0.00137
2953 43.38107 701.98919 723.60999 0.00138
2954 43.39407 689.34029 718.23993 0.00139
2955 43.40707 678.38925 729.00000 0.00137
2956 43.42007 668.91584 712.89001 0.00140
2957 43.43307 660.90250 702.25000 0.00142
2958 43.44607 654.20328 660.49005 0.00151
2959 43.45907 648.66066 665.63995 0.00150
2960 43.47207 644.11224 676.00000 0.00148
2961 43.48507 640.51774 660.49005 0.00151
2962 43.49807 637.84060 650.25000 0.00154
2963 43.51107 636.05651 645.15997 0.00155
2964 43.52407 635.06300 670.81000 0.00149
2965 43.53707 634.79532 650.25000 0.00154
2966 43.55007 635.23037 650.25000 0.00154
2967 43.56307 636.38945 650.25000 0.00154
2968 43.57607 638.39633 655.36005 0.00153
2969 43.58907 641.18729 665.63995 0.00150
2970 43.60207 644.84883 655.36005 0.00153
2971 43.61507 649.45169 640.08997 0.00156
2972 43.62807 655.43712 665.63995 0.00150
2973 43.64107 662.56415 691.68994 0.00145
2974 43.65407 670.83765 686.44006 0.00146
2975 43.66707 680.22693 681.21002 0.00147
2976 43.68007 690.81573 712.89001 0.00140
2977 43.69307 702.02427 739.84003 0.00135
2978 43.70607 713.35065 718.23993 0.00139
2979 43.71907 724.39673 729.00000 0.00137
2980 43.73207 734.38981 772.83997 0.00129
2981 43.74507 742.56921 750.75995 0.00133
2982 43.75807 749.20907 739.84003 0.00135
2983 43.77107 754.47706 739.84003 0.00135
2984 43.78407 758.62547 772.83997 0.00129
2985 43.79707 762.19809 767.29004 0.00130
2986 43.81007 766.04749 756.25000 0.00132
2987 43.82307 770.40898 778.40997 0.00128
2988 43.83607 775.53390 784.00000 0.00128
2989 43.84907 781.74542 778.40997 0.00128
2990 43.86207 789.07161 784.00000 0.00128
2991 43.87507 797.59589 800.88995 0.00125
2992 43.88807 807.55821 823.69006 0.00121
2993 43.90107 819.68545 846.81000 0.00118
2994 43.91407 834.31992 846.81000 0.00118
2995 43.92707 851.11157 841.00000 0.00119
2996 43.94007 869.89189 888.03998 0.00113
2997 43.95307 890.73708 900.00000 0.00111
2998 43.96607 911.84463 967.21002 0.00103
2999 43.97907 931.89234 979.68994 0.00102
3000 43.99207 950.12881 1004.89008 0.00100
3001 44.00507 965.92678 1036.84009 0.00096
3002 44.01807 976.77560 1049.76013 0.00095
3003 44.03107 984.56822 1024.00000 0.00098
3004 44.04407 989.66820 1043.28992 0.00096
3005 44.05707 991.72036 1036.84009 0.00096
3006 44.07007 990.45626 1043.28992 0.00096
3007 44.08307 986.45135 1056.25000 0.00095
3008 44.09607 979.46260 1043.28992 0.00096
3009 44.10907 969.29024 1036.84009 0.00096
3010 44.12207 955.53611 1043.28992 0.00096
3011 44.13507 939.14050 1011.23993 0.00099
3012 44.14807 921.13770 973.44006 0.00103
3013 44.16107 902.14916 954.81000 0.00105
3014 44.17407 882.36165 948.63995 0.00105
3015 44.18707 862.86623 924.15997 0.00108
3016 44.20007 843.77718 894.00995 0.00112
3017 44.21307 825.05261 888.03998 0.00113
3018 44.22607 806.62519 858.48993 0.00116
3019 44.23907 789.32233 823.69006 0.00121
3020 44.25207 772.85603 829.43994 0.00121
3021 44.26507 757.21636 812.25000 0.00123
3022 44.27807 742.82626 778.40997 0.00128
3023 44.29107 730.21037 756.25000 0.00132
3024 44.30407 719.21439 756.25000 0.00132
3025 44.31707 709.82427 756.25000 0.00132
3026 44.33007 702.10135 739.84003 0.00135
3027 44.34307 696.24732 729.00000 0.00137
3028 44.35607 691.91202 718.23993 0.00139
3029 44.36907 688.98334 718.23993 0.00139
3030 44.38207 687.36260 718.23993 0.00139
3031 44.39507 687.34175 718.23993 0.00139
3032 44.40807 688.77485 702.25000 0.00142
3033 44.42107 691.56383 696.95996 0.00143
3034 44.43407 695.81925 718.23993 0.00139
3035 44.44707 701.61249 729.00000 0.00137
3036 44.46007 708.93157 739.84003 0.00135
3037 44.47307 717.44208 723.60999 0.00138
3038 44.48607 727.49812 729.00000 0.00137
3039 44.49907 738.96977 734.41003 0.00136
3040 44.51207 752.00881 756.25000 0.00132
3041 44.52507 766.31644 756.25000 0.00132
3042 44.53807 781.82751 772.83997 0.00129
3043 44.55107 798.08878 784.00000 0.00128
3044 44.56407 815.31306 795.24005 0.00126
3045 44.57707 832.80540 823.69006 0.00121
3046 44.59007 849.84287 817.96002 0.00122
3047 44.60307 865.88675 852.64001 0.00117
3048 44.61607 881.16410 876.16003 0.00114
3049 44.62907 894.57955 888.03998 0.00113
3050 44.64207 905.62115 852.64001 0.00117
3051 44.65507 914.02240 835.20996 0.00120
3052 44.66807 918.97777 894.00995 0.00112
3053 44.68107 919.53432 888.03998 0.00113
3054 44.69407 917.41250 876.16003 0.00114
3055 44.70707 913.19157 870.25000 0.00115
3056 44.72007 907.34440 882.09003 0.00113
3057 44.73307 900.43001 864.35999 0.00116
3058 44.74607 893.17657 864.35999 0.00116
3059 44.75907 886.00380 852.64001 0.00117
3060 44.77207 878.91427 852.64001 0.00117
3061 44.78507 871.37141 870.25000 0.00115
3062 44.79807 863.66660 870.25000 0.00115
3063 44.81107 856.46100 864.35999 0.00116
3064 44.82407 849.72970 858.48993 0.00116
3065 44.83707 843.26688 888.03998 0.00113
3066 44.85007 837.37188 858.48993 0.00116
3067 44.86307 831.64480 894.00995 0.00112
3068 44.87607 825.41991 864.35999 0.00116
3069 44.88907 819.06384 841.00000 0.00119
3070 44.90207 813.12064 852.64001 0.00117
3071 44.91507 807.43644 846.81000 0.00118
3072 44.92807 802.28530 846.81000 0.00118
3073 44.94107 798.16491 806.56000 0.00124
3074 44.95407 795.12775 806.56000 0.00124
3075 44.96707 792.75509 823.69006 0.00121
3076 44.98007 789.96937 835.20996 0.00120
3077 44.99307 786.25553 817.96002 0.00122
3078 45.00607 781.24266 823.69006 0.00121
3079 45.01907 774.71814 823.69006 0.00121
3080 45.03207 765.92461 772.83997 0.00129
3081 45.04507 756.12473 756.25000 0.00132
3082 45.05807 745.88245 784.00000 0.00128
3083 45.07107 735.71872 772.83997 0.00129
3084 45.08407 725.91854 750.75995 0.00133
3085 45.09707 716.85028 750.75995 0.00133
3086 45.11007 708.32736 750.75995 0.00133
3087 45.12307 700.27493 696.95996 0.00143
3088 45.13607 692.43455 686.44006 0.00146
3089 45.14907 684.84333 691.68994 0.00145
3090 45.16207 677.49250 676.00000 0.00148
3091 45.17507 670.53983 670.81000 0.00149
3092 45.18807 664.21751 655.36005 0.00153
3093 45.20107 658.84172 655.36005 0.00153
3094 45.21407 654.41136 645.15997 0.00155
3095 45.22707 650.98218 660.49005 0.00151
3096 45.24007 648.73376 640.08997 0.00156
3097 45.25307 647.70311 645.15997 0.00155
3098 45.26607 647.65948 650.25000 0.00154
3099 45.27907 648.44449 660.49005 0.00151
3100 45.29207 650.25492 665.63995 0.00150
3101 45.30507 653.21362 655.36005 0.00153
3102 45.31807 657.19061 655.36005 0.00153
3103 45.33107 662.18186 665.63995 0.00150
3104 45.34407 668.45177 670.81000 0.00149
3105 45.35707 676.36324 676.00000 0.00148
3106 45.37007 685.72012 681.21002 0.00147
3107 45.38307 696.47510 686.44006 0.00146
3108 45.39607 708.62334 681.21002 0.00147
3109 45.40907 722.53784 696.95996 0.00143
3110 45.42207 737.27397 723.60999 0.00138
3111 45.43507 752.25264 734.41003 0.00136
3112 45.44807 766.99166 729.00000 0.00137
3113 45.46107 780.22953 745.28998 0.00134
3114 45.47407 790.64623 767.29004 0.00130
3115 45.48707 797.94502 784.00000 0.00128
3116 45.50007 802.06253 795.24005 0.00126
3117 45.51307 802.50952 789.61005 0.00127
3118 45.52607 799.71200 778.40997 0.00128
3119 45.53907 795.47187 784.00000 0.00128
3120 45.55207 790.34762 761.76001 0.00131
3121 45.56507 784.81201 756.25000 0.00132
3122 45.57807 779.06855 756.25000 0.00132
3123 45.59107 773.16350 745.28998 0.00134
3124 45.60407 766.96884 750.75995 0.00133
3125 45.61707 760.39790 761.76001 0.00131
3126 45.63007 753.17100 756.25000 0.00132
3127 45.64307 745.88866 745.28998 0.00134
3128 45.65607 739.14485 729.00000 0.00137
3129 45.66907 733.27508 729.00000 0.00137
3130 45.68207 728.67917 723.60999 0.00138
3131 45.69507 726.05194 734.41003 0.00136
3132 45.70807 725.34441 739.84003 0.00135
3133 45.72107 726.49492 734.41003 0.00136
3134 45.73407 729.33611 734.41003 0.00136
3135 45.74707 733.90250 718.23993 0.00139
3136 45.76007 739.78754 729.00000 0.00137
3137 45.77307 746.41420 729.00000 0.00137
3138 45.78607 753.32951 723.60999 0.00138
3139 45.79907 760.14194 756.25000 0.00132
3140 45.81207 766.90282 767.29004 0.00130
3141 45.82507 773.22000 778.40997 0.00128
3142 45.83807 778.91167 778.40997 0.00128
3143 45.85107 784.08476 767.29004 0.00130
3144 45.86407 788.35788 795.24005 0.00126
3145 45.87707 790.91047 789.61005 0.00127
3146 45.89007 791.64455 761.76001 0.00131
3147 45.90307 790.35691 767.29004 0.00130
3148 45.91607 786.57535 778.40997 0.00128
3149 45.92907 780.51151 784.00000 0.00128
3150 45.94207 773.23894 772.83997 0.00129
3151 45.95507 765.26298 784.00000 0.00128
3152 45.96807 757.15500 756.25000 0.00132
3153 45.98107 749.35594 756.25000 0.00132
3154 45.99407 741.97309 745.28998 0.00134
3155 46.00707 735.04961 723.60999 0.00138
3156 46.02007 728.68711 745.28998 0.00134
3157 46.03307 722.71681 723.60999 0.00138
3158 46.04607 717.42161 723.60999 0.00138
3159 46.05907 713.02718 729.00000 0.00137
3160 46.07207 709.68990 739.84003 0.00135
3161 46.08507 707.69881 691.68994 0.00145
3162 46.09807 706.87472 702.25000 0.00142
3163 46.11107 706.98895 707.56000 0.00141
3164 46.12407 707.70596 718.23993 0.00139
3165 46.13707 708.15344 707.56000 0.00141
3166 46.15007 708.16824 707.56000 0.00141
3167 46.16307 707.34937 702.25000 0.00142
3168 46.17607 705.42027 712.89001 0.00140
3169 46.18907 702.15688 718.23993 0.00139
3170 46.20207 698.23908 723.60999 0.00138
3171 46.21507 693.65811 670.81000 0.00149
3172 46.22807 688.73818 702.25000 0.00142
3173 46.24107 683.65821 691.68994 0.00145
3174 46.25407 678.50895 686.44006 0.00146
3175 46.26707 673.18501 686.44006 0.00146
3176 46.28007 667.63770 723.60999 0.00138
3177 46.29307 661.70399 691.68994 0.00145
3178 46.30607 655.52634 712.89001 0.00140
3179 46.31907 649.24559 665.63995 0.00150
3180 46.33207 642.96160 681.21002 0.00147
3181 46.34507 636.95275 650.25000 0.00154
3182 46.35807 631.50333 681.21002 0.00147
3183 46.37107 626.72026 645.15997 0.00155
3184 46.38407 622.70540 660.49005 0.00151
3185 46.39707 619.56146 630.01001 0.00159
3186 46.41007 617.31304 630.01001 0.00159
3187 46.42307 615.83371 620.01001 0.00161
3188 46.43607 614.95397 640.08997 0.00156
3189 46.44907 614.60059 630.01001 0.00159
3190 46.46207 614.73274 650.25000 0.00154
3191 46.47507 615.16833 625.00000 0.00160
3192 46.48807 615.63926 655.36005 0.00153
3193 46.50107 616.37012 630.01001 0.00159
3194 46.51407 617.53221 630.01001 0.00159
3195 46.52707 619.08408 630.01001 0.00159
3196 46.54007 621.07495 635.04004 0.00157
3197 46.55307 623.73183 635.04004 0.00157
3198 46.56607 627.34861 635.04004 0.00157
3199 46.57907 631.76013 645.15997 0.00155
3200 46.59207 636.97626 645.15997 0.00155
3201 46.60507 642.96551 640.08997 0.00156
3202 46.61807 650.18256 650.25000 0.00154
3203 46.63107 658.19757 635.04004 0.00157
3204 46.64407 666.86604 625.00000 0.00160
3205 46.65707 676.06091 650.25000 0.00154
3206 46.67007 685.42208 670.81000 0.00149
3207 46.68307 694.13548 640.08997 0.00156
3208 46.69607 701.72316 635.04004 0.00157
3209 46.70907 707.81526 655.36005 0.00153
3210 46.72207 711.45339 645.15997 0.00155
3211 46.73507 712.48840 660.49005 0.00151
3212 46.74807 711.81729 645.15997 0.00155
3213 46.76107 709.82142 625.00000 0.00160
3214 46.77407 706.88255 640.08997 0.00156
3215 46.78707 703.60361 640.08997 0.00156
3216 46.80007 700.35590 645.15997 0.00155
3217 46.81307 697.11990 635.04004 0.00157
3218 46.82607 693.83170 625.00000 0.00160
3219 46.83907 689.88128 650.25000 0.00154
3220 46.85207 685.27243 640.08997 0.00156
3221 46.86507 680.04231 630.01001 0.00159
3222 46.87807 674.23073 635.04004 0.00157
3223 46.89107 667.85851 635.04004 0.00157
3224 46.90407 661.43280 645.15997 0.00155
3225 46.91707 655.35236 645.15997 0.00155
3226 46.93007 649.84524 635.04004 0.00157
3227 46.94307 645.17781 640.08997 0.00156
3228 46.95607 641.54742 620.01001 0.00161
3229 46.96907 638.95624 610.09003 0.00164
3230 46.98207 637.33269 640.08997 0.00156
3231 46.99507 636.57399 645.15997 0.00155
3232 47.00807 636.57972 625.00000 0.00160
3233 47.02107 637.22111 630.01001 0.00159
3234 47.03407 638.19544 645.15997 0.00155
3235 47.04707 639.40866 640.08997 0.00156
3236 47.06007 640.95144 635.04004 0.00157
3237 47.07307 642.69185 635.04004 0.00157
3238 47.08607 644.50730 645.15997 0.00155
3239 47.09907 646.49540 635.04004 0.00157
3240 47.11207 648.74647 635.04004 0.00157
3241 47.12507 651.01914 640.08997 0.00156
3242 47.13807 653.52817 640.08997 0.00156
3243 47.15107 656.45012 645.15997 0.00155
3244 47.16407 659.89285 645.15997 0.00155
3245 47.17707 663.93573 650.25000 0.00154
3246 47.19007 668.90623 655.36005 0.00153
3247 47.20307 675.02133 665.63995 0.00150
3248 47.21607 682.27314 681.21002 0.00147
3249 47.22907 690.61491 691.68994 0.00145
3250 47.24207 699.99466 712.89001 0.00140
3251 47.25507 710.38294 718.23993 0.00139
3252 47.26807 721.22758 723.60999 0.00138
3253 47.28107 732.08845 739.84003 0.00135
3254 47.29407 742.59848 778.40997 0.00128
3255 47.30707 751.58221 761.76001 0.00131
3256 47.32007 758.76117 778.40997 0.00128
3257 47.33307 764.12622 812.25000 0.00123
3258 47.34607 767.64092 829.43994 0.00121
3259 47.35907 768.87646 829.43994 0.00121
3260 47.37207 768.54859 829.43994 0.00121
3261 47.38507 767.09983 829.43994 0.00121
3262 47.39807 764.70105 806.56000 0.00124
3263 47.41107 761.39046 800.88995 0.00125
3264 47.42407 756.93924 784.00000 0.00128
3265 47.43707 750.92969 767.29004 0.00130
3266 47.45007 743.87036 767.29004 0.00130
3267 47.46307 735.83881 767.29004 0.00130
3268 47.47607 726.67633 745.28998 0.00134
3269 47.48907 717.03558 718.23993 0.00139
3270 47.50207 707.40600 729.00000 0.00137
3271 47.51507 697.92840 718.23993 0.00139
3272 47.52807 688.82864 686.44006 0.00146
3273 47.54107 680.22121 691.68994 0.00145
3274 47.55407 672.03603 696.95996 0.00143
3275 47.56707 664.18291 660.49005 0.00151
3276 47.58007 656.74810 655.36005 0.00153
3277 47.59307 649.91086 655.36005 0.00153
3278 47.60607 643.69720 650.25000 0.00154
3279 47.61907 638.14974 620.01001 0.00161
3280 47.63207 633.38014 645.15997 0.00155
3281 47.64507 629.62311 600.25000 0.00167
3282 47.65807 626.90634 600.25000 0.00167
3283 47.67107 625.09455 620.01001 0.00161
3284 47.68407 623.98257 630.01001 0.00159
3285 47.69707 623.50001 630.01001 0.00159
3286 47.71007 623.50659 645.15997 0.00155
3287 47.72307 623.54679 645.15997 0.00155
3288 47.73607 623.39618 610.09003 0.00164
3289 47.74907 623.01551 635.04004 0.00157
3290 47.76207 622.34112 665.63995 0.00150
3291 47.77507 621.00585 630.01001 0.00159
3292 47.78807 619.48124 605.16003 0.00165
3293 47.80107 617.92460 615.03998 0.00163
3294 47.81407 616.52277 600.25000 0.00167
3295 47.82707 615.43105 600.25000 0.00167
3296 47.84007 614.75591 590.48999 0.00169
3297 47.85307 614.49853 610.09003 0.00164
3298 47.86607 614.68922 620.01001 0.00161
3299 47.87907 615.25829 625.00000 0.00160
3300 47.89207 616.03796 610.09003 0.00164
3301 47.90507 617.04288 595.35999 0.00168
3302 47.91807 618.28713 600.25000 0.00167
3303 47.93107 619.61681 610.09003 0.00164
3304 47.94407 620.93372 600.25000 0.00167
3305 47.95707 622.17654 605.16003 0.00165
3306 47.97007 623.27222 620.01001 0.00161
3307 47.98307 623.74891 610.09003 0.00164
3308 47.99607 623.97367 600.25000 0.00167
3309 48.00907 623.97204 600.25000 0.00167
3310 48.02207 623.85744 595.35999 0.00168
3311 48.03507 623.78877 585.64001 0.00171
3312 48.04807 624.12182 595.35999 0.00168
3313 48.06107 624.86164 605.16003 0.00165
3314 48.07407 626.07300 615.03998 0.00163
3315 48.08707 627.88994 600.25000 0.00167
3316 48.10007 630.20102 580.81000 0.00172
3317 48.11307 632.97813 610.09003 0.00164
3318 48.12607 636.23567 645.15997 0.00155
3319 48.13907 640.14495 640.08997 0.00156
3320 48.15207 644.88394 620.01001 0.00161
3321 48.16507 650.46344 635.04004 0.00157
3322 48.17807 656.95495 640.08997 0.00156
3323 48.19107 664.55741 635.04004 0.00157
3324 48.20407 673.44543 660.49005 0.00151
3325 48.21707 683.22136 660.49005 0.00151
3326 48.23007 693.76551 655.36005 0.00153
3327 48.24307 704.96537 676.00000 0.00148
3328 48.25607 716.45197 681.21002 0.00147
3329 48.26907 727.76137 686.44006 0.00146
3330 48.28207 738.60916 707.56000 0.00141
3331 48.29507 748.74456 734.41003 0.00136
3332 48.30807 757.41837 750.75995 0.00133
3333 48.32107 764.16828 739.84003 0.00135
3334 48.33407 769.13154 734.41003 0.00136
3335 48.34707 772.29563 761.76001 0.00131
3336 48.36007 773.64321 756.25000 0.00132
3337 48.37307 772.98290 734.41003 0.00136
3338 48.38607 771.25740 729.00000 0.00137
3339 48.39907 768.75191 729.00000 0.00137
3340 48.41207 765.91057 745.28998 0.00134
3341 48.42507 762.63677 750.75995 0.00133
3342 48.43807 759.31461 750.75995 0.00133
3343 48.45107 756.06138 739.84003 0.00135
3344 48.46407 753.23218 739.84003 0.00135
3345 48.47707 750.65557 729.00000 0.00137
3346 48.49007 748.58478 718.23993 0.00139
3347 48.50307 747.26348 718.23993 0.00139
3348 48.51607 747.15867 702.25000 0.00142
3349 48.52907 748.36433 712.89001 0.00140
3350 48.54207 751.06029 712.89001 0.00140
3351 48.55507 755.21850 691.68994 0.00145
3352 48.56807 760.99093 712.89001 0.00140
3353 48.58107 768.24676 707.56000 0.00141
3354 48.59407 776.96963 739.84003 0.00135
3355 48.60707 786.82692 734.41003 0.00136
3356 48.62007 797.72398 734.41003 0.00136
3357 48.63307 809.34353 756.25000 0.00132
3358 48.64607 821.33822 784.00000 0.00128
3359 48.65907 833.23759 806.56000 0.00124
3360 48.67207 844.60811 823.69006 0.00121
3361 48.68507 853.54626 870.25000 0.00115
3362 48.69807 860.18748 882.09003 0.00113
3363 48.71107 864.53243 888.03998 0.00113
3364 48.72407 866.55390 888.03998 0.00113
3365 48.73707 865.83864 852.64001 0.00117
3366 48.75007 863.90429 852.64001 0.00117
3367 48.76307 861.61864 835.20996 0.00120
3368 48.77607 859.34386 835.20996 0.00120
3369 48.78907 857.27801 817.96002 0.00122
3370 48.80207 855.16813 817.96002 0.00122
3371 48.81507 852.75630 846.81000 0.00118
3372 48.82807 849.74457 829.43994 0.00121
3373 48.84107 844.97871 829.43994 0.00121
3374 48.85407 838.52695 800.88995 0.00125
3375 48.86707 830.85834 812.25000 0.00123
3376 48.88007 822.41590 784.00000 0.00128
3377 48.89307 813.13172 800.88995 0.00125
3378 48.90607 804.50385 756.25000 0.00132
3379 48.91907 796.86045 767.29004 0.00130
3380 48.93207 790.73179 750.75995 0.00133
3381 48.94507 786.19804 745.28998 0.00134
3382 48.95807 783.59407 745.28998 0.00134
3383 48.97107 782.52174 739.84003 0.00135
3384 48.98407 782.88024 745.28998 0.00134
3385 48.99707 784.47841 739.84003 0.00135
3386 49.01007 787.16122 789.61005 0.00127
3387 49.02307 790.82515 756.25000 0.00132
3388 49.03607 795.10357 761.76001 0.00131
3389 49.04907 800.08546 767.29004 0.00130
3390 49.06207 805.46170 800.88995 0.00125
3391 49.07507 810.98059 795.24005 0.00126
3392 49.08807 816.14694 800.88995 0.00125
3393 49.10107 820.15700 806.56000 0.00124
3394 49.11407 822.70575 812.25000 0.00123
3395 49.12707 824.10789 817.96002 0.00122
3396 49.14007 824.31217 817.96002 0.00122
3397 49.15307 823.29285 806.56000 0.00124
3398 49.16607 821.59463 817.96002 0.00122
3399 49.17907 820.05097 817.96002 0.00122
3400 49.19207 818.62493 817.96002 0.00122
3401 49.20507 817.29500 812.25000 0.00123
3402 49.21807 815.84642 817.96002 0.00122
3403 49.23107 813.81922 829.43994 0.00121
3404 49.24407 810.41641 829.43994 0.00121
3405 49.25707 805.71465 835.20996 0.00120
3406 49.27007 799.46830 835.20996 0.00120
3407 49.28307 791.85320 829.43994 0.00121
3408 49.29607 783.19736 829.43994 0.00121
3409 49.30907 774.46056 823.69006 0.00121
3410 49.32207 766.16667 806.56000 0.00124
3411 49.33507 758.84951 812.25000 0.00123
3412 49.34807 752.61164 789.61005 0.00127
3413 49.36107 747.63575 778.40997 0.00128
3414 49.37407 743.93725 772.83997 0.00129
3415 49.38707 741.58325 778.40997 0.00128
3416 49.40007 740.23252 778.40997 0.00128
3417 49.41307 739.84093 778.40997 0.00128
3418 49.42607 740.67506 761.76001 0.00131
3419 49.43907 742.66796 772.83997 0.00129
3420 49.45207 745.74247 756.25000 0.00132
3421 49.46507 749.99335 767.29004 0.00130
3422 49.47807 755.27299 778.40997 0.00128
3423 49.49107 761.26316 767.29004 0.00130
3424 49.50407 767.87879 767.29004 0.00130
3425 49.51707 774.95156 778.40997 0.00128
3426 49.53007 782.07529 784.00000 0.00128
3427 49.54307 789.16280 800.88995 0.00125
3428 49.55607 796.34230 817.96002 0.00122
3429 49.56907 803.66076 812.25000 0.00123
3430 49.58207 811.67013 812.25000 0.00123
3431 49.59507 820.04313 835.20996 0.00120
3432 49.60807 828.89944 852.64001 0.00117
3433 49.62107 838.54331 835.20996 0.00120
3434 49.63407 849.31012 835.20996 0.00120
3435 49.64707 860.38151 864.35999 0.00116
3436 49.66007 871.46904 870.25000 0.00115
3437 49.67307 882.30753 864.35999 0.00116
3438 49.68607 891.74838 870.25000 0.00115
3439 49.69907 898.57808 876.16003 0.00114
3440 49.71207 902.72663 876.16003 0.00114
3441 49.72507 903.87130 870.25000 0.00115
3442 49.73807 901.14805 864.35999 0.00116
3443 49.75107 895.12670 882.09003 0.00113
3444 49.76407 887.25112 846.81000 0.00118
3445 49.77707 877.99218 829.43994 0.00121
3446 49.79007 867.84207 835.20996 0.00120
3447 49.80307 857.48449 835.20996 0.00120
3448 49.81607 847.07055 817.96002 0.00122
3449 49.82907 836.43706 806.56000 0.00124
3450 49.84207 825.38638 789.61005 0.00127
3451 49.85507 813.26124 789.61005 0.00127
3452 49.86807 800.28894 778.40997 0.00128
3453 49.88107 786.70464 767.29004 0.00130
3454 49.89407 772.64041 778.40997 0.00128
3455 49.90707 758.49166 739.84003 0.00135
3456 49.92007 744.94853 729.00000 0.00137
3457 49.93307 732.28376 723.60999 0.00138
3458 49.94607 720.68536 718.23993 0.00139
3459 49.95907 710.62590 707.56000 0.00141
3460 49.97207 702.04634 696.95996 0.00143
3461 49.98507 694.83898 702.25000 0.00142
3462 49.99807 689.06160 686.44006 0.00146
3463 50.01107 684.89162 691.68994 0.00145
3464 50.02407 682.19720 681.21002 0.00147
3465 50.03707 680.92663 665.63995 0.00150
3466 50.05007 681.08253 681.21002 0.00147
3467 50.06307 682.72255 681.21002 0.00147
3468 50.07607 685.80799 660.49005 0.00151
3469 50.08907 690.30787 691.68994 0.00145
3470 50.10207 696.03104 702.25000 0.00142
3471 50.11507 702.89410 723.60999 0.00138
3472 50.12807 711.03995 681.21002 0.00147
3473 50.14107 720.47464 707.56000 0.00141
3474 50.15407 731.14188 739.84003 0.00135
3475 50.16707 743.04802 718.23993 0.00139
3476 50.18007 756.69801 756.25000 0.00132
3477 50.19307 772.09244 756.25000 0.00132
3478 50.20607 789.13547 806.56000 0.00124
3479 50.21907 807.69886 806.56000 0.00124
3480 50.23207 827.87570 846.81000 0.00118
3481 50.24507 849.15795 858.48993 0.00116
3482 50.25807 870.44591 858.48993 0.00116
3483 50.27107 891.63634 864.35999 0.00116
3484 50.28407 912.22262 882.09003 0.00113
3485 50.29707 931.58575 918.08997 0.00109
3486 50.31007 948.81730 961.00000 0.00104
3487 50.32307 964.29151 998.56000 0.00100
3488 50.33607 976.99961 998.56000 0.00100
3489 50.34907 986.34551 1030.40991 0.00097
3490 50.36207 993.05051 1004.89008 0.00100
3491 50.37507 997.34815 1017.60999 0.00098
3492 50.38807 999.12532 1017.60999 0.00098
3493 50.40107 998.49279 985.95996 0.00101
3494 50.41407 996.68780 973.44006 0.00103
3495 50.42707 993.78502 1004.89008 0.00100
3496 50.44007 989.93641 985.95996 0.00101
3497 50.45307 985.16602 985.95996 0.00101
3498 50.46607 979.62200 973.44006 0.00103
3499 50.47907 973.14364 942.49005 0.00106
3500 50.49207 965.65327 948.63995 0.00105
3501 50.50507 957.21546 954.81000 0.00105
3502 50.51807 947.95001 948.63995 0.00105
3503 50.53107 937.93810 942.49005 0.00106
3504 50.54407 927.28469 936.36005 0.00107
3505 50.55707 916.10484 936.36005 0.00107
3506 50.57007 904.33929 942.49005 0.00106
3507 50.58307 891.43824 906.01001 0.00110
3508 50.59607 878.17827 894.00995 0.00112
3509 50.60907 864.81639 882.09003 0.00113
3510 50.62207 851.67107 870.25000 0.00115
3511 50.63507 838.66664 876.16003 0.00114
3512 50.64807 825.93534 846.81000 0.00118
3513 50.66107 813.59820 806.56000 0.00124
3514 50.67407 801.77438 784.00000 0.00128
3515 50.68707 790.06202 772.83997 0.00129
3516 50.70007 778.35269 778.40997 0.00128
3517 50.71307 766.95593 767.29004 0.00130
3518 50.72607 756.05550 756.25000 0.00132
3519 50.73907 745.59404 729.00000 0.00137
3520 50.75207 735.90096 729.00000 0.00137
3521 50.76507 727.22411 739.84003 0.00135
3522 50.77807 719.50452 707.56000 0.00141
3523 50.79107 712.76854 681.21002 0.00147
3524 50.80407 706.96310 681.21002 0.00147
3525 50.81707 701.88026 696.95996 0.00143
3526 50.83007 697.43279 702.25000 0.00142
3527 50.84307 693.46618 691.68994 0.00145
3528 50.85607 690.03437 681.21002 0.00147
3529 50.86907 686.96730 681.21002 0.00147
3530 50.88207 684.29958 686.44006 0.00146
3531 50.89507 682.03378 681.21002 0.00147
3532 50.90807 680.29169 686.44006 0.00146
3533 50.92107 679.00220 696.95996 0.00143
3534 50.93407 677.91800 691.68994 0.00145
3535 50.94707 676.83601 686.44006 0.00146
3536 50.96007 675.62257 686.44006 0.00146
3537 50.97307 674.12072 681.21002 0.00147
3538 50.98607 671.94093 670.81000 0.00149
3539 50.99907 668.99648 681.21002 0.00147
3540 51.01207 665.66150 681.21002 0.00147
3541 51.02507 662.12739 676.00000 0.00148
3542 51.03807 658.53932 676.00000 0.00148
3543 51.05107 655.15336 676.00000 0.00148
3544 51.06407 652.22665 660.49005 0.00151
3545 51.07707 649.80530 640.08997 0.00156
3546 51.09007 647.83595 640.08997 0.00156
3547 51.10307 646.27485 645.15997 0.00155
3548 51.11607 645.05661 645.15997 0.00155
3549 51.12907 644.13209 645.15997 0.00155
3550 51.14207 643.37560 640.08997 0.00156
3551 51.15507 642.79478 650.25000 0.00154
3552 51.16807 642.45387 635.04004 0.00157
3553 51.18107 642.27431 640.08997 0.00156
3554 51.19407 642.13665 625.00000 0.00160
3555 51.20707 641.94344 620.01001 0.00161
3556 51.22007 641.27289 625.00000 0.00160
3557 51.23307 640.08342 645.15997 0.00155
3558 51.24607 638.29433 630.01001 0.00159
3559 51.25907 635.86671 635.04004 0.00157
3560 51.27207 632.69631 620.01001 0.00161
3561 51.28507 629.21736 615.03998 0.00163
3562 51.29807 625.62914 615.03998 0.00163
3563 51.31107 622.07966 605.16003 0.00165
3564 51.32407 618.72174 595.35999 0.00168
3565 51.33707 615.62689 620.01001 0.00161
3566 51.35007 612.76345 600.25000 0.00167
3567 51.36307 610.11250 615.03998 0.00163
3568 51.37607 607.57804 620.01001 0.00161
3569 51.38907 605.10699 585.64001 0.00171
3570 51.40207 602.85807 571.20996 0.00175
3571 51.41507 600.90650 590.48999 0.00169
3572 51.42807 599.35007 590.48999 0.00169
3573 51.44107 598.34076 580.81000 0.00172
3574 51.45407 598.06269 590.48999 0.00169
3575 51.46707 598.49541 590.48999 0.00169
3576 51.48007 599.72417 580.81000 0.00172
3577 51.49307 601.78903 615.03998 0.00163
3578 51.50607 604.52268 605.16003 0.00165
3579 51.51907 607.76668 615.03998 0.00163
3580 51.53207 611.60069 605.16003 0.00165
3581 51.54507 615.90641 625.00000 0.00160
3582 51.55807 620.35889 630.01001 0.00159
3583 51.57107 625.02217 615.03998 0.00163
3584 51.58407 630.12346 645.15997 0.00155
3585 51.59707 635.70762 630.01001 0.00159
3586 51.61007 641.67430 625.00000 0.00160
3587 51.62307 648.12002 681.21002 0.00147
3588 51.63607 655.02704 665.63995 0.00150
3589 51.64907 662.22821 707.56000 0.00141
3590 51.66207 669.37996 707.56000 0.00141
3591 51.67507 676.18116 702.25000 0.00142
3592 51.68807 682.35569 707.56000 0.00141
3593 51.70107 687.13302 723.60999 0.00138
3594 51.71407 690.51720 734.41003 0.00136
3595 51.72707 692.60760 734.41003 0.00136
3596 51.74007 693.57552 745.28998 0.00134
3597 51.75307 693.40193 739.84003 0.00135
3598 51.76607 692.69925 739.84003 0.00135
3599 51.77907 692.07000 696.95996 0.00143
3600 51.79207 691.78811 712.89001 0.00140
3601 51.80507 691.96006 718.23993 0.00139
3602 51.81807 692.80533 723.60999 0.00138
3603 51.83107 694.34207 712.89001 0.00140
3604 51.84407 696.48059 718.23993 0.00139
3605 51.85707 699.03564 696.95996 0.00143
3606 51.87007 701.93403 702.25000 0.00142
3607 51.88307 705.30624 729.00000 0.00137
3608 51.89607 708.99993 718.23993 0.00139
3609 51.90907 712.84929 696.95996 0.00143
3610 51.92207 716.99012 718.23993 0.00139
3611 51.93507 721.38307 729.00000 0.00137
3612 51.94807 725.49312 734.41003 0.00136
3613 51.96107 729.05488 739.84003 0.00135
3614 51.97407 732.09113 750.75995 0.00133
3615 51.98707 733.91766 723.60999 0.00138
3616 52.00007 734.42657 723.60999 0.00138
3617 52.01307 733.71498 729.00000 0.00137
3618 52.02607 731.99296 729.00000 0.00137
3619 52.03907 729.18554 723.60999 0.00138
3620 52.05207 725.89966 729.00000 0.00137
3621 52.06507 722.48098 723.60999 0.00138
3622 52.07807 719.21424 729.00000 0.00137
3623 52.09107 716.33748 718.23993 0.00139
3624 52.10407 713.85955 702.25000 0.00142
3625 52.11707 711.67857 691.68994 0.00145
3626 52.13007 709.87644 686.44006 0.00146
3627 52.14307 708.52048 691.68994 0.00145
3628 52.15607 707.28666 691.68994 0.00145
3629 52.16907 706.33030 691.68994 0.00145
3630 52.18207 705.80045 691.68994 0.00145
3631 52.19507 705.90137 681.21002 0.00147
3632 52.20807 706.47665 670.81000 0.00149
3633 52.22107 707.50093 676.00000 0.00148
3634 52.23407 708.93369 681.21002 0.00147
3635 52.24707 710.33267 686.44006 0.00146
3636 52.26007 711.49831 681.21002 0.00147
3637 52.27307 712.28135 686.44006 0.00146
3638 52.28607 712.49642 691.68994 0.00145
3639 52.29907 711.61745 702.25000 0.00142
3640 52.31207 710.01086 696.95996 0.00143
3641 52.32507 708.01141 691.68994 0.00145
3642 52.33807 705.59975 676.00000 0.00148
3643 52.35107 702.75881 681.21002 0.00147
3644 52.36407 699.58274 676.00000 0.00148
3645 52.37707 696.17027 670.81000 0.00149
3646 52.39007 692.36626 676.00000 0.00148
3647 52.40307 687.97653 681.21002 0.00147
3648 52.41607 682.87043 665.63995 0.00150
3649 52.42907 677.37022 665.63995 0.00150
3650 52.44207 671.55369 670.81000 0.00149
3651 52.45507 665.52162 650.25000 0.00154
3652 52.46807 659.44607 670.81000 0.00149
3653 52.48107 653.66158 650.25000 0.00154
3654 52.49407 648.22746 640.08997 0.00156
3655 52.50707 643.20564 630.01001 0.00159
3656 52.52007 638.69215 635.04004 0.00157
3657 52.53307 634.82390 640.08997 0.00156
3658 52.54607 631.57936 630.01001 0.00159
3659 52.55907 628.99122 620.01001 0.00161
3660 52.57207 627.21725 605.16003 0.00165
3661 52.58507 626.49493 625.00000 0.00160
3662 52.59807 626.71132 630.01001 0.00159
3663 52.61107 627.84169 645.15997 0.00155
3664 52.62407 629.94686 630.01001 0.00159
3665 52.63707 633.12232 640.08997 0.00156
3666 52.65007 637.13793 645.15997 0.00155
3667 52.66307 641.76650 655.36005 0.00153
3668 52.67607 646.88171 660.49005 0.00151
3669 52.68907 652.18334 681.21002 0.00147
3670 52.70207 657.13155 686.44006 0.00146
3671 52.71507 661.41107 718.23993 0.00139
3672 52.72807 664.78700 712.89001 0.00140
3673 52.74107 666.93291 734.41003 0.00136
3674 52.75407 667.19259 734.41003 0.00136
3675 52.76707 666.16724 723.60999 0.00138
3676 52.78007 664.14044 718.23993 0.00139
3677 52.79307 661.36293 712.89001 0.00140
3678 52.80607 658.01968 718.23993 0.00139
3679 52.81907 654.65511 712.89001 0.00140
3680 52.83207 651.44185 718.23993 0.00139
3681 52.84507 648.44030 696.95996 0.00143
3682 52.85807 645.58455 691.68994 0.00145
3683 52.87107 642.79557 660.49005 0.00151
3684 52.88407 640.02095 670.81000 0.00149
3685 52.89707 637.22492 681.21002 0.00147
3686 52.91007 634.38000 686.44006 0.00146
3687 52.92307 631.59038 665.63995 0.00150
3688 52.93607 629.00471 655.36005 0.00153
3689 52.94907 626.67334 655.36005 0.00153
3690 52.96207 624.62422 676.00000 0.00148
3691 52.97507 622.96028 635.04004 0.00157
3692 52.98807 621.36521 615.03998 0.00163
3693 53.00107 619.75344 650.25000 0.00154
3694 53.01407 618.05632 620.01001 0.00161
3695 53.02707 616.20538 620.01001 0.00161
3696 53.04007 614.06873 635.04004 0.00157
3697 53.05307 611.80456 640.08997 0.00156
3698 53.06607 609.55997 610.09003 0.00164
3699 53.07907 607.50081 615.03998 0.00163
3700 53.09207 605.76284 620.01001 0.00161
3701 53.10507 604.34234 635.04004 0.00157
3702 53.11807 603.22625 625.00000 0.00160
3703 53.13107 602.42227 615.03998 0.00163
3704 53.14407 601.76108 625.00000 0.00160
3705 53.15707 600.98978 620.01001 0.00161
3706 53.17007 600.03541 610.09003 0.00164
3707 53.18307 598.73809 610.09003 0.00164
3708 53.19607 596.77403 615.03998 0.00163
3709 53.20907 594.29457 615.03998 0.00163
3710 53.22207 591.33538 605.16003 0.00165
3711 53.23507 587.90694 615.03998 0.00163
3712 53.24807 584.00598 610.09003 0.00164
3713 53.26107 580.10341 615.03998 0.00163
3714 53.27407 576.26774 620.01001 0.00161
3715 53.28707 572.61247 610.09003 0.00164
3716 53.30007 569.24071 595.35999 0.00168
3717 53.31307 566.26335 600.25000 0.00167
3718 53.32607 563.60479 580.81000 0.00172
3719 53.33907 561.21641 576.00000 0.00174
3720 53.35207 559.00292 590.48999 0.00169
3721 53.36507 556.96690 590.48999 0.00169
3722 53.37807 555.06521 576.00000 0.00174
3723 53.39107 553.26089 580.81000 0.00172
3724 53.40407 551.51160 585.64001 0.00171
3725 53.41707 549.90392 571.20996 0.00175
3726 53.43007 548.45266 571.20996 0.00175
3727 53.44307 547.14194 571.20996 0.00175
3728 53.45607 545.93670 561.69006 0.00178
3729 53.46907 544.89270 566.43994 0.00177
3730 53.48207 544.06719 566.43994 0.00177
3731 53.49507 543.45361 561.69006 0.00178
3732 53.50807 543.10627 571.20996 0.00175
3733 53.52107 543.10054 580.81000 0.00172
3734 53.53407 543.49056 571.20996 0.00175
3735 53.54707 544.25926 566.43994 0.00177
3736 53.56007 545.44823 571.20996 0.00175
3737 53.57307 547.07121 566.43994 0.00177
3738 53.58607 549.18942 576.00000 0.00174
3739 53.59907 551.76606 585.64001 0.00171
3740 53.61207 554.85210 580.81000 0.00172
3741 53.62507 558.47780 590.48999 0.00169
3742 53.63807 562.78379 585.64001 0.00171
3743 53.65107 567.83719 576.00000 0.00174
3744 53.66407 573.70589 580.81000 0.00172
3745 53.67707 580.46574 585.64001 0.00171
3746 53.69007 588.28963 590.48999 0.00169
3747 53.70307 597.28798 600.25000 0.00167
3748 53.71607 607.42362 605.16003 0.00165
3749 53.72907 618.71070 620.01001 0.00161
3750 53.74207 631.13850 640.08997 0.00156
3751 53.75507 644.66722 635.04004 0.00157
3752 53.76807 658.79040 625.00000 0.00160
3753 53.78107 673.26245 635.04004 0.00157
3754 53.79407 687.64391 660.49005 0.00151
3755 53.80707 700.97203 686.44006 0.00146
3756 53.82007 712.71416 686.44006 0.00146
3757 53.83307 722.38832 702.25000 0.00142
3758 53.84607 729.70329 702.25000 0.00142
3759 53.85907 734.05083 729.00000 0.00137
3760 53.87207 735.88390 739.84003 0.00135
3761 53.88507 735.70825 707.56000 0.00141
3762 53.89807 733.94277 691.68994 0.00145
3763 53.91107 731.13860 696.95996 0.00143
3764 53.92407 727.76477 691.68994 0.00145
3765 53.93707 724.08748 723.60999 0.00138
3766 53.95007 720.17112 691.68994 0.00145
3767 53.96307 715.98828 707.56000 0.00141
3768 53.97607 711.17713 696.95996 0.00143
3769 53.98907 705.74646 696.95996 0.00143
3770 54.00207 699.55071 665.63995 0.00150
3771 54.01507 692.58134 707.56000 0.00141
3772 54.02807 684.82992 707.56000 0.00141
3773 54.04107 676.70029 670.81000 0.00149
3774 54.05407 668.34878 670.81000 0.00149
3775 54.06707 659.94397 670.81000 0.00149
3776 54.08007 651.85037 670.81000 0.00149
3777 54.09307 644.34180 640.08997 0.00156
3778 54.10607 637.52214 665.63995 0.00150
3779 54.11907 631.42908 645.15997 0.00155
3780 54.13207 626.17932 640.08997 0.00156
3781 54.14507 621.88602 630.01001 0.00159
3782 54.15807 618.35147 625.00000 0.00160
3783 54.17107 615.50004 625.00000 0.00160
3784 54.18407 613.18403 640.08997 0.00156
3785 54.19707 611.38859 625.00000 0.00160
3786 54.21007 609.75829 650.25000 0.00154
3787 54.22307 608.38703 640.08997 0.00156
3788 54.23607 607.18849 640.08997 0.00156
3789 54.24907 606.26600 620.01001 0.00161
3790 54.26207 605.60878 645.15997 0.00155
3791 54.27507 605.45525 640.08997 0.00156
3792 54.28807 605.83913 635.04004 0.00157
3793 54.30107 606.85763 640.08997 0.00156
3794 54.31407 608.62878 610.09003 0.00164
3795 54.32707 611.18844 645.15997 0.00155
3796 54.34007 614.50844 645.15997 0.00155
3797 54.35307 618.57408 645.15997 0.00155
3798 54.36607 623.39522 635.04004 0.00157
3799 54.37907 629.01752 630.01001 0.00159
3800 54.39207 635.43128 650.25000 0.00154
3801 54.40507 642.58527 640.08997 0.00156
3802 54.41807 650.46224 645.15997 0.00155
3803 54.43107 659.19649 670.81000 0.00149
3804 54.44407 668.90055 660.49005 0.00151
3805 54.45707 679.50339 676.00000 0.00148
3806 54.47007 691.05564 676.00000 0.00148
3807 54.48307 703.76857 686.44006 0.00146
3808 54.49607 717.90781 723.60999 0.00138
3809 54.50907 733.24929 718.23993 0.00139
3810 54.52207 749.76242 718.23993 0.00139
3811 54.53507 767.51773 756.25000 0.00132
3812 54.54807 786.25283 767.29004 0.00130
3813 54.56107 805.37816 767.29004 0.00130
3814 54.57407 824.69069 789.61005 0.00127
3815 54.58707 843.95566 806.56000 0.00124
3816 54.60007 862.58040 835.20996 0.00120
3817 54.61307 879.93296 846.81000 0.00118
3818 54.62607 896.41789 858.48993 0.00116
3819 54.63907 911.84661 888.03998 0.00113
3820 54.65207 925.27867 900.00000 0.00111
3821 54.66507 936.96933 900.00000 0.00111
3822 54.67807 947.35029 918.08997 0.00109
3823 54.69107 956.27825 924.15997 0.00108
3824 54.70407 963.03458 924.15997 0.00108
3825 54.71707 968.63651 936.36005 0.00107
3826 54.73007 973.56650 930.25000 0.00107
3827 54.74307 977.87770 930.25000 0.00107
3828 54.75607 981.62292 936.36005 0.00107
3829 54.76907 985.19517 954.81000 0.00105
3830 54.78207 988.43659 979.68994 0.00102
3831 54.79507 990.95064 979.68994 0.00102
3832 54.80807 992.60215 967.21002 0.00103
3833 54.82107 993.46050 954.81000 0.00105
3834 54.83407 993.39649 961.00000 0.00104
3835 54.84707 991.94903 954.81000 0.00105
3836 54.86007 989.89228 924.15997 0.00108
3837 54.87307 987.56044 924.15997 0.00108
3838 54.88607 985.40981 967.21002 0.00103
3839 54.89907 983.27914 967.21002 0.00103
3840 54.91207 981.36827 942.49005 0.00106
3841 54.92507 979.30713 948.63995 0.00105
3842 54.93807 976.72534 961.00000 0.00104
3843 54.95107 973.18642 954.81000 0.00105
3844 54.96407 968.34650 948.63995 0.00105
3845 54.97707 961.78083 967.21002 0.00103
3846 54.99007 953.27305 948.63995 0.00105
3847 55.00307 943.24353 948.63995 0.00105
3848 55.01607 932.17731 954.81000 0.00105
3849 55.02907 920.44477 918.08997 0.00109
3850 55.04207 908.31511 888.03998 0.00113
3851 55.05507 896.43113 900.00000 0.00111
3852 55.06807 885.26932 882.09003 0.00113
3853 55.08107 874.85420 858.48993 0.00116
3854 55.09407 865.09974 870.25000 0.00115
3855 55.10707 856.05281 858.48993 0.00116
3856 55.12007 848.00718 876.16003 0.00114
3857 55.13307 840.95663 846.81000 0.00118
3858 55.14607 834.70646 823.69006 0.00121
3859 55.15907 829.47665 835.20996 0.00120
3860 55.17207 825.63565 841.00000 0.00119
3861 55.18507 823.56102 817.96002 0.00122
3862 55.19807 823.10023 817.96002 0.00122
3863 55.21107 824.32944 829.43994 0.00121
3864 55.22407 827.19532 812.25000 0.00123
3865 55.23707 831.46435 817.96002 0.00122
3866 55.25007 836.59617 806.56000 0.00124
3867 55.26307 842.15894 823.69006 0.00121
3868 55.27607 847.52203 829.43994 0.00121
3869 55.28907 851.69655 858.48993 0.00116
3870 55.30207 853.98341 852.64001 0.00117
3871 55.31507 854.80906 870.25000 0.00115
3872 55.32807 854.06276 870.25000 0.00115
3873 55.34107 851.76620 846.81000 0.00118
3874 55.35407 848.11104 870.25000 0.00115
3875 55.36707 844.22795 852.64001 0.00117
3876 55.38007 840.23925 829.43994 0.00121
3877 55.39307 836.26380 841.00000 0.00119
3878 55.40607 832.18670 835.20996 0.00120
3879 55.41907 827.76444 841.00000 0.00119
3880 55.43207 822.49836 812.25000 0.00123
3881 55.44507 816.17989 806.56000 0.00124
3882 55.45807 808.21964 812.25000 0.00123
3883 55.47107 798.45493 806.56000 0.00124
3884 55.48407 787.31078 795.24005 0.00126
3885 55.49707 775.23465 745.28998 0.00134
3886 55.51007 762.52837 767.29004 0.00130
3887 55.52307 749.76109 756.25000 0.00132
3888 55.53607 737.46673 750.75995 0.00133
3889 55.54907 725.97572 734.41003 0.00136
3890 55.56207 715.37189 712.89001 0.00140
3891 55.57507 705.93282 712.89001 0.00140
3892 55.58807 697.48489 702.25000 0.00142
3893 55.60107 690.01304 670.81000 0.00149
3894 55.61407 683.43660 707.56000 0.00141
3895 55.62707 677.73580 707.56000 0.00141
3896 55.64007 672.91648 676.00000 0.00148
3897 55.65307 668.92019 670.81000 0.00149
3898 55.66607 665.64801 681.21002 0.00147
3899 55.67907 662.98894 660.49005 0.00151
3900 55.69207 660.97854 670.81000 0.00149
3901 55.70507 659.21910 676.00000 0.00148
3902 55.71807 657.26688 676.00000 0.00148
3903 55.73107 655.10207 676.00000 0.00148
3904 55.74407 652.82933 702.25000 0.00142
3905 55.75707 650.12703 691.68994 0.00145
3906 55.77007 646.78437 676.00000 0.00148
3907 55.78307 643.30200 670.81000 0.00149
3908 55.79607 639.92124 670.81000 0.00149
3909 55.80907 636.69396 665.63995 0.00150
3910 55.82207 633.67533 665.63995 0.00150
3911 55.83507 630.99364 670.81000 0.00149
3912 55.84807 628.60562 650.25000 0.00154
3913 55.86107 626.48975 650.25000 0.00154
3914 55.87407 624.39578 650.25000 0.00154
3915 55.88707 622.23435 625.00000 0.00160
3916 55.90007 619.86303 625.00000 0.00160
3917 55.91307 617.44143 625.00000 0.00160
3918 55.92607 614.95520 620.01001 0.00161
3919 55.93907 612.57331 615.03998 0.00163
3920 55.95207 610.45093 620.01001 0.00161
3921 55.96507 608.84907 625.00000 0.00160
3922 55.97807 607.98777 610.09003 0.00164
3923 55.99107 607.97461 625.00000 0.00160
3924 56.00407 608.82732 645.15997 0.00155
3925 56.01707 610.51642 625.00000 0.00160
3926 56.03007 613.13159 620.01001 0.00161
3927 56.04307 616.51561 625.00000 0.00160
3928 56.05607 620.41141 620.01001 0.00161
3929 56.06907 624.62756 630.01001 0.00159
3930 56.08207 628.89490 650.25000 0.00154
3931 56.09507 632.90391 655.36005 0.00153
3932 56.10807 636.32040 650.25000 0.00154
3933 56.12107 638.98164 640.08997 0.00156
3934 56.13407 640.57314 645.15997 0.00155
3935 56.14707 640.82535 660.49005 0.00151
3936 56.16007 639.96944 660.49005 0.00151
3937 56.17307 638.08996 640.08997 0.00156
3938 56.18607 635.41176 645.15997 0.00155
3939 56.19907 632.07035 645.15997 0.00155
3940 56.21207 628.43204 635.04004 0.00157
3941 56.22507 624.62393 615.03998 0.00163
3942 56.23807 620.85792 615.03998 0.00163
3943 56.25107 617.12695 620.01001 0.00161
3944 56.26407 613.37337 610.09003 0.00164
3945 56.27707 609.57119 610.09003 0.00164
3946 56.29007 605.71789 605.16003 0.00165
3947 56.30307 601.68463 610.09003 0.00164
3948 56.31607 597.41680 600.25000 0.00167
3949 56.32907 593.03319 610.09003 0.00164
3950 56.34207 588.54198 595.35999 0.00168
3951 56.35507 583.96225 585.64001 0.00171
3952 56.36807 579.44463 600.25000 0.00167
3953 56.38107 575.04216 585.64001 0.00171
3954 56.39407 570.78184 556.96002 0.00180
3955 56.40707 566.62149 556.96002 0.00180
3956 56.42007 562.77270 542.88995 0.00184
3957 56.43307 559.26495 552.25000 0.00181
3958 56.44607 556.08887 571.20996 0.00175
3959 56.45907 553.20709 571.20996 0.00175
3960 56.47207 550.69553 552.25000 0.00181
3961 56.48507 548.56224 556.96002 0.00180
3962 56.49807 546.69279 556.96002 0.00180
3963 56.51107 545.02874 571.20996 0.00175
3964 56.52407 543.56386 529.00000 0.00189
3965 56.53707 542.32680 538.24005 0.00186
3966 56.55007 541.30033 542.88995 0.00184
3967 56.56307 540.47366 542.88995 0.00184
3968 56.57607 539.89908 547.56000 0.00183
3969 56.58907 539.66353 524.40997 0.00191
3970 56.60207 539.80999 515.29004 0.00194
3971 56.61507 540.35072 538.24005 0.00186
3972 56.62807 541.28871 538.24005 0.00186
3973 56.64107 542.63000 538.24005 0.00186
3974 56.65407 544.39577 538.24005 0.00186
3975 56.66707 546.55516 519.83997 0.00192
3976 56.68007 549.06066 533.61005 0.00187
3977 56.69307 551.88095 533.61005 0.00187
3978 56.70607 555.05395 547.56000 0.00183
3979 56.71907 558.49070 533.61005 0.00187
3980 56.73207 562.12060 576.00000 0.00174
3981 56.74507 565.85270 556.96002 0.00180
3982 56.75807 569.56747 561.69006 0.00178
3983 56.77107 572.96802 576.00000 0.00174
3984 56.78407 576.08960 538.24005 0.00186
3985 56.79707 578.81471 556.96002 0.00180
3986 56.81007 581.03783 552.25000 0.00181
3987 56.82307 582.68348 585.64001 0.00171
3988 56.83607 583.99234 566.43994 0.00177
3989 56.84907 585.00336 561.69006 0.00178
3990 56.86207 585.75870 561.69006 0.00178
3991 56.87507 586.34442 556.96002 0.00180
3992 56.88807 586.78774 561.69006 0.00178
3993 56.90107 586.97436 561.69006 0.00178
3994 56.91407 586.88433 561.69006 0.00178
3995 56.92707 586.43024 571.20996 0.00175
3996 56.94007 585.52005 571.20996 0.00175
3997 56.95307 584.10741 571.20996 0.00175
3998 56.96607 582.31255 580.81000 0.00172
3999 56.97907 580.12255 571.20996 0.00175
4000 56.99207 577.73005 571.20996 0.00175
4001 57.00507 575.27927 561.69006 0.00178
4002 57.01807 572.90253 556.96002 0.00180
4003 57.03107 570.65348 561.69006 0.00178
4004 57.04407 568.70160 561.69006 0.00178
4005 57.05707 566.97997 566.43994 0.00177
4006 57.07007 565.50167 566.43994 0.00177
4007 57.08307 564.21658 566.43994 0.00177
4008 57.09607 563.06708 547.56000 0.00183
4009 57.10907 561.89551 556.96002 0.00180
4010 57.12207 560.72636 547.56000 0.00183
4011 57.13507 559.53884 552.25000 0.00181
4012 57.14807 558.31656 547.56000 0.00183
4013 57.16107 557.07940 542.88995 0.00184
4014 57.17407 555.95395 561.69006 0.00178
4015 57.18707 554.98603 556.96002 0.00180
4016 57.20007 554.31182 538.24005 0.00186
4017 57.21307 554.06651 529.00000 0.00189
4018 57.22607 554.26443 533.61005 0.00187
4019 57.23907 554.91326 542.88995 0.00184
4020 57.25207 556.08769 552.25000 0.00181
4021 57.26507 557.88921 556.96002 0.00180
4022 57.27807 560.23922 547.56000 0.00183
4023 57.29107 563.10640 547.56000 0.00183
4024 57.30407 566.51009 547.56000 0.00183
4025 57.31707 570.55201 547.56000 0.00183
4026 57.33007 575.24271 542.88995 0.00184
4027 57.34307 580.51176 556.96002 0.00180
4028 57.35607 586.38527 566.43994 0.00177
4029 57.36907 592.94425 556.96002 0.00180
4030 57.38207 600.17428 561.69006 0.00178
4031 57.39507 607.82828 600.25000 0.00167
4032 57.40807 615.78550 615.03998 0.00163
4033 57.42107 623.80949 610.09003 0.00164
4034 57.43407 631.45410 610.09003 0.00164
4035 57.44707 638.52684 620.01001 0.00161
4036 57.46007 644.84879 630.01001 0.00159
4037 57.47307 650.13949 625.00000 0.00160
4038 57.48607 654.03407 620.01001 0.00161
4039 57.49907 656.83993 625.00000 0.00160
4040 57.51207 658.83022 630.01001 0.00159
4041 57.52507 660.10290 615.03998 0.00163
4042 57.53807 660.76235 625.00000 0.00160
4043 57.55107 661.09623 635.04004 0.00157
4044 57.56407 661.33552 635.04004 0.00157
4045 57.57707 661.48992 630.01001 0.00159
4046 57.59007 661.50314 650.25000 0.00154
4047 57.60307 661.29148 645.15997 0.00155
4048 57.61607 660.71375 640.08997 0.00156
4049 57.62907 659.70468 660.49005 0.00151
4050 57.64207 658.10147 660.49005 0.00151
4051 57.65507 655.74746 660.49005 0.00151
4052 57.66807 652.79448 645.15997 0.00155
4053 57.68107 649.35517 655.36005 0.00153
4054 57.69407 645.49328 645.15997 0.00155
4055 57.70707 641.34952 650.25000 0.00154
4056 57.72007 637.16380 630.01001 0.00159
4057 57.73307 633.01484 635.04004 0.00157
4058 57.74607 628.98289 620.01001 0.00161
4059 57.75907 625.27700 610.09003 0.00164
4060 57.77207 621.92318 605.16003 0.00165
4061 57.78507 618.82211 620.01001 0.00161
4062 57.79807 616.04289 600.25000 0.00167
4063 57.81107 613.70847 590.48999 0.00169
4064 57.82407 611.80675 580.81000 0.00172
4065 57.83707 610.16006 595.35999 0.00168
4066 57.85007 608.75526 600.25000 0.00167
4067 57.86307 607.49931 605.16003 0.00165
4068 57.87607 606.25211 595.35999 0.00168
4069 57.88907 604.80016 595.35999 0.00168
4070 57.90207 602.98504 590.48999 0.00169
4071 57.91507 600.63931 600.25000 0.00167
4072 57.92807 597.68322 600.25000 0.00167
4073 57.94107 594.17484 576.00000 0.00174
4074 57.95407 590.20260 620.01001 0.00161
4075 57.96707 585.86653 580.81000 0.00172
4076 57.98007 581.37323 571.20996 0.00175
4077 57.99307 576.97086 547.56000 0.00183
4078 58.00607 572.77617 561.69006 0.00178
4079 58.01907 568.84379 576.00000 0.00174
4080 58.03207 565.22957 576.00000 0.00174
4081 58.04507 561.94926 566.43994 0.00177
4082 58.05807 558.93617 566.43994 0.00177
4083 58.07107 556.09239 561.69006 0.00178
4084 58.08407 553.34500 556.96002 0.00180
4085 58.09707 550.67529 556.96002 0.00180
4086 58.11007 548.06343 576.00000 0.00174
4087 58.12307 545.47690 571.20996 0.00175
4088 58.13607 542.93254 538.24005 0.00186
4089 58.14907 540.49365 533.61005 0.00187
4090 58.16207 538.16043 561.69006 0.00178
4091 58.17507 535.97740 552.25000 0.00181
4092 58.18807 534.03715 547.56000 0.00183
4093 58.20107 532.39827 538.24005 0.00186
4094 58.21407 531.10689 542.88995 0.00184
4095 58.22707 530.19866 529.00000 0.00189
4096 58.24007 529.77346 542.88995 0.00184
4097 58.25307 529.83123 547.56000 0.00183
4098 58.26607 530.45709 515.29004 0.00194
4099 58.27907 531.60598 538.24005 0.00186
4100 58.29207 533.28977 552.25000 0.00181
4101 58.30507 535.46126 552.25000 0.00181
4102 58.31807 538.13008 529.00000 0.00189
4103 58.33107 541.20530 542.88995 0.00184
4104 58.34407 544.62155 552.25000 0.00181
4105 58.35707 548.27924 556.96002 0.00180
4106 58.37007 552.05369 552.25000 0.00181
4107 58.38307 555.77732 571.20996 0.00175
4108 58.39607 559.36607 566.43994 0.00177
4109 58.40907 562.69258 566.43994 0.00177
4110 58.42207 565.67115 576.00000 0.00174
4111 58.43507 568.19718 552.25000 0.00181
4112 58.44807 570.54710 571.20996 0.00175
4113 58.46107 572.72043 571.20996 0.00175
4114 58.47407 574.89859 580.81000 0.00172
4115 58.48707 577.21912 585.64001 0.00171
4116 58.50007 579.96244 576.00000 0.00174
4117 58.51307 583.05111 600.25000 0.00167
4118 58.52607 586.49488 590.48999 0.00169
4119 58.53907 590.22849 571.20996 0.00175
4120 58.55207 594.05447 576.00000 0.00174
4121 58.56507 597.73105 571.20996 0.00175
4122 58.57807 601.08244 585.64001 0.00171
4123 58.59107 603.89596 600.25000 0.00167
4124 58.60407 605.85078 600.25000 0.00167
4125 58.61707 606.98402 605.16003 0.00165
4126 58.63007 607.40386 590.48999 0.00169
4127 58.64307 607.21527 585.64001 0.00171
4128 58.65607 606.46352 585.64001 0.00171
4129 58.66907 605.37473 600.25000 0.00167
4130 58.68207 604.23423 605.16003 0.00165
4131 58.69507 603.22220 610.09003 0.00164
4132 58.70807 602.45033 600.25000 0.00167
4133 58.72107 601.89589 600.25000 0.00167
4134 58.73407 601.67433 615.03998 0.00163
4135 58.74707 601.79117 605.16003 0.00165
4136 58.76007 602.17252 600.25000 0.00167
4137 58.77307 602.68194 585.64001 0.00171
4138 58.78607 603.30624 595.35999 0.00168
4139 58.79907 603.90415 610.09003 0.00164
4140 58.81207 604.34929 585.64001 0.00171
4141 58.82507 604.59828 590.48999 0.00169
4142 58.83807 604.60212 605.16003 0.00165
4143 58.85107 604.20176 600.25000 0.00167
4144 58.86407 603.37791 580.81000 0.00172
4145 58.87707 602.29640 595.35999 0.00168
4146 58.89007 600.95060 605.16003 0.00165
4147 58.90307 599.37057 590.48999 0.00169
4148 58.91607 597.64707 595.35999 0.00168
4149 58.92907 595.88114 595.35999 0.00168
4150 58.94207 593.96045 585.64001 0.00171
4151 58.95507 591.91716 595.35999 0.00168
4152 58.96807 589.70953 580.81000 0.00172
4153 58.98107 587.28781 585.64001 0.00171
4154 58.99407 584.52881 595.35999 0.00168
4155 59.00707 581.42426 590.48999 0.00169
4156 59.02007 578.00835 576.00000 0.00174
4157 59.03307 574.40280 571.20996 0.00175
4158 59.04607 570.68418 585.64001 0.00171
4159 59.05907 566.87008 576.00000 0.00174
4160 59.07207 563.14577 580.81000 0.00172
4161 59.08507 559.66414 571.20996 0.00175
4162 59.09807 556.46363 566.43994 0.00177
4163 59.11107 553.53103 547.56000 0.00183
4164 59.12407 550.97839 576.00000 0.00174
4165 59.13707 548.84248 538.24005 0.00186
4166 59.15007 547.06324 542.88995 0.00184
4167 59.16307 545.61851 547.56000 0.00183
4168 59.17607 544.53083 561.69006 0.00178
4169 59.18907 543.78452 538.24005 0.00186
4170 59.20207 543.34507 571.20996 0.00175
4171 59.21507 543.21146 561.69006 0.00178
4172 59.22807 543.38001 547.56000 0.00183
4173 59.24107 543.73230 547.56000 0.00183
4174 59.25407 544.30339 556.96002 0.00180
4175 59.26707 545.09541 547.56000 0.00183
4176 59.28007 546.13429 590.48999 0.00169
4177 59.29307 547.30558 538.24005 0.00186
4178 59.30607 548.54995 552.25000 0.00181
4179 59.31907 550.00583 595.35999 0.00168
4180 59.33207 551.73861 556.96002 0.00180
4181 59.34507 553.75278 576.00000 0.00174
4182 59.35807 555.97849 552.25000 0.00181
4183 59.37107 558.64268 580.81000 0.00172
4184 59.38407 561.78673 580.81000 0.00172
4185 59.39707 565.41798 580.81000 0.00172
4186 59.41007 569.42233 580.81000 0.00172
4187 59.42307 573.86073 590.48999 0.00169
4188 59.43607 578.71995 610.09003 0.00164
4189 59.44907 583.92295 595.35999 0.00168
4190 59.46207 589.25910 620.01001 0.00161
4191 59.47507 594.70422 600.25000 0.00167
4192 59.48807 600.23994 595.35999 0.00168
4193 59.50107 605.61718 635.04004 0.00157
4194 59.51407 610.71398 615.03998 0.00163
4195 59.52707 615.39363 625.00000 0.00160
4196 59.54007 619.43761 655.36005 0.00153
4197 59.55307 622.52497 630.01001 0.00159
4198 59.56607 624.71411 640.08997 0.00156
4199 59.57907 625.90559 625.00000 0.00160
4200 59.59207 625.86112 615.03998 0.00163
4201 59.60507 624.66116 630.01001 0.00159
4202 59.61807 622.62856 635.04004 0.00157
4203 59.63107 619.88944 620.01001 0.00161
4204 59.64407 616.43362 625.00000 0.00160
4205 59.65707 612.58225 600.25000 0.00167
4206 59.67007 608.48718 600.25000 0.00167
4207 59.68307 604.28482 620.01001 0.00161
4208 59.69607 599.97395 610.09003 0.00164
4209 59.70907 595.59131 600.25000 0.00167
4210 59.72207 591.13645 580.81000 0.00172
4211 59.73507 586.70542 571.20996 0.00175
4212 59.74807 582.21548 580.81000 0.00172
4213 59.76107 577.62604 580.81000 0.00172
4214 59.77407 573.00982 571.20996 0.00175
4215 59.78707 568.41330 571.20996 0.00175
4216 59.80007 563.82666 547.56000 0.00183
4217 59.81307 559.23662 556.96002 0.00180
4218 59.82607 554.73450 542.88995 0.00184
4219 59.83907 550.23841 538.24005 0.00186
4220 59.85207 545.72241 529.00000 0.00189
4221 59.86507 541.32455 529.00000 0.00189
4222 59.87807 537.10542 519.83997 0.00192
4223 59.89107 533.03298 515.29004 0.00194
4224 59.90407 529.13519 524.40997 0.00191
4225 59.91707 525.58185 533.61005 0.00187
4226 59.93007 522.36546 533.61005 0.00187
4227 59.94307 519.43244 524.40997 0.00191
4228 59.95607 516.72920 524.40997 0.00191
4229 59.96907 514.15436 519.83997 0.00192
4230 59.98207 511.69518 524.40997 0.00191
4231 59.99507 509.27228 529.00000 0.00189
