#------------------------------------------------------------------------------
#$Date: 2021-04-05 17:37:50 +0300 (Mon, 05 Apr 2021) $
#$Revision: 263739 $
#$URL: file:///home/coder/svn-repositories/cod/cif/7/24/23/7242311.cif $
#------------------------------------------------------------------------------
#
# This file is available in the Crystallography Open Database (COD),
# http://www.crystallography.net/
#
# All data on this site have been placed in the public domain by the
# contributors.
#
data_7242311
loop_
_publ_author_name
'Ma, Zhi Long'
'Wang, Meng Chen'
'Shi, Jian Yun'
'Tian, Li'
_publ_section_title
;
 Three Mn(ii) metal--organic frameworks with the same chemical
 composition, but different topological structures and properties
;
_journal_issue                   12
_journal_name_full               CrystEngComm
_journal_page_first              2396
_journal_page_last               2403
_journal_paper_doi               10.1039/D1CE00064K
_journal_volume                  23
_journal_year                    2021
_chemical_formula_moiety         'C12 H8 Mn N6 O5'
_chemical_formula_sum            'C12 H8 Mn N6 O5'
_chemical_formula_weight         371.18
_space_group_crystal_system      triclinic
_space_group_IT_number           2
_space_group_name_Hall           '-P 1'
_space_group_name_H-M_alt        'P -1'
_atom_sites_solution_hydrogens   mixed
_audit_creation_date             2020-11-10
_audit_creation_method
;
Olex2 1.2
(compiled 2015.09.30 svn.r3233 for OlexSys, GUI svn.r5103)
;
_audit_update_record
;
2021-01-14 deposited with the CCDC.	2021-02-24 downloaded from the CCDC.
;
_cell_angle_alpha                110.237(6)
_cell_angle_beta                 110.252(7)
_cell_angle_gamma                103.825(6)
_cell_formula_units_Z            2
_cell_length_a                   8.7592(7)
_cell_length_b                   9.3448(6)
_cell_length_c                   9.8941(7)
_cell_measurement_reflns_used    3219
_cell_measurement_temperature    150.00(10)
_cell_measurement_theta_max      29.2510
_cell_measurement_theta_min      2.5590
_cell_volume                     651.02(11)
_computing_cell_refinement       'CrysAlisPro 1.171.40.84a (Rigaku OD, 2020)'
_computing_data_collection       'CrysAlisPro 1.171.40.84a (Rigaku OD, 2020)'
_computing_data_reduction        'CrysAlisPro 1.171.40.84a (Rigaku OD, 2020)'
_computing_molecular_graphics    'Olex2 (Dolomanov et al., 2009)'
_computing_publication_material  'Olex2 (Dolomanov et al., 2009)'
_computing_structure_refinement  'ShelXL (Sheldrick, 2015)'
_computing_structure_solution    'ShelXT (Sheldrick, 2015)'
_diffrn_ambient_environment      N~2~
_diffrn_ambient_temperature      150.00(10)
_diffrn_detector                 'CCD plate'
_diffrn_detector_area_resol_mean 5.2740
_diffrn_detector_type            AtlasS2
_diffrn_measured_fraction_theta_full 1.000
_diffrn_measured_fraction_theta_max 1.000
_diffrn_measurement_details
;
List of Runs (angles in degrees, time in seconds):

  # Type    Start    End  Width  t~exp~   \w     \q     \k     \f   Frames
#--------------------------------------------------------------------------
  1  \w    -43.00 -17.00   1.00    7.79    --  -10.61  77.00  30.00   26
  2  \w    -58.00  32.00   1.00    7.79    --   11.40 -57.00 150.00   90
  3  \w    -16.00  66.00   1.00    7.79    --   11.40  57.00  90.00   82
  4  \w    -16.00  81.00   1.00    7.79    --   11.40  57.00 -60.00   97
;
_diffrn_measurement_device       'four-circle diffractometer'
_diffrn_measurement_device_type  'SuperNova, Dual, Cu at home/near, AtlasS2'
_diffrn_measurement_method       '\w scans'
_diffrn_orient_matrix_type
'CrysAlisPro convention (1999,Acta A55,543-557)'
_diffrn_orient_matrix_UB_11      -0.0591012000
_diffrn_orient_matrix_UB_12      -0.0722729000
_diffrn_orient_matrix_UB_13      -0.0762193000
_diffrn_orient_matrix_UB_21      -0.0651356000
_diffrn_orient_matrix_UB_22      -0.0131145000
_diffrn_orient_matrix_UB_23      0.0266466000
_diffrn_orient_matrix_UB_31      -0.0346106000
_diffrn_orient_matrix_UB_32      0.0495173000
_diffrn_orient_matrix_UB_33      -0.0312995000
_diffrn_radiation_monochromator  mirror
_diffrn_radiation_probe          x-ray
_diffrn_radiation_type           MoK\a
_diffrn_radiation_wavelength     0.71073
_diffrn_reflns_av_R_equivalents  0.0290
_diffrn_reflns_av_unetI/netI     0.0418
_diffrn_reflns_Laue_measured_fraction_full 1.000
_diffrn_reflns_Laue_measured_fraction_max 1.000
_diffrn_reflns_limit_h_max       10
_diffrn_reflns_limit_h_min       -10
_diffrn_reflns_limit_k_max       11
_diffrn_reflns_limit_k_min       -11
_diffrn_reflns_limit_l_max       11
_diffrn_reflns_limit_l_min       -10
_diffrn_reflns_number            4625
_diffrn_reflns_point_group_measured_fraction_full 1.000
_diffrn_reflns_point_group_measured_fraction_max 1.000
_diffrn_reflns_theta_full        25.007
_diffrn_reflns_theta_max         25.007
_diffrn_reflns_theta_min         2.487
_diffrn_source                   'micro-focus sealed X-ray tube'
_diffrn_source_type              'SuperNova (Mo) X-ray Source'
_exptl_absorpt_coefficient_mu    1.058
_exptl_absorpt_correction_T_max  1.00000
_exptl_absorpt_correction_T_min  0.71171
_exptl_absorpt_correction_type   multi-scan
_exptl_absorpt_process_details
;
CrysAlisPro 1.171.40.84a (Rigaku Oxford Diffraction, 2020)
Empirical absorption correction using spherical harmonics,
implemented in SCALE3 ABSPACK scaling algorithm.
;
_exptl_crystal_colour            colourless
_exptl_crystal_colour_primary    colourless
_exptl_crystal_density_diffrn    1.894
_exptl_crystal_description       block
_exptl_crystal_F_000             374
_exptl_crystal_size_max          0.2
_exptl_crystal_size_mid          0.19
_exptl_crystal_size_min          0.18
_refine_diff_density_max         0.312
_refine_diff_density_min         -0.375
_refine_diff_density_rms         0.077
_refine_ls_extinction_method     none
_refine_ls_goodness_of_fit_ref   1.071
_refine_ls_hydrogen_treatment    mixed
_refine_ls_matrix_type           full
_refine_ls_number_parameters     225
_refine_ls_number_reflns         2296
_refine_ls_number_restraints     3
_refine_ls_restrained_S_all      1.071
_refine_ls_R_factor_all          0.0355
_refine_ls_R_factor_gt           0.0290
_refine_ls_shift/su_max          0.000
_refine_ls_shift/su_mean         0.000
_refine_ls_structure_factor_coef Fsqd
_refine_ls_weighting_details
'w=1/[\s^2^(Fo^2^)+(0.0268P)^2^+0.3940P] where P=(Fo^2^+2Fc^2^)/3'
_refine_ls_weighting_scheme      calc
_refine_ls_wR_factor_gt          0.0676
_refine_ls_wR_factor_ref         0.0696
_reflns_Friedel_coverage         0.000
_reflns_number_gt                2082
_reflns_number_total             2296
_reflns_threshold_expression     'I > 2\s(I)'
_iucr_refine_instructions_details
;

    a201110a.res created by SHELXL-2014/7

TITL a201110a_a.res in P-1
REM Old TITL A201110A in P-1 #2
REM SHELXT solution in P-1
REM R1 0.311, Rweak 0.039, Alpha 0.051, Orientation as input
REM Formula found by SHELXT: C17 N4 O2 Cl
CELL 0.71073 8.759177 9.3448 9.894051 110.2369 110.2523 103.8252
ZERR 2 0.000719 0.000598 0.000723 0.0063 0.0071 0.0062
LATT 1
SFAC C H Mn N O
UNIT 24 16 2 12 10
DFIX 0.85 0.01 O5 H5b O5 H5a
DFIX 1.37 0.01 H5b H5a
 
L.S. 10
PLAN  20
BOND $H
LIST 4
MORE -1
CONF
fmap 2
acta 52
OMIT -3 50.02
REM <olex2.extras>
REM <HklSrc "%.\\A201110A.hkl">
REM </olex2.extras>
 
WGHT    0.026800    0.394000
FVAR       0.78917
MN1   3    0.378749    0.703216    0.510825    11.00000    0.00965    0.01214 =
         0.01127    0.00437    0.00493    0.00461
O1    5    0.212344    0.443684    0.325045    11.00000    0.01196    0.01194 =
         0.01675    0.00425    0.00617    0.00614
O2    5    0.419921    0.341968    0.332632    11.00000    0.01034    0.01627 =
         0.01320    0.00573    0.00502    0.00593
O3    5    0.515780    0.756337    0.383404    11.00000    0.01613    0.01442 =
         0.01472    0.00709    0.00908    0.00672
O4    5    0.768956    0.717606    0.447157    11.00000    0.01464    0.02876 =
         0.01568    0.01012    0.00546    0.00989
O5    5    0.507117    0.985996    0.682930    11.00000    0.02642    0.01479 =
         0.01640    0.00775    0.00570    0.00696
N1    4   -0.149370    0.187050    0.159559    11.00000    0.00839    0.01212 =
         0.01305    0.00409    0.00378    0.00379
N2    4   -0.298108    0.197167    0.061447    11.00000    0.01323    0.01567 =
         0.01687    0.00756    0.00694    0.00785
N3    4   -0.252711    0.295963    0.321603    11.00000    0.01210    0.01647 =
         0.01621    0.00697    0.00786    0.00601
N4    4    0.868493    0.681700    0.201675    11.00000    0.00923    0.01284 =
         0.01174    0.00520    0.00389    0.00368
N5    4    0.948071    0.851132    0.270677    11.00000    0.01641    0.01260 =
         0.02505    0.00714    0.00468    0.00373
N6    4    1.147808    0.746204    0.356759    11.00000    0.01190    0.01457 =
         0.01618    0.00622    0.00528    0.00453
C1    1   -0.352394    0.264976    0.165926    11.00000    0.01177    0.01385 =
         0.01966    0.00806    0.00780    0.00561
AFIX  43
H1    2   -0.451619    0.290002    0.135830    11.00000   -1.20000
AFIX   0
C2    1   -0.126218    0.243868    0.311128    11.00000    0.01240    0.01906 =
         0.01416    0.00729    0.00598    0.00701
AFIX  43
H2    2   -0.035244    0.246919    0.397320    11.00000   -1.20000
AFIX   0
C3    1   -0.064059    0.098831    0.083753    11.00000    0.01373    0.01321 =
         0.01274    0.00686    0.00830    0.00770
C4    1    0.120073    0.158236    0.141119    11.00000    0.01345    0.01155 =
         0.01132    0.00575    0.00582    0.00579
C5    1    0.178068    0.053600    0.052506    11.00000    0.00990    0.01440 =
         0.01530    0.00764    0.00647    0.00510
AFIX  43
H5    2    0.299765    0.088129    0.086836    11.00000   -1.20000
AFIX   0
C6    1    0.261360    0.327826    0.280964    11.00000    0.01362    0.01320 =
         0.00982    0.00680    0.00588    0.00577
C7    1    1.114904    0.882978    0.360746    11.00000    0.01302    0.01320 =
         0.02345    0.00564    0.00306    0.00216
AFIX  43
H7    2    1.204074    0.990689    0.422675    11.00000   -1.20000
AFIX   0
C8    1    0.988235    0.622721    0.254224    11.00000    0.01198    0.01264 =
         0.01807    0.00548    0.00614    0.00426
AFIX  43
H8    2    0.963271    0.510391    0.223222    11.00000   -1.20000
AFIX   0
C9    1    0.679796    0.590620    0.100947    11.00000    0.01005    0.01160 =
         0.01483    0.00728    0.00346    0.00448
C10   1    0.564518    0.605195    0.167994    11.00000    0.01330    0.01191 =
         0.01350    0.00770    0.00592    0.00671
C11   1    0.382570    0.512597    0.062686    11.00000    0.01184    0.01398 =
         0.01558    0.00799    0.00757    0.00718
AFIX  43
H11   2    0.301996    0.520452    0.103238    11.00000   -1.20000
AFIX   0
C12   1    0.626118    0.701121    0.349083    11.00000    0.01345    0.01040 =
         0.01532    0.00625    0.00699    0.00341
H5A   2    0.500939    1.061615    0.655791    11.00000    0.02550
H5B   2    0.553764    1.031456    0.786299    11.00000    0.05490
HKLF 4
 
REM  a201110a_a.res in P-1
REM R1 =  0.0290 for    2082 Fo > 4sig(Fo)  and  0.0355 for all    2296 data
REM    225 parameters refined using      3 restraints
 
END  
     
WGHT      0.0217      0.5379 

REM Highest difference peak  0.312,  deepest hole -0.375,  1-sigma level  0.077
Q1    1  -0.1047  0.1410  0.1247  11.00000  0.05    0.31
Q2    1   0.6147  0.5659  0.1419  11.00000  0.05    0.29
Q3    1   0.1371  0.1234  0.0734  11.00000  0.05    0.29
Q4    1  -0.1194  0.3586  0.3543  11.00000  0.05    0.28
Q5    1  -0.2626  0.3561  0.2767  11.00000  0.05    0.27
Q6    1  -0.2013  0.4171  0.3782  11.00000  0.05    0.27
Q7    1   0.9456  0.9213  0.2225  11.00000  0.05    0.26
Q8    1   0.9678  0.5537  0.3057  11.00000  0.05    0.26
Q9    1   0.4845  0.5404  0.1108  11.00000  0.05    0.25
Q10   1   1.2202  0.7300  0.3390  11.00000  0.05    0.25
Q11   1   0.5286  0.7870  0.3141  11.00000  0.05    0.24
Q12   1   0.2134  0.4790  0.4155  11.00000  0.05    0.24
Q13   1   0.9274  0.6634  0.1561  11.00000  0.05    0.23
Q14   1  -0.4022  0.3601  0.1998  11.00000  0.05    0.23
Q15   1   1.0912  0.6927  0.2637  11.00000  0.05    0.23
Q16   1   0.7357  0.5844  0.3807  11.00000  0.05    0.23
Q17   1  -0.5303  0.3359  0.1017  11.00000  0.05    0.23
Q18   1   0.8153  0.5817  0.4388  11.00000  0.05    0.23
Q19   1   0.4235  0.7645  0.6392  11.00000  0.05    0.22
Q20   1   0.1790  0.2574  0.1694  11.00000  0.05    0.22

  REM The information below was added by Olex2.
  REM
  REM R1 = 0.0290 for 2082 Fo > 4sig(Fo) and 0.0355 for all 5487 data
  REM n/a parameters refined using n/a restraints
  REM Highest difference peak 0.31, deepest hole -0.37
  REM Mean Shift 0, Max Shift 0.000.
  
  REM +++ Tabular Listing of Refinement Information +++
  REM R1_all = 0.0355
  REM R1_gt = 0.0290
  REM wR_ref = 0.0696
  REM GOOF = 1.071
  REM Shift_max = 0.000
  REM Shift_mean = 0
  REM Reflections_all = 5487
  REM Reflections_gt = 2082
  REM Parameters = n/a
  REM Hole = -0.37
  REM Peak = 0.31
  REM Flack = n/a
  
  
;
_cod_data_source_file            d1ce00064k2.cif
_cod_data_source_block           a201110a
_cod_depositor_comments
'Adding full bibliography for 7242310--7242312.cif.'
_cod_original_cell_volume        651.02(9)
_cod_database_code               7242311
_shelx_space_group_comment
;
The symmetry employed for this shelxl refinement is uniquely defined
by the following loop, which should always be used as a source of
symmetry information in preference to the above space-group names.
They are only intended as comments.
;
_reflns_odcompleteness_completeness 100.00
_reflns_odcompleteness_iscentric 1
_reflns_odcompleteness_theta     26.32
_olex2_refinement_description
;
1. Fixed Uiso
 At 1.2 times of:
  All C(H) groups
2. Restrained distances
 O5-H5B = O5-H5A
 0.85 with sigma of 0.01
 H5B-H5A
 1.37 with sigma of 0.01
3.a Aromatic/amide H refined with riding coordinates:
 C1(H1), C2(H2), C5(H5), C7(H7), C8(H8), C11(H11)
;
_shelx_shelxl_version_number     2014/7
_olex2_date_sample_data_collection 2020-11-10
_olex2_submission_special_instructions 'No special instructions were received'
_oxdiff_exptl_absorpt_empirical_details
;
Empirical correction (ABSPACK) includes:
- Absorption correction using spherical harmonics
- Frame scaling
- Detector area scaling
;
_oxdiff_exptl_absorpt_empirical_full_max 1.190
_oxdiff_exptl_absorpt_empirical_full_min 0.840
loop_
_space_group_symop_operation_xyz
'x, y, z'
'-x, -y, -z'
loop_
_atom_site_label
_atom_site_type_symbol
_atom_site_fract_x
_atom_site_fract_y
_atom_site_fract_z
_atom_site_U_iso_or_equiv
_atom_site_adp_type
_atom_site_occupancy
_atom_site_site_symmetry_order
_atom_site_calc_flag
_atom_site_refinement_flags_posn
_atom_site_refinement_flags_adp
_atom_site_refinement_flags_occupancy
_atom_site_disorder_assembly
_atom_site_disorder_group
Mn1 Mn 0.37875(4) 0.70322(4) 0.51082(4) 0.01135(12) Uani 1 1 d . . . . .
O1 O 0.21234(18) 0.44368(18) 0.32505(18) 0.0143(3) Uani 1 1 d . . . . .
O2 O 0.41992(18) 0.34197(18) 0.33263(18) 0.0137(3) Uani 1 1 d . . . . .
O3 O 0.51578(19) 0.75634(18) 0.38340(18) 0.0143(3) Uani 1 1 d . . . . .
O4 O 0.7690(2) 0.7176(2) 0.44716(19) 0.0201(4) Uani 1 1 d . . . . .
O5 O 0.5071(2) 0.9860(2) 0.6829(2) 0.0208(4) Uani 1 1 d D . . . .
N1 N -0.1494(2) 0.1870(2) 0.1596(2) 0.0123(4) Uani 1 1 d . . . . .
N2 N -0.2981(2) 0.1972(2) 0.0614(2) 0.0149(4) Uani 1 1 d . . . . .
N3 N -0.2527(2) 0.2960(2) 0.3216(2) 0.0147(4) Uani 1 1 d . . . . .
N4 N 0.8685(2) 0.6817(2) 0.2017(2) 0.0120(4) Uani 1 1 d . . . . .
N5 N 0.9481(2) 0.8511(2) 0.2707(2) 0.0207(5) Uani 1 1 d . . . . .
N6 N 1.1478(2) 0.7462(2) 0.3568(2) 0.0152(4) Uani 1 1 d . . . . .
C1 C -0.3524(3) 0.2650(3) 0.1659(3) 0.0148(5) Uani 1 1 d . . . . .
H1 H -0.4516 0.2900 0.1358 0.018 Uiso 1 1 calc R . . . .
C2 C -0.1262(3) 0.2439(3) 0.3111(3) 0.0153(5) Uani 1 1 d . . . . .
H2 H -0.0352 0.2469 0.3973 0.018 Uiso 1 1 calc R . . . .
C3 C -0.0641(3) 0.0988(3) 0.0838(3) 0.0118(5) Uani 1 1 d . . . . .
C4 C 0.1201(3) 0.1582(3) 0.1411(3) 0.0118(5) Uani 1 1 d . . . . .
C5 C 0.1781(3) 0.0536(3) 0.0525(3) 0.0128(5) Uani 1 1 d . . . . .
H5 H 0.2998 0.0881 0.0868 0.015 Uiso 1 1 calc R . . . .
C6 C 0.2614(3) 0.3278(3) 0.2810(3) 0.0116(5) Uani 1 1 d . . . . .
C7 C 1.1149(3) 0.8830(3) 0.3607(3) 0.0200(5) Uani 1 1 d . . . . .
H7 H 1.2041 0.9907 0.4227 0.024 Uiso 1 1 calc R . . . .
C8 C 0.9882(3) 0.6227(3) 0.2542(3) 0.0153(5) Uani 1 1 d . . . . .
H8 H 0.9633 0.5104 0.2232 0.018 Uiso 1 1 calc R . . . .
C9 C 0.6798(3) 0.5906(3) 0.1009(3) 0.0126(5) Uani 1 1 d . . . . .
C10 C 0.5645(3) 0.6052(3) 0.1680(3) 0.0121(5) Uani 1 1 d . . . . .
C11 C 0.3826(3) 0.5126(3) 0.0627(3) 0.0127(5) Uani 1 1 d . . . . .
H11 H 0.3020 0.5205 0.1032 0.015 Uiso 1 1 calc R . . . .
C12 C 0.6261(3) 0.7011(3) 0.3491(3) 0.0132(5) Uani 1 1 d . . . . .
H5A H 0.501(3) 1.062(2) 0.656(3) 0.026(7) Uiso 1 1 d D . . . .
H5B H 0.554(4) 1.031(3) 0.7863(13) 0.055(11) Uiso 1 1 d D . . . .
loop_
_atom_site_aniso_label
_atom_site_aniso_U_11
_atom_site_aniso_U_22
_atom_site_aniso_U_33
_atom_site_aniso_U_23
_atom_site_aniso_U_13
_atom_site_aniso_U_12
Mn1 0.00965(18) 0.0121(2) 0.01127(19) 0.00437(15) 0.00493(14) 0.00461(13)
O1 0.0120(7) 0.0119(8) 0.0168(8) 0.0042(7) 0.0062(6) 0.0061(6)
O2 0.0103(8) 0.0163(8) 0.0132(8) 0.0057(7) 0.0050(6) 0.0059(6)
O3 0.0161(8) 0.0144(8) 0.0147(8) 0.0071(7) 0.0091(7) 0.0067(6)
O4 0.0146(8) 0.0288(10) 0.0157(9) 0.0101(8) 0.0055(7) 0.0099(7)
O5 0.0264(9) 0.0148(9) 0.0164(10) 0.0078(8) 0.0057(8) 0.0070(7)
N1 0.0084(9) 0.0121(10) 0.0130(10) 0.0041(8) 0.0038(7) 0.0038(7)
N2 0.0132(9) 0.0157(10) 0.0169(10) 0.0076(8) 0.0069(8) 0.0078(8)
N3 0.0121(9) 0.0165(10) 0.0162(10) 0.0070(8) 0.0079(8) 0.0060(8)
N4 0.0092(9) 0.0128(10) 0.0117(10) 0.0052(8) 0.0039(8) 0.0037(7)
N5 0.0164(10) 0.0126(10) 0.0250(11) 0.0071(9) 0.0047(9) 0.0037(8)
N6 0.0119(9) 0.0146(10) 0.0162(10) 0.0062(8) 0.0053(8) 0.0045(8)
C1 0.0118(11) 0.0138(12) 0.0197(12) 0.0081(10) 0.0078(10) 0.0056(9)
C2 0.0124(11) 0.0191(12) 0.0142(12) 0.0073(10) 0.0060(9) 0.0070(9)
C3 0.0137(11) 0.0132(11) 0.0127(11) 0.0069(9) 0.0083(9) 0.0077(9)
C4 0.0134(11) 0.0116(11) 0.0113(11) 0.0057(9) 0.0058(9) 0.0058(8)
C5 0.0099(10) 0.0144(11) 0.0153(11) 0.0076(10) 0.0065(9) 0.0051(9)
C6 0.0136(11) 0.0132(12) 0.0098(11) 0.0068(9) 0.0059(9) 0.0058(9)
C7 0.0130(12) 0.0132(12) 0.0235(13) 0.0056(10) 0.0031(10) 0.0022(9)
C8 0.0120(11) 0.0126(12) 0.0181(12) 0.0055(10) 0.0061(10) 0.0043(9)
C9 0.0101(10) 0.0116(11) 0.0148(12) 0.0073(9) 0.0035(9) 0.0045(9)
C10 0.0133(11) 0.0119(11) 0.0135(11) 0.0077(9) 0.0059(9) 0.0067(9)
C11 0.0118(11) 0.0140(12) 0.0156(12) 0.0080(10) 0.0076(9) 0.0072(9)
C12 0.0135(11) 0.0104(11) 0.0153(12) 0.0063(9) 0.0070(10) 0.0034(9)
loop_
_atom_type_symbol
_atom_type_description
_atom_type_scat_dispersion_real
_atom_type_scat_dispersion_imag
_atom_type_scat_source
C C 0.0033 0.0016 'International Tables Vol C Tables 4.2.6.8 and 6.1.1.4'
H H 0.0000 0.0000 'International Tables Vol C Tables 4.2.6.8 and 6.1.1.4'
Mn Mn 0.3368 0.7283 'International Tables Vol C Tables 4.2.6.8 and 6.1.1.4'
N N 0.0061 0.0033 'International Tables Vol C Tables 4.2.6.8 and 6.1.1.4'
O O 0.0106 0.0060 'International Tables Vol C Tables 4.2.6.8 and 6.1.1.4'
loop_
_geom_angle_atom_site_label_1
_geom_angle_atom_site_label_2
_geom_angle_atom_site_label_3
_geom_angle
_geom_angle_site_symmetry_1
_geom_angle_site_symmetry_3
_geom_angle_publ_flag
O1 Mn1 O5 168.94(6) . . ?
O1 Mn1 N3 96.50(6) . 2_566 ?
O1 Mn1 N6 82.37(6) . 1_455 ?
O2 Mn1 O1 97.17(6) 2_666 . ?
O2 Mn1 O5 93.54(6) 2_666 . ?
O2 Mn1 N3 86.25(6) 2_666 2_566 ?
O2 Mn1 N6 174.27(6) 2_666 1_455 ?
O3 Mn1 O1 94.75(6) . . ?
O3 Mn1 O2 95.79(6) . 2_666 ?
O3 Mn1 O5 86.86(6) . . ?
O3 Mn1 N3 168.23(6) . 2_566 ?
O3 Mn1 N6 89.94(6) . 1_455 ?
N3 Mn1 O5 81.44(7) 2_566 . ?
N3 Mn1 N6 88.13(7) 2_566 1_455 ?
N6 Mn1 O5 86.70(6) 1_455 . ?
C6 O1 Mn1 127.70(13) . . ?
C6 O2 Mn1 145.23(14) . 2_666 ?
C12 O3 Mn1 130.28(13) . . ?
Mn1 O5 H5A 126.6(16) . . ?
Mn1 O5 H5B 125.3(18) . . ?
H5A O5 H5B 107.3(15) . . ?
N2 N1 C3 118.32(17) . . ?
C2 N1 N2 110.36(17) . . ?
C2 N1 C3 130.53(18) . . ?
C1 N2 N1 101.78(17) . . ?
C1 N3 Mn1 120.54(14) . 2_566 ?
C2 N3 Mn1 129.15(15) . 2_566 ?
C2 N3 C1 102.78(19) . . ?
N5 N4 C9 122.07(16) . . ?
C8 N4 N5 109.99(17) . . ?
C8 N4 C9 127.68(18) . . ?
C7 N5 N4 102.17(17) . . ?
C7 N6 Mn1 135.28(15) . 1_655 ?
C8 N6 Mn1 121.19(15) . 1_655 ?
C8 N6 C7 102.21(18) . . ?
N2 C1 N3 115.14(19) . . ?
N2 C1 H1 122.4 . . ?
N3 C1 H1 122.4 . . ?
N1 C2 N3 109.92(18) . . ?
N1 C2 H2 125.0 . . ?
N3 C2 H2 125.0 . . ?
C4 C3 N1 123.94(19) . . ?
C5 C3 N1 114.89(18) 2 . ?
C5 C3 C4 121.2(2) 2 . ?
C3 C4 C6 127.46(19) . . ?
C5 C4 C3 115.6(2) . . ?
C5 C4 C6 116.84(18) . . ?
C3 C5 C4 123.3(2) 2 . ?
C3 C5 H5 118.4 2 . ?
C4 C5 H5 118.4 . . ?
O1 C6 O2 125.7(2) . . ?
O1 C6 C4 117.86(18) . . ?
O2 C6 C4 116.12(18) . . ?
N5 C7 N6 115.1(2) . . ?
N5 C7 H7 122.5 . . ?
N6 C7 H7 122.5 . . ?
N4 C8 H8 124.7 . . ?
N6 C8 N4 110.55(19) . . ?
N6 C8 H8 124.7 . . ?
C10 C9 N4 120.5(2) . . ?
C11 C9 N4 117.79(19) 2_665 . ?
C11 C9 C10 121.70(19) 2_665 . ?
C9 C10 C11 117.3(2) . . ?
C9 C10 C12 123.86(19) . . ?
C11 C10 C12 118.5(2) . . ?
C9 C11 C10 121.0(2) 2_665 . ?
C9 C11 H11 119.5 2_665 . ?
C10 C11 H11 119.5 . . ?
O3 C12 C10 114.23(18) . . ?
O4 C12 O3 126.3(2) . . ?
O4 C12 C10 119.45(19) . . ?
loop_
_geom_bond_atom_site_label_1
_geom_bond_atom_site_label_2
_geom_bond_distance
_geom_bond_site_symmetry_2
_geom_bond_publ_flag
Mn1 O1 2.1810(15) . ?
Mn1 O2 2.1458(14) 2_666 ?
Mn1 O3 2.1148(15) . ?
Mn1 O5 2.2996(16) . ?
Mn1 N3 2.2869(19) 2_566 ?
Mn1 N6 2.2922(18) 1_455 ?
O1 C6 1.254(3) . ?
O2 Mn1 2.1457(14) 2_666 ?
O2 C6 1.258(2) . ?
O3 C12 1.288(3) . ?
O4 C12 1.223(3) . ?
O5 H5A 0.845(10) . ?
O5 H5B 0.849(10) . ?
N1 N2 1.377(2) . ?
N1 C2 1.326(3) . ?
N1 C3 1.434(3) . ?
N2 C1 1.314(3) . ?
N3 Mn1 2.2869(19) 2_566 ?
N3 C1 1.363(3) . ?
N3 C2 1.333(3) . ?
N4 N5 1.362(3) . ?
N4 C8 1.331(3) . ?
N4 C9 1.432(3) . ?
N5 C7 1.314(3) . ?
N6 Mn1 2.2923(18) 1_655 ?
N6 C7 1.366(3) . ?
N6 C8 1.324(3) . ?
C1 H1 0.9300 . ?
C2 H2 0.9300 . ?
C3 C4 1.397(3) . ?
C3 C5 1.380(3) 2 ?
C4 C5 1.391(3) . ?
C4 C6 1.522(3) . ?
C5 C3 1.380(3) 2 ?
C5 H5 0.9300 . ?
C7 H7 0.9300 . ?
C8 H8 0.9300 . ?
C9 C10 1.395(3) . ?
C9 C11 1.380(3) 2_665 ?
C10 C11 1.394(3) . ?
C10 C12 1.514(3) . ?
C11 C9 1.380(3) 2_665 ?
C11 H11 0.9300 . ?
loop_
_geom_torsion_atom_site_label_1
_geom_torsion_atom_site_label_2
_geom_torsion_atom_site_label_3
_geom_torsion_atom_site_label_4
_geom_torsion
_geom_torsion_site_symmetry_1
_geom_torsion_site_symmetry_2
_geom_torsion_site_symmetry_3
_geom_torsion_site_symmetry_4
_geom_torsion_publ_flag
Mn1 O1 C6 O2 -3.0(3) . . . . ?
Mn1 O1 C6 C4 -176.64(13) . . . . ?
Mn1 O2 C6 O1 103.9(3) 2_666 . . . ?
Mn1 O2 C6 C4 -82.3(3) 2_666 . . . ?
Mn1 O3 C12 O4 -60.4(3) . . . . ?
Mn1 O3 C12 C10 118.50(18) . . . . ?
Mn1 N3 C1 N2 -151.77(15) 2_566 . . . ?
Mn1 N3 C2 N1 149.32(15) 2_566 . . . ?
Mn1 N6 C7 N5 -165.37(17) 1_655 . . . ?
Mn1 N6 C8 N4 168.39(14) 1_655 . . . ?
N1 N2 C1 N3 -1.2(2) . . . . ?
N1 C3 C4 C5 179.1(2) . . . . ?
N1 C3 C4 C6 -5.5(3) . . . . ?
N2 N1 C2 N3 -1.1(2) . . . . ?
N2 N1 C3 C4 134.7(2) . . . . ?
N2 N1 C3 C5 -45.9(3) . . . 2 ?
N4 N5 C7 N6 -1.1(3) . . . . ?
N4 C9 C10 C11 -179.87(18) . . . . ?
N4 C9 C10 C12 -6.2(3) . . . . ?
N5 N4 C8 N6 -0.2(3) . . . . ?
N5 N4 C9 C10 -68.0(3) . . . . ?
N5 N4 C9 C11 112.8(2) . . . 2_665 ?
C1 N3 C2 N1 0.4(2) . . . . ?
C2 N1 N2 C1 1.4(2) . . . . ?
C2 N1 C3 C4 -56.5(3) . . . . ?
C2 N1 C3 C5 122.9(2) . . . 2 ?
C2 N3 C1 N2 0.6(3) . . . . ?
C3 N1 N2 C1 172.30(18) . . . . ?
C3 N1 C2 N3 -170.6(2) . . . . ?
C3 C4 C5 C3 0.3(4) . . . 2 ?
C3 C4 C6 O1 -19.7(3) . . . . ?
C3 C4 C6 O2 166.1(2) . . . . ?
C5 C3 C4 C5 -0.3(3) 2 . . . ?
C5 C3 C4 C6 175.1(2) 2 . . . ?
C5 C4 C6 O1 155.7(2) . . . . ?
C5 C4 C6 O2 -18.6(3) . . . . ?
C6 C4 C5 C3 -175.6(2) . . . 2 ?
C7 N6 C8 N4 -0.4(3) . . . . ?
C8 N4 N5 C7 0.8(3) . . . . ?
C8 N4 C9 C10 105.5(3) . . . . ?
C8 N4 C9 C11 -73.7(3) . . . 2_665 ?
C8 N6 C7 N5 0.9(3) . . . . ?
C9 N4 N5 C7 175.3(2) . . . . ?
C9 N4 C8 N6 -174.3(2) . . . . ?
C9 C10 C11 C9 0.7(3) . . . 2_665 ?
C9 C10 C12 O3 154.0(2) . . . . ?
C9 C10 C12 O4 -27.0(3) . . . . ?
C11 C9 C10 C11 -0.7(3) 2_665 . . . ?
C11 C9 C10 C12 173.0(2) 2_665 . . . ?
C11 C10 C12 O3 -32.4(3) . . . . ?
C11 C10 C12 O4 146.6(2) . . . . ?
C12 C10 C11 C9 -173.31(19) . . . 2_665 ?
loop_
_refln_index_h
_refln_index_k
_refln_index_l
_refln_F_squared_meas
_refln_F_squared_sigma
0 0 1 1475.62 28.01
0 0 -2 157.73 6.14
0 0 2 158.91 6.37
0 0 -2 149.73 6.26
0 0 3 93.78 5.83
0 0 -3 83.69 5.58
0 0 3 91.73 5.61
0 0 -3 96.59 5.58
0 0 -4 42.26 4.54
0 0 4 43.76 4.43
0 0 -4 41.64 4.17
0 0 -5 1647.64 38.84
0 0 5 1542.31 39.14
0 0 6 1058.19 31.37
0 0 -6 1037.56 30.12
0 0 -6 1068.17 32.43
0 0 7 471.12 20.47
0 0 -7 453.02 18.86
0 0 -8 0.87 1.51
0 0 8 2.87 2.11
0 0 9 152.59 12.75
0 0 -9 147.23 11.5
0 0 10 1.83 1.79
0 0 11 41.15 7.57
0 -1 11 2.81 2.39
0 -1 10 32.61 6.21
0 -1 9 3.22 2.51
0 1 -9 2.48 1.85
0 1 -8 4.22 2.13
0 -1 8 5.82 2.88
0 1 -7 847.76 27.34
0 -1 7 789.74 27.35
0 1 -7 838.97 28.21
0 1 -6 961.36 28.86
0 1 -6 961.26 28.28
0 -1 6 968.81 29.28
0 -1 5 26.73 4.08
0 1 -5 29.95 3.82
0 1 -5 21.54 3.45
0 -1 4 153.13 8.21
0 1 -4 164.95 8.3
0 1 -4 152.83 7.89
0 1 -3 202.05 8.1
0 1 -3 197.02 8.03
0 -1 3 199.73 8.55
0 -1 3 215.02 8.61
0 -1 2 1083.28 22.93
0 -1 2 1047.72 23.38
0 1 -2 1105.94 22.83
0 -1 1 563.93 12.15
0 1 0 435.51 10.28
0 1 1 73.73 4.01
0 -1 -1 76.31 4.14
0 -1 -2 505.5 14.88
0 1 2 513.68 14.66
0 -1 -3 72.93 5.62
0 1 3 71.01 5.36
0 1 4 598.22 19.78
0 1 5 39.21 4.91
0 -1 -5 41.34 4.62
0 -1 -5 45.51 5.65
0 -1 -6 120.86 8.72
0 1 6 127.92 9.91
0 -1 -7 216.03 12.53
0 1 7 193.11 13.39
0 -1 -8 4.61 2.23
0 1 8 1.51 1.92
0 1 9 1.32 2.16
0 -1 -9 0.67 1.48
0 1 10 3.19 2.3
0 -2 11 38.74 6.96
0 -2 10 7.54 2.94
0 -2 9 43.93 6.56
0 -2 8 100.01 9.4
0 2 -7 14.08 3.32
0 -2 7 13.94 3.68
0 2 -7 13.97 3.44
0 -2 6 301.04 14.34
0 2 -6 303.46 13.9
0 2 -5 129.5 7.97
0 2 -5 117.67 7.39
0 -2 5 140.82 8.64
0 -2 4 525.69 17.42
0 2 -4 494.55 15.69
0 2 -4 533.09 16.3
0 -2 4 519.32 16.29
0 -2 3 2699.76 52.37
0 -2 3 2660.84 53.64
0 2 -3 2610.51 52.13
0 2 -2 2966.34 56.52
0 -2 2 3023.18 56.57
0 2 -1 4018.27 74.1
0 2 0 5579.87 101.73
0 2 1 2053.04 43.13
0 -2 -1 2110.11 43.63
0 -2 -2 3780.79 74.6
0 2 2 3698.11 73.49
0 2 3 46.82 4.85
0 -2 -3 48.9 5.08
0 -2 -4 6.44 2.57
0 2 4 6.48 2.42
0 -2 -5 17.89 4.01
0 -2 -5 11.89 2.7
0 2 5 19.19 3.97
0 -2 -6 722.74 24.09
0 2 6 646.25 25.84
0 2 7 173.36 13.12
0 -2 -7 172.36 11.36
0 2 8 217.62 15.68
0 -2 -8 251.1 14.54
0 2 9 148.11 13.65
0 -2 -9 146.53 11.58
0 2 10 3.95 2.93
0 -3 12 101.32 11.52
0 -3 11 74.33 9.44
0 -3 10 306.44 18.92
0 -3 10 308.96 18.27
0 -3 9 4.23 3
0 -3 8 4.07 3.01
0 3 -8 0.13 1.18
0 -3 7 378.49 17.57
0 3 -7 394.08 16.85
0 -3 6 1795.53 46.62
0 -3 6 1797.73 44.41
0 -3 5 509.97 17.71
0 -3 5 552.31 19.8
0 3 -5 506.83 17.19
0 3 -4 1341.11 31.53
0 -3 4 1340.16 31.61
0 -3 4 1329.77 33.32
0 3 -3 111.56 6.21
0 -3 3 124.19 6.95
0 -3 3 125.09 6.6
0 -3 2 778.88 20.01
0 -3 2 794.29 20.68
0 3 -1 3427.44 67.01
0 3 0 1530.59 35.08
0 -3 -1 1596.56 37.18
0 3 1 1507.73 36.36
0 3 2 618.98 20.35
0 -3 -3 282.35 14.11
0 3 3 283.69 13.76
0 3 4 188.57 11.81
0 -3 -4 198.96 12.44
0 3 5 98.24 9.1
0 3 6 51.87 7.18
0 -3 -6 50.26 5.82
0 -3 -7 43.09 5.67
0 3 7 38.22 6.55
0 3 8 24.04 5.61
0 -3 -8 30.21 5.04
0 3 9 16.53 5.1
0 -4 12 46.76 7.99
0 -4 11 0.18 2.52
0 -4 10 36.27 6.48
0 -4 9 -2.09 2.54
0 4 -8 95.58 8.41
0 -4 8 103.61 9.65
0 -4 7 86.9 7.95
0 4 -7 100.13 8.03
0 4 -6 6.74 1.88
0 -4 6 5.11 2.13
0 -4 6 6.43 2.45
0 -4 5 110.31 8.32
0 -4 5 110.88 7.57
0 -4 4 256.54 11.61
0 4 -4 237.06 10.69
0 -4 4 256.59 11.26
0 -4 4 261.01 12.08
0 -4 3 76.53 5.63
0 -4 3 79 5.99
0 -4 2 314 12.78
0 4 -2 304.83 12.37
0 4 -1 660.83 20.42
0 4 0 472.59 17.07
0 4 0 465.79 10.28
0 4 1 607.15 20.93
0 -4 -2 342.95 16.19
0 4 2 354.92 15.92
0 4 3 0.2 1.71
0 -4 -3 7.85 2.83
0 4 4 43.51 6.1
0 4 5 143.79 11.91
0 4 6 308.7 18.91
0 -4 -6 329.36 15.81
0 -4 -7 71.44 7.23
0 4 7 69.32 9.34
0 4 8 3.76 3.05
0 -5 12 37.1 7.41
0 -5 11 8.21 4.13
0 -5 10 38.35 6.65
0 -5 9 2.41 2.6
0 -5 8 57.93 7.12
0 -5 7 1110.79 34.42
0 5 -7 1236.75 34.58
0 -5 6 389.01 16.61
0 -5 6 406.65 18.91
0 5 -6 392.84 16.52
0 -5 5 789.34 25.06
0 -5 5 835.49 25.06
0 -5 5 801.27 26.44
0 -5 4 235.23 12.12
0 -5 4 254.28 12
0 -5 4 236.23 12.18
0 -5 3 22.79 3.52
0 -5 3 21.61 3.57
0 5 -2 472.35 17.9
0 -5 2 491.76 18.51
0 -5 1 0.07 0.5
0 5 -1 1509.71 29.06
0 5 0 839.17 16.32
0 5 0 858.5 26.93
0 -5 -1 614.7 23.32
0 5 1 590.76 22.58
0 -5 -2 616.94 24.71
0 5 2 574.27 23.14
0 5 3 452 21.23
0 5 4 330.05 18.78
0 5 5 51.49 7.59
0 5 6 84.36 10.31
0 5 7 106.24 12.23
0 -6 12 58.43 9.11
0 -6 11 260.83 18.42
0 -6 10 19.69 5.02
0 -6 9 59.54 7.81
0 -6 8 2.21 1.95
0 -6 7 4.94 2.24
0 6 -7 4.63 1.96
0 -6 7 5.35 2.31
0 -6 6 468.31 21.28
0 -6 6 489.22 20.17
0 -6 6 444.18 19.07
0 -6 5 78.52 7.51
0 -6 5 71.07 6.89
0 -6 5 78.06 7.64
0 -6 4 649.81 23.42
0 -6 4 639.07 22.64
0 6 -3 17.06 3.7
0 -6 3 17.77 3.84
0 -6 3 9.14 2.8
0 -6 2 75.16 7.36
0 6 -2 68.06 6.93
0 6 -1 4.59 2.45
0 -6 1 0.58 1.45
0 6 0 45.25 6.21
0 -6 0 32.68 5.22
0 6 1 3.31 2.55
0 6 1 0.8 0.58
0 6 2 16.51 2.49
0 6 2 22.57 4.91
0 6 3 51.27 7.53
0 6 4 20.37 5.04
0 6 5 21.04 5.42
0 6 6 42.21 7.88
0 -7 12 1.21 2.66
0 -7 11 31.96 6.94
0 -7 10 6.79 3.34
0 -7 9 128.42 11.62
0 -7 8 124.14 10.79
0 -7 7 13.94 3.75
0 -7 6 421.8 19.39
0 -7 5 789.18 28.51
0 -7 5 819.74 28.35
0 -7 5 817.47 29.09
0 -7 4 273.93 15.2
0 -7 4 302.01 16.33
0 -7 4 274.87 8.08
0 -7 4 283.86 8.57
0 7 -3 47.74 6.39
0 -7 3 43.67 5.86
0 7 -2 11.07 3.39
0 7 -1 79.64 8.45
0 7 0 524.72 23.91
0 7 1 1295.5 26.19
0 7 1 1257.26 25.81
0 7 1 1251.18 41.4
0 7 2 187.86 8.64
0 7 2 199.51 15.16
0 7 3 256.89 11.91
0 7 3 246.37 17.76
0 7 4 9.62 3.81
0 7 5 52.84 8.86
0 -8 12 266.49 20.3
0 -8 11 284.4 20.07
0 -8 10 47.09 7.73
0 -8 9 106.4 10.77
0 -8 8 4.38 2.57
0 -8 7 232.09 15.26
0 -8 6 139.12 11.53
0 -8 5 128.38 6.24
0 -8 5 113.97 5.52
0 -8 5 117.78 10.52
0 -8 4 522.06 23.56
0 8 -3 228.71 15.28
0 -8 3 256.99 15.92
0 8 -2 115.71 10.81
0 8 -1 1.24 2.08
0 8 0 59.4 8.24
0 8 1 77.38 9.66
0 8 2 118.84 12.53
0 8 3 93.28 11.55
0 -9 12 9.63 3.94
0 -9 11 -0.47 2.5
0 -9 10 501.32 26.54
0 -9 9 3.78 3.07
0 -9 8 34.56 6.36
0 -9 7 2.56 1.55
0 -9 7 2.62 2.12
0 -9 6 11.68 1.86
0 -9 6 11.11 3.82
0 -9 5 70.6 9.01
0 -9 4 68.62 8.79
0 -9 3 215.6 15.58
0 9 -3 151.67 13.27
0 9 -2 58.93 8.41
0 9 -1 15.11 4.44
0 9 0 51.53 8.21
0 9 1 3.48 3.04
0 9 2 113.64 13.08
0 -10 11 42.04 8.01
0 -10 10 110.19 12.29
0 -10 9 65.97 9.59
0 -10 8 6.68 3.44
0 -10 7 165 14.55
0 -10 6 3.89 2.34
0 -10 5 53.57 8.35
0 -10 4 389.79 23.12
0 10 -3 473.73 25.77
0 -10 3 458.66 25.34
0 10 -2 67.47 9.66
0 10 -1 19.41 5.42
0 10 0 121.65 13.4
0 -11 9 29.71 6.75
0 -11 8 74.62 10.4
0 -11 7 6.49 3.4
0 -11 6 7.44 3.87
0 -11 5 32.45 7
0 -11 4 41.75 8.16
0 -11 3 9.34 4.2
1 -12 6 146.06 15.12
1 -12 7 178.06 16.67
-1 11 -2 11.63 4.42
1 -11 3 6.07 3.51
-1 11 -3 3.7 2.26
1 -11 4 79.07 10.65
1 -11 5 113.98 12.7
1 -11 6 16.73 5.08
1 -11 7 35.71 7.03
1 -11 8 68.11 9.63
1 -11 9 18.17 5.17
1 -11 10 50.53 8.5
-1 10 0 28.46 6.69
-1 10 -1 243.46 18.43
-1 10 -2 123.7 12.63
-1 10 -3 136.58 13.14
1 -10 3 133.4 12.9
1 -10 4 51.91 7.89
1 -10 5 166.58 14.27
1 -10 6 116.84 11.75
1 -10 7 41.71 7.07
1 -10 8 180.76 14.91
1 -10 9 88.89 10.46
1 -10 10 7.16 3.54
1 -10 11 33.2 7.06
-1 9 2 44.61 8.11
-1 9 1 31.04 6.38
-1 9 0 67.21 9.24
-1 9 -1 432.1 23.16
1 -9 2 654.1 23.64
-1 9 -2 737.34 30.41
1 -9 3 111.03 9.34
1 -9 3 117.39 11.13
1 -9 4 32.9 5.36
1 -9 4 38.54 6.28
1 -9 5 3.3 2.34
1 -9 5 1 0.88
1 -9 6 494.74 16.71
1 -9 6 496.86 23.5
1 -9 7 255.26 16.7
1 -9 7 308.11 14.45
1 -9 8 34.27 6.13
1 -9 8 31.89 4.96
1 -9 9 176.73 14.19
1 -9 10 29.72 6.26
1 -9 11 6.97 3.6
-1 8 4 6.03 3.47
-1 8 3 37.01 7.23
-1 8 2 5.51 3.2
-1 8 1 10.83 3.76
-1 8 0 8.75 3.64
-1 8 -1 2.82 2.51
-1 8 -2 107.98 10.16
1 -8 3 38.83 5.1
1 -8 3 39.56 5.96
-1 8 -3 49.44 6.77
1 -8 4 20.41 4.32
1 -8 4 15.55 3.84
1 -8 4 18.81 1.76
1 -8 5 292.88 16.23
1 -8 5 283.72 11.12
1 -8 6 124.51 10.47
1 -8 6 123.25 8.21
1 -8 7 35.12 5.72
1 -8 8 259.25 16.04
1 -8 9 1.37 1.73
1 -8 10 15.94 4.66
1 -8 11 -0.94 2.29
-1 7 5 42.88 7.82
-1 7 4 110.27 11.98
-1 7 3 380.28 21.75
-1 7 2 396.75 13.23
-1 7 2 398.45 21.42
-1 7 1 78.61 3.41
-1 7 1 86.55 9.34
-1 7 1 74.8 3.32
-1 7 0 38.16 5.91
-1 7 -1 76.28 8.08
-1 7 -2 680.88 25.76
1 -7 2 759.72 27.21
1 -7 3 1118.04 34.94
1 -7 3 1137.95 32.54
-1 7 -3 1119.63 34.7
1 -7 4 494.85 20.28
1 -7 4 489.97 20.72
1 -7 4 493.63 14.36
1 -7 4 473.23 19.82
1 -7 5 552.87 23
1 -7 5 513.93 20.75
1 -7 5 506.11 21.3
1 -7 5 545.21 17.61
1 -7 6 185.74 12.27
1 -7 6 183.94 11.83
1 -7 7 181.56 12.32
1 -7 7 198.64 12.71
1 -7 8 204.05 13.73
1 -7 9 426.58 21.48
1 -7 10 166.5 13.93
1 -7 11 11.25 4.23
-1 6 6 2.06 2.52
-1 6 5 2.19 2.4
-1 6 4 259.42 17.4
-1 6 3 444.93 22.24
-1 6 2 102.22 9.69
-1 6 1 8.87 1.72
-1 6 1 9.87 3.33
1 -6 0 20.6 4.03
-1 6 0 17.39 3.85
1 -6 1 7.92 2.75
-1 6 -1 4.08 2.08
1 -6 2 28.4 4.3
-1 6 -2 31.01 4.54
1 -6 3 882.1 27.94
1 -6 3 924.2 20.73
-1 6 -3 912.82 27.81
1 -6 3 882.44 26.47
1 -6 3 917.02 27.11
1 -6 4 116.82 8.37
1 -6 4 124.61 6.77
1 -6 4 119.37 8.74
1 -6 4 125.06 9.12
1 -6 5 9.96 2.64
1 -6 5 15.3 3.54
1 -6 5 7.92 2.34
1 -6 6 199.56 11.76
1 -6 6 195 11.59
-1 6 -7 49.95 5.7
1 -6 7 43.04 5.66
1 -6 7 46.93 5.88
1 -6 8 212.61 13.69
1 -6 9 36.53 6.04
1 -6 10 1.34 1.89
1 -6 11 29.27 6.14
-1 5 7 5.16 2.77
-1 5 6 11.78 4.23
-1 5 5 97.58 10.37
1 -5 -5 116.04 7.12
-1 5 4 8.1 3.23
-1 5 3 104.25 9.56
-1 5 2 451.49 19.41
1 -5 -2 432.91 19.67
-1 5 1 727.94 24.96
1 -5 -1 740.77 25.56
-1 5 1 750.71 18.14
-1 5 0 2.12 0.58
1 -5 0 2.57 1.6
-1 5 0 0.75 1.66
1 -5 1 9.19 2.28
-1 5 -1 8.52 2.41
1 -5 2 1155.22 27.83
-1 5 -2 1167.24 29.85
1 -5 2 1142.31 29.94
1 -5 3 224.73 10.84
1 -5 3 212.99 10.33
1 -5 3 201.17 8
1 -5 3 205.84 10.56
1 -5 4 2015.33 45.48
1 -5 4 1944.65 45.84
1 -5 4 2059.87 48.53
1 -5 5 65.67 6.93
1 -5 5 66.18 5.86
1 -5 5 59.43 5.67
-1 5 -6 510.35 18.65
1 -5 6 558.7 23.36
1 -5 6 503.24 19.01
-1 5 -7 626.8 22.08
1 -5 7 603.62 22.61
1 -5 8 426.93 19.88
-1 5 -8 412.66 18.16
1 -5 9 145.93 11.89
1 -5 10 17.89 4.65
1 -5 11 163.93 14.03
-1 4 8 356.41 22.65
-1 4 7 112.21 11.85
1 -4 -7 145.8 9.16
1 -4 -6 101.03 7.2
-1 4 6 97.43 10.35
1 -4 -5 264.28 11.3
-1 4 5 252.01 15.89
-1 4 4 225.62 13.98
-1 4 3 199.94 12.08
1 -4 -3 183.61 12.03
-1 4 2 5.79 2.53
1 -4 -2 -0.5 1.12
-1 4 1 1400.08 35.51
-1 4 0 1277.36 24.79
1 -4 0 1348.04 33.05
-1 4 0 1358.94 32.94
1 -4 1 393.09 9.1
-1 4 -1 403.78 14.25
1 -4 1 391.17 14.19
-1 4 -2 460.58 15.2
1 -4 2 471.1 14.73
1 -4 2 449.19 15.26
1 -4 2 487.68 12.41
1 -4 3 53.85 4.59
1 -4 3 62.57 5.25
1 -4 3 52.69 4.34
1 -4 4 39.52 3.93
1 -4 4 33.81 4.43
-1 4 -4 36.44 3.71
1 -4 4 36.82 3.9
1 -4 5 1329.82 32.98
-1 4 -5 1313.58 32.61
-1 4 -6 229.05 12.61
1 -4 6 228.34 11.84
-1 4 -7 80.54 7.08
-1 4 -7 106.39 8.97
1 -4 7 86.16 7.97
-1 4 -8 321.06 15.58
1 -4 8 289.1 15.97
1 -4 9 78.65 8.62
1 -4 10 102.59 10.38
1 -4 10 94.42 9.48
1 -4 11 30.12 5.88
-1 3 9 39.32 7.54
-1 3 8 54.93 8.34
1 -3 -8 66.98 6.63
-1 3 7 291.1 18.02
1 -3 -7 263.02 12.91
1 -3 -6 0.69 0.98
-1 3 6 -0.06 1.87
-1 3 5 2.96 2.3
1 -3 -5 0.96 0.92
-1 3 4 185.73 11.64
1 -3 -4 200.05 12.2
1 -3 -4 185.1 8.2
1 -3 -4 181.26 11.77
1 -3 -3 146.74 9.62
-1 3 3 132.92 9.02
-1 3 2 197.21 10.1
-1 3 1 529.59 16.82
1 -3 0 4.62 1.64
-1 3 0 4.22 1.52
-1 3 0 7.56 1.21
-1 3 -1 1180.7 27.12
1 -3 1 1202.19 27.46
1 -3 1 1230.93 24.04
1 -3 1 1211.28 25.79
1 -3 2 816.65 20.78
1 -3 2 816.84 19.94
1 -3 2 803.64 19.41
1 -3 3 606.74 16.37
-1 3 -3 624.71 16.47
-1 3 -3 590.74 17.57
1 -3 3 631.12 19.14
-1 3 -4 307.11 11.07
1 -3 4 283.84 10.97
1 -3 5 23.32 3.42
-1 3 -5 17.88 2.67
1 -3 6 290.29 13.53
-1 3 -6 268.11 13.76
-1 3 -7 149.33 9.73
-1 3 -7 149.18 10.8
1 -3 7 146.75 10.39
1 -3 8 566.3 23.17
-1 3 -8 565.43 21.97
-1 3 -8 585.42 24.16
1 -3 9 -2.56 2.53
-1 3 -9 1.73 1.96
1 -3 9 0.37 1.85
1 -3 10 16.33 4.23
-1 2 10 17.47 5.31
-1 2 9 264.84 18.63
1 -2 -8 392.49 17.18
-1 2 8 344.89 20.39
-1 2 7 2.22 2.54
1 -2 -7 1.18 1.29
1 -2 -6 95.22 6.79
-1 2 6 93.53 9.02
1 -2 -5 46.52 6.06
1 -2 -5 40.9 4.01
-1 2 5 28.94 4.62
1 -2 -4 787.14 20.14
-1 2 4 782.98 24.77
1 -2 -4 730.85 24.71
-1 2 3 286.44 12.43
1 -2 -3 297.09 9.16
1 -2 -3 285.87 12.53
1 -2 -3 252.27 11.96
-1 2 2 1520.89 34.92
-1 2 1 69.39 4.64
1 -2 0 243.19 6.11
1 -2 0 246.62 8.15
1 -2 0 243.19 6.63
-1 2 0 249.57 6.6
-1 2 0 245.23 8.07
-1 2 -1 3505.89 64.43
1 -2 1 3505.36 64.61
1 -2 1 3483.59 65.27
-1 2 -1 3577.49 64.76
1 -2 1 3604.09 64.49
1 -2 2 3920.85 71.32
-1 2 -2 3924.09 71.29
-1 2 -3 1881.33 38.38
1 -2 3 1914.9 38.73
1 -2 4 381.97 13.08
-1 2 -4 357.67 12.24
-1 2 -5 251.01 12.4
1 -2 5 244.84 11.32
-1 2 -5 241.17 10.77
1 -2 6 158.83 10
-1 2 -6 166.26 10.79
-1 2 -7 1044.3 30.82
1 -2 7 1014.76 31.36
1 -2 7 1010.12 30.26
-1 2 -7 1009.25 32.36
1 -2 8 482.4 20.58
-1 2 -8 503.97 22.37
-1 2 -9 170.8 13.03
1 -2 9 162.33 12.2
1 -2 10 81.02 9.17
-1 2 -10 101.7 10.54
-1 1 11 244.21 19.17
-1 1 10 131.65 13.31
-1 1 9 205.95 15.74
-1 1 8 208.31 14.9
1 -1 -7 246.5 12.5
-1 1 7 251.95 15.37
1 -1 -6 413.9 15.48
-1 1 6 419.29 18.83
1 -1 -6 426.47 19.35
1 -1 -5 510.19 19.99
1 -1 -5 523.56 16.45
-1 1 5 530.22 19.77
-1 1 4 729.98 22.41
1 -1 -4 732.54 19.06
-1 1 3 86.92 6.04
1 -1 -3 84.07 4.3
-1 1 2 20.55 2.82
1 -1 -2 19.54 1.55
-1 1 1 953.74 20.7
1 -1 0 93.88 3.22
-1 1 0 87.07 3.5
-1 1 0 91.34 3.16
1 -1 0 99.28 3.63
1 -1 1 283.23 8.36
-1 1 -2 0.4 0.8
1 -1 2 1.3 0.94
-1 1 -3 25.64 2.7
1 -1 3 23.98 2.67
1 -1 4 2.7 1.6
-1 1 -4 1.88 1.37
-1 1 -4 0.36 1.21
1 -1 4 2.14 1.64
-1 1 -5 38.06 4.39
1 -1 5 37.48 4.3
-1 1 -5 36.41 4.71
-1 1 -6 149.63 9.8
1 -1 6 158.73 9.76
-1 1 -6 160.44 10.8
-1 1 -7 1.66 1.32
1 -1 7 3.4 2.08
1 -1 8 58.14 6.88
-1 1 -8 51.79 6.79
1 -1 9 29.46 5.38
-1 1 -9 26.28 5.31
1 -1 10 5.86 2.92
-1 1 -10 4.29 2.65
-1 0 11 13.25 4.44
-1 0 10 6.7 3.48
-1 0 9 63.59 8.44
-1 0 8 5.61 2.76
-1 0 7 33.57 5.53
1 0 -7 23.19 4.49
-1 0 6 152.8 10.39
1 0 -6 162.49 10.88
1 0 -6 174.93 9.45
1 0 -5 44.52 4.24
-1 0 5 48.44 5.5
-1 0 4 669.6 19.16
1 0 -4 716.36 18.67
-1 0 4 717.16 21.14
1 0 -4 690.28 21.15
-1 0 3 1.08 0.71
-1 0 3 4.23 2.11
-1 0 2 3283.29 61.99
1 0 -1 317.35 8.5
-1 0 1 317.56 8.06
1 0 0 566.44 12.71
-1 0 -1 2220.64 41.48
1 0 1 2303.82 41.33
1 0 2 242.72 7.94
-1 0 -2 232.16 8.23
-1 0 -3 244.02 9.96
1 0 3 252.34 9.56
1 0 4 687.53 20.06
-1 0 -4 659.33 20.66
-1 0 -5 533.8 20.13
1 0 5 519.5 18.52
1 0 6 885.88 28.18
-1 0 -6 914 29.89
-1 0 -6 940.47 30.07
-1 0 -7 452.79 20.39
1 0 7 420.24 19.18
-1 0 -8 100.88 9.75
1 0 8 105.6 9.78
1 0 9 58.64 7.82
-1 0 -9 50.04 7.33
1 0 10 155.1 13.42
-1 0 -10 163.24 13.61
-1 -1 12 162.95 15.67
-1 -1 11 44.32 7.88
-1 -1 10 46.58 7.47
-1 -1 9 526.58 24.4
-1 -1 8 364.96 18.95
-1 -1 8 366.17 18.76
-1 -1 7 1065.1 33.73
1 1 -7 1091.6 33.42
-1 -1 6 974.75 29.77
1 1 -6 974.15 29.25
-1 -1 5 1408.97 36.11
-1 -1 5 1425.09 35.19
-1 -1 4 251.27 11.17
-1 -1 4 253.07 10.24
1 1 -4 243.54 10.5
-1 -1 3 40.24 3.59
-1 -1 2 3844.07 70.95
-1 -1 1 60.02 2.95
1 1 -1 58.06 2.9
-1 -1 1 58.8 3.1
-1 -1 0 2098.99 39.36
1 1 0 2064.29 39.25
1 1 0 2093.77 39.85
-1 -1 0 2045.22 40.01
1 1 1 71.69 4.1
-1 -1 -1 72.89 4.24
1 1 2 398.93 12.54
-1 -1 -2 388.61 12.87
1 1 3 1471.98 34.02
-1 -1 -3 1431.46 34.3
-1 -1 -3 1442.08 34.87
1 1 4 139.55 8.52
-1 -1 -5 65.38 6.84
1 1 5 60.4 6.21
-1 -1 -6 154.45 11.06
1 1 6 170.44 11.26
-1 -1 -6 155.39 11.52
1 1 7 91.33 8.91
-1 -1 -7 96.36 9.15
1 1 8 7.18 3.03
-1 -1 -8 10.43 3.41
1 1 9 189.84 14.67
-1 -1 -9 189.21 14.24
-1 -1 -10 1.25 1.9
-1 -2 12 158.32 15.01
-1 -2 11 38.14 7.05
-1 -2 10 1.56 2.06
-1 -2 10 2.83 2.71
-1 -2 9 3.65 2.88
-1 -2 8 40.16 6.2
1 2 -7 209.22 12.23
-1 -2 7 231.13 13.54
-1 -2 7 221.57 13.37
-1 -2 6 39.97 4.98
-1 -2 6 41.95 5.46
1 2 -6 33.06 4.34
-1 -2 5 244.04 11.48
1 2 -5 231.47 10.99
-1 -2 5 246.63 11.76
1 2 -4 158.58 8.08
-1 -2 4 164.09 8.28
-1 -2 4 143.72 7.93
-1 -2 3 440.52 13.77
-1 -2 2 295.55 9.91
-1 -2 1 653.93 13.82
1 2 -1 628.49 16.7
1 2 -1 611.63 13.75
1 2 0 918.78 22.34
1 2 0 903.75 19.69
-1 -2 0 930.6 22.64
1 2 1 2111.17 43.89
-1 -2 -1 2023.56 44.06
1 2 2 25.24 3.34
-1 -2 -2 22.5 3.31
1 2 3 182.67 10
1 2 4 1.12 1.31
-1 -2 -4 2.31 2.01
-1 -2 -4 2.73 2.14
-1 -2 -5 88.05 8.52
1 2 5 78.64 7.6
1 2 6 60.69 7.2
-1 -2 -6 56.33 6.78
1 2 7 612.86 26.17
-1 -2 -7 613.15 25.59
-1 -2 -8 152.7 12.25
1 2 8 131.47 12.27
1 2 9 15.01 4.74
-1 -2 -9 15.47 4.31
-1 -3 12 184.87 15.98
-1 -3 11 122.89 12.72
-1 -3 10 179.95 14.63
-1 -3 9 33.82 6.06
-1 -3 8 3.82 3.21
1 3 -7 202.6 11.89
-1 -3 7 171.34 11.67
-1 -3 7 200.83 12.84
1 3 -6 2828.18 61.44
-1 -3 6 2740.88 62.09
-1 -3 6 2769.93 62.82
-1 -3 5 3537.26 74.02
-1 -3 5 3575.53 73.21
1 3 -4 32.24 3.67
-1 -3 4 29.7 3.65
-1 -3 3 45.69 4.2
-1 -3 2 1923.12 37.11
-1 -3 2 1956.75 41.6
1 3 -1 246.38 10.42
-1 -3 1 246.95 10.69
1 3 -1 250.61 6.85
-1 -3 1 229.1 6.62
1 3 0 5951.04 106.91
1 3 0 5978.93 112.84
-1 -3 0 6011.7 113.35
1 3 1 1004.74 23.81
-1 -3 -1 1016.26 27.84
1 3 1 1007.23 27.46
1 3 2 605.12 20.57
1 3 3 6.78 2.29
-1 -3 -3 9.62 2.98
-1 -3 -4 52.02 6.46
1 3 4 46.77 5.9
1 3 5 517.55 22.39
1 3 6 709.97 28.42
-1 -3 -7 36.62 5.84
1 3 7 30.81 5.89
1 3 8 96.9 10.97
-1 -3 -8 108.03 10.44
1 3 9 72.25 10.13
-1 -4 13 115.75 13.18
-1 -4 12 346.1 22.67
-1 -4 11 210.3 16.75
-1 -4 10 143.88 13.08
-1 -4 9 12.87 4.11
-1 -4 8 134.66 11.02
-1 -4 7 688.71 25.85
1 4 -7 675.94 23.63
-1 -4 7 605.96 23.53
-1 -4 6 1823.07 45.36
1 4 -6 1848.94 45.02
-1 -4 6 1862.74 47.24
-1 -4 5 3.96 1.75
-1 -4 4 397.59 15.3
-1 -4 4 402.51 15.89
-1 -4 3 138.75 6.17
-1 -4 3 132.74 8.08
-1 -4 2 292.64 7.64
1 4 -2 301.36 12.97
1 4 -1 1294.71 33.85
1 4 -1 1337.16 25.69
1 4 0 410.01 16.34
1 4 0 417.38 11.47
-1 -4 -1 17.18 3.5
1 4 1 15.84 2.27
1 4 1 12.64 2.96
1 4 2 4.05 2
-1 -4 -2 0.61 1.43
1 4 2 3.04 1.25
1 4 3 34.82 5.26
-1 -4 -3 26.45 4.83
1 4 4 69.43 7.91
1 4 5 166.75 13.05
1 4 6 7.96 3.37
1 4 7 123.9 12.54
1 4 8 0.73 2.08
1 4 8 -0.27 2.01
-1 -5 13 -1.39 2.47
-1 -5 12 12.75 4.86
-1 -5 11 0.12 2.49
-1 -5 10 11.48 3.88
-1 -5 9 122.5 11.33
-1 -5 8 32.38 5.48
-1 -5 7 4.47 2.52
1 5 -7 1.8 1.36
-1 -5 6 281.9 14.3
-1 -5 6 282.25 15.19
1 5 -6 283.3 14.16
1 5 -5 62.06 5.94
-1 -5 5 59.83 6.04
-1 -5 5 55.6 6.16
-1 -5 4 334.38 15.45
-1 -5 4 343.15 14.92
-1 -5 3 662.94 19.13
-1 -5 3 656.98 10.49
-1 -5 2 0.18 0.6
1 5 -2 588.15 18.69
-1 -5 1 14.65 3.31
1 5 -1 18.6 1.42
1 5 -1 20.01 3.76
-1 -5 0 217.97 13.25
1 5 0 215.51 12.85
-1 -5 -1 712.93 26.22
1 5 1 651.74 24.89
1 5 1 699.59 18.91
1 5 2 577.34 24.03
1 5 2 593.31 18.9
1 5 3 83.47 9
1 5 3 77.11 6.74
1 5 4 152.76 12.8
1 5 4 153.12 10.65
1 5 5 173.23 14.32
1 5 5 162.29 12
1 5 6 131.73 13.06
1 5 6 130.35 11.63
1 5 7 43.47 7.94
-1 -6 13 83.87 11.49
-1 -6 12 146.19 14.72
-1 -6 11 390.28 23.54
-1 -6 10 345.34 20.7
-1 -6 9 33.36 6.18
-1 -6 8 2.31 1.98
-1 -6 7 729.87 26.99
-1 -6 6 899.03 30.02
-1 -6 6 958.54 31.69
-1 -6 5 1070.67 32.79
-1 -6 5 1112.61 34.33
-1 -6 4 716.51 25.26
-1 -6 4 721.56 18.11
-1 -6 4 757.76 26.71
-1 -6 3 1.78 1.28
-1 -6 3 8.45 2.94
1 6 -2 167.26 11.45
-1 -6 2 179.5 12.1
1 6 -1 378.8 18.12
-1 -6 1 379.13 18.68
1 6 0 144.59 11.12
1 6 0 136.92 5.31
1 6 1 95.7 9.41
1 6 1 105.09 6.04
1 6 2 350.53 13.75
1 6 2 331.01 18.89
1 6 3 47.19 7.29
1 6 3 37.47 4.69
1 6 4 7.62 3.63
1 6 4 10.87 3.09
1 6 5 209.75 17
1 6 6 -0.35 2.21
-1 -7 12 6.94 4.05
-1 -7 11 105.77 12.03
-1 -7 10 6.57 2.97
-1 -7 9 12.51 3.89
-1 -7 8 86.07 9.14
-1 -7 7 21.58 4.59
-1 -7 6 21.67 4.51
-1 -7 5 11.5 3.4
-1 -7 5 19.62 2.84
-1 -7 4 19.06 4.17
-1 -7 3 63.86 7.34
1 7 -2 100.5 9.68
1 7 -1 1.14 1.6
1 7 0 137.51 11.92
1 7 1 224.49 8.44
1 7 1 233.48 16.07
1 7 2 -1.23 2.33
1 7 3 8.94 3.79
1 7 4 14.01 4.64
-1 -8 12 144.4 15.11
-1 -8 11 125.46 13.19
-1 -8 10 109.61 11.85
-1 -8 9 0.13 1.87
-1 -8 8 89.49 9.89
-1 -8 7 97.69 10.14
-1 -8 6 691.19 20.28
-1 -8 6 660.86 27.72
-1 -8 5 778.1 16.75
-1 -8 5 809.98 16.84
-1 -8 5 805.65 31.06
-1 -8 4 246.4 16.07
-1 -8 3 -0.63 2.19
1 8 -2 65.62 8.6
1 8 -1 376.66 21.17
1 8 0 49.28 7.75
1 8 1 393.23 22.87
1 8 2 7.7 3.31
1 8 3 38.65 7.55
-1 -9 11 449.97 26.5
-1 -9 10 9.92 3.86
-1 -9 9 73.96 9.63
-1 -9 8 86.1 10.33
-1 -9 7 12.9 4.12
-1 -9 6 88.02 10.14
-1 -9 5 92.11 10.4
-1 -9 4 227.37 16.61
-1 -9 3 8.77 3.36
1 9 -2 98.02 11.22
1 9 -1 37.77 7.16
1 9 0 -0.34 2.55
1 9 1 7.01 3.69
-1 -10 10 36.71 7.45
-1 -10 9 83.64 10.99
-1 -10 8 42.9 7.78
-1 -10 7 59.26 8.96
-1 -10 6 144.76 14.07
-1 -10 5 474.69 26.36
-1 -10 4 300.69 20.76
-1 -10 3 -0.99 2.14
1 10 -2 11.85 4.81
1 10 -1 36.37 7.42
-1 -11 8 0.73 2.9
-1 -11 7 117.98 13.49
-1 -11 6 54.38 9.32
-1 -11 5 445.87 27.13
2 -12 4 0.69 2.18
2 -12 5 99 12.2
2 -12 6 1.69 2.37
2 -12 7 123.14 13.37
2 -12 8 166.02 15.47
2 -12 9 33.66 7.03
-2 11 -1 72.63 10.48
-2 11 -2 128.41 13.44
2 -11 3 -0.67 1.6
-2 11 -3 1.9 2.46
2 -11 4 262.8 19.01
2 -11 5 253.84 18.48
2 -11 6 3.49 2.29
2 -11 7 281.18 19.26
2 -11 8 40.95 7.37
2 -11 9 3.63 2.8
2 -11 10 79.06 10.48
-2 10 1 6.35 3.64
-2 10 0 50.39 8.35
-2 10 -1 24.68 5.96
-2 10 -2 38.33 6.9
2 -10 3 10.2 3.78
-2 10 -3 3.98 2.74
2 -10 4 12 3.9
2 -10 5 0.15 2.08
2 -10 6 125.51 11.7
2 -10 7 3.48 2.09
2 -10 8 3.11 3.03
2 -10 9 10.9 3.98
2 -10 10 42.4 7.44
-2 9 3 12.89 4.69
-2 9 2 64.91 9.46
-2 9 1 118 12.43
-2 9 0 55.92 8.24
2 -9 1 560.83 19.11
-2 9 -1 667.88 28.52
-2 9 -2 4.62 2.9
2 -9 2 1.73 1.22
2 -9 3 58.15 7.56
2 -9 3 62.47 6.81
-2 9 -3 57.95 7.57
2 -9 4 310.65 17.16
2 -9 4 307.17 17.78
2 -9 4 312.79 9.27
2 -9 5 3.58 1.33
2 -9 5 8.36 3.08
2 -9 6 230.88 15.12
2 -9 6 261.23 12.9
2 -9 7 705.68 25.55
2 -9 7 687.34 27.71
2 -9 8 182.42 13.6
2 -9 8 218.05 14.64
2 -9 9 52 7.7
2 -9 9 55.85 7.77
2 -9 10 53.12 7.96
2 -9 10 48.72 8.24
2 -9 11 28.51 6.7
-2 8 4 2.48 2.48
-2 8 3 61.93 9.03
-2 8 2 47.54 7.76
-2 8 1 106.78 10.84
2 -8 -1 94.72 4.64
2 -8 0 1217.74 28.38
-2 8 0 1177.6 39.71
2 -8 1 278 11.88
-2 8 -1 268.48 16.42
2 -8 2 22 3.58
-2 8 -2 21.96 4.37
2 -8 3 91.78 8.02
2 -8 3 82.27 8.06
-2 8 -3 110.45 9.68
2 -8 3 97.84 4.51
2 -8 4 457.65 20.69
2 -8 4 485.4 14.9
2 -8 4 435.6 20.08
2 -8 5 0.69 1.13
2 -8 5 -0.81 1.24
2 -8 6 0.56 1.45
2 -8 6 -1.71 1.16
2 -8 7 1 1.43
2 -8 7 -0.01 1.88
2 -8 8 5.86 2.66
2 -8 8 10.52 3.3
2 -8 9 77.29 9.52
2 -8 9 91.38 9.59
2 -8 10 1.6 1.96
2 -8 10 7.26 3.46
2 -8 11 -3.7 3.43
-2 7 6 39.45 7.93
-2 7 5 101.28 11.81
-2 7 4 156.07 13.99
-2 7 3 16.37 4.36
-2 7 3 23.38 3.68
-2 7 2 123.51 11.3
-2 7 2 121.85 6.77
-2 7 1 175.77 13
-2 7 1 166.7 6.34
2 -7 -1 181.76 6.46
-2 7 0 349.08 18.07
2 -7 0 359.96 11.69
2 -7 1 108.92 9.2
2 -7 1 92.71 6.2
-2 7 -1 97.31 8.88
-2 7 -2 47.09 5.93
2 -7 2 51.54 5.2
2 -7 2 59.56 6.71
2 -7 2 61.58 3.43
2 -7 3 217.65 12.34
2 -7 3 257.67 13.85
-2 7 -3 248.76 13.67
2 -7 3 253.58 13.18
2 -7 3 260.81 9.48
2 -7 4 -1.16 1.56
2 -7 4 2.48 1.68
2 -7 4 0.41 0.99
2 -7 4 0.77 1.35
2 -7 5 76.14 6.65
2 -7 5 96.82 9.33
2 -7 5 97.72 8.19
2 -7 5 78.67 7.19
2 -7 6 122.28 9.24
2 -7 6 133.56 9.74
2 -7 6 132.75 9.83
2 -7 7 563.06 22.41
2 -7 7 633.44 23.47
2 -7 8 209.97 13.29
2 -7 8 237.43 14.37
2 -7 9 309.1 17.75
2 -7 10 172.62 13.57
-2 6 7 1.91 2.74
-2 6 6 178.9 15.62
-2 6 5 378.34 21.92
-2 6 4 408.94 21.72
-2 6 3 1274.21 33.05
-2 6 3 1241.87 40.15
-2 6 2 34.84 3.77
-2 6 2 40.49 6.03
-2 6 1 3.72 1.16
2 -6 -1 6.97 1.04
-2 6 1 6.74 2.99
2 -6 -1 0.34 1.88
-2 6 0 530.83 20.87
-2 6 0 515.93 12.75
2 -6 0 562 21.55
2 -6 0 515.36 14.15
2 -6 1 1283.53 30.58
2 -6 1 1347.25 36.53
-2 6 -1 1380.58 36.62
2 -6 2 798.78 18.94
-2 6 -2 732.06 24.15
2 -6 2 799.46 25.01
2 -6 2 741 22.42
2 -6 3 741.33 23.57
2 -6 3 720.85 23.71
2 -6 3 748.87 20.21
2 -6 3 740.93 22.82
-2 6 -3 703.61 23.21
2 -6 4 23.66 3.41
2 -6 4 18.72 3.14
2 -6 4 19.35 3.38
2 -6 4 20.98 3.78
2 -6 5 173.27 10.11
2 -6 5 151.32 9.32
2 -6 5 161.67 10.07
2 -6 6 101.34 7.92
2 -6 6 119.79 8.52
2 -6 7 140.78 9.96
2 -6 7 115.08 8.66
-2 6 -7 116.01 8.43
2 -6 8 213.13 13.36
-2 6 -8 193.74 11.86
2 -6 8 174.97 11.43
2 -6 9 218.29 14.4
2 -6 10 95.23 9.91
-2 5 8 22.79 6.05
-2 5 7 -0.53 2.08
-2 5 6 402.04 22.61
-2 5 5 22.19 5.22
-2 5 4 199.95 13.84
-2 5 3 144.86 11.08
2 -5 -2 46.4 6.02
-2 5 2 49.09 5.96
-2 5 2 45.77 4.48
-2 5 1 139.68 6.51
-2 5 1 132.22 9.31
2 -5 -1 152.25 4.61
2 -5 -1 159.15 10.33
-2 5 0 184.58 6.68
2 -5 0 168.92 10.02
2 -5 0 176.59 6.62
-2 5 0 173.96 10.06
2 -5 1 238.36 11.39
-2 5 -1 221.46 7.67
-2 5 -1 227.87 11.06
2 -5 1 226.82 7.95
2 -5 1 217.87 8.94
2 -5 2 415.74 15.25
2 -5 2 410.53 14.83
-2 5 -2 413.72 15.11
2 -5 2 425.42 12.93
2 -5 3 52.41 4.61
2 -5 3 56.27 4.79
2 -5 3 57.26 5
2 -5 4 47.44 4.55
2 -5 4 49.08 4.49
-2 5 -4 60.66 5.68
2 -5 4 46.09 4.85
-2 5 -5 9.96 2.89
-2 5 -5 8.88 1.94
2 -5 5 10.79 2.25
2 -5 5 13.45 2.63
-2 5 -6 43.43 5.64
2 -5 6 44.19 5.07
2 -5 6 44.31 4.72
-2 5 -7 94.59 7.44
-2 5 -7 101.92 9.39
2 -5 7 105.1 8.53
2 -5 8 96.45 8.7
-2 5 -8 101.86 9.89
-2 5 -8 93.26 7.95
2 -5 9 277.04 16.03
2 -5 10 193.01 14.03
-2 4 9 71.24 10.43
-2 4 8 62.62 9.24
-2 4 7 123.53 12.05
-2 4 6 226.25 15.6
-2 4 5 14.92 4.22
2 -4 -4 224.55 14.05
-2 4 4 242.31 14.21
2 -4 -4 245.69 14.6
-2 4 3 1585.63 42.04
2 -4 -3 1625.59 43.18
-2 4 2 407.93 15.07
-2 4 2 383.25 11.9
-2 4 1 517.91 18
2 -4 -1 542.33 18.66
-2 4 1 511.88 14.5
2 -4 0 110.27 5.46
2 -4 0 107.78 6.88
-2 4 0 97.68 4.83
-2 4 0 115.83 7.04
2 -4 1 184.01 7.15
-2 4 -1 168.24 6.99
2 -4 1 172.2 8.29
-2 4 -1 183.93 8.57
2 -4 2 1030.08 24.87
-2 4 -2 1046.89 24.85
2 -4 2 1062.06 24.99
-2 4 -2 1060.27 25.13
2 -4 3 1049.61 24.97
2 -4 3 1049.23 27.01
2 -4 3 1031.56 24.58
-2 4 -3 1018.3 27.05
2 -4 4 297.2 11.06
2 -4 4 309.28 11.17
-2 4 -4 291.42 10.73
-2 4 -5 21.23 2.88
2 -4 5 30.4 3.75
-2 4 -5 29.06 4.34
-2 4 -6 221.87 13.12
2 -4 6 235.11 11.78
-2 4 -7 67.84 7.75
-2 4 -7 62.34 5.92
2 -4 7 67.04 6.69
-2 4 -8 180.57 13.32
-2 4 -8 159.31 10.47
2 -4 8 176.11 11.76
-2 4 -9 395.82 21.34
2 -4 9 383.6 17.91
2 -4 9 355.78 18.47
-2 4 -10 575.9 27.74
-2 3 10 316.74 22.44
-2 3 9 325.17 21.69
-2 3 8 80.44 10.1
-2 3 7 159.1 13.23
-2 3 6 64.58 8.06
-2 3 5 443.88 20.09
2 -3 -5 473.11 21.15
2 -3 -4 667.17 24.21
-2 3 4 680.02 23.96
-2 3 3 1404.9 36.58
-2 3 2 574.48 18.56
2 -3 -2 550.93 18.64
-2 3 2 546.82 16.73
-2 3 1 87.49 5.85
2 -3 -1 89.22 6.01
-2 3 1 82.82 4.87
2 -3 0 191.31 7.28
-2 3 0 196.46 6.07
-2 3 0 194.31 8.06
-2 3 0 181.45 7.08
2 -3 0 184.18 7.95
-2 3 -1 87.59 4.89
-2 3 -1 100.8 5.04
2 -3 1 94.47 4.85
2 -3 1 92.05 5.03
-2 3 -1 92.1 5.12
-2 3 -2 976.08 24.35
2 -3 2 922.1 20.98
2 -3 2 985.62 24.13
2 -3 2 954.05 20.78
-2 3 -3 1834.36 42.27
-2 3 -3 1803.03 36.89
2 -3 3 1811.9 36.82
2 -3 3 1921.33 42.14
2 -3 3 1863.1 37.21
-2 3 -4 52.49 3.98
2 -3 4 63.74 4.68
2 -3 5 62.26 5.36
-2 3 -5 74.06 5.33
-2 3 -5 78.3 7.33
2 -3 6 152.73 9.3
-2 3 -6 154.94 11.1
2 -3 7 48.86 5.35
-2 3 -7 51.3 5.48
2 -3 7 38 5.08
-2 3 -7 60.74 7.37
-2 3 -8 83.12 9.12
-2 3 -8 70.65 7.03
2 -3 8 67.36 6.81
2 -3 9 2.96 2.09
-2 3 -9 4.57 2.97
-2 3 -10 -1.43 1.94
-2 2 10 -0.5 2.38
-2 2 9 0.47 2.5
-2 2 8 77.88 9.46
-2 2 7 178.29 13.51
-2 2 6 12.78 3.8
-2 2 5 8.57 2.97
2 -2 -5 9.39 2.9
-2 2 4 105.21 8.05
-2 2 3 231.35 11.01
2 -2 -2 278.3 11.05
-2 2 2 294.58 11.38
-2 2 2 284.02 10.87
2 -2 -2 288.53 11.26
-2 2 1 235.4 8.71
2 -2 -1 234.03 8.69
2 -2 -1 232.52 8.77
-2 2 1 226.54 8.43
2 -2 0 48.21 3.55
2 -2 0 38.06 2.77
-2 2 0 32.63 2.82
-2 2 0 36.06 2.6
2 -2 1 855.95 17.21
2 -2 1 891.43 21.42
-2 2 -1 834.64 21.1
2 -2 1 854.25 16.84
-2 2 -1 873.38 17.27
2 -2 2 735.55 15.64
2 -2 2 710.08 20.04
2 -2 2 740.98 15.02
-2 2 -2 730.75 15.35
-2 2 -3 585.75 14.52
2 -2 3 581.38 14.92
-2 2 -4 46.39 3.75
2 -2 4 49.06 4.11
-2 2 -5 12.07 2.24
-2 2 -5 8.44 2.69
2 -2 5 17.6 2.71
-2 2 -6 69.81 7.51
2 -2 6 67.46 5.73
-2 2 -7 309.72 14.75
-2 2 -7 319.87 17.66
2 -2 7 321.67 14.49
2 -2 8 368.34 16.98
-2 2 -8 321.88 16.53
-2 2 -8 374.06 20.13
-2 2 -9 297.55 18.78
2 -2 9 277.82 15.77
-2 2 -10 472.76 25.18
-2 1 11 194.05 17.17
-2 1 10 178.03 15.54
-2 1 9 62.19 8.83
-2 1 8 319.02 18.74
-2 1 7 80.46 8.63
-2 1 6 796.92 27.47
2 -1 -6 774.66 27.57
-2 1 5 817.32 22.1
2 -1 -5 2.25 1.61
-2 1 4 3557.15 68.82
-2 1 4 3674.64 74.76
-2 1 4 3697.32 74.65
-2 1 3 2066.63 40.07
-2 1 3 2128.83 45.15
-2 1 2 358.89 11.62
-2 1 2 379.85 12.47
2 -1 -2 380.9 12.09
2 -1 -1 34.54 3.25
-2 1 1 29.11 2.84
2 -1 -1 30.24 2.46
-2 1 1 33.91 2.56
2 -1 0 1329.75 28.6
2 -1 1 2376.28 48.16
-2 1 -2 668.72 15.14
2 -1 2 661.69 14.02
2 -1 2 685.54 19.47
-2 1 -3 670.47 17.73
2 -1 3 704.13 16.76
-2 1 -4 299.19 11.8
2 -1 4 319.07 11.17
-2 1 -5 647.61 20.82
2 -1 5 653.8 19.78
-2 1 -6 13.83 3.64
2 -1 6 11.75 2.8
-2 1 -6 17.22 3.39
2 -1 7 20.7 3.84
-2 1 -7 14.14 3.3
-2 1 -7 11.57 3.65
2 -1 8 32.2 5.07
-2 1 -8 32.63 5.95
2 -1 9 55.03 6.99
-2 1 -9 65.27 8.76
-2 1 -10 264.49 18.64
-2 0 11 17.13 5
-2 0 10 47.61 7.94
-2 0 9 197.53 14.99
-2 0 8 21.16 4.91
-2 0 7 15.19 4.21
2 0 -7 9.61 3.09
-2 0 7 8.58 3.76
-2 0 6 4.52 1.54
2 0 -6 6.19 2.56
-2 0 6 5 2.9
-2 0 5 7.09 2.88
-2 0 5 4.26 1.44
-2 0 4 58.93 5.49
-2 0 4 61.46 4.34
-2 0 3 1058.02 26.1
-2 0 2 932.89 21.21
2 0 -2 875.6 20.81
2 0 -1 21.2 2.62
-2 0 1 24 1.91
2 0 -1 21.52 1.83
-2 0 0 17.85 1.43
-2 0 0 14.71 2.12
-2 0 0 14.39 1.36
2 0 0 10.62 1.42
-2 0 -1 85.53 3.71
2 0 1 77.88 5.22
2 0 1 85.68 3.7
2 0 2 58.11 3.61
2 0 2 60.55 5.1
-2 0 -2 62.19 3.86
2 0 3 433.47 13.08
-2 0 -3 392.75 13.66
2 0 4 27.04 3.39
-2 0 -4 24.4 3.54
2 0 5 111.27 7.57
-2 0 -6 1.53 1.61
2 0 6 1.02 1.28
-2 0 -6 3.65 2.3
-2 0 -7 36.73 6.1
2 0 7 35.89 5.19
2 0 8 216.39 13.85
-2 0 -8 223.94 15.97
-2 0 -9 356.96 21.19
-2 -1 12 0.84 2.57
-2 -1 11 73.65 10.05
-2 -1 10 16.54 5.02
-2 -1 9 470.72 23.28
-2 -1 9 476.84 23.84
-2 -1 8 559.42 24.44
2 1 -7 250.14 14.05
-2 -1 7 254.56 13.42
-2 -1 7 263.16 14.95
-2 -1 6 11.11 2.47
2 1 -6 17.38 3.44
-2 -1 6 14.19 3.76
-2 -1 5 35.76 3.87
-2 -1 5 41.63 5.06
-2 -1 4 4230.42 83.25
-2 -1 3 9999 179.34
2 1 -2 2261.21 45.84
2 1 -2 2275.35 45.1
-2 -1 2 2247.73 45.07
-2 -1 2 2338.99 45.88
-2 -1 1 1106.79 24.39
2 1 -1 1072.41 24.15
-2 -1 1 1086.29 23.51
-2 -1 1 1087.29 24.29
2 1 0 12.71 1.81
-2 -1 0 9.95 1.62
-2 -1 0 11.36 1.87
2 1 0 15.23 2
2 1 1 503 14.34
-2 -1 -1 529.59 14.69
2 1 1 533.53 16.05
2 1 2 1500.08 33.75
-2 -1 -2 1527.79 34.42
2 1 2 1529.92 36.22
-2 -1 -3 1446.5 35.6
2 1 3 1551.84 35.43
2 1 4 886.54 25.76
-2 -1 -5 2.67 2.16
2 1 5 0.28 1.16
2 1 6 85.34 7.95
2 1 7 51.1 6.61
-2 -1 -7 58.72 7.93
2 1 8 16.23 4.09
-2 -1 -8 19.92 4.96
-2 -1 -9 237.5 17.35
-2 -2 12 72.05 10.28
-2 -2 11 25.15 6.16
-2 -2 11 19.16 5.35
-2 -2 10 352.9 21.02
-2 -2 9 336.04 19.46
-2 -2 8 32.64 5.25
-2 -2 8 35.03 5.91
-2 -2 7 93.04 8.02
-2 -2 7 99.02 8.98
2 2 -7 93.03 8.09
-2 -2 6 79.58 7.45
2 2 -6 81.57 6.97
-2 -2 6 71.84 6.31
-2 -2 5 457.25 17.14
-2 -2 4 899.65 24.55
2 2 -3 3793.21 73.13
-2 -2 3 3709.33 72.9
-2 -2 3 3738.41 72.68
-2 -2 2 73.95 4.85
2 2 -2 69.72 4.65
2 2 -2 63.6 4.54
-2 -2 2 65.25 4.34
-2 -2 1 152.09 7.7
2 2 -1 178.38 7.13
-2 -2 1 175.9 7.13
-2 -2 0 471.03 15.13
2 2 0 479.94 14.87
2 2 0 462.21 14.03
2 2 1 510.23 16.31
2 2 1 504.3 16.11
-2 -2 -1 509.2 16.48
2 2 2 89.56 6.52
-2 -2 -2 85.15 6.52
2 2 2 90.47 6.68
2 2 3 19.1 3.29
2 2 3 19.15 3.43
2 2 4 100.59 8.14
-2 -2 -4 117.57 9.08
-2 -2 -4 103.4 8.73
2 2 5 3.27 1.75
2 2 6 112.85 9.85
2 2 7 13.62 3.81
-2 -2 -7 20.12 4.85
2 2 8 83.66 9.61
-2 -2 -8 88.28 10.27
2 2 8 89.19 11.17
-2 -3 13 42.26 8.18
-2 -3 12 23.62 6.32
-2 -3 11 4.33 3.53
-2 -3 10 43.87 7.27
-2 -3 9 11.12 4.57
-2 -3 8 25.22 5.21
-2 -3 7 405.41 18.26
-2 -3 7 429.04 19.1
2 3 -7 418.71 18.15
-2 -3 6 264.79 13.73
2 3 -6 310.26 14.21
-2 -3 5 117.14 8.15
-2 -3 4 163.62 9.08
-2 -3 3 246.94 9.83
-2 -3 3 265.09 11.31
2 3 -3 289.87 11.51
-2 -3 2 957.33 26.3
-2 -3 2 978.48 22.38
-2 -3 2 984.9 25.51
2 3 -2 953.88 22.59
2 3 -1 29.31 3.8
2 3 -1 33.75 3.11
-2 -3 1 27.13 2.69
-2 -3 1 30.5 3.8
2 3 0 259.79 11.57
-2 -3 0 224.1 11.1
2 3 0 242.44 9.48
2 3 1 -0.02 1.26
2 3 1 1.3 0.91
2 3 2 83.23 6.62
-2 -3 -2 70.84 6.76
2 3 2 78.2 6.98
2 3 3 967.86 30.39
2 3 3 977.76 29.82
2 3 4 18.31 3.96
-2 -3 -4 17.49 4.03
2 3 4 11.77 3.07
2 3 5 103.86 9.71
2 3 5 80.33 8.52
2 3 6 128.75 11.37
2 3 6 127.49 11.76
2 3 7 67.33 8.77
2 3 7 74.42 9.73
-2 -3 -7 68.75 8.99
2 3 8 24.22 5.98
-2 -4 12 98.63 12.16
-2 -4 11 2.27 3.6
-2 -4 10 113.3 11.74
-2 -4 9 354.05 20.08
-2 -4 8 254.36 15.52
-2 -4 7 325.7 16.52
-2 -4 7 312.59 16.4
2 4 -6 231.33 12.59
-2 -4 6 217.91 12.43
2 4 -5 0.2 0.66
-2 -4 5 96.39 7.44
-2 -4 4 1360.73 32.61
-2 -4 4 1400.97 35.66
-2 -4 3 2990.98 58.48
-2 -4 3 3035.38 64.32
2 4 -2 1054.42 24.02
-2 -4 2 1063.47 23.86
-2 -4 2 1057.57 28.85
2 4 -1 533.81 14.47
2 4 -1 489.53 18.64
-2 -4 1 536.61 19.79
-2 -4 0 691.87 23.82
2 4 0 654.11 18.61
2 4 1 3.6 1.51
-2 -4 -1 4.15 2.15
2 4 1 1.9 1.87
2 4 2 37.74 5.34
2 4 2 38.69 4.61
-2 -4 -2 36.53 5.52
2 4 3 694.89 26.83
2 4 3 750.64 25.33
2 4 4 221.6 14.66
2 4 4 234.4 14.14
2 4 5 35.53 6.17
2 4 5 32.01 5.6
2 4 6 92.32 10.37
2 4 6 74.79 9.24
2 4 7 5.16 3.12
2 4 7 3.05 2.79
-2 -5 12 37.28 7.32
-2 -5 11 36.25 7.31
-2 -5 10 26.65 6.08
-2 -5 9 107.54 10.72
-2 -5 8 94.42 9.52
-2 -5 7 1.43 2.44
2 5 -6 6.1 2.27
-2 -5 6 4.23 2.04
-2 -5 5 422.33 15.92
-2 -5 5 463.8 18.92
-2 -5 5 492.28 20.39
-2 -5 4 78.88 7.56
-2 -5 4 68.76 5.07
-2 -5 4 71.36 6.86
-2 -5 3 2.67 1.79
-2 -5 3 2.33 1.73
-2 -5 3 0.31 0.9
-2 -5 2 4.39 2.02
2 5 -2 2.35 1.83
-2 -5 2 2.12 0.77
2 5 -1 86.99 4.87
-2 -5 1 87.32 8.22
2 5 -1 79.57 7.59
2 5 0 20.65 4.11
2 5 0 25.41 3
-2 -5 0 23.44 4.49
2 5 1 101.78 9.19
2 5 1 91.17 6.42
2 5 2 625.45 25.78
2 5 2 672.67 22.06
2 5 3 65.13 6.76
2 5 3 76.59 8.69
2 5 4 2.41 1.9
2 5 4 0.62 1.49
2 5 5 44.27 7.39
2 5 5 39.44 6.29
2 5 6 0.06 1.78
-2 -6 12 30.45 7.11
-2 -6 11 34.71 7.2
-2 -6 10 398.31 22.49
-2 -6 9 22.81 4.97
-2 -6 8 10.45 3.61
-2 -6 7 24.59 4.89
-2 -6 6 178.64 10.61
-2 -6 6 186.65 12.65
-2 -6 5 921.69 24.84
-2 -6 5 924.85 30.73
-2 -6 4 947.7 22.55
-2 -6 4 980.55 31.52
-2 -6 3 1064.32 22.75
-2 -6 3 1131.77 34.18
2 6 -2 6.29 2.52
2 6 -1 722.47 17.4
2 6 -1 720.81 27.31
2 6 0 489.75 14.72
2 6 0 492.2 22.44
2 6 1 37.11 4.05
2 6 1 35.48 6
2 6 2 203.02 14.8
2 6 2 197.67 10.91
2 6 3 109.6 11.36
2 6 3 116.65 9.1
2 6 4 42.22 7.4
2 6 5 87.09 11.04
-2 -7 12 102.23 12.87
-2 -7 11 34.28 7.22
-2 -7 10 114.81 12.25
-2 -7 9 69.73 9.04
-2 -7 8 99.36 10.19
-2 -7 7 554.01 21.32
-2 -7 7 555.68 24.91
-2 -7 6 58.65 5.61
-2 -7 6 61.78 7.68
-2 -7 5 30.72 5.62
-2 -7 5 35.5 3.52
-2 -7 4 61.1 3.17
-2 -7 4 68.03 8.03
-2 -7 3 46.82 6.66
2 7 -2 171.79 13.27
2 7 -1 263.78 16.75
2 7 0 428.56 22.41
2 7 0 438.1 12.76
2 7 1 -0.17 1.59
2 7 2 5.16 2.92
2 7 3 -1.89 2.28
2 7 4 44.19 8.12
-2 -8 12 34.31 7.66
-2 -8 11 23.37 6.05
-2 -8 10 9.24 3.64
-2 -8 9 9.74 4.01
-2 -8 8 52.02 7.72
-2 -8 8 53.44 6.6
-2 -8 7 3 1.79
-2 -8 7 -1.17 2.55
-2 -8 6 51.08 4.51
-2 -8 6 70.3 8.65
-2 -8 5 6.45 3.22
-2 -8 5 7.98 1.02
-2 -8 4 502.34 24.5
-2 -8 3 287.49 18.09
2 8 -2 174.8 14.26
2 8 -1 129.43 12.53
2 8 0 5.53 3.45
2 8 1 56.65 8.7
2 8 2 68.98 9.96
-2 -9 11 242.33 19.42
-2 -9 10 303.48 21.1
-2 -9 9 17.38 4.95
-2 -9 8 22.02 5.53
-2 -9 7 187.75 15.5
-2 -9 6 232.3 17.16
-2 -9 5 106.27 11.51
-2 -9 4 211.57 16.68
-2 -9 3 37.89 7
-2 -9 2 99.01 11.4
2 9 -2 103.7 11.76
2 9 -1 401.35 24.31
2 9 0 58.41 9.19
-2 -10 9 3.18 3.2
-2 -10 8 80.01 10.84
-2 -10 7 5.51 3.06
-2 -10 6 -0.1 1.98
-2 -10 5 26.53 6.54
-2 -10 4 9.43 3.7
-2 -10 3 15.59 5.06
3 -12 3 14.64 4.91
-3 12 -3 22.94 5.85
3 -12 4 49.49 8.45
3 -12 5 18.13 5.29
3 -12 6 26.51 6.06
3 -12 7 12.9 4.35
3 -12 8 0.58 1.8
-3 11 0 80.77 11.08
-3 11 -1 41.24 7.81
-3 11 -2 29.29 6.31
-3 11 -3 219.75 16.95
3 -11 3 212.69 16.6
3 -11 4 8.16 3.65
3 -11 5 235.47 17.11
3 -11 6 100.68 10.9
3 -11 7 70.52 9.06
3 -11 8 205.42 15.69
-3 10 2 87.58 11.45
-3 10 1 68.39 9.87
-3 10 0 300.29 20.18
-3 10 -1 33.11 6.47
-3 10 -2 580.9 27.29
3 -10 3 10.22 3.62
-3 10 -3 5.64 2.76
3 -10 4 66.19 8.35
3 -10 5 112.23 10.76
3 -10 6 75.4 8.67
3 -10 7 430.01 19.59
3 -10 7 410.96 21.34
3 -10 8 0.46 1.78
3 -10 8 2.26 1.96
3 -10 9 31.98 6.32
3 -10 10 17.35 5.25
-3 9 3 273.79 20.15
-3 9 2 103.07 11.74
-3 9 1 0.32 1.78
-3 9 0 9.32 3.7
-3 9 -1 -1.15 2.15
-3 9 -2 133.69 11.53
-3 9 -3 49.52 6.85
3 -9 3 53.55 4.11
3 -9 3 62.8 7.5
3 -9 4 30.89 5.35
3 -9 4 43.01 4.36
3 -9 5 210.22 11.23
3 -9 5 193.65 13.06
3 -9 6 0.57 1.29
3 -9 6 5.9 2.48
3 -9 7 30.03 5.17
3 -9 7 24.44 4.83
3 -9 8 130.39 11.05
3 -9 8 134.64 12.22
3 -9 9 114.19 10.82
3 -9 9 121.43 12.59
3 -9 10 17.9 5.42
-3 8 5 56.59 9.34
-3 8 4 3.2 3.13
-3 8 3 48.44 7.93
-3 8 2 536.65 26.01
-3 8 1 1291.28 42.4
-3 8 1 1284.69 27.89
-3 8 0 86.11 9.16
-3 8 -1 496.45 22.27
-3 8 -2 516.34 22.29
3 -8 2 542.54 15.63
3 -8 3 12.27 2.26
3 -8 3 12.74 3.38
3 -8 3 7.95 2.62
-3 8 -3 11.59 3.28
3 -8 4 276.89 14.9
3 -8 4 285.27 12.62
3 -8 4 279.96 14.76
3 -8 5 147.83 9.93
3 -8 5 144.09 10.49
3 -8 5 160.42 10.76
3 -8 6 288.55 15.58
3 -8 6 273.54 14.51
3 -8 6 246.71 14.07
3 -8 7 377.7 17.65
3 -8 7 380.83 19.84
3 -8 7 347.1 17.4
3 -8 8 47 6.27
3 -8 8 51.48 7.81
3 -8 9 3.24 1.94
3 -8 9 6.42 3.64
3 -8 10 77.76 11.28
-3 7 6 50.64 8.5
-3 7 5 226.61 17.56
-3 7 4 13.27 3.89
-3 7 3 19.29 4.68
-3 7 2 4.26 2.74
-3 7 2 4.76 1.71
-3 7 1 9.24 3.11
-3 7 1 12.7 2.06
-3 7 0 78.63 8.05
-3 7 0 65.75 4.33
3 -7 1 106.67 6.24
3 -7 1 110.87 9.08
-3 7 -1 99.35 8.6
-3 7 -2 56.71 6.22
3 -7 2 64.57 4.98
3 -7 2 68.26 6.76
-3 7 -3 150.93 10.03
3 -7 3 146.27 8.3
3 -7 3 140.3 9.63
3 -7 3 145.6 9.48
3 -7 4 3.31 1.72
3 -7 4 3.01 1.99
3 -7 5 205.3 11.21
3 -7 5 204.43 11.47
3 -7 5 199.12 12.14
3 -7 6 0.79 1.48
3 -7 6 0.24 1.54
3 -7 6 -1.23 1.36
3 -7 7 34.13 4.81
3 -7 7 37.7 4.95
3 -7 7 44.24 6.74
3 -7 8 27.88 5.79
3 -7 8 33.59 5.08
3 -7 9 7.2 3
3 -7 9 6.24 2.43
3 -7 10 0.64 2.24
-3 6 7 47.17 8.61
-3 6 6 9.64 3.99
-3 6 5 127.17 10.38
-3 6 5 142.44 13.01
-3 6 4 146.85 10.25
-3 6 4 155.49 12.9
-3 6 3 35.49 5.91
-3 6 2 867.58 23.95
-3 6 2 885.17 30.26
-3 6 1 277.15 10.59
3 -6 -1 283.32 15.24
-3 6 1 293.29 15.21
3 -6 0 862.53 27.93
-3 6 0 896.78 27.97
-3 6 0 857.64 21.81
-3 6 -1 1711.22 42.63
3 -6 1 1760.35 38
3 -6 1 1691.49 42.47
-3 6 -1 1689.39 37.3
-3 6 -2 540.07 19.12
3 -6 2 545.75 17.22
3 -6 2 563.01 19.3
3 -6 3 79.1 6.33
3 -6 3 90.05 6.79
3 -6 3 90.45 6.58
3 -6 4 140.53 8.2
3 -6 4 146.26 8.55
3 -6 4 154.75 9.87
-3 6 -4 149.32 9.67
3 -6 5 97.57 6.97
3 -6 5 100.77 7.03
-3 6 -5 95.52 8.4
3 -6 5 98.04 8.67
3 -6 6 98.32 7.18
3 -6 6 113.81 10.23
-3 6 -6 118.17 9.88
3 -6 6 98.17 7.48
3 -6 7 812.89 25.42
3 -6 7 919.19 28.08
3 -6 7 880.21 33.37
-3 6 -7 855.78 31.52
3 -6 8 156.68 10.79
-3 6 -8 129.92 11.79
3 -6 8 132.77 12.98
3 -6 9 213.2 13.48
3 -6 9 200.03 17.24
3 -6 10 0.74 2.36
-3 5 8 87.37 11.31
-3 5 7 100.29 11.53
-3 5 6 644.47 28.89
-3 5 5 886.05 33.12
-3 5 4 31.36 5.47
-3 5 4 25.69 4.35
-3 5 3 58.94 5.9
-3 5 3 62.71 7.1
3 -5 -3 52.7 6.66
-3 5 2 41.4 5.37
-3 5 2 41.47 4.37
3 -5 -2 41.75 5.56
-3 5 1 163.84 7.95
3 -5 -1 165.57 10.32
-3 5 1 174.32 10.42
-3 5 0 2254.6 49.9
-3 5 0 2162.37 45.58
3 -5 0 2140.78 49.67
3 -5 0 2192.98 46.15
-3 5 -1 899.66 24.71
3 -5 1 899.24 23.13
3 -5 1 842.13 24.18
-3 5 -1 850.43 22.85
-3 5 -1 898.5 21.99
-3 5 -2 249 10.52
-3 5 -2 239.91 10.49
3 -5 2 242.51 10.76
3 -5 2 238.21 10.34
3 -5 3 83.72 5.55
3 -5 3 83 6.62
3 -5 3 79.12 5.32
3 -5 4 362.64 12.87
3 -5 4 394.01 13.3
3 -5 4 386.7 16.76
-3 5 -4 378.7 16.29
3 -5 5 36.8 3.77
3 -5 5 40 5.63
3 -5 5 44.5 4.36
-3 5 -5 42.31 5.69
3 -5 6 634.12 26.07
3 -5 6 654.54 19.44
3 -5 6 633.58 20.81
-3 5 -6 625.91 19.3
-3 5 -6 630.27 25.17
3 -5 7 -1 2.37
-3 5 -7 1.78 2.06
3 -5 7 0.99 1.45
3 -5 7 0.4 0.78
-3 5 -8 134.23 12.04
3 -5 8 122.24 12.5
3 -5 8 108.89 8.89
-3 5 -9 155.07 13.68
3 -5 9 143.37 14.83
-3 5 -10 1.87 1.8
3 -5 10 -2.52 3.77
-3 4 9 6.75 3.51
-3 4 8 14.61 5.09
-3 4 7 36.88 6.77
-3 4 6 342.36 19.73
-3 4 5 629.79 25.84
-3 4 4 2.96 2.4
3 -4 -4 0.27 1.83
-3 4 3 44.63 5.59
3 -4 -3 46.32 5.75
-3 4 3 42.12 5.13
-3 4 2 92.24 6.48
-3 4 2 90.53 7.27
3 -4 -2 102.56 7.8
-3 4 1 8.64 2.08
-3 4 1 3.38 1.62
3 -4 -1 7.1 2.6
3 -4 -1 5.97 2.09
-3 4 0 1026.58 22.43
3 -4 0 982.34 24.91
-3 4 0 1031.07 25.74
-3 4 0 960.83 24.7
3 -4 0 994.21 25.81
-3 4 -1 1122.15 25.87
3 -4 1 1075.22 26.7
-3 4 -1 1080.41 26.07
-3 4 -1 1020.48 26.64
3 -4 1 1065.38 25.58
-3 4 -2 410.95 15.1
3 -4 2 422.7 12.43
3 -4 2 412.31 15.23
3 -4 2 440.86 12.22
-3 4 -2 416.69 12.47
3 -4 3 35.83 2.91
3 -4 3 36.41 4.55
3 -4 3 37.77 3.05
3 -4 4 864.14 20.69
-3 4 -4 891.66 28.11
3 -4 4 844.01 27.53
3 -4 4 875.99 21.58
-3 4 -5 0.22 0.6
3 -4 5 -0.55 1.84
3 -4 5 0.13 1.14
3 -4 5 1.17 0.83
-3 4 -5 1.58 1.92
3 -4 6 2.54 1.7
-3 4 -6 0.13 1.05
-3 4 -6 3.76 2.15
3 -4 6 -0.26 1.33
-3 4 -7 16.55 4.18
3 -4 7 27.81 3.72
3 -4 7 27.4 4.13
3 -4 8 365.93 15.17
-3 4 -8 337.17 19.93
-3 4 -9 281.42 18.81
3 -4 9 288.72 21.4
-3 3 10 67.46 10.27
-3 3 9 191.76 16.45
-3 3 8 296.84 19.55
-3 3 7 10.2 3.84
-3 3 6 518 23.39
-3 3 5 197.52 12.79
3 -3 -5 204.02 13.17
3 -3 -4 926.28 29.29
-3 3 4 915.37 29.01
3 -3 -3 1682.59 41.63
-3 3 3 1647.4 40.57
-3 3 3 1740.52 42.03
-3 3 2 68.18 5.49
-3 3 2 58.25 5.33
3 -3 -2 66.59 5.54
3 -3 -2 60.47 5.4
3 -3 -1 205.51 9.15
-3 3 1 194.41 8.72
-3 3 1 181.19 8.53
3 -3 -1 199.59 9.03
3 -3 0 265.93 10.47
-3 3 0 252 9.01
-3 3 0 228.42 9.93
3 -3 0 254.86 9.15
-3 3 -1 4032.15 73.46
3 -3 1 4178.62 78.96
-3 3 -1 3924.75 78.77
3 -3 1 3969.54 73.29
3 -3 2 1669.33 31.44
3 -3 2 1667.72 31.52
3 -3 2 1628.92 39.39
3 -3 3 2603.97 44.42
3 -3 3 2628.87 46.08
3 -3 3 2578.26 55.54
3 -3 4 62.1 6.68
3 -3 4 71.71 4.52
-3 3 -4 71.41 4.2
-3 3 -5 83.49 5.43
-3 3 -5 87.84 8.49
3 -3 5 90.56 8.74
3 -3 5 89.59 5.12
3 -3 6 598.37 18.05
-3 3 -6 604.97 25.68
-3 3 -6 629.47 19.56
-3 3 -7 6.38 1.89
-3 3 -7 1.68 2.04
3 -3 7 6.04 1.8
-3 3 -8 540.86 26.64
3 -3 8 638.63 21.34
3 -3 9 99.15 12.62
-3 3 -9 100.57 11.24
-3 2 10 126.04 13.66
-3 2 9 30.17 6.35
-3 2 8 191.28 15.01
-3 2 7 390.73 20.44
-3 2 6 404.72 19.41
-3 2 5 120.75 9.45
3 -2 -5 128.3 9.83
3 -2 -4 658.55 22.32
-3 2 4 648.13 15.76
-3 2 4 661.86 22.32
-3 2 3 532.52 18.19
-3 2 3 538.95 18.13
3 -2 -3 526.51 17.98
3 -2 -2 381.57 13.8
3 -2 -2 392.3 13.22
-3 2 2 367.56 13.43
-3 2 2 364.58 12.99
3 -2 -1 -1.14 2.07
-3 2 1 0.86 1.43
3 -2 -1 0.23 0.96
-3 2 0 59.04 3.22
3 -2 0 67.95 5.12
-3 2 0 55.27 4.57
3 -2 0 60.05 2.93
3 -2 1 3.17 1.49
-3 2 -1 6.25 1.67
3 -2 2 98.75 7.15
3 -2 3 1.35 0.52
-3 2 -3 1.8 0.67
3 -2 3 1.91 1.28
-3 2 -4 358.42 11.45
3 -2 4 364.16 16.86
3 -2 4 361.13 10.43
-3 2 -5 1.77 1.21
3 -2 5 0.92 1.02
3 -2 5 -0.75 1.61
3 -2 6 80.05 5.85
-3 2 -6 70.67 8.32
-3 2 -7 0.68 1.17
-3 2 -7 0.04 1.82
3 -2 7 0.24 0.99
3 -2 8 3.09 1.44
-3 2 -8 3.52 3.03
3 -2 8 6.22 3.51
-3 2 -9 63.06 9.11
3 -2 9 44.48 8.49
-3 1 11 -2.68 3.05
-3 1 10 13.45 4.87
-3 1 9 176.84 14.72
-3 1 8 8.58 3.33
-3 1 7 86.36 8.86
-3 1 6 424.04 15.23
-3 1 6 442.1 19.5
3 -1 -6 451.28 19.88
-3 1 6 440.79 19.43
-3 1 5 170.58 7.27
-3 1 5 180.42 10.6
-3 1 4 319.19 13.71
3 -1 -4 317.29 13.77
-3 1 3 4.49 2.39
-3 1 3 3.25 1.88
3 -1 -3 0.65 1.22
3 -1 -2 1097.52 27.97
3 -1 -2 1104.56 25.85
-3 1 2 1137.83 25.99
-3 1 1 972.55 21.15
3 -1 -1 960.07 24.47
3 -1 -1 1003.55 20.98
3 -1 0 1868.97 41.63
-3 1 0 1860.82 34.98
3 -1 1 465.77 16.01
3 -1 2 1802.3 33.35
3 -1 2 1821.47 42.9
-3 1 -2 1810.96 34.9
-3 1 -3 1772.15 36.92
3 -1 3 1766.51 34.89
3 -1 3 1753.68 44.28
3 -1 4 404.25 12.66
3 -1 4 432.98 18.89
-3 1 -4 415.46 14.24
3 -1 5 931.72 24.3
3 -1 5 967.04 32.8
-3 1 -5 899.97 26.11
3 -1 6 0.08 1
-3 1 -6 0.58 1.33
3 -1 6 1.31 2.07
-3 1 -7 64.23 8.51
3 -1 7 63.55 6.24
3 -1 7 72.71 9.36
-3 1 -7 62.93 6.91
-3 1 -8 275.94 18.89
3 -1 8 276.2 20.27
-3 1 -9 75.2 9.99
-3 0 11 62.49 9.67
-3 0 10 427.6 24.28
-3 0 9 157.3 13.55
-3 0 8 145.14 12.27
-3 0 7 156.82 9.77
-3 0 7 167.02 12.24
3 0 -7 169.89 11.92
-3 0 6 25.4 4.91
3 0 -6 16.87 3.72
-3 0 6 19.59 3.13
3 0 -5 0.22 0.71
-3 0 5 1051.09 24.55
3 0 -4 2395.59 52.41
-3 0 4 2442.76 53.12
-3 0 3 172.38 8.49
3 0 -3 185.2 8.44
3 0 -2 453.26 14.77
-3 0 2 418.93 12.77
3 0 -2 422.65 12.51
3 0 -1 94.56 6.14
-3 0 1 86.86 5.67
-3 0 1 74.87 3.99
3 0 -1 87.07 4.12
-3 0 0 55.12 3.22
-3 0 0 57.21 3.08
3 0 0 51.62 4.55
-3 0 0 57.84 4.9
-3 0 -1 261.75 8.05
3 0 1 249.93 7.83
3 0 1 234.68 11.04
3 0 2 983.36 22.31
-3 0 -2 966.57 22.56
3 0 2 1022.4 28.4
-3 0 -3 1107.66 27.83
3 0 3 1135.6 26.37
3 0 3 1092.07 32.44
3 0 4 254.33 10.71
3 0 4 270.24 15.03
-3 0 -4 240.34 11.7
3 0 5 139.81 8.46
-3 0 -5 135.33 9.26
3 0 5 139.49 11.51
3 0 6 91.79 9.99
3 0 6 106.02 8.03
-3 0 -6 106.46 9.1
3 0 7 39.3 5.27
-3 0 -7 38.93 7
3 0 7 40.72 7.25
-3 0 -8 130.9 13.04
3 0 8 140.6 14.57
-3 0 -9 34.95 7.04
-3 -1 12 12.18 4.77
-3 -1 11 210.92 17.3
-3 -1 10 6.89 3.18
-3 -1 9 9.06 4.09
-3 -1 8 -1.7 1.14
-3 -1 8 -0.37 3.01
-3 -1 7 48.48 5.41
3 1 -7 45.67 5.88
-3 -1 7 42.71 6.22
3 1 -6 15.43 3.27
-3 -1 6 233.95 12.81
3 1 -5 -0.38 0.81
-3 -1 5 193.51 10.47
-3 -1 4 16.87 2.87
3 1 -4 18.18 2.87
-3 -1 4 17.46 3.45
-3 -1 3 358.54 13.31
-3 -1 3 345.49 12.49
3 1 -3 356.88 12.52
3 1 -2 146.67 7.78
-3 -1 2 164.42 8.02
-3 -1 2 162.65 7.23
3 1 -2 145.82 6.9
3 1 -1 330.95 11.94
-3 -1 1 318.09 11.97
-3 -1 1 314.67 10.32
-3 -1 1 302.72 10.81
-3 -1 0 103.59 5.74
3 1 0 118.18 7
-3 -1 0 107.44 6.91
3 1 1 906.5 22.44
-3 -1 -1 895.36 22.71
3 1 1 928.91 25.87
3 1 2 1005.07 25.44
3 1 2 1009.4 29.31
-3 -1 -2 1013.56 25.94
3 1 3 602.79 18.74
3 1 3 575.64 22.18
-3 -1 -3 564.59 18.8
3 1 4 738.68 22.95
3 1 4 735.72 27.44
-3 -1 -4 751.37 24.77
3 1 5 17.72 3.39
3 1 5 13.31 3.73
-3 -1 -5 9.86 2.96
3 1 6 1.94 1.66
3 1 6 3.36 2.48
3 1 7 69.28 7.57
-3 -1 -7 68.92 9.47
3 1 7 59.73 9.07
-3 -1 -8 47.54 8.08
3 1 8 40.87 7.93
-3 -2 12 15.58 5.34
-3 -2 12 18.53 5.54
-3 -2 11 339.81 22.11
-3 -2 10 234.28 17.22
-3 -2 9 330.87 19.59
-3 -2 8 256.03 16.05
-3 -2 8 231.2 13.56
-3 -2 7 126.39 10.48
-3 -2 7 119.69 8.91
3 2 -7 134.57 9.92
3 2 -6 6.27 1.96
-3 -2 6 52.95 5.98
3 2 -5 -0.28 0.74
-3 -2 5 1991.68 32.62
-3 -2 4 1259.39 33.06
-3 -2 4 1316.26 32.81
3 2 -4 1333.35 32.78
3 2 -3 406.89 14.4
-3 -2 3 396.23 14.2
3 2 -3 379.09 13.83
-3 -2 3 407.34 14.25
3 2 -2 878.45 23.38
-3 -2 2 928.9 23.68
-3 -2 2 926.6 23.67
-3 -2 2 899.66 24.69
-3 -2 1 380.9 14
-3 -2 1 414.59 14.22
3 2 -1 412.57 13.85
-3 -2 1 398.1 13.43
-3 -2 0 151.77 8.27
3 2 0 141.88 7.94
-3 -2 0 137.58 7.9
3 2 0 142.53 7.8
3 2 1 378.41 13.98
-3 -2 -1 331.84 13.64
3 2 1 365.55 14.78
3 2 2 314.25 14.66
3 2 2 319.65 13.62
3 2 3 198.79 11.09
-3 -2 -3 198.18 11.4
3 2 3 192.24 12.13
3 2 4 958 29.49
3 2 4 916.82 32.18
-3 -2 -4 927.96 30.72
-3 -2 -4 948.14 30.22
3 2 5 311.04 16.03
3 2 5 326.95 18.83
3 2 6 96.14 9.09
3 2 6 91.44 10.42
3 2 7 78.69 10.4
-3 -2 -7 66.96 9.46
-3 -2 -8 3 2.54
-3 -3 12 153.91 15.51
-3 -3 11 104.6 12.14
-3 -3 10 355.73 21.37
-3 -3 9 170.44 13.86
-3 -3 8 245.84 15.66
3 3 -7 52.2 6.26
-3 -3 7 47.44 6.37
-3 -3 6 18.64 3.92
3 3 -6 22.82 3.97
-3 -3 5 334.41 14.21
-3 -3 5 353.77 14.76
-3 -3 4 86.46 6.53
-3 -3 4 86.37 6.82
3 3 -4 79.49 6.42
3 3 -3 145.8 8.18
-3 -3 3 145.66 7.87
-3 -3 3 150.11 8.68
3 3 -2 125.48 7.1
-3 -3 2 125.18 7.05
-3 -3 2 135.82 8.13
3 3 -1 254.6 10.55
-3 -3 1 228.27 10.33
3 3 0 5.87 2.18
3 3 0 6.3 2.09
3 3 1 130.65 8.8
3 3 1 133.97 8.65
-3 -3 -1 118.08 8.61
3 3 2 27.13 4.1
3 3 2 29.96 4.46
-3 -3 -2 23.83 4.07
3 3 3 223.7 13.09
3 3 3 200.32 12.7
-3 -3 -3 214.89 13.29
3 3 4 128.84 10.32
3 3 4 136.14 11.13
3 3 5 39.56 6.07
3 3 5 31.43 5.95
3 3 6 19.1 5.14
3 3 6 13.87 3.85
3 3 7 6.89 3.57
-3 -3 -7 2.32 2.01
-3 -4 12 37.91 7.95
-3 -4 11 -1.27 3.37
-3 -4 10 32.6 6.47
-3 -4 9 845.79 32.97
-3 -4 8 185.99 13.55
-3 -4 7 5.94 2.57
-3 -4 6 62.39 7
-3 -4 6 71.17 7.19
3 4 -6 66.81 6.84
-3 -4 5 1.94 1.58
3 4 -5 1.13 1.26
-3 -4 5 3.49 2.51
-3 -4 4 209.82 10.14
-3 -4 4 222.37 11.92
-3 -4 4 224.38 12.74
-3 -4 3 2789.76 64.22
-3 -4 3 2830.61 58.1
-3 -4 3 2940.9 63.3
-3 -4 2 2383.7 54.51
-3 -4 2 2408.02 56.36
3 4 -2 2408.31 49.93
-3 -4 2 2360.95 50.09
-3 -4 1 107.01 8.56
3 4 -1 102.26 6.47
3 4 -1 85.56 7.46
3 4 0 29.78 4.65
-3 -4 0 19.32 3.79
3 4 0 26.89 3.62
3 4 1 187.26 11.85
3 4 1 187.47 10.55
-3 -4 -1 201.47 12.62
3 4 2 260.33 14.84
3 4 2 286.05 14.43
3 4 3 668.97 26.19
3 4 3 648.6 24.99
3 4 4 407.47 20.6
3 4 4 374.91 19.56
3 4 5 142.74 12.5
3 4 5 132.33 12.03
3 4 6 116.56 11.9
3 4 6 122.38 12.43
-3 -5 12 47.17 8.89
-3 -5 11 173.24 15.94
-3 -5 10 615.71 29
-3 -5 9 914.45 34.68
-3 -5 8 189.3 13.7
-3 -5 7 77.61 8.16
-3 -5 6 291.81 14.46
-3 -5 6 299.2 15.91
-3 -5 5 113.6 7.75
-3 -5 5 107.94 9.09
-3 -5 5 113.14 9.8
-3 -5 4 373.62 18.16
-3 -5 4 408.9 17.93
-3 -5 4 373.55 13.67
-3 -5 3 263.79 14.93
-3 -5 3 247.71 10.31
-3 -5 3 269.9 14.29
3 5 -2 75.26 5.46
-3 -5 2 82.42 8.26
-3 -5 2 64.49 4.86
-3 -5 2 67.22 6.89
3 5 -1 172.76 8.71
-3 -5 1 192.39 12.75
3 5 -1 166.93 11.66
3 5 0 0.79 1.63
3 5 0 -0.12 1.22
3 5 1 57.07 7.09
3 5 1 68.65 6.24
3 5 2 115.05 10.52
3 5 2 112.52 8.8
3 5 3 28.23 4.86
3 5 3 23.89 5.04
3 5 4 8.87 3.72
3 5 4 5.49 2.3
3 5 5 2.53 1.91
-3 -6 12 190.39 17.48
-3 -6 11 86.88 11.2
-3 -6 10 16.85 4.85
-3 -6 9 46.1 7.28
-3 -6 8 1.26 2.27
-3 -6 7 12.45 3.74
-3 -6 7 20.41 4.27
-3 -6 6 11.35 3.62
-3 -6 6 12.15 3.22
-3 -6 5 3.14 2.23
-3 -6 5 8.84 2.19
-3 -6 4 65.88 7.59
-3 -6 4 64.01 4.91
-3 -6 3 1006.93 24.4
-3 -6 3 970.95 33.12
-3 -6 2 130.33 10.57
3 6 -2 122.69 6.84
3 6 -1 0.62 1.21
3 6 -1 6.65 2.83
3 6 0 166.65 8.9
3 6 0 136.65 11.76
3 6 1 10.2 3.43
3 6 1 16.24 3.09
3 6 2 89.18 9.9
3 6 2 85.73 7.62
3 6 3 150.77 13.65
3 6 4 124.29 12.81
-3 -7 12 114.45 13.69
-3 -7 11 4.13 2.87
-3 -7 10 309.59 20.55
-3 -7 9 826.1 33.84
-3 -7 8 227.93 14.29
-3 -7 8 258.98 17.2
-3 -7 7 146.3 10.16
-3 -7 7 161.5 13.21
-3 -7 6 15.94 4.07
-3 -7 6 11.83 2.63
-3 -7 5 18.87 4.62
-3 -7 5 12.23 2.32
-3 -7 4 148.14 6.86
-3 -7 4 138.25 11.8
-3 -7 3 699.32 28.71
-3 -7 2 376.39 20.21
3 7 -1 350.56 11.93
3 7 -1 310.59 19.05
3 7 0 19 4.74
3 7 1 5.95 3.45
3 7 2 46.33 7.78
3 7 3 55.84 8.89
-3 -8 11 -1.5 3.16
-3 -8 10 119.12 12.88
-3 -8 9 109.98 12.01
-3 -8 8 120.17 12.3
-3 -8 7 149.58 13.31
-3 -8 6 6.67 2.91
-3 -8 5 64.61 8.65
-3 -8 4 -0.35 1.87
-3 -8 3 134.72 12.64
-3 -8 2 0.35 2.32
3 8 -1 1.81 2.19
3 8 0 17.98 4.86
3 8 1 23.42 5.85
-3 -9 10 216.89 18.05
-3 -9 9 237.74 18.63
-3 -9 8 137.35 13.71
-3 -9 7 7.01 3.61
-3 -9 6 3.07 2.78
-3 -9 5 0.17 1.81
-3 -9 4 336.44 21.77
-3 -9 3 174.96 15.64
-3 -9 2 64.86 9.63
-3 -9 1 155.08 15.19
-3 -10 8 306.39 22.09
-3 -10 7 310.55 22.09
-3 -10 6 77.44 10.74
-3 -10 5 41.36 8.02
-4 12 -2 17.04 5.11
4 -12 3 57.06 8.98
-4 12 -3 60.21 9.19
4 -12 4 102.1 11.8
4 -12 5 2.84 2.26
4 -12 6 13.69 4.45
-4 11 0 13.83 4.26
-4 11 -1 17.69 5.07
-4 11 -2 5.69 3.61
4 -11 3 11.05 3.77
-4 11 -3 16 4.63
4 -11 4 150.34 13.35
4 -11 5 261.75 17.32
4 -11 6 107.6 10.81
-4 10 2 259.39 19.77
-4 10 1 126.13 13.12
-4 10 0 110.24 11.81
-4 10 -1 317.77 19.85
-4 10 -2 28.89 5.64
4 -10 3 115.87 10.8
-4 10 -3 133.64 11.85
4 -10 4 149.01 12.19
4 -10 5 118.56 8.78
4 -10 5 93.24 9.32
4 -10 6 121.92 10.01
4 -10 6 168.05 12.4
4 -10 7 114.79 10.61
4 -10 7 110.44 9.96
4 -10 8 232.33 16.68
4 -10 9 61.69 9.37
-4 9 4 45.45 8.39
-4 9 3 59.91 9.14
-4 9 2 33.03 6.65
-4 9 1 21.82 5.46
-4 9 0 87.4 9.76
-4 9 -1 20.41 4.79
-4 9 -2 16.52 4.22
4 -9 2 23.38 3.42
4 -9 3 14.83 3.58
4 -9 3 18.71 3.38
-4 9 -3 22.51 4.58
4 -9 4 -0.24 1.04
4 -9 4 1.05 1.55
4 -9 5 89.01 8.31
4 -9 5 88.99 8.08
4 -9 6 15.6 3.6
4 -9 6 5.76 2.53
4 -9 7 62.31 7.08
4 -9 7 53.21 7.57
4 -9 8 67.58 9.22
4 -9 9 50.29 8.52
-4 8 5 0.96 2.04
-4 8 4 30.94 6.57
-4 8 3 18.89 5.19
-4 8 2 162.66 13.5
-4 8 1 82.61 9.11
-4 8 1 64.23 5.14
-4 8 0 356.14 18.79
-4 8 0 339.67 12.63
-4 8 -1 140.57 10.97
4 -8 1 145.42 8.51
-4 8 -2 7.36 2.66
4 -8 2 6.71 2.56
4 -8 2 6.57 2.34
4 -8 3 483.61 18.03
-4 8 -3 508.5 20.45
4 -8 3 467.13 19.65
4 -8 3 460.37 19.13
4 -8 4 181.01 11.16
4 -8 4 164.01 10.32
4 -8 5 439.03 19.87
4 -8 5 421.13 17.89
4 -8 5 444.11 17.83
4 -8 6 33.25 4.59
4 -8 6 30.11 5.45
4 -8 6 25.09 4.04
4 -8 7 282.65 18.3
4 -8 7 318.97 15.5
4 -8 8 176.94 15.33
4 -8 9 69.98 10.4
-4 7 6 25.32 6.12
-4 7 5 92.71 11.05
-4 7 4 208.59 12.41
-4 7 4 250.8 17.32
-4 7 3 428.03 21.98
-4 7 2 89.25 9.31
-4 7 2 84.4 6.52
-4 7 1 3.2 2.24
-4 7 1 -0.14 1.34
4 -7 0 106.22 9.1
-4 7 0 100.76 8.86
-4 7 0 104.34 6.83
4 -7 1 617.06 19.82
-4 7 -1 618.45 22.73
-4 7 -1 586.03 18.9
4 -7 1 588.36 22.37
4 -7 2 507.43 18.1
4 -7 2 517.98 19.52
-4 7 -2 482.73 19.01
4 -7 3 16.94 3.07
4 -7 3 18.26 3.32
4 -7 3 16.93 3.34
4 -7 4 26.43 3.67
-4 7 -4 27.83 4.5
4 -7 4 24.3 3.71
4 -7 4 21.63 3.99
4 -7 5 78.58 6.36
4 -7 5 86.65 8.7
-4 7 -5 77.93 8.04
4 -7 5 76.43 6.23
4 -7 6 99.55 7.15
-4 7 -6 106 9.92
4 -7 6 92.64 9.69
4 -7 6 106.18 7.65
4 -7 7 161.31 13.83
-4 7 -7 145.46 12.43
4 -7 7 185.37 10.91
4 -7 8 122.28 13.09
-4 7 -8 138.12 12.72
4 -7 9 36.05 7.88
-4 6 7 2.76 2.69
-4 6 6 73.67 9.83
-4 6 5 207.4 13.4
-4 6 5 235.42 16.56
-4 6 4 87.29 7.97
-4 6 4 94.87 9.93
-4 6 3 47 6.59
-4 6 2 83 8.15
4 -6 -2 87.77 8.55
4 -6 -1 72.12 7.34
-4 6 1 69.46 7.12
-4 6 0 92.97 7.65
4 -6 0 94.27 7.77
-4 6 0 88.66 6.49
4 -6 0 97.3 7.25
-4 6 -1 246.14 12.12
4 -6 1 234.85 11.48
-4 6 -1 249.49 10.23
-4 6 -1 224.16 11.11
4 -6 1 277.21 12.8
-4 6 -2 333.46 13.45
4 -6 2 334.83 14.25
4 -6 2 302.82 12.92
4 -6 3 196.66 11.6
4 -6 3 209.77 9.72
4 -6 3 208.13 9.49
-4 6 -3 210.03 11.53
4 -6 4 276.66 11.18
4 -6 4 259.95 14.55
4 -6 4 283.71 11.1
-4 6 -4 268.32 14.4
4 -6 5 76.07 5.34
4 -6 5 74.16 8.06
4 -6 5 65.34 5.27
-4 6 -5 69.49 7.69
-4 6 -6 146.7 11.94
4 -6 6 140.52 7.56
4 -6 6 130.48 11.74
4 -6 6 153.93 8.83
-4 6 -7 250.27 16.57
4 -6 7 256.49 12.24
4 -6 7 249.59 17.92
-4 6 -8 11.05 3.87
4 -6 8 15.25 4.95
-4 6 -9 227.71 17.37
4 -6 9 233.62 19.87
-4 5 8 302.02 21.27
-4 5 7 576.37 28.51
-4 5 6 363.42 20.97
-4 5 5 180.89 12.5
-4 5 5 189.02 14.09
-4 5 4 2.67 2.6
-4 5 4 5.2 2.72
-4 5 3 118.03 9.67
4 -5 -3 129.98 10.11
4 -5 -3 122.81 10.05
-4 5 2 415.02 16.13
-4 5 2 449.89 18.39
4 -5 -2 457.9 19
4 -5 -1 494.74 17.98
-4 5 1 491.6 17.18
-4 5 1 525.51 12.46
-4 5 1 514.68 18.93
4 -5 -1 516.48 19.16
4 -5 0 452.38 16.72
4 -5 0 463.72 16.77
-4 5 0 499.51 17.09
-4 5 0 462.18 16.63
-4 5 0 479.53 14.19
-4 5 -1 455.81 15.3
4 -5 1 441.81 16.43
-4 5 -1 438.66 15.41
4 -5 1 441.32 15.12
4 -5 2 305.45 13.85
4 -5 2 309.83 10.5
4 -5 2 284.3 10.77
-4 5 -2 305.15 11.06
-4 5 -3 79.7 7.22
4 -5 3 87.83 7.73
4 -5 3 77.28 4.72
4 -5 3 84.04 4.74
4 -5 4 572.59 15.2
4 -5 4 575.51 23.21
-4 5 -4 609.19 23.5
4 -5 4 614.28 16.29
4 -5 5 110.71 5.39
4 -5 5 101.85 9.73
-4 5 -5 103.91 9.6
4 -5 5 112.17 6.37
4 -5 6 179.23 7.52
4 -5 6 165.1 13.65
4 -5 6 183.44 9
-4 5 -6 176.09 13.34
-4 5 -7 987.18 36.35
4 -5 7 1011.1 24.54
4 -5 7 958.81 38.28
4 -5 8 45.16 8.07
-4 5 -8 33.05 6.43
-4 5 -9 2.85 2.31
4 -5 9 -1.51 3.21
-4 4 9 102.17 12.5
-4 4 8 239.19 18.3
-4 4 7 20.13 5.22
-4 4 6 77.74 9.18
-4 4 5 858.69 30.37
-4 4 5 1017.96 33.96
4 -4 -4 158.73 11.4
-4 4 4 149.2 10.5
-4 4 4 146.27 10.94
4 -4 -3 672.19 23.49
-4 4 3 679.57 23.72
-4 4 2 105.69 7.42
-4 4 2 119.96 8.24
4 -4 -2 116.28 7.95
4 -4 -1 438.32 16.16
-4 4 1 425.75 15.57
-4 4 1 452.74 15.63
4 -4 -1 423.21 15.51
4 -4 0 92.48 6.98
-4 4 0 104.69 6.24
-4 4 0 101.89 7.15
4 -4 0 112.9 6.52
-4 4 -1 33.2 3.02
4 -4 1 35.37 4.35
4 -4 1 33.66 3.04
4 -4 2 15.09 1.73
4 -4 2 17.77 1.63
4 -4 2 12.55 2.37
4 -4 3 13.64 1.24
4 -4 3 17.86 1.71
4 -4 3 11.57 3.1
-4 4 -4 208.93 13.28
4 -4 4 204.28 5.36
4 -4 4 207.16 13.31
4 -4 4 210.82 7.23
4 -4 5 124.75 4.6
-4 4 -5 123.87 10.76
4 -4 5 120.51 10.87
4 -4 5 124.8 4.61
-4 4 -5 123.91 5.77
-4 4 -6 133.25 6.99
-4 4 -6 117.94 11.25
4 -4 6 134.22 12.38
4 -4 6 128.76 5.68
4 -4 6 143.3 5.94
4 -4 7 20.56 2.53
-4 4 -7 17.5 4.63
4 -4 7 14.73 4.62
-4 4 -8 84.98 10.33
4 -4 8 77.03 10.8
-4 4 -9 8.81 3.89
4 -4 9 7.79 4.24
-4 3 10 31.05 7.17
-4 3 9 3.95 2.79
-4 3 8 14.3 4.22
-4 3 7 219.08 15.78
-4 3 6 247.04 15.77
-4 3 5 299.69 15.83
4 -3 -5 313.01 16.42
-4 3 5 293.73 16.08
-4 3 4 22.84 4.45
-4 3 4 17.22 3.88
4 -3 -4 20.45 3.89
-4 3 4 22.89 1.86
-4 3 3 -0.35 1.81
4 -3 -3 2.73 1.93
4 -3 -2 83.1 6.72
-4 3 2 67.26 5.95
4 -3 -2 66.4 5.51
-4 3 2 72.89 5.92
4 -3 -1 184.87 9.77
-4 3 1 178.81 9.46
4 -3 -1 167.71 7.81
-4 3 1 177.55 8.25
4 -3 0 88.11 6.81
-4 3 0 84.95 6.56
-4 3 0 80.51 4.53
4 -3 0 74.13 4.06
-4 3 -1 603.15 13.17
4 -3 1 580.41 19.96
4 -3 2 765.63 24.93
4 -3 3 603.15 22.68
4 -3 4 431 20.3
-4 3 -4 481.48 11.82
-4 3 -5 1.72 0.88
4 -3 5 3.23 0.74
4 -3 5 2.58 2.67
-4 3 -6 616.06 27.48
4 -3 6 573.25 15.12
4 -3 6 572.08 27.21
-4 3 -6 582.34 17.63
-4 3 -7 879.82 35.71
4 -3 7 927.34 37.94
4 -3 8 59.53 9.7
-4 3 -8 74.36 9.84
-4 2 10 49.74 8.72
-4 2 9 43.82 7.9
-4 2 8 235.4 16.75
-4 2 7 47.27 7.34
-4 2 6 2935.03 68.53
-4 2 6 2758.52 56.93
-4 2 5 867.93 29.91
-4 2 5 906.78 21.76
4 -2 -5 961.98 30.28
-4 2 5 919.19 29.65
4 -2 -4 253.51 12.85
-4 2 4 247.58 12.7
4 -2 -3 998.82 27.1
-4 2 3 954.3 26.84
4 -2 -2 153.29 9.32
-4 2 2 136.91 8.45
4 -2 -2 140.67 7.44
-4 2 2 143.03 7.67
4 -2 -1 743.29 22.37
4 -2 -1 726.32 17.8
-4 2 1 781.05 22.61
-4 2 1 740.84 18.72
4 -2 0 1454.75 35.89
-4 2 0 1408.73 36.27
4 -2 0 1474.07 27.07
-4 2 0 1454.99 28.76
4 -2 1 1482.9 37.61
4 -2 2 843.82 26.94
-4 2 -3 49.12 2.48
4 -2 3 44.74 5.67
4 -2 4 30.23 1.85
-4 2 -4 29.61 2.71
4 -2 4 28.6 5.07
-4 2 -5 0.61 0.92
4 -2 5 0.7 0.61
4 -2 5 -0.7 2.5
4 -2 6 1119.2 26.46
4 -2 6 1146.13 40.78
-4 2 -6 1055.87 28.6
-4 2 -7 4.38 2.79
4 -2 7 9.29 3.92
-4 2 -8 5.83 3.42
4 -2 8 1.57 2.06
-4 1 11 15.57 5.18
-4 1 10 37.97 7.52
-4 1 9 54.91 8.32
-4 1 8 32.23 6.19
-4 1 8 22.86 3.78
-4 1 7 1 1.34
-4 1 7 0.39 2.4
-4 1 6 284.14 11.56
-4 1 6 319.42 16.2
4 -1 -6 312.08 15.94
-4 1 5 209.93 12.62
-4 1 5 200.01 11.79
4 -1 -5 199.91 11.55
-4 1 4 42.29 4.8
4 -1 -4 35.35 4.32
4 -1 -3 -0.45 1.27
4 -1 -3 0.28 2.95
-4 1 3 2.04 1.44
4 -1 -2 0.83 0.95
4 -1 -2 3.82 2.97
-4 1 2 0.05 1.35
4 -1 -1 6.56 1.08
-4 1 1 6.93 1.57
4 -1 -1 2.09 2.05
4 -1 0 26.86 3.92
-4 1 0 27.97 1.82
4 -1 1 69.05 6.24
-4 1 -1 80.33 2.52
4 -1 2 85.62 7.62
-4 1 -2 75.56 3.69
4 -1 3 241.6 7.4
4 -1 3 250.78 14.21
-4 1 -3 233.38 8.78
4 -1 4 596.8 15.9
4 -1 4 584.73 24.84
-4 1 -4 629.77 18.3
4 -1 5 49.43 4.19
4 -1 5 53.72 7.64
-4 1 -5 48.81 4.93
4 -1 6 314.74 12.73
4 -1 6 280.71 19.09
-4 1 -7 53.64 8.53
4 -1 7 75.84 10.37
-4 1 -8 73.42 10.39
4 -1 8 73.52 11.14
-4 0 11 169.37 16
-4 0 10 50.83 8.41
-4 0 9 328.05 16.79
-4 0 9 349.97 20.65
-4 0 8 44.03 5.28
-4 0 8 57.03 8.15
-4 0 7 691.15 26.84
-4 0 7 690.36 22.12
4 0 -6 1598.34 42.25
-4 0 6 1574.05 43.1
4 0 -5 22.06 3.5
-4 0 5 22.8 4.25
-4 0 4 2035.48 47.12
4 0 -4 2040.07 45.87
-4 0 3 1413.11 33.22
4 0 -3 1393.36 32.73
4 0 -3 1420.98 35.95
-4 0 3 1399.09 35.71
4 0 -2 574.55 19.14
-4 0 2 564.58 19
-4 0 2 598.31 16.38
4 0 -2 567.25 15.78
4 0 -1 278.66 12.35
-4 0 1 265 12.21
-4 0 1 262.23 8.86
-4 0 0 818.09 19.84
4 0 0 864.2 25.16
-4 0 0 880.2 25.93
-4 0 0 849.3 19.22
4 0 1 477.45 18.18
-4 0 -1 467.16 12.88
4 0 2 496.03 20.03
4 0 2 483.22 13.58
-4 0 -2 472.93 13.81
4 0 3 977.17 23.93
4 0 3 952.43 31.92
-4 0 -3 986.63 25.72
4 0 4 253.84 10.72
-4 0 -4 255.41 12.08
4 0 4 253.07 15.72
4 0 5 144.82 8.58
4 0 5 150.25 12.82
-4 0 -5 124.56 9.09
4 0 6 381.71 15.94
4 0 6 376.54 22.53
-4 0 -7 282.87 20.07
4 0 7 301.48 21.3
-4 0 -8 253.3 19.88
-4 -1 12 343.47 23.72
-4 -1 11 92.52 11.66
-4 -1 11 81.54 10.98
-4 -1 10 372.14 22.44
-4 -1 9 150.13 13.31
-4 -1 8 500.54 20.06
-4 -1 8 532.95 24.3
4 1 -7 625.39 23.75
-4 -1 7 600.05 24.56
-4 -1 6 528.71 22.04
-4 -1 6 555.61 21.94
4 1 -6 546.63 20.74
4 1 -5 689.65 22.38
-4 -1 5 639.79 23.35
-4 -1 5 701.83 23.2
-4 -1 4 741.42 23.94
-4 -1 4 741.59 22.77
4 1 -4 758.38 22.47
4 1 -3 125.32 8.57
-4 -1 3 135.82 8.58
-4 -1 3 128.91 7.48
4 1 -3 126.25 7.26
-4 -1 2 3.71 1.4
4 1 -2 4.84 1.3
4 1 -2 1.64 2.44
-4 -1 2 3.56 1.74
-4 -1 1 5.94 1.61
-4 -1 1 6.97 1.54
4 1 -1 12.5 3.13
-4 -1 1 11.23 2.6
-4 -1 0 226.77 9.63
4 1 0 229.8 11.55
-4 -1 0 224.33 11.74
-4 -1 0 234.99 9.17
-4 -1 -1 1.67 1.04
4 1 1 -1.76 2.89
4 1 1 1.51 0.85
4 1 2 435.66 14.86
4 1 2 440.69 19.11
-4 -1 -2 434.15 15.32
4 1 3 92.34 6.55
4 1 3 83.07 8.46
-4 -1 -3 89.6 6.79
4 1 4 212.33 11.05
4 1 4 199.91 14.15
-4 -1 -4 205.01 11.98
4 1 5 100.79 7.99
4 1 5 96.78 10.48
4 1 6 30.87 6.52
4 1 7 23.57 6.11
-4 -2 12 48.3 9.03
-4 -2 11 90.5 11.48
-4 -2 10 32.89 6.93
-4 -2 9 5.31 3.38
-4 -2 8 26.65 6.11
-4 -2 7 646.27 25.67
4 2 -7 694.42 25.26
-4 -2 6 656.61 24.58
4 2 -6 693.76 23.87
-4 -2 6 656.14 24.08
-4 -2 5 310.47 14.97
-4 -2 5 310.54 14.39
4 2 -5 325.18 14.42
-4 -2 4 86.97 7.27
-4 -2 4 89.8 6.92
4 2 -4 94.97 6.97
4 2 -3 400.18 15.51
-4 -2 3 385.72 15.21
-4 -2 3 409.05 14.94
4 2 -3 371.24 14.13
4 2 -2 58.73 5.6
-4 -2 2 60.31 5.49
-4 -2 2 55.53 4.94
-4 -2 2 51.19 4.99
-4 -2 1 437.99 16.12
4 2 -1 452.56 16.64
-4 -2 1 445.13 16.87
-4 -2 1 440.05 15.3
-4 -2 0 424.08 15.81
4 2 0 448.05 17.19
-4 -2 0 423.59 16.95
4 2 1 0.5 1.08
4 2 1 -2.45 2.78
4 2 2 345.81 14.59
4 2 2 337.91 16.72
4 2 3 162.23 10.06
4 2 3 162.25 12.1
-4 -2 -3 157.15 10.36
4 2 4 97.19 8.18
4 2 4 80.07 9.09
-4 -2 -4 90.77 8.66
-4 -2 -4 80.53 7.84
4 2 5 292.49 15.63
4 2 5 297 18.98
4 2 6 86.29 10.68
-4 -3 12 93.45 12.02
-4 -3 11 122.94 13.27
-4 -3 10 709.28 31.82
-4 -3 9 28.6 6.2
-4 -3 8 289.46 17.21
-4 -3 7 837.62 29.85
-4 -3 7 813.55 29.4
-4 -3 6 227.08 13.11
-4 -3 6 234.18 13.41
4 3 -6 205.04 12.26
-4 -3 5 192.48 11.41
-4 -3 5 188.95 11.34
4 3 -5 203.85 11.51
-4 -3 4 836.9 25.21
-4 -3 4 835.14 25.77
4 3 -4 826.43 25.18
4 3 -3 1049.94 28.75
-4 -3 3 1040.32 28.41
-4 -3 3 1030.46 28.98
-4 -3 3 1012.74 30.25
4 3 -2 509.12 17.93
-4 -3 2 499.26 18.09
-4 -3 2 518.82 18.33
-4 -3 1 437.59 17.69
4 3 -1 443.07 16.6
-4 -3 1 424.19 16.61
-4 -3 1 436.98 16.6
-4 -3 0 0.63 1.22
4 3 0 1.13 1.61
4 3 0 -0.38 1.19
4 3 1 68.76 6.88
-4 -3 -1 82.17 7.4
4 3 1 69.19 6.68
4 3 2 142.68 10.06
-4 -3 -2 144.96 10.57
4 3 2 144.87 10.69
4 3 3 69.2 7.24
4 3 3 78.14 8.48
-4 -3 -3 72.05 7.92
4 3 4 51.11 6.57
4 3 4 36.7 6.26
4 3 5 12.55 3.53
4 3 5 14.43 4.44
4 3 6 10.8 3.97
-4 -4 12 12.02 5.09
-4 -4 11 9.69 4.27
-4 -4 10 24.26 5.83
-4 -4 9 25.38 5.58
-4 -4 8 4.26 2.72
-4 -4 7 35.85 5.8
-4 -4 7 42.62 6.27
-4 -4 6 38.92 5.51
4 4 -6 44.17 5.75
-4 -4 6 36.56 5.26
-4 -4 5 2.11 1.65
4 4 -5 3.09 1.89
-4 -4 5 -0.52 2.28
-4 -4 4 122.94 8.17
-4 -4 4 113.04 8.83
-4 -4 4 130.49 10.04
-4 -4 3 10.39 2.84
-4 -4 3 7.72 2.42
4 4 -3 8 2.6
-4 -4 3 5.87 1.48
4 4 -2 30.07 4.25
-4 -4 2 33.04 4.79
-4 -4 2 31.14 4.81
-4 -4 2 27.53 3.75
-4 -4 1 245.99 13.87
4 4 -1 224.8 11.4
-4 -4 1 214.37 12.23
-4 -4 0 3.71 2.3
4 4 0 3.49 2.16
4 4 0 0.84 1.3
4 4 1 26.15 4.64
4 4 1 28.1 4.44
4 4 2 9.38 3.02
4 4 2 6.22 2.52
4 4 3 102.96 9.82
4 4 3 108.71 10.1
4 4 4 252.71 16.23
4 4 4 236.7 16.23
4 4 5 66.02 8.95
-4 -5 12 25.01 6.55
-4 -5 11 475.46 27.08
-4 -5 10 97.18 11.38
-4 -5 9 251.42 17.27
-4 -5 8 188.8 14.03
-4 -5 7 386.13 18.37
-4 -5 7 394.51 19.81
-4 -5 6 144.42 10.11
-4 -5 6 144.69 11.45
-4 -5 5 756.13 27.64
-4 -5 5 771.19 24.2
-4 -5 4 521.85 18.24
-4 -5 4 501 21.34
4 5 -3 172.19 9.71
-4 -5 3 179.36 9.74
-4 -5 3 165.33 11.56
4 5 -2 281.49 12.71
-4 -5 2 284.09 12.61
-4 -5 2 301.01 15.89
4 5 -1 138.2 8.94
-4 -5 1 143.38 10.88
4 5 0 678.86 22.85
4 5 0 682.19 26.8
4 5 1 168.04 10.92
4 5 1 154.07 12.11
4 5 2 15.04 4.16
4 5 2 24.06 4.49
4 5 3 26.47 5.42
4 5 3 27.27 5.06
4 5 4 90.56 10.32
-4 -6 12 51.05 9.2
-4 -6 11 138.56 14.29
-4 -6 10 82.86 10.57
-4 -6 9 -1.24 3.05
-4 -6 8 132.76 10.89
-4 -6 8 126.71 11.82
-4 -6 7 50.06 7.34
-4 -6 7 45.12 6.03
-4 -6 6 217.1 12.11
-4 -6 6 225.32 14.95
-4 -6 5 31.44 5.49
-4 -6 5 27.15 3.84
-4 -6 4 37.38 6.02
-4 -6 4 31.23 3.98
-4 -6 3 413.26 15.3
-4 -6 3 428.7 20.81
-4 -6 2 35.45 5.86
4 6 -2 37.6 4.56
-4 -6 1 29.38 5.18
4 6 -1 30.51 4.21
4 6 0 7.36 2.53
4 6 0 5.99 3.09
4 6 1 55.14 7.9
4 6 1 62.59 6.6
4 6 2 100.56 10.93
4 6 3 -1.18 2.05
-4 -7 11 28.25 6.84
-4 -7 10 22.97 5.74
-4 -7 9 107.06 11.63
-4 -7 8 421.17 20.06
-4 -7 8 459.73 24.21
-4 -7 7 98.42 8.38
-4 -7 7 104.22 10.86
-4 -7 6 16.48 4.39
-4 -7 6 15.14 2.97
-4 -7 5 83.87 6.47
-4 -7 5 80.69 9.32
-4 -7 4 5.87 2.95
-4 -7 3 556.83 25.98
-4 -7 2 116.21 11.39
-4 -7 1 169.31 13.99
4 7 0 68.16 9.2
4 7 1 8.06 3.26
4 7 2 32.39 6.87
-4 -8 11 85.03 11.75
-4 -8 10 240.11 18.85
-4 -8 9 378.02 23.26
-4 -8 8 61.97 9.2
-4 -8 7 5.1 3.42
-4 -8 6 343.35 21.23
-4 -8 5 7.26 3.51
-4 -8 4 566.43 27.91
-4 -8 3 314.86 20.45
-4 -8 2 0.97 1.85
-4 -8 1 95.38 11.27
-4 -9 9 2.34 2.93
-4 -9 8 24.28 6.16
-4 -9 7 0.62 1.98
-4 -9 6 108.39 12.47
-4 -9 5 4.46 2.98
-4 -9 4 15.19 4.94
-4 -9 3 22.93 6.58
-5 12 -2 98.25 11.64
5 -12 3 52.02 8.24
-5 12 -3 76.05 10.06
5 -12 4 157.55 14.12
-5 11 1 4.44 3.4
-5 11 0 2.69 2.8
-5 11 -1 112.69 12.1
-5 11 -2 43.11 7.25
5 -11 3 214.91 15.81
-5 11 -3 271.38 17.84
5 -11 4 3.8 2.31
5 -11 5 22 4.87
-5 10 2 10.22 4.15
-5 10 1 313.99 20.75
-5 10 0 2.92 2.68
-5 10 -1 89.08 10.04
-5 10 -2 59.93 7.86
5 -10 3 4.2 2.04
-5 10 -3 3.76 1.86
5 -10 4 121.89 9.48
5 -10 4 101.8 9.51
5 -10 5 80.79 8.15
5 -10 5 62.73 7.23
5 -10 6 81.94 8.89
5 -10 7 -0.33 2.08
5 -10 8 138.34 13.7
5 -10 9 207.75 18.06
-5 9 4 189.23 16.8
-5 9 3 119.91 12.66
-5 9 2 277.87 18.83
-5 9 1 286.67 18.47
-5 9 0 47.32 7.04
-5 9 -1 0.63 1.58
-5 9 -2 305.95 16.82
5 -9 2 307 14.62
5 -9 3 802.22 26.55
5 -9 3 721.17 26.35
-5 9 -3 735.68 27.05
5 -9 4 363.37 17.56
5 -9 4 341.49 16.24
5 -9 5 0.15 1.3
5 -9 5 -2.58 2.2
5 -9 6 45.56 6.96
5 -9 7 4.04 2.51
5 -9 8 31.52 6.87
5 -9 9 226.29 19.58
-5 8 5 1.32 2.25
-5 8 4 82.71 10.42
-5 8 3 428.35 23.13
-5 8 2 7.44 3.14
-5 8 1 57.29 7.56
-5 8 0 49.25 6.6
5 -8 1 261.37 13.27
-5 8 -1 233.33 11.95
5 -8 1 245.82 14.57
-5 8 -2 57.67 6.43
5 -8 2 57.53 6.36
5 -8 2 47.98 5.98
5 -8 3 147.25 10.49
5 -8 3 135.1 9.57
5 -8 3 128.43 8.85
5 -8 4 39.25 4.88
5 -8 4 45.63 4.99
5 -8 4 44.54 6.15
5 -8 5 256.95 16.26
-5 8 -5 306.01 16.86
5 -8 5 295.44 13.05
5 -8 6 105.99 10.88
-5 8 -6 108.7 10.6
5 -8 7 3.02 2.86
-5 8 -7 7.35 3.14
-5 8 -8 66.71 9.17
5 -8 8 65.82 9.87
-5 7 6 143.68 14.36
-5 7 5 316.68 20.61
-5 7 4 280.17 15.41
-5 7 4 331.07 19.8
-5 7 3 14.79 4.07
-5 7 3 16.26 3.54
-5 7 2 619.93 25.4
-5 7 2 584.2 20.9
-5 7 1 401.19 18.96
-5 7 0 51.39 6.19
5 -7 0 44.5 5.64
5 -7 0 44.78 5.77
-5 7 -1 185.72 11.05
5 -7 1 182.61 11.2
-5 7 -1 169.01 10.4
5 -7 1 185.5 11.2
-5 7 -2 352.56 14.94
-5 7 -2 369.84 15.24
5 -7 2 364.25 16.47
5 -7 2 354.81 15.11
5 -7 2 321.89 13.71
-5 7 -3 739.93 25.75
5 -7 3 809.07 27.34
5 -7 3 765.36 22.14
5 -7 3 756.49 22.98
-5 7 -4 258.5 14.81
5 -7 4 252.91 15.27
5 -7 4 275.64 11.47
5 -7 4 249.57 10.72
-5 7 -5 286.39 16.79
5 -7 5 317.95 18.41
5 -7 5 321.75 12.24
-5 7 -6 9.01 3.43
5 -7 6 10.5 3.83
-5 7 -7 2.06 2.82
5 -7 7 2.02 2.27
-5 7 -8 94.74 11.06
5 -7 8 96.81 12.44
-5 6 7 31.67 6.83
-5 6 6 6.67 3.32
-5 6 5 29.68 5.72
-5 6 4 353.63 17.26
-5 6 4 370.21 19.78
-5 6 3 136.56 9.77
-5 6 3 143.81 11.34
-5 6 2 403.93 16.72
-5 6 2 374.49 18.1
5 -6 -2 402.04 18.77
5 -6 -1 472.56 19.04
-5 6 1 468.41 19.13
-5 6 1 460.62 18.03
5 -6 -1 517.07 20.21
5 -6 0 15.4 3.7
-5 6 0 14.45 2.44
-5 6 0 18.27 3.44
-5 6 0 18.5 3.38
5 -6 0 20.58 3.59
-5 6 -1 32.21 4.05
-5 6 -1 36.51 4.9
5 -6 1 24.26 4.29
5 -6 1 38.03 4.43
-5 6 -2 1.66 1.09
5 -6 2 4.41 1.29
-5 6 -2 3.8 1.59
5 -6 2 3.43 2.12
5 -6 2 1.85 1.25
5 -6 3 153.02 11.12
-5 6 -3 147.02 10.82
5 -6 3 181.37 8.04
5 -6 3 171.66 7.36
5 -6 4 204.71 13.89
-5 6 -4 211.61 13.77
5 -6 4 218.64 7.98
5 -6 4 216.43 8.23
5 -6 5 48.1 2.74
5 -6 5 53.18 3.85
-5 6 -5 31.86 5.73
5 -6 5 43.02 6.79
-5 6 -6 21.12 4.89
5 -6 6 19.98 5.11
5 -6 7 92.12 11.41
-5 6 -7 87.11 10.21
-5 6 -8 39.35 7.23
5 -6 8 29.84 7.02
-5 5 8 58.95 9.48
-5 5 7 80.3 10.35
-5 5 6 35.75 6.69
-5 5 5 354.36 18.3
-5 5 5 400.16 20.8
-5 5 4 48.35 6.58
-5 5 4 39.53 5.65
-5 5 3 77.04 7.23
-5 5 3 83.4 8.07
5 -5 -3 86.3 8.16
-5 5 2 456.98 11.71
-5 5 2 423.98 17.5
-5 5 2 431.74 18.04
5 -5 -2 440.12 17.86
-5 5 1 26.79 3.97
-5 5 1 29.56 4.32
5 -5 -1 31.18 5.09
5 -5 -1 27.67 3.83
5 -5 0 368.05 16.21
-5 5 0 360.14 13.9
-5 5 0 359.91 15.94
5 -5 0 383.15 14.35
-5 5 -1 113.58 6.43
5 -5 1 110.75 8.59
-5 5 -1 107.38 8.51
5 -5 1 105.47 6.29
5 -5 2 280.64 9.55
5 -5 2 300.9 8.78
-5 5 -3 0.99 1.61
5 -5 3 1.82 0.6
-5 5 -4 657.17 26.29
5 -5 4 585.62 25.46
-5 5 -5 522.5 24.5
5 -5 5 477.33 23.92
-5 5 -6 0.18 1.99
5 -5 6 3.74 2.86
-5 5 -7 47.23 7.74
5 -5 7 39.34 7.66
-5 5 -8 4.37 2.98
5 -5 8 2.46 2.41
-5 4 9 155.31 15.34
-5 4 8 322.2 21.39
-5 4 7 153.19 13.63
-5 4 6 16.59 4.46
-5 4 5 643.5 25.25
-5 4 5 599.57 25.29
-5 4 4 359.28 8.42
-5 4 4 362.45 17.19
5 -4 -4 360.86 17.43
-5 4 4 358.11 17.6
-5 4 3 1671.76 43.08
5 -4 -3 1651.22 42.4
-5 4 3 1635.27 42.8
5 -4 -2 1473.37 39.41
-5 4 2 1456.53 38.4
-5 4 2 1477.79 37.52
5 -4 -2 1501.53 37.09
5 -4 -1 179.66 10.82
-5 4 1 180.28 10.61
-5 4 1 179.99 9.16
5 -4 -1 172.41 8.75
-5 4 0 7.6 1.71
5 -4 0 11.94 3.11
-5 4 0 10.24 2.7
5 -4 0 8.81 1.73
5 -4 1 440.17 10.21
-5 4 -1 459.95 12.06
5 -4 1 446.67 18.32
-5 4 -1 436.7 18.53
5 -4 1 444.22 10.6
5 -4 2 1140.85 34.22
5 -4 3 202.01 13.34
5 -4 4 165.6 12.78
5 -4 5 52.2 7.75
-5 4 -5 57.61 7.89
-5 4 -6 119.63 12.1
5 -4 6 106.62 11.67
-5 4 -7 9.28 4
5 -4 7 7.44 3.67
-5 4 -8 56.44 9.03
5 -4 8 55.99 9.67
-5 3 10 434.54 26.93
-5 3 9 46.7 8.29
-5 3 8 13.59 4.67
-5 3 7 68.59 8.73
-5 3 6 38.99 3.4
-5 3 6 36.1 6.32
-5 3 5 45.31 6.28
-5 3 5 45.69 6.36
5 -3 -5 41.78 5.95
-5 3 4 16.3 3.75
-5 3 4 18.65 3.97
5 -3 -4 16.49 3.64
5 -3 -3 56.69 5.66
-5 3 3 52.61 6
5 -3 -3 58.76 6.9
-5 3 3 61.15 5.97
5 -3 -2 7.89 3.83
-5 3 2 3.67 1.88
-5 3 2 1.97 1.37
5 -3 -2 4.63 1.84
5 -3 -1 0.88 2.36
-5 3 1 3.93 1.37
-5 3 1 -1.14 1.8
5 -3 -1 3.92 1.37
5 -3 0 8.06 1.06
-5 3 0 9.35 1.63
-5 3 0 8.97 2.59
5 -3 1 198.5 11.81
-5 3 -1 186.25 11.67
5 -3 2 -4.36 3.46
5 -3 3 18.4 4.33
5 -3 4 122.32 11.16
-5 3 -5 67.81 3.28
5 -3 5 60.07 8.31
5 -3 6 46.78 7.94
-5 3 -6 52.15 8.2
-5 3 -7 0.9 1.99
5 -3 7 3.77 3.05
-5 2 10 11.07 4.41
-5 2 9 3.07 3.17
-5 2 8 442.46 23.53
-5 2 7 54.61 7.69
-5 2 7 46.87 4.54
-5 2 6 638.91 25.61
-5 2 5 436.59 19.54
-5 2 5 388.23 17.74
5 -2 -5 427.09 18.45
-5 2 5 389.69 18.2
-5 2 4 155.87 10.82
-5 2 4 155.36 9.73
5 -2 -4 161.65 9.95
5 -2 -3 1613.62 41.75
-5 2 3 1602.96 41.23
-5 2 3 1560.25 37.64
5 -2 -3 1576.62 37.76
5 -2 -2 1718.55 42.78
-5 2 2 1676.65 42.41
-5 2 2 1740.49 37.41
5 -2 -2 1671.96 37.27
5 -2 -1 1039.33 24.66
5 -2 -1 1023.01 14.16
-5 2 1 1007.66 16.49
5 -2 0 226.3 11.84
-5 2 0 231.56 5.85
5 -2 1 654.17 23.59
-5 2 -1 649.01 23.88
5 -2 2 168.16 11.51
5 -2 3 162.07 12.26
5 -2 4 447.72 22.82
-5 2 -4 518.45 12.52
5 -2 5 531.82 26.19
5 -2 6 83.32 10.67
-5 2 -7 49.14 8.53
5 -2 7 59.81 9.5
-5 1 11 93.23 12.27
-5 1 10 71.35 10.19
-5 1 9 326.02 16.12
-5 1 9 427.35 23.42
-5 1 8 591.75 26.7
-5 1 8 590.61 20.59
-5 1 8 571.82 26.6
-5 1 7 19.91 3.2
-5 1 7 24.39 5.33
5 -1 -6 1.79 1.45
-5 1 6 0.91 2.57
5 -1 -5 30.25 4.57
-5 1 5 33.98 5.65
-5 1 5 24.64 4.52
-5 1 4 72.97 6.38
5 -1 -4 69.77 6.02
5 -1 -3 952.63 28.99
-5 1 3 941.88 25.58
5 -1 -3 926.86 24.77
5 -1 -2 655.81 22.56
-5 1 2 674.09 18.38
5 -1 -2 630.33 17.36
5 -1 -1 528.49 17.67
-5 1 1 522.31 10.83
5 -1 -1 513.69 9.88
-5 1 0 49.07 3.09
5 -1 0 63.83 6.56
-5 1 0 56.21 6.2
-5 1 0 52.07 2.77
-5 1 -1 31.03 1.79
-5 1 -1 29.34 1.72
5 -1 1 23.13 4.19
-5 1 -1 28.95 4.65
-5 1 -2 8.71 1.12
5 -1 2 7.41 2.62
-5 1 -2 9.76 1.33
5 -1 3 88.05 9.17
-5 1 -3 96.44 5.17
5 -1 4 75.68 9.12
-5 1 -4 83.63 5.48
5 -1 5 -1.66 2.79
5 -1 6 9.99 4.48
5 -1 7 17.3 5.62
-5 1 -7 21.79 5.8
-5 0 11 1.88 3.29
-5 0 10 11.39 4.69
-5 0 9 26.76 4.33
-5 0 9 28.17 6.39
-5 0 8 4.32 1.8
-5 0 8 -0.08 2.68
-5 0 7 1.18 2.95
-5 0 6 109.17 10.36
5 0 -6 107.82 8.77
-5 0 6 106.22 9.44
-5 0 5 512.2 21.39
-5 0 5 549.67 20.89
5 0 -5 535.32 19.6
5 0 -4 448.3 18.9
-5 0 4 448.52 18.64
-5 0 4 430.25 16.85
5 0 -4 430.59 16.1
5 0 -3 858.75 27.26
-5 0 3 865.63 27.02
-5 0 3 861.55 24.04
5 0 -3 869.76 23.42
5 0 -2 559.18 20.6
-5 0 2 571.33 20.8
-5 0 2 583.33 16.96
5 0 -2 558.67 16.24
5 0 -1 578.9 20.81
-5 0 1 549.01 20.78
-5 0 1 569.31 15.42
-5 0 1 518.78 15.9
-5 0 0 128.14 6.41
5 0 0 142.47 9.86
-5 0 0 150.05 10.38
-5 0 0 141.91 6.18
5 0 1 402.79 18.6
-5 0 -1 429.42 12.76
-5 0 -1 447.19 12.71
5 0 2 141.13 11.01
-5 0 -2 151.39 6.96
5 0 3 29.43 5.49
-5 0 -3 28.28 3.52
5 0 4 434.23 22.92
5 0 4 468.93 15.17
5 0 5 19.27 5.02
5 0 6 261.85 19.69
-5 -1 12 343.65 24
-5 -1 12 327.8 23.41
-5 -1 11 174.84 16.2
-5 -1 10 1.91 3.12
-5 -1 9 438.9 23.47
-5 -1 8 131.92 11.86
-5 -1 7 140.76 11.62
-5 -1 6 604.9 24.54
-5 -1 6 624.82 24.17
5 1 -6 679.1 23.89
-5 -1 5 221.07 13.16
-5 -1 5 195.79 11.69
5 1 -5 214.59 11.57
5 1 -4 739.07 25.23
-5 -1 4 715.97 24.61
-5 -1 4 689.45 22.56
5 1 -4 735.31 22.37
-5 -1 3 21.02 3.31
5 1 -3 16.97 2.77
-5 -1 3 23.02 4.1
5 1 -2 126.99 9.21
-5 -1 2 132.63 9.29
-5 -1 2 129.11 7.44
-5 -1 2 131.19 8.04
-5 -1 1 750.08 21.87
5 1 -1 789.27 25.43
-5 -1 1 792.12 26.16
-5 -1 1 762.51 21.01
-5 -1 0 2330.15 51.84
5 1 0 2471.35 57.98
-5 -1 0 2522.86 58.96
-5 -1 0 2535.6 51.14
5 1 1 925.32 30.67
-5 -1 -1 898.2 24.05
-5 -1 -2 14.24 2.65
5 1 2 10.12 2.28
-5 -1 -3 11.33 2.57
5 1 3 10.29 3.67
5 1 3 9.86 2.33
5 1 4 2.91 1.46
5 1 4 2.92 2.9
5 1 5 221.31 17.16
5 1 6 306.03 21.52
-5 -2 12 89.82 12
-5 -2 11 52.99 9.07
-5 -2 10 -1.71 2.37
-5 -2 9 44.99 7.51
-5 -2 8 13.13 4.5
-5 -2 7 234.75 14.79
-5 -2 6 12.74 3.46
5 2 -6 17.36 3.44
-5 -2 6 17.51 4.56
-5 -2 5 28.27 4.52
-5 -2 5 27.8 4.79
5 2 -5 40.6 5.03
-5 -2 4 55.85 6.21
5 2 -4 44.71 6.22
-5 -2 4 43.39 5.07
5 2 -4 45.3 5
5 2 -3 36.66 5.53
-5 -2 3 38.86 4.52
-5 -2 3 35.34 4.78
5 2 -2 378.91 16.67
-5 -2 2 373.89 16.71
-5 -2 2 374.07 14.65
5 2 -1 59.18 6.54
-5 -2 1 57.1 6.37
-5 -2 1 57.23 5.25
-5 -2 0 16.81 2.95
5 2 0 15.47 3.6
5 2 1 304.08 16.11
5 2 2 128.11 10.68
-5 -2 -2 135.42 9.35
5 2 2 124.47 8.67
5 2 3 78.98 8.99
5 2 3 78.66 7.13
5 2 4 19.69 3.88
5 2 4 13.06 4.01
5 2 5 6 3.17
-5 -3 12 134.27 14.93
-5 -3 11 17.36 5.73
-5 -3 10 12.8 4.52
-5 -3 9 322.46 19.92
-5 -3 8 106 10.71
-5 -3 7 156.17 11.97
-5 -3 6 101.81 9.18
-5 -3 6 101.45 9
5 3 -6 120.33 9.46
-5 -3 5 265.32 14.25
-5 -3 5 259.24 13.95
5 3 -5 263.36 13.7
5 3 -4 575.11 22.12
-5 -3 4 637.19 22.4
-5 -3 4 560.48 21.37
-5 -3 4 655.55 24.16
5 3 -3 525.46 20.06
-5 -3 3 541.8 20.52
-5 -3 3 500.89 19.4
-5 -3 2 599.66 22.4
5 3 -2 611.58 22.09
-5 -3 2 600.51 22.12
-5 -3 2 605.35 21.23
-5 -3 1 31.09 4.28
-5 -3 1 37.73 5.13
5 3 -1 35.75 5.24
-5 -3 1 33.47 4.79
5 3 0 820.22 27.6
-5 -3 0 790.57 26.94
-5 -3 0 842.36 26
5 3 1 446.48 20.1
-5 -3 -1 458.99 19.67
5 3 2 568.6 24.63
5 3 2 612.09 23.18
5 3 3 203.05 14.9
5 3 3 248.05 14.31
5 3 4 38.21 6.8
5 3 5 121.62 12.9
-5 -4 12 220.92 18.97
-5 -4 11 35.98 7.52
-5 -4 10 350.09 21.93
-5 -4 9 92.55 10.51
-5 -4 8 31.76 5.83
-5 -4 7 46.58 6.84
-5 -4 7 61.42 7.5
-5 -4 6 42.53 6.12
-5 -4 6 47.25 6.31
-5 -4 5 215.99 12.43
-5 -4 5 194.94 12.67
-5 -4 4 276.56 15.78
5 4 -4 267.78 13.87
-5 -4 4 254.43 13.52
-5 -4 4 258.71 14.38
-5 -4 3 7.41 2.57
-5 -4 3 4.67 2.26
5 4 -3 9.25 3.38
-5 -4 3 8.98 2.52
-5 -4 2 158.4 11.56
5 4 -2 144.23 9.96
-5 -4 2 148.88 10.18
-5 -4 2 167.57 11.08
5 4 -1 268.57 14.1
-5 -4 1 263.56 15.2
-5 -4 1 267.06 14.45
-5 -4 0 3.38 2.05
5 4 0 5.29 2.69
5 4 1 54.56 6.89
5 4 2 148.67 11.86
5 4 2 111.68 10.18
5 4 3 0.31 1.67
5 4 3 -2.2 2.69
5 4 4 -0.8 2.78
-5 -5 12 29.53 7.27
-5 -5 11 29.3 6.9
-5 -5 10 5.43 3.15
-5 -5 9 4.03 2.84
-5 -5 8 4.04 2.67
-5 -5 7 57.2 7.54
-5 -5 7 59.35 7.32
-5 -5 6 319.93 17.81
-5 -5 6 305.17 15.65
-5 -5 5 171.9 10.97
-5 -5 5 162.28 12.12
-5 -5 4 39.55 5.8
-5 -5 4 34.81 4.84
5 5 -3 371.85 16.39
-5 -5 3 349.17 16.02
-5 -5 3 386.91 18.83
5 5 -2 253.84 13.35
-5 -5 2 249.17 15.02
5 5 -1 192.08 12.04
-5 -5 1 217.73 14.03
5 5 0 266.19 14.58
-5 -5 0 249.66 15.38
5 5 1 78.05 8.09
5 5 2 377.3 19.36
5 5 2 336.16 19.65
-5 -6 11 30.92 7.14
-5 -6 10 67.3 9.8
-5 -6 9 129.15 12.73
-5 -6 8 194.59 15.13
-5 -6 7 292.95 15.94
-5 -6 7 289.23 18.28
-5 -6 6 85.58 7.84
-5 -6 6 81.96 9.26
-5 -6 5 223.45 12.57
-5 -6 5 225.51 15.31
-5 -6 4 73.47 6.83
-5 -6 4 77.38 8.78
-5 -6 3 0.17 1.79
5 6 -3 -0.9 1.63
5 6 -2 268.86 13.53
-5 -6 2 251.6 16.42
5 6 -1 135.8 9.78
-5 -6 1 123.71 11.43
-5 -6 0 38 6.41
5 6 2 169.03 14.67
-5 -7 11 14.36 4.83
-5 -7 10 15.47 4.84
-5 -7 9 6.86 3.74
-5 -7 8 36.34 7.05
-5 -7 7 -0.45 2.25
-5 -7 6 115.41 11.68
-5 -7 5 149.42 13.17
-5 -7 4 3.48 2.73
-5 -7 3 22.6 5.43
-5 -7 2 61.64 8.68
-5 -7 1 140.52 13.3
-5 -7 0 28.63 6.16
-5 -7 -1 50.45 8.17
-5 -8 10 58.21 9.63
-5 -8 9 9.36 4.27
-5 -8 8 47.51 8.14
-5 -8 7 73.67 10.01
-5 -8 6 326.14 21.16
-5 -8 5 393.97 23.39
-5 -8 4 20.32 5.24
-5 -8 3 123.75 12.93
-5 -8 2 13.6 4.67
-6 12 -1 21.21 5.66
6 -12 2 65.22 9.05
-6 12 -2 84.86 10.58
-6 11 1 13.56 4.36
-6 11 0 48.28 8.09
-6 11 -1 192.66 15.47
6 -11 2 212.66 15.34
-6 11 -2 233.64 16.47
6 -11 3 120.09 11.16
-6 10 3 3.55 3.01
-6 10 2 174.95 15.61
-6 10 1 10.42 4.2
-6 10 0 12.73 4.29
-6 10 -1 9.15 3.22
6 -10 2 267.57 16.04
-6 10 -2 310.91 17.67
6 -10 3 -1.87 1.76
6 -10 3 0.16 1.72
6 -10 4 21.7 4.65
6 -10 5 18.23 4.47
6 -10 6 2.64 2.64
6 -10 7 25.19 6.02
6 -10 8 78.44 11
-6 9 4 29.39 6.7
-6 9 3 191.3 16.04
-6 9 2 3.31 2.27
-6 9 1 168.55 13.78
-6 9 0 47.58 6.88
-6 9 -1 436.31 20.94
6 -9 1 506.46 21.04
6 -9 2 253.82 14.69
6 -9 2 222.29 13.11
-6 9 -2 239.99 14.15
6 -9 3 163.8 12.06
6 -9 3 167.81 10.7
6 -9 4 602.06 25.6
6 -9 5 50.67 7.41
6 -9 6 96.67 10.9
6 -9 7 58.99 9.19
6 -9 8 38.43 8.05
-6 8 5 51.46 8.56
-6 8 4 33 6.6
-6 8 3 405.57 22.29
-6 8 2 208.16 14.76
-6 8 2 191.43 12.06
-6 8 1 209.26 14.1
-6 8 1 183.11 11.78
-6 8 0 7.4 2.83
-6 8 0 5.15 2.24
6 -8 0 7.36 3.39
-6 8 -1 91.32 8.14
6 -8 1 70.85 7.69
-6 8 -1 69.47 7.16
6 -8 1 70.07 7.3
6 -8 2 152.88 11.55
-6 8 -2 163.17 10.38
6 -8 2 153.57 10.25
6 -8 2 138.28 9
-6 8 -2 162.17 10.29
-6 8 -3 250.63 14.22
6 -8 3 235.48 14.9
6 -8 3 249.36 11.45
6 -8 4 1.84 1.19
-6 8 -4 0.15 1.48
6 -8 4 -0.78 1.72
-6 8 -5 1.34 1.95
6 -8 5 -0.6 2.45
-6 8 -6 27.29 5.81
6 -8 6 18.62 4.97
-6 8 -7 67.43 9.3
6 -8 7 77.2 10.73
-6 7 6 35.76 7.25
-6 7 5 9.51 3.75
-6 7 4 242.45 16.85
-6 7 3 41.75 6.42
-6 7 3 35.59 5.3
-6 7 2 58.22 7.18
-6 7 2 55.44 6.43
-6 7 1 62.04 6.96
-6 7 1 57.04 6.48
6 -7 -1 48.72 6.12
6 -7 -1 60.33 7.19
6 -7 -1 60.89 6.95
-6 7 0 93.13 8.03
6 -7 0 85.01 8.29
-6 7 0 89.28 8.13
6 -7 0 89.81 7.98
-6 7 -1 578 20.05
6 -7 1 563.85 22.88
-6 7 -1 496.13 21.24
-6 7 -1 539.05 19.41
6 -7 1 527.39 19.55
6 -7 2 30.01 3.91
6 -7 2 32.2 5.48
6 -7 2 31.84 3.62
-6 7 -2 34.04 4.04
-6 7 -2 31.51 4.69
6 -7 3 472.06 22.09
-6 7 -3 485.23 21.36
6 -7 3 492.3 14.55
6 -7 3 501.02 15.73
6 -7 4 159.21 13.07
6 -7 4 182.15 6.71
-6 7 -4 171.38 12.83
6 -7 5 146.32 13.13
-6 7 -5 160.79 13.17
-6 7 -6 19.91 5
6 -7 6 11.56 4.53
-6 7 -7 33.34 6.68
6 -7 7 26.83 6.65
-6 6 7 284.55 20.35
-6 6 6 238.36 17.62
-6 6 5 25.29 5.62
-6 6 4 149.11 12.23
-6 6 3 676.3 25.06
-6 6 3 670.16 26.16
6 -6 -2 624.18 24.64
-6 6 2 691.4 24.62
-6 6 2 632.73 24.04
6 -6 -2 615.91 23.41
-6 6 2 633.99 15.87
6 -6 -1 73.68 7.77
-6 6 1 59.42 4.91
-6 6 1 60.19 6.28
-6 6 1 60.52 6.71
6 -6 -1 55.36 5.89
-6 6 0 26.77 3.92
6 -6 0 20.99 4.67
-6 6 0 27.61 4.67
6 -6 0 31.49 3.99
-6 6 -1 52.56 4.75
-6 6 -1 53.34 5.93
6 -6 1 63.89 7.34
-6 6 -1 47.06 6.19
6 -6 1 55.52 4.53
-6 6 -2 355.76 17.39
6 -6 2 332.5 17.51
6 -6 2 346.37 10.43
6 -6 2 325.54 9.9
-6 6 -3 994.95 34.59
6 -6 3 1101.84 36.37
-6 6 -4 840.56 31.83
6 -6 4 767.72 31.26
6 -6 5 200.69 15.79
-6 6 -5 227.28 16.34
-6 6 -6 3.77 2.89
6 -6 6 3.2 2.86
-6 6 -7 9.69 3.87
6 -6 7 11.26 4.99
-6 5 8 258.13 19.67
-6 5 7 5.42 3.57
-6 5 6 10.52 3.63
-6 5 5 341.45 19.3
-6 5 4 43.41 6.42
-6 5 3 712.46 25.61
-6 5 3 645.22 24.6
6 -5 -3 682.41 24.84
6 -5 -2 133.36 10.57
-6 5 2 154.02 10.86
-6 5 2 131.02 9.31
6 -5 -2 125.84 8.95
-6 5 1 0.96 1.64
6 -5 -1 4.32 3.6
-6 5 1 -2.16 2.51
6 -5 -1 1.44 1.29
6 -5 0 616 24.09
-6 5 0 649.1 19.23
-6 5 0 662.89 24.64
6 -5 0 613.28 17.99
-6 5 -1 102.86 5.42
6 -5 1 104.08 9.25
-6 5 -1 96.22 8.88
6 -5 1 102.51 4.56
6 -5 1 92.07 4.09
6 -5 2 7.93 3.19
6 -5 3 25.99 5.14
6 -5 4 4.46 2.97
-6 5 -5 84.57 9.97
6 -5 5 82.21 10.24
-6 5 -6 45.46 7.86
6 -5 6 43.87 8.03
-6 5 -7 2.33 2.93
6 -5 7 2.72 2.75
-6 4 9 1.64 2.27
-6 4 8 11.36 4.82
-6 4 7 86.37 10.22
-6 4 6 33.75 6.19
-6 4 5 267.95 16.05
-6 4 4 285.58 15.88
6 -4 -4 242.41 14.12
-6 4 4 263.69 14.89
6 -4 -3 326.18 17.56
-6 4 3 340.46 16.68
6 -4 -3 323.2 15.01
-6 4 3 310.01 15.12
6 -4 -2 380.06 18.13
-6 4 2 408.13 18.29
-6 4 2 404.17 16.05
6 -4 -2 396.97 15.34
6 -4 -1 757.66 26.71
-6 4 1 777.91 26.96
-6 4 1 719.8 21.03
6 -4 -1 730.7 20.3
6 -4 0 171.14 11.85
-6 4 0 171.8 7.31
-6 4 0 160.14 11.41
6 -4 0 159.62 5.97
6 -4 1 5.94 3.28
6 -4 2 176.92 12.66
6 -4 3 691.75 28.43
6 -4 4 1472.32 47.25
6 -4 5 269.7 18.95
-6 4 -6 26.5 6.21
6 -4 6 29.99 6.97
-6 4 -7 120.41 13.75
6 -4 7 112.02 13.78
-6 3 10 224.68 19.2
-6 3 9 270.07 20.04
-6 3 8 295.09 19.72
-6 3 7 534.98 16.45
-6 3 7 554.37 26.09
-6 3 6 5.48 3.08
-6 3 5 6.82 3.35
6 -3 -5 8.25 3.1
-6 3 4 40.58 5.96
-6 3 4 44.46 5.69
6 -3 -4 44.84 5.43
6 -3 -3 318.44 16.59
-6 3 3 306.26 15.73
6 -3 -3 295.31 13.21
-6 3 3 286.3 13.73
6 -3 -2 695.61 25.08
-6 3 2 694.35 24.91
6 -3 -2 621.85 18.99
-6 3 2 666.66 20.49
6 -3 -1 196.19 12.52
-6 3 1 232.75 13.55
-6 3 1 210.21 8.99
6 -3 -1 204.48 7.67
-6 3 0 4.41 1.02
-6 3 0 8.64 2.86
6 -3 1 42.79 6.19
6 -3 2 81.01 8.69
6 -3 3 0.77 2.76
6 -3 4 356.68 20.88
6 -3 5 -0.36 2.03
6 -3 6 24.37 6.31
-6 2 10 1.96 3.39
-6 2 9 13.98 4.91
-6 2 8 55.66 8.27
-6 2 8 49.12 5.06
-6 2 7 -0.1 2.28
-6 2 6 9.9 4.02
-6 2 6 13.63 3.86
-6 2 5 270.54 14.51
6 -2 -5 269.84 14.32
-6 2 4 119.54 10
-6 2 4 118.81 8.66
6 -2 -4 116.7 8.4
6 -2 -3 24.54 3.34
6 -2 -3 30.18 5.7
-6 2 3 26.25 4.76
-6 2 3 18.77 3.25
-6 2 2 75.44 7.56
-6 2 2 74.89 5.25
6 -2 -2 66.88 7.23
6 -2 -2 70.95 4.84
6 -2 -1 594.65 22.96
-6 2 1 594.24 23.38
6 -2 -1 574.57 14.21
6 -2 0 506.27 21.19
-6 2 0 514.73 21.65
-6 2 0 505.61 11.71
-6 2 0 462.33 11.48
6 -2 1 7.54 3.07
6 -2 2 66.61 7.96
6 -2 3 265.05 17.13
6 -2 4 684.59 30.4
6 -2 5 235.57 18.05
6 -2 6 93.17 11.95
-6 1 11 92.92 12.38
-6 1 10 421.14 25.35
-6 1 9 325.79 20.24
-6 1 9 259.32 13.8
-6 1 9 310.8 20.28
-6 1 8 927.57 35.14
-6 1 7 55.07 7.62
6 -1 -6 13.17 3.38
-6 1 6 8.35 3.64
-6 1 5 65.93 7.53
-6 1 5 58.96 6.67
6 -1 -5 60.07 6.26
6 -1 -4 96.08 9.34
-6 1 4 104.02 9.2
-6 1 4 89.45 7.53
6 -1 -4 84.37 6.74
6 -1 -3 1659.81 45.17
-6 1 3 1748.44 45.35
-6 1 3 1693.47 39.82
6 -1 -3 1655.55 38.47
6 -1 -2 1617.92 42.78
-6 1 2 1573.38 42.59
-6 1 2 1545.64 34.76
6 -1 -2 1456.13 33.31
6 -1 -1 76.8 7.74
-6 1 1 69.67 7.53
-6 1 1 60.66 4.14
-6 1 0 1.88 0.79
-6 1 0 1.61 1.74
-6 1 0 2.03 0.76
6 -1 1 65.64 7.62
-6 1 -2 18.08 1.42
-6 1 -2 18.33 1.32
6 -1 2 17.35 4.16
-6 1 -3 1050.68 21.99
-6 1 -3 1017.78 21.36
6 -1 4 243.95 17.61
6 -1 5 17.14 5.35
6 -1 6 4.87 3.62
-6 0 11 34.95 7.97
-6 0 11 31.97 7.33
-6 0 10 60.67 9.42
-6 0 9 623.92 29.14
-6 0 8 226.26 16
-6 0 7 3.48 3.1
-6 0 6 132.03 10.68
6 0 -6 135.63 10.03
-6 0 5 55.81 6.56
-6 0 5 69.35 7.72
6 0 -5 66.72 6.45
6 0 -4 -0.17 1.13
6 0 -4 -0.58 3.22
-6 0 4 6.82 3.17
-6 0 4 4.92 2.38
6 0 -3 4.98 1.53
6 0 -3 6.62 3.76
-6 0 3 11.7 3.33
-6 0 3 6.67 2.12
6 0 -2 123.76 9.79
-6 0 2 113.02 9.47
-6 0 2 112.19 6.79
-6 0 1 59.72 4.85
6 0 -1 75.14 8.23
-6 0 1 80.11 8.07
-6 0 1 72.58 4.86
-6 0 0 -0.55 0.7
-6 0 0 0.66 0.87
6 0 0 -0.32 2.49
6 0 1 98.74 9.43
-6 0 -1 102.66 5.72
-6 0 -1 103.94 5.48
6 0 2 110.7 10.59
-6 0 -2 109.89 6.35
-6 0 -2 104.16 5.77
-6 0 -2 114.52 5.9
-6 0 -3 0.3 0.68
6 0 3 -1.86 3.49
6 0 4 109.67 11.67
6 0 5 54.25 8.8
-6 -1 11 264.49 20.23
-6 -1 10 131.01 13.37
-6 -1 9 115.45 11.83
-6 -1 8 307.16 18.61
-6 -1 7 42.43 6.89
-6 -1 6 513.82 22.05
6 1 -6 547.79 21.48
6 1 -5 0.24 1.22
-6 -1 5 -0.2 2.25
-6 -1 5 3.05 2.18
-6 -1 4 40.92 4.88
-6 -1 4 47.38 6.21
6 1 -4 40.7 6.85
6 1 -4 42.4 4.79
6 1 -3 654.72 24.77
-6 -1 3 683.59 25.12
-6 -1 3 671.61 21.15
6 1 -3 614.63 19.87
6 1 -2 803.84 28.33
-6 -1 2 800.37 23.32
-6 -1 1 868.05 25.35
6 1 -1 892.38 30.25
-6 -1 1 918.67 31.1
-6 -1 1 916.42 24.4
-6 -1 0 271.54 11.74
6 1 0 261.46 15.34
-6 -1 0 269.1 11.15
-6 -1 -1 5.49 1.7
-6 -1 -1 3.86 1.57
6 1 1 1.1 2.1
6 1 2 22.58 4.9
-6 -1 -2 26.17 3.43
6 1 3 312.6 19.4
6 1 4 480.36 25.9
6 1 5 130.88 13.85
-6 -2 12 35.81 8.13
-6 -2 11 18.13 5.53
-6 -2 10 94.6 11.46
-6 -2 9 1274.51 44.36
-6 -2 8 466.46 23.45
-6 -2 7 610.13 25.79
-6 -2 6 310.23 16.67
6 2 -6 312.36 15.88
-6 -2 5 28.07 4.63
6 2 -5 34.81 4.83
-6 -2 5 38.61 5.99
-6 -2 4 36.46 5.03
6 2 -4 35 6.06
-6 -2 4 37.99 5.5
6 2 -4 35.56 4.5
6 2 -3 359.91 17.69
-6 -2 3 379.39 18.18
-6 -2 3 372.32 15.83
-6 -2 3 383.34 17
-6 -2 2 220.58 12.25
6 2 -2 237.93 14.17
-6 -2 2 238.23 14.35
-6 -2 2 235.54 11.71
-6 -2 1 229.78 12.29
-6 -2 1 233.28 11.63
6 2 0 91.58 8.9
-6 -2 0 88.52 7.35
-6 -2 0 91.06 7
6 2 1 120.61 10.63
-6 -2 -1 110.6 8.43
-6 -2 -1 122.2 8.29
-6 -2 -2 7.32 2.24
6 2 2 7.39 3.04
6 2 3 67.07 8.96
6 2 4 62.09 9.12
-6 -3 12 9.81 4.89
-6 -3 11 109.98 12.91
-6 -3 10 3.97 3.7
-6 -3 9 88.16 10.64
-6 -3 8 8.14 3.1
-6 -3 7 6.9 3.23
-6 -3 6 35.47 5.93
-6 -3 5 23.02 4.27
6 3 -5 25.91 4.28
-6 -3 5 23.91 4.65
6 3 -4 180.23 12.29
-6 -3 4 182.11 12.18
-6 -3 4 163.73 11.06
-6 -3 4 169.4 12.08
-6 -3 3 11.42 2.96
-6 -3 3 10.3 2.87
6 3 -3 15.71 4.42
-6 -3 3 9.96 3.17
-6 -3 2 94.73 8.54
6 3 -2 89.43 8.6
-6 -3 2 87.71 8.57
-6 -3 2 91.09 7.76
6 3 -1 284.61 15.76
-6 -3 1 254.29 14.31
-6 -3 1 274.22 13.93
6 3 0 105.76 9.77
-6 -3 0 97.56 8.78
-6 -3 0 103.5 8.4
6 3 1 205.61 14.34
-6 -3 -1 231.83 13.02
-6 -3 -2 10.17 2.89
6 3 2 11.13 3.75
6 3 3 121.21 12.23
6 3 4 31.62 6.49
-6 -4 12 66.61 10.86
-6 -4 11 67.75 10.28
-6 -4 10 275.68 19.74
-6 -4 9 365.13 21.74
-6 -4 8 69.77 8.82
-6 -4 7 708.92 28.6
-6 -4 6 628.91 25.71
-6 -4 5 32.86 5.36
-6 -4 5 31.23 5.14
6 4 -4 289.09 15.87
-6 -4 4 302.39 16.24
-6 -4 4 309.22 16.31
-6 -4 3 2.92 1.74
6 4 -3 -0.1 2.43
-6 -4 3 1.99 1.47
-6 -4 2 12.75 3.27
6 4 -2 14.62 3.7
6 4 -1 153.71 11.56
-6 -4 1 148.39 10.95
6 4 0 554.42 23.68
-6 -4 0 520.79 22.27
6 4 1 99.2 9.92
-6 -4 -1 82.33 8.36
-6 -4 -2 4.17 2.48
6 4 2 2.85 2.49
6 4 3 47.13 7.6
-6 -5 11 3.9 2.84
-6 -5 10 37.31 7.47
-6 -5 9 2.35 2.53
-6 -5 8 7.03 3.54
-6 -5 7 127.68 11.76
-6 -5 6 238.71 15.69
-6 -5 5 15.72 3.99
-6 -5 5 9.8 2.74
-6 -5 4 20.99 4.56
6 5 -4 23.47 5.02
-6 -5 4 23.61 4.49
-6 -5 3 38.9 5.92
6 5 -3 49.93 6.47
-6 -5 3 39.71 5.82
-6 -5 2 3.6 2.23
6 5 -2 3.71 2.46
-6 -5 1 26.43 5.02
6 5 -1 37.46 5.85
6 5 0 92.73 9.38
-6 -5 0 94.65 9.68
6 5 1 88.32 9.38
-6 -5 -1 91.37 9.66
-6 -6 11 23.99 6.63
-6 -6 10 103.94 12.38
-6 -6 9 151.79 14.24
-6 -6 8 207.24 16.11
-6 -6 7 458.49 24.03
-6 -6 6 11.96 3.9
-6 -6 5 155.02 13.03
-6 -6 4 154.2 12.89
6 6 -3 273.83 15
-6 -6 3 274.62 17.44
-6 -6 2 32.88 6.07
6 6 -2 26.84 4.67
-6 -6 1 9.5 3.62
-6 -6 0 182.66 14.8
-6 -6 -1 22.13 5.2
-6 -7 10 258.57 20.12
-6 -7 9 29.34 6.48
-6 -7 8 17.91 4.86
-6 -7 7 357.63 22.03
-6 -7 6 168.37 14.58
-6 -7 5 34.34 6.67
-6 -7 4 84.68 10.19
-6 -7 3 4.72 3.07
-6 -7 2 2.93 2.39
-6 -7 1 96.81 11.31
-6 -8 8 141.84 14.63
-6 -8 7 3.25 2.68
-6 -8 6 61.09 9.34
-6 -8 5 36.73 7.25
-6 -8 4 15.06 4.77
-7 12 -1 34.02 6.87
-7 11 1 8.41 3.7
-7 11 0 40.77 7.26
-7 11 -1 174.31 14.34
-7 10 3 0.11 2.42
-7 10 2 169.05 15.16
-7 10 1 130.21 12.66
-7 10 0 38.7 6.58
-7 10 -1 44.66 6.64
-7 10 -2 2.65 1.73
7 -10 2 7.03 3.29
7 -10 3 6.15 3.16
7 -10 4 15.51 4.41
7 -10 5 189.06 15.14
7 -10 6 0.69 2.4
-7 9 4 0.85 2.23
-7 9 3 13.71 4.34
-7 9 2 10.11 3.53
-7 9 1 9.47 3.26
-7 9 0 2.53 1.53
7 -9 0 7.79 3.75
-7 9 -1 2.3 1.21
7 -9 1 8.99 3.48
7 -9 2 196.37 14.23
-7 9 -2 169.73 11.24
7 -9 3 153.63 12.9
-7 9 -3 164.28 11.87
-7 9 -4 1.92 2.07
7 -9 4 3.52 2.7
7 -9 5 178.67 15.22
-7 9 -5 204.43 15.23
7 -9 6 82.6 10.86
-7 9 -6 80.34 9.96
-7 8 5 502.13 27.36
-7 8 4 217.94 16.66
-7 8 3 61.49 8.29
-7 8 2 60.5 7.78
7 -8 -1 321.64 18.35
-7 8 1 346.97 18.18
-7 8 0 179.22 12.02
7 -8 0 184.63 13.43
-7 8 -1 227.54 12.57
-7 8 -1 216.87 12.02
7 -8 1 225.55 15.05
-7 8 -2 23.4 4.36
7 -8 2 27.06 5.28
7 -8 2 33.8 3.87
-7 8 -2 34.34 4.3
-7 8 -3 8.18 2.96
7 -8 3 15.84 4.58
7 -8 4 138.84 12.85
-7 8 -4 142.83 12.17
7 -8 5 181.71 15.45
-7 8 -5 177.35 14.49
-7 8 -6 154.6 14.2
7 -8 6 148.18 14.94
-7 7 6 103.17 11.86
-7 7 5 138.9 13.16
-7 7 4 2.44 2.32
-7 7 3 11.66 3.76
-7 7 2 44.6 3.36
-7 7 2 53.84 6.83
-7 7 1 26.33 4.52
7 -7 -1 28.07 5.75
7 -7 -1 25.21 4.31
-7 7 0 512.75 19.47
7 -7 0 496.58 22.87
-7 7 0 510.64 18.91
7 -7 0 456.55 17.86
7 -7 1 128.75 11.32
-7 7 -1 110.26 9.25
7 -7 1 123.12 7.42
7 -7 2 571.54 25.57
-7 7 -2 562.13 23.96
7 -7 2 596.99 14.84
-7 7 -3 8.48 3.11
7 -7 3 6.43 3.4
-7 7 -4 8.45 3.18
7 -7 4 4.3 2.72
-7 7 -5 3.81 2.81
7 -7 5 0.53 2.79
-7 7 -6 8.76 3.92
7 -7 6 7.51 3.56
-7 6 7 -0.34 2.35
-7 6 6 103.65 11.53
-7 6 5 211.24 15.54
-7 6 4 446.51 21.78
-7 6 3 2.92 0.95
-7 6 3 4.6 2.41
7 -6 -3 0.84 1.89
7 -6 -2 211.38 14.74
-7 6 2 218.52 12.92
7 -6 -2 195.72 12.06
7 -6 -1 160.95 12.5
-7 6 1 166.58 10.23
7 -6 -1 155.3 9.6
-7 6 0 22.35 3.41
7 -6 0 21 4.99
7 -6 0 21.33 3.06
-7 6 -1 492.87 15.16
7 -6 1 492.43 23.1
7 -6 1 509.2 13.03
7 -6 1 493.96 12.47
7 -6 2 78.43 8.97
7 -6 3 23.86 5.21
-7 6 -3 24.1 5.05
-7 6 -4 68.46 9.11
7 -6 4 69.05 9.22
-7 6 -5 211.47 16.85
7 -6 5 222.97 17.68
7 -6 6 139.31 14.85
-7 6 -6 139.62 14.21
-7 5 8 57.1 9.17
-7 5 7 52.92 8.44
-7 5 6 124.07 12.21
-7 5 5 517.8 24.14
-7 5 4 257.55 15.49
7 -5 -3 434.34 21.84
-7 5 3 429.7 19.13
7 -5 -3 450.17 19.17
7 -5 -2 205.72 14.26
-7 5 2 204.31 11.54
7 -5 -2 210.8 11.39
-7 5 1 14.56 2.82
7 -5 -1 9.77 3.75
7 -5 -1 10.79 2.27
-7 5 0 823.81 22.34
7 -5 0 765.08 30.56
7 -5 1 12.83 4.26
7 -5 2 253.16 16.55
7 -5 3 50.52 7.82
7 -5 4 39.92 7.32
7 -5 5 0.65 2.61
-7 5 -5 -0.04 2.05
-7 5 -6 14.41 4.9
7 -5 6 9.69 4.49
-7 4 9 0.09 2.34
-7 4 8 -1.37 2.98
-7 4 7 17.7 4.91
-7 4 6 7.97 3.48
-7 4 5 28.76 5.25
-7 4 4 38.92 5.72
7 -4 -4 33.39 5.02
7 -4 -3 14.44 5.11
-7 4 3 8.87 2.67
7 -4 -3 13.32 2.91
7 -4 -2 745.7 28.32
-7 4 2 733.54 22.86
7 -4 -2 673.73 20.9
7 -4 -1 121.69 10.88
-7 4 1 114.92 6.91
7 -4 -1 108.19 5.65
-7 4 0 46.03 3.19
7 -4 0 59.13 7.51
7 -4 1 173.77 13.23
7 -4 2 58.23 8.03
7 -4 3 41.96 7.18
7 -4 4 95.14 11.16
7 -4 5 108.46 12.68
-7 4 -6 109.45 13.34
-7 3 10 137.26 15.06
-7 3 9 88.4 11.43
-7 3 8 250.88 18.22
-7 3 7 231.26 16.49
-7 3 6 431.15 21.59
7 -3 -5 316.24 16.35
-7 3 5 320.26 17.15
-7 3 4 16.8 3.77
7 -3 -4 9.98 2.69
7 -3 -4 9.29 4.58
7 -3 -3 1058.89 35.7
7 -3 -3 1039.66 28.23
-7 3 3 1023.01 30.04
7 -3 -2 624.55 25.71
7 -3 -2 615.24 18.01
-7 3 2 645.03 20.04
7 -3 -1 1555.78 45.53
-7 3 1 1574.78 34.28
7 -3 -1 1516.82 30.69
-7 3 0 34.24 1.87
-7 3 0 31.04 1.8
7 -3 1 12.17 4.34
7 -3 2 292.6 18.19
7 -3 3 21.47 5.35
7 -3 4 164.74 14.91
7 -3 5 52.83 8.92
-7 2 10 16.42 5.15
-7 2 9 114.92 12.56
-7 2 8 256.7 17.92
-7 2 7 107.38 10.5
-7 2 7 114.95 11.23
-7 2 6 12.53 3.89
7 -2 -5 46.69 5.71
-7 2 5 42.88 5.79
7 -2 -4 315.95 18.12
-7 2 4 290.83 14.11
7 -2 -4 308.43 13.94
7 -2 -3 4.91 1.44
-7 2 3 4.94 2.05
7 -2 -2 0.73 0.9
7 -2 -2 -3.81 4.51
-7 2 2 -0.57 1.24
7 -2 -1 420.66 20.72
-7 2 1 435.5 13.35
-7 2 0 62.48 2.55
7 -2 0 66.93 8.16
-7 2 0 62.03 2.56
7 -2 1 0.75 2.28
7 -2 2 39.5 6.8
7 -2 3 19.52 4.73
7 -2 4 13.46 4.41
7 -2 5 121.45 13.64
-7 1 10 17.89 5.72
-7 1 9 143.5 13.66
-7 1 8 75.93 9.41
-7 1 7 202.89 14.48
-7 1 6 415.71 19.89
-7 1 5 96.7 8.74
7 -1 -5 99.28 8.18
7 -1 -4 155.93 13.01
-7 1 4 138.73 9.36
7 -1 -4 133.37 8.7
7 -1 -3 110.71 10.45
-7 1 3 131.86 8.23
7 -1 -3 117.16 7.24
7 -1 -2 989.51 34.23
-7 1 2 1044.23 26.19
-7 1 1 448.78 14.22
7 -1 -1 397.52 20.32
-7 1 1 443.25 12.96
-7 1 0 148.72 5.96
7 -1 0 127.39 11.36
-7 1 0 146.16 4.95
7 -1 1 191.49 14.08
7 -1 2 57.11 8.19
7 -1 3 28.01 5.99
7 -1 4 79.46 10.5
-7 0 11 105.92 12.78
-7 0 10 43.1 8.06
-7 0 9 40.47 7.25
-7 0 8 313.35 19.26
-7 0 7 704.7 28.59
-7 0 6 89.08 8.99
7 0 -6 90.22 8.27
-7 0 5 321.41 16.34
7 0 -5 325.13 15.24
7 0 -4 206.29 14.48
-7 0 4 225.93 12.33
7 0 -4 210.1 11.11
7 0 -3 23.71 3.28
7 0 -3 15.9 5.07
-7 0 3 26.12 3.81
7 0 -2 742.88 28.62
-7 0 2 742.27 21.73
-7 0 2 758.38 23.05
-7 0 1 122.22 7.37
7 0 -1 110.26 10.54
-7 0 1 122.55 6.75
-7 0 0 31.94 3.46
7 0 0 40.03 6.71
7 0 1 325.54 18.99
-7 0 -1 325.33 10.76
7 0 2 40.57 6.84
7 0 3 15.05 4.6
7 0 4 11.27 4.34
-7 -1 11 7.21 4.22
-7 -1 10 54.21 9.03
-7 -1 9 3.99 3.68
-7 -1 8 0.86 2.92
-7 -1 7 49.9 7.34
-7 -1 6 21.69 4.8
7 1 -5 291.54 17.52
-7 -1 5 270.76 14.8
7 1 -5 272.84 14.02
-7 -1 4 2.71 1.66
7 1 -4 3.5 1.74
7 1 -3 63.65 8
-7 -1 3 64.44 6.08
-7 -1 3 73.6 7.02
-7 -1 2 4.99 1.8
7 1 -2 3.05 2.96
7 1 -1 187.94 13.81
-7 -1 1 199.41 10.02
7 1 0 143.76 12.2
-7 -1 0 142.83 8.66
-7 -1 0 145.59 8.26
7 1 1 61.11 8.3
-7 -1 -1 66.12 5.36
7 1 2 10.37 3.93
7 1 3 1.25 2.72
7 1 4 313.74 21.87
-7 -2 11 39.19 8.17
-7 -2 10 38.08 7.69
-7 -2 9 94.05 11.22
-7 -2 8 1484.63 47.39
-7 -2 7 158.17 12.71
-7 -2 6 128.72 10.73
7 2 -5 115.34 11.11
-7 -2 5 105.91 9.12
7 2 -5 97.23 8.26
-7 -2 4 26.81 4.32
7 2 -4 39.78 6.78
-7 -2 4 39.48 5.69
-7 -2 3 1218.88 36.67
7 2 -3 1303.59 40.24
-7 -2 3 1289.64 35.5
-7 -2 2 985.91 31.4
7 2 -2 1039.89 35.48
-7 -2 2 1082.67 30.37
-7 -2 1 44.93 5.5
7 2 -1 33.93 5.85
-7 -2 1 37.5 4.61
-7 -2 0 9.7 2.45
7 2 0 12.69 4.03
7 2 1 127 12.11
-7 -2 -1 146.45 9.41
7 2 2 52.91 8.15
7 2 3 234.85 17.93
-7 -3 11 10.82 5.02
-7 -3 10 24.82 6.13
-7 -3 9 166.59 14.82
-7 -3 8 36.88 6.57
-7 -3 7 65.7 8.26
-7 -3 6 3.98 2.63
-7 -3 5 5.51 2.8
7 3 -5 7.92 4.42
-7 -3 4 0.37 1.38
7 3 -4 0.49 3.1
7 3 -3 71.19 8.51
-7 -3 3 84.24 7.89
-7 -3 2 20.33 3.81
-7 -3 2 15.62 3.74
7 3 -2 15.98 4.31
-7 -3 1 19.08 3.74
7 3 -1 26.71 5.27
-7 -3 0 17.29 3.54
7 3 0 18.3 4.71
7 3 1 25.56 5.59
7 3 2 35 6.76
7 3 3 -0.88 2.42
-7 -4 11 176.98 16.93
-7 -4 10 71.25 10.24
-7 -4 9 251.92 18.33
-7 -4 8 161.72 13.96
-7 -4 7 140.92 12.28
-7 -4 6 843.77 31.63
-7 -4 5 5.91 2.64
-7 -4 4 0.28 1.36
7 4 -4 1.57 3.01
7 4 -3 92.53 9.64
-7 -4 3 90.84 8.89
7 4 -2 615.28 25.93
-7 -4 2 569.47 23.69
7 4 -1 273.6 17.18
-7 -4 1 296.19 16.3
7 4 0 262.49 17.12
-7 -4 0 226.6 14.47
7 4 1 10.69 4.04
7 4 2 5.91 3.44
-7 -5 11 46.77 8.92
-7 -5 10 24.06 6.45
-7 -5 9 250.98 18.77
-7 -5 8 233.92 17.22
-7 -5 7 255.13 17.31
-7 -5 6 118.07 11.39
-7 -5 5 3.08 2.13
-7 -5 4 31.4 5.87
7 5 -4 44.26 6.72
7 5 -3 266.94 16.27
-7 -5 3 227.25 15.38
7 5 -2 97.68 9.77
-7 -5 2 74.63 8.59
7 5 -1 135.59 11.88
-7 -5 1 146.54 12.22
-7 -6 10 7.43 3.57
-7 -6 9 60.76 9.33
-7 -6 8 33.89 6.89
-7 -6 7 34.2 6.66
-7 -6 6 162.5 14.09
-7 -6 5 104.57 10.99
-7 -6 4 -3.18 2.83
-7 -6 3 4.27 2.62
-7 -6 2 44.58 7.18
-7 -6 1 34.96 6.55
-7 -7 8 11.02 4.06
-7 -7 7 227.9 17.91
-7 -7 6 166.32 14.84
-7 -7 5 125.02 12.8
-7 -7 4 94.69 11.13
-7 -7 3 56.11 8.52
-7 -7 2 68 9.46
-8 11 1 0.12 1.82
-8 10 3 23.78 5.89
-8 10 2 86.25 10.52
-8 10 1 354.15 20.84
-8 10 0 174.01 13.5
8 -10 2 43.15 7.3
8 -10 3 -4.15 3.41
8 -10 4 327.56 21.24
8 -10 5 34.27 7.08
-8 9 4 10.03 4.22
-8 9 3 5.04 3.22
-8 9 2 78.46 9.4
-8 9 1 36.09 6.21
-8 9 0 4.95 2.71
8 -9 0 4.9 3.6
8 -9 1 64.69 8.83
8 -9 2 16.36 4.81
-8 9 -2 13.09 3.5
-8 9 -3 0.78 1.47
8 -9 3 -4.94 4.12
-8 9 -4 9.65 3.42
8 -9 4 10.62 4.24
-8 9 -5 3.88 2.82
8 -9 5 1.44 2.42
-8 8 5 19.94 5.46
-8 8 4 183.13 15.14
-8 8 3 213.48 15.5
-8 8 2 111.29 10.45
8 -8 -1 87.24 10.14
-8 8 1 80.13 8.22
-8 8 0 54.86 6.28
8 -8 0 48.22 7.55
-8 8 0 53.02 5.79
8 -8 1 336.14 20.11
-8 8 -1 347.08 17.25
8 -8 2 3.02 2.69
-8 8 -2 4.97 2.59
8 -8 3 285.42 19.25
-8 8 -3 288.66 18
8 -8 4 31.64 6.95
-8 8 -4 40.53 6.92
8 -8 5 115.36 13.12
-8 8 -5 129.32 13.1
-8 7 6 294.21 20.41
-8 7 5 53.18 8.12
-8 7 4 -0.63 2.11
-8 7 3 3.52 1.9
8 -7 -2 568.99 27.16
-8 7 2 630.38 24.6
8 -7 -1 406.87 22.22
-8 7 1 441.94 17.94
-8 7 1 452.67 18.89
-8 7 0 239.49 12.03
-8 7 0 245.64 14.1
8 -7 0 227.63 16.34
-8 7 -1 168.11 12.45
8 -7 1 153.72 13.54
-8 7 -2 -0.63 1.78
8 -7 2 3.13 2.73
-8 7 -3 6.91 3
8 -7 3 15.23 5.02
-8 7 -4 67.3 9.43
8 -7 4 79.72 10.51
-8 7 -5 62.72 9.34
8 -7 5 78.51 11.06
-8 6 7 1.11 2.43
-8 6 6 26.43 5.98
-8 6 5 0.97 2.18
-8 6 4 150.7 12.22
8 -6 -3 154.46 13.66
-8 6 3 149.45 11.26
8 -6 -3 134.99 10.58
-8 6 2 11.77 3.13
8 -6 -2 15.14 5.12
8 -6 -2 6.51 2.21
-8 6 1 20.95 3.52
8 -6 -1 27.87 5.99
-8 6 0 169.27 8.66
8 -6 0 168.41 13.96
8 -6 1 28 5.88
8 -6 2 94.1 10.75
8 -6 3 1.42 2.7
8 -6 4 3.74 3.17
-8 6 -4 0.27 1.84
-8 6 -5 380.57 24.73
8 -6 5 381.31 25.06
-8 5 8 20.69 5.7
-8 5 7 104.64 11.96
-8 5 6 172.34 14.37
-8 5 5 244.15 16.24
-8 5 4 105.55 9.77
8 -5 -3 33.21 6.65
-8 5 3 39.31 5.46
8 -5 -3 30.54 4.57
8 -5 -2 124.41 11.99
-8 5 2 119.36 8.5
8 -5 -2 114.22 7.63
8 -5 -1 377.54 21.02
-8 5 1 378.2 14.27
8 -5 -1 382.03 12.12
-8 5 0 1366.43 28.89
8 -5 0 1234.41 43.14
8 -5 1 730.35 30.89
8 -5 2 97.93 11.07
8 -5 3 2.2 2.62
8 -5 4 65.04 9.75
-8 4 9 18.18 5.91
-8 4 8 28.64 6.66
-8 4 7 199.42 15.86
-8 4 6 449.59 22.99
-8 4 5 331.98 18.34
8 -4 -4 171.18 14.3
8 -4 -4 150.45 10.53
-8 4 4 159.11 11.56
8 -4 -3 103.51 11.07
-8 4 3 106.99 8.49
8 -4 -3 91.92 7.16
-8 4 2 22.44 3.51
8 -4 -2 27.22 3.25
8 -4 -1 113.01 11.3
-8 4 1 103.26 6.26
8 -4 -1 116.02 4.39
8 -4 0 745.91 31.11
8 -4 1 73.64 9.48
8 -4 2 46.35 7.7
8 -4 3 -1.97 2.53
8 -4 4 -4.76 3.99
-8 3 9 39.58 7.72
-8 3 8 69.54 9.67
-8 3 7 2.29 2.59
-8 3 6 9.26 3.58
8 -3 -5 99.07 8.73
-8 3 5 121.23 10.5
8 -3 -4 824.89 32.9
8 -3 -4 798.98 25.53
-8 3 4 784.76 27.33
8 -3 -3 26.45 3.58
8 -3 -3 28.59 6.32
-8 3 3 32.51 4.61
8 -3 -2 36.85 6.71
-8 3 2 42.95 4.62
8 -3 -2 43.79 3.72
8 -3 -1 187.99 14.57
-8 3 1 212.36 8.53
8 -3 0 667.03 29.01
8 -3 1 845.69 34.02
8 -3 2 89.84 10.71
8 -3 3 23.66 5.91
8 -3 4 71.91 10.55
-8 2 10 299.95 22.11
-8 2 9 47.45 8.22
-8 2 8 92.76 11.03
-8 2 7 55.57 7.82
-8 2 7 62.7 8.26
-8 2 6 320.56 17.53
-8 2 5 383.35 17.87
8 -2 -5 344.32 16.45
8 -2 -4 4.22 1.73
-8 2 4 4.54 2.18
8 -2 -3 600.39 26.71
-8 2 3 614.63 19.65
8 -2 -3 587.11 18.76
8 -2 -2 147.4 12.95
-8 2 1 28.75 2.88
8 -2 -1 28.93 6.08
-8 2 1 25.61 2.77
8 -2 0 635.6 28.27
8 -2 1 336.42 20.47
8 -2 2 202.88 16.3
8 -2 3 4.37 3.12
-8 1 10 48.52 8.93
-8 1 10 63.03 9.66
-8 1 9 35.2 7.32
-8 1 8 56.11 8.43
-8 1 7 16.49 4.34
-8 1 6 674.51 26.61
8 -1 -5 17.63 3.58
-8 1 5 25.11 4.59
8 -1 -4 27.97 4.07
-8 1 4 40.36 6.6
8 -1 -4 26.8 6.48
-8 1 3 66.94 6.03
8 -1 -3 60.8 8.55
8 -1 -3 67.6 5.42
8 -1 -2 462.77 23.44
-8 1 2 482.4 15.61
-8 1 2 478.02 16.91
-8 1 1 10.49 2.01
8 -1 -1 8.92 3.29
-8 1 1 9.93 1.66
8 -1 0 157.77 13.59
8 -1 1 49.47 8.09
8 -1 2 83.52 10.52
8 -1 3 2.42 2.23
-8 0 11 116.08 13.76
-8 0 10 36.15 7.66
-8 0 9 62.88 9.3
-8 0 8 133.34 12.49
-8 0 7 159.29 12.92
-8 0 6 682.2 26.91
8 0 -5 133.3 12.94
-8 0 5 141.72 10.83
8 0 -5 133.44 9.66
8 0 -4 145.61 12.96
-8 0 4 136.77 9.74
8 0 -4 123.97 8.54
8 0 -3 9.46 3.89
-8 0 3 7.46 2.31
-8 0 3 6.15 2.25
8 0 -2 2.96 3.07
-8 0 2 3.29 1.81
8 0 -1 628.76 28.39
-8 0 1 651.63 18.91
8 0 0 564.05 26.89
8 0 1 414.83 23.26
8 0 2 43.96 7.73
8 0 3 147.08 14.57
-8 -1 11 107.96 13.27
-8 -1 10 15.06 5.42
-8 -1 9 101.68 11.61
-8 -1 8 12.71 4.48
-8 -1 7 187.94 14.31
-8 -1 6 91.9 9.35
8 1 -5 26.16 4.3
-8 -1 5 23.23 4.44
8 1 -4 352.96 20.08
-8 -1 4 341.28 16.51
-8 -1 4 364.99 18.01
-8 -1 3 40.96 5.39
-8 -1 3 36.11 4.68
8 1 -3 46.32 7.62
-8 -1 2 13.2 2.76
-8 -1 2 15.2 3.2
8 1 -2 9.56 3.93
-8 -1 1 25.94 3.64
8 1 -1 19.54 5.11
8 1 0 10.89 4.64
8 1 1 19.57 5.3
8 1 2 3.82 3.33
-8 -2 11 0.37 3.28
-8 -2 10 9.29 4.46
-8 -2 9 29.05 6.58
-8 -2 8 15.3 4.65
-8 -2 7 65.08 8.4
-8 -2 6 149.5 12.05
8 2 -5 217.27 15.97
-8 -2 5 218.84 13.99
8 2 -4 79.26 9.68
-8 -2 4 82.42 7.86
-8 -2 3 3.21 2.11
8 2 -3 8.8 4.47
-8 -2 2 20.88 3.7
8 2 -2 31.56 6.19
8 2 -1 128.96 12.69
-8 -2 1 169.63 10.34
8 2 0 335.1 20.73
8 2 1 278.34 19.18
8 2 2 182.99 16.09
-8 -3 11 132.32 14.71
-8 -3 10 302.84 21.72
-8 -3 9 9.6 4.24
-8 -3 8 64.17 8.85
-8 -3 7 58.75 8.13
-8 -3 6 165.32 12.94
8 3 -5 500.6 24.64
-8 -3 5 431.07 20.87
8 3 -4 167.15 13.92
-8 -3 4 168.57 12.04
-8 -3 3 20.58 4.1
8 3 -3 27.49 5.99
-8 -3 2 1.53 1.3
8 3 -2 -3.66 3.23
8 3 -1 27.31 6.13
8 3 0 38.97 7.16
8 3 1 105.95 11.82
-8 -4 10 17.38 5.89
-8 -4 9 30.92 6.73
-8 -4 8 6.78 3.21
-8 -4 7 12.49 3.98
-8 -4 6 3.8 2.65
-8 -4 5 14.83 4.01
8 4 -5 15.99 5.11
-8 -4 4 7.35 2.73
8 4 -4 11.37 4.39
-8 -4 3 12.51 3.49
8 4 -3 10.91 4.31
-8 -4 2 0.89 1.57
8 4 -2 -0.04 2.49
8 4 -1 82.55 9.98
8 4 0 27.2 6.04
-8 -5 10 2.35 2.36
-8 -5 9 78.32 10.68
-8 -5 8 174.22 15.2
-8 -5 7 122.35 12.31
-8 -5 6 125.6 11.99
-8 -5 5 15.48 4.49
8 5 -4 111.56 11.1
-8 -5 4 98.3 10.33
8 5 -3 157 13.43
-8 -5 3 158.17 13.04
-8 -6 9 238.42 19.02
-8 -6 8 12.95 4.58
-8 -6 7 6.04 2.9
-8 -6 6 0.2 1.7
-8 -6 5 56.86 8.4
-8 -6 4 -0.88 2.62
-8 -6 3 82.03 10.03
-9 10 3 34.68 7.06
9 -10 2 147.75 14.24
9 -10 3 -3.05 3.72
-9 9 4 70.27 9.75
-9 9 3 88.05 10.33
-9 9 2 43.63 6.93
9 -9 -1 271.05 19.31
9 -9 0 22.49 6.04
9 -9 1 24.02 6.15
9 -9 2 109.82 12.45
-9 9 -3 2.34 2.2
9 -9 3 1.12 2.71
-9 9 -4 43.01 7.45
-9 8 5 5.55 2.94
-9 8 4 3.47 2.41
-9 8 3 9.21 3.38
-9 8 2 8.26 2.9
9 -8 -2 7.4 4.13
9 -8 -1 11.62 4.85
9 -8 0 15.22 5.29
-9 8 -1 74.54 8.48
9 -8 1 72.18 9.97
-9 8 -2 16.74 4.31
9 -8 2 17.19 5.57
-9 8 -3 43.32 7.42
9 -8 3 50.79 8.88
-9 8 -4 32.65 6.6
-9 7 6 52.33 8.57
-9 7 5 82.03 10.04
-9 7 4 290.78 18.13
-9 7 3 7.56 2.72
9 -7 -2 131.21 13.19
-9 7 2 121.88 9.89
9 -7 -1 264.7 18.65
9 -7 0 8.25 4.4
9 -7 1 362.56 22.75
9 -7 2 33.01 7.46
-9 7 -2 42.74 7.32
-9 7 -3 65.57 9.42
9 -7 3 65.81 9.96
-9 7 -4 145.32 14.69
-9 6 7 95.8 11.74
-9 6 6 11.7 4.15
-9 6 5 7.12 3.21
-9 6 4 143.58 11.82
-9 6 3 46.28 6.17
9 -6 -3 39.13 7.69
9 -6 -2 155.46 14.5
-9 6 2 187.58 11.45
9 -6 -1 3.46 3.78
9 -6 0 1.02 3.03
9 -6 1 94.79 11.35
9 -6 2 13.48 4.64
9 -6 3 6.3 3.01
-9 5 8 16.53 5.24
-9 5 7 8.17 4.03
-9 5 6 0.99 2.09
-9 5 5 39.22 6.59
-9 5 4 24.85 4.83
9 -5 -3 19.22 6.34
-9 5 3 16.86 3.58
9 -5 -2 284.18 19.24
-9 5 2 315.41 14.02
9 -5 -1 59.96 9.11
9 -5 0 37.61 7.41
9 -5 1 88.77 11
9 -5 2 57.69 9.28
9 -5 3 178.68 16.54
-9 4 8 294.19 20.95
-9 4 7 393.02 22.89
-9 4 6 206.3 15.27
-9 4 5 346.09 18.94
9 -4 -4 4.34 4.04
-9 4 4 2.4 2.13
9 -4 -3 5.58 4
-9 4 3 0.86 1.55
9 -4 -2 429.73 24.03
-9 4 2 456.07 16.48
9 -4 -1 144.38 13.69
9 -4 0 228.72 17.57
9 -4 1 47.49 8.26
9 -4 2 42.36 8.03
-9 3 9 27.42 6.55
-9 3 8 57.62 8.89
-9 3 7 71.76 9.43
-9 3 6 5.38 3.06
-9 3 5 14.19 3.96
9 -3 -4 16.24 3.2
9 -3 -4 17.17 5
-9 3 4 19.53 4.09
9 -3 -3 28.12 6.45
-9 3 3 30.1 4.39
9 -3 -2 18.85 5.97
-9 3 2 13.35 2.67
9 -3 -1 55.85 8.83
9 -3 0 6.97 3.42
9 -3 1 51.51 8.46
9 -3 2 106.18 12.46
-9 2 9 148.37 14.78
-9 2 8 64.62 9.23
-9 2 7 42.54 7.17
-9 2 7 32.41 6.1
-9 2 6 504.21 22.63
9 -2 -5 721.64 32.17
-9 2 5 701.35 25.34
-9 2 4 53.34 5.81
9 -2 -4 60.99 9.37
9 -2 -4 50.95 5.36
9 -2 -3 -0.01 3.33
9 -2 -2 46.26 7.85
-9 2 2 49.47 4.78
9 -2 -1 117.72 12.5
9 -2 0 200.1 16.56
9 -2 1 298.31 20.57
9 -2 2 236.27 18.73
-9 1 10 60.79 9.99
-9 1 10 76.42 10.77
-9 1 9 2.29 2.62
-9 1 8 36.04 6.93
-9 1 7 107.14 10.72
-9 1 6 486.56 22.41
9 -1 -5 432.01 24.32
-9 1 5 401.2 18.64
9 -1 -5 358.97 16.87
9 -1 -4 15.45 5.82
-9 1 4 11.24 2.87
9 -1 -3 12.32 5.17
-9 1 3 7.02 2.18
9 -1 -2 6.29 4.4
9 -1 -1 47.74 8.33
9 -1 0 168.19 15.14
9 -1 1 2.93 3.29
-9 0 10 59.52 9.78
-9 0 9 182.56 15.77
-9 0 8 13.14 4.68
-9 0 7 7.65 3.32
-9 0 6 1.45 1.91
9 0 -5 342.36 21.48
-9 0 5 302.02 16.25
9 0 -4 72.43 9.85
-9 0 4 65.4 6.93
-9 0 3 45.17 5.27
9 0 -3 35.39 7.18
9 0 -2 33.33 6.89
9 0 -1 0.74 3.1
9 0 0 102.3 12.15
9 0 1 205.13 17.27
-9 -1 10 250.1 19.59
-9 -1 9 50.79 8.52
-9 -1 8 63.52 9.09
-9 -1 7 95.83 10.45
-9 -1 6 608.24 26.1
9 1 -5 498.96 26.3
-9 -1 5 502.01 22.15
9 1 -4 131.75 13.33
-9 -1 4 107.22 9.09
9 1 -3 167.41 14.71
-9 -1 3 184.53 11.23
9 1 -2 -1.23 3.49
9 1 -1 77.39 10.45
9 1 0 4.96 2.63
-9 -2 10 7.8 3.39
-9 -2 9 19.07 5.67
-9 -2 8 155.87 14.14
-9 -2 7 4.92 3.28
-9 -2 6 61.93 7.85
-9 -2 5 11.94 3.81
9 2 -5 13.83 5.18
-9 -2 4 26.38 4.75
9 2 -4 24.09 6.49
9 2 -3 59.96 8.98
-9 -2 3 65.9 6.95
9 2 -2 -2.25 3.28
9 2 -1 1.04 3.24
9 2 0 -3.27 3.43
-9 -3 10 61.76 9.98
-9 -3 9 38.86 7.64
-9 -3 8 35.72 6.93
-9 -3 7 38.95 6.98
-9 -3 6 866.53 33.43
9 3 -5 337.43 21.39
-9 -3 5 314.16 18.03
9 3 -4 220.21 17.08
-9 -3 4 207.45 13.92
9 3 -3 4.94 3.76
9 3 -2 56.2 8.82
9 3 -1 21.26 5.92
-9 -4 10 81.88 11.51
-9 -4 9 6.12 3.43
-9 -4 8 0.03 2
-9 -4 7 29.53 6.19
-9 -4 6 64.03 8.47
9 4 -5 122.7 12.58
-9 -4 5 101.66 10.39
9 4 -4 82.99 10.63
-9 -4 4 69.35 8.45
9 4 -3 23.47 6.01
9 4 -2 35.25 7.26
-9 -5 9 128.34 14.03
-9 -5 8 0.9 2.64
-9 -5 7 3.91 2.32
-9 -5 6 53.9 8.1
-9 -5 5 284.88 18.7
-9 -6 6 106.61 12.01
10 -9 -1 35.39 7.46
10 -9 0 75.98 10.89
10 -9 1 37.57 8.03
-10 8 5 29.25 6.41
-10 8 4 8.61 3.24
10 -8 -2 27.66 7.19
10 -8 -1 137.06 14.47
10 -8 0 74.35 10.74
10 -8 1 16.81 5.47
-10 8 -2 0.58 1.85
-10 7 6 79.09 10.41
-10 7 5 24.6 5.51
-10 7 4 0.79 1.56
10 -7 -3 46.39 8.95
10 -7 -2 22.7 6.63
10 -7 -1 137.56 14.44
10 -7 0 33.86 7.83
10 -7 1 161.08 16.01
-10 6 7 30.97 6.75
-10 6 6 202.33 16.2
-10 6 5 68.16 8.68
-10 6 4 361.77 19.19
10 -6 -3 89.73 11.83
10 -6 -2 166.63 15.74
10 -6 -1 147.96 15
10 -6 0 141.26 14.85
10 -6 1 64.9 10.19
-10 5 8 28.93 6.74
-10 5 7 8.96 3.93
-10 5 6 2.67 2.63
-10 5 5 5.46 2.75
10 -5 -4 4.09 4.59
-10 5 4 3.88 2.29
10 -5 -3 8.77 5.46
10 -5 -2 27.96 6.69
10 -5 -1 37.32 7.89
10 -5 0 3.7 3.78
10 -5 1 21.97 6.09
-10 4 8 57.83 9.1
-10 4 7 178.43 15.36
-10 4 6 36.45 6.66
-10 4 5 77.1 8.74
10 -4 -4 316.95 22.12
-10 4 4 295.48 16.06
10 -4 -3 357.45 23.31
10 -4 -2 158.31 15.35
10 -4 -1 143.57 14.7
10 -4 0 52.34 9.22
-10 3 9 140.22 14.81
-10 3 8 152.9 14.72
-10 3 7 35.7 6.8
-10 3 6 14.5 4.36
10 -3 -5 77.47 11.26
-10 3 5 71.99 8.21
10 -3 -4 37.86 8.09
-10 3 4 28.98 4.85
10 -3 -3 204.69 17.51
10 -3 -2 300.35 21.06
10 -3 -1 1.85 3.36
10 -3 0 -1.22 3.33
-10 2 9 14.2 5.12
-10 2 8 54.66 8.73
-10 2 7 239.51 17.05
-10 2 6 18.18 4.57
-10 2 5 11.72 3.69
10 -2 -5 11.66 5.54
10 -2 -4 342.4 22.82
-10 2 4 324.44 16.34
10 -2 -3 29.78 7.07
10 -2 -2 141.13 14.49
10 -2 -1 9.26 3.82
10 -2 0 64.11 10.14
-10 1 10 7.51 3.58
-10 1 9 65.71 9.63
-10 1 8 92.27 10.62
-10 1 7 266.32 17.27
-10 1 6 124.47 10.91
10 -1 -5 135.3 14.43
-10 1 5 137.6 10.68
10 -1 -4 60.08 9.79
10 -1 -3 388.49 24.09
10 -1 -2 444.1 26.1
10 -1 -1 -5.2 4.75
-10 0 10 7.98 4.15
-10 0 9 155.52 14.76
-10 0 8 33.9 6.83
-10 0 7 31.52 6.12
-10 0 6 28.26 5.62
10 0 -5 168.72 16.26
-10 0 5 192.85 12.99
10 0 -4 3.2 3.32
10 0 -3 80.65 10.92
10 0 -2 1.33 3.68
10 0 -1 6.71 4.16
-10 -1 10 98.59 12.48
-10 -1 9 8.7 3.87
-10 -1 8 106.24 11.75
-10 -1 7 21.81 5.11
-10 -1 6 34.19 6.08
10 1 -5 382 24.48
10 1 -4 180.76 16.43
10 1 -3 501.24 27.97
10 1 -2 31.34 7.39
-10 -2 10 74.89 10.83
-10 -2 9 54.3 8.93
-10 -2 8 17.51 5.18
-10 -2 7 107.39 11.42
-10 -2 6 60.68 8.09
10 2 -5 3.98 4.07
10 2 -4 22.53 6.42
10 2 -3 102.71 12.55
-10 -3 9 27.55 6.72
-10 -3 8 60.33 9.19
-10 -3 7 33.45 6.65
-10 -3 6 14.89 4.6
10 3 -5 74.87 10.83
10 3 -4 176.71 16.38
-10 -4 8 67.68 9.86
-10 -4 7 21.54 5.58
10 4 -5 6.25 3.95
-11 5 7 40.04 7.58
-11 5 6 185.28 14.99
-11 4 8 85.74 11.23
-11 4 7 55.07 8.65
-11 4 6 76.76 9.43
-11 3 8 91.4 11.48
-11 3 7 10.21 3.95
-11 3 6 37.2 6.51
-11 2 8 106.08 12.07
-11 2 7 20.62 5.28
-11 2 6 6.76 3.19
-11 1 9 169.27 15.36
-11 1 8 42.25 7.48
-11 0 9 298.05 20.95
-11 0 8 137.45 13.41
-11 -1 9 8.08 4.08
