#------------------------------------------------------------------------------
#$Date: 2021-06-05 21:06:51 +0300 (Sat, 05 Jun 2021) $
#$Revision: 265938 $
#$URL: file:///home/coder/svn-repositories/cod/cif/7/24/25/7242583.cif $
#------------------------------------------------------------------------------
#
# This file is available in the Crystallography Open Database (COD),
# http://www.crystallography.net/
#
# All data on this site have been placed in the public domain by the
# contributors.
#
data_7242583
loop_
_publ_author_name
'Huang, Xing'
'Zhao, Zhiying'
'Zhang, Mengsi'
'He, Zhangzhen'
_publ_section_title
;
 Crystal-to-crystal transformation of a new selenite compound
 CaNi2(SeO3)3&#x00B7;2H2O induced by dehydration
;
_journal_issue                   17
_journal_name_full               CrystEngComm
_journal_page_first              3126
_journal_page_last               3132
_journal_paper_doi               10.1039/D1CE00190F
_journal_volume                  23
_journal_year                    2021
_chemical_formula_moiety         '0.5(Ca2 H6 Ni4 O21 Se6)'
_chemical_formula_sum            'Ca H3 Ni2 O10.5 Se3'
_chemical_formula_weight         565.40
_chemical_name_systematic        CaNi2(SeO3)3(1.5H2O)
_space_group_crystal_system      monoclinic
_space_group_IT_number           11
_space_group_name_Hall           '-P 2yb'
_space_group_name_H-M_alt        'P 1 21/m 1'
_atom_sites_solution_hydrogens   difmap
_audit_creation_date             2020-10-22
_audit_creation_method
;
Olex2 1.2
(compiled 2018.05.29 svn.r3508 for OlexSys, GUI svn.r5506)
;
_audit_update_record
;
2021-01-17 deposited with the CCDC.	2021-03-11 downloaded from the CCDC.
;
_cell_angle_alpha                90
_cell_angle_beta                 115.115(3)
_cell_angle_gamma                90
_cell_formula_units_Z            2
_cell_length_a                   7.7605(2)
_cell_length_b                   7.33360(10)
_cell_length_c                   8.9393(2)
_cell_measurement_reflns_used    4342
_cell_measurement_temperature    293(2)
_cell_measurement_theta_max      33.0470
_cell_measurement_theta_min      2.5290
_cell_volume                     460.66(2)
_computing_cell_refinement       'CrysAlisPro 1.171.39.46c (Rigaku OD, 2018)'
_computing_data_collection       'CrysAlisPro 1.171.39.46c (Rigaku OD, 2018)'
_computing_data_reduction        'CrysAlisPro 1.171.39.46c (Rigaku OD, 2018)'
_computing_molecular_graphics    'Olex2 (Dolomanov et al., 2009)'
_computing_publication_material  'Olex2 (Dolomanov et al., 2009)'
_computing_structure_refinement  'ShelXL (Sheldrick, 2015)'
_computing_structure_solution    'SHELXT 2014/5 (Sheldrick, 2014)'
_diffrn_ambient_temperature      298
_diffrn_detector                 'CCD plate'
_diffrn_measured_fraction_theta_full 1.000
_diffrn_measured_fraction_theta_max 0.943
_diffrn_measurement_details
;
List of Runs (angles in degrees, time in seconds):

  # Type    Start    End  Width  t~exp~   \w     \q     \k     \f   Frames
#--------------------------------------------------------------------------
  1  \w   -118.00  62.00   0.50    4.00    --  -28.00  45.00 180.00  360
  2  \w   -118.00  22.00   0.50    4.00    --  -28.00  45.00  90.00  280
  3  \w   -118.00 -43.50   0.50    4.00    --  -28.00  45.00   0.00  149
;
_diffrn_measurement_device       'abstract diffractometer'
_diffrn_measurement_device_type
'dtrek-CrysAlisPro-abstract goniometer imported rigaku-d*trek images'
_diffrn_measurement_method       '\w scans'
_diffrn_orient_matrix_type
'CrysAlisPro convention (1999,Acta A55,543-557)'
_diffrn_orient_matrix_UB_11      0.0744116000
_diffrn_orient_matrix_UB_12      0.0580903000
_diffrn_orient_matrix_UB_13      0.0028347000
_diffrn_orient_matrix_UB_21      -0.0471255000
_diffrn_orient_matrix_UB_22      0.0758325000
_diffrn_orient_matrix_UB_23      0.0150444000
_diffrn_orient_matrix_UB_31      0.0493200000
_diffrn_orient_matrix_UB_32      -0.0151681000
_diffrn_orient_matrix_UB_33      0.0862915000
_diffrn_radiation_monochromator  graphite
_diffrn_radiation_probe          x-ray
_diffrn_radiation_type           MoK\a
_diffrn_radiation_wavelength     0.71073
_diffrn_reflns_av_R_equivalents  0.0206
_diffrn_reflns_av_unetI/netI     0.0210
_diffrn_reflns_Laue_measured_fraction_full 1.000
_diffrn_reflns_Laue_measured_fraction_max 0.943
_diffrn_reflns_limit_h_max       11
_diffrn_reflns_limit_h_min       -11
_diffrn_reflns_limit_k_max       11
_diffrn_reflns_limit_k_min       -10
_diffrn_reflns_limit_l_max       13
_diffrn_reflns_limit_l_min       -13
_diffrn_reflns_number            4696
_diffrn_reflns_point_group_measured_fraction_full 1.000
_diffrn_reflns_point_group_measured_fraction_max 0.943
_diffrn_reflns_theta_full        25.242
_diffrn_reflns_theta_max         33.118
_diffrn_reflns_theta_min         2.516
_diffrn_source                   'fine-focus sealed X-ray tube'
_diffrn_source_type              'Enhance (Mo) X-ray Source'
_exptl_absorpt_coefficient_mu    16.543
_exptl_absorpt_correction_T_max  1.00000
_exptl_absorpt_correction_T_min  0.09842
_exptl_absorpt_correction_type   multi-scan
_exptl_absorpt_process_details
;
CrysAlisPro 1.171.39.46c (Rigaku Oxford Diffraction, 2018)
Empirical absorption correction using spherical harmonics,
 implemented in SCALE3 ABSPACK scaling algorithm.
;
_exptl_crystal_colour            yellow
_exptl_crystal_colour_primary    yellow
_exptl_crystal_density_diffrn    4.076
_exptl_crystal_description       needle
_exptl_crystal_F_000             530
_refine_diff_density_max         1.616
_refine_diff_density_min         -1.110
_refine_diff_density_rms         0.218
_refine_ls_extinction_method     none
_refine_ls_goodness_of_fit_ref   1.098
_refine_ls_hydrogen_treatment    mixed
_refine_ls_matrix_type           full
_refine_ls_number_parameters     100
_refine_ls_number_reflns         1766
_refine_ls_number_restraints     12
_refine_ls_restrained_S_all      1.097
_refine_ls_R_factor_all          0.0267
_refine_ls_R_factor_gt           0.0250
_refine_ls_shift/su_max          0.001
_refine_ls_shift/su_mean         0.000
_refine_ls_structure_factor_coef Fsqd
_refine_ls_weighting_details
'w=1/[\s^2^(Fo^2^)+(0.0349P)^2^+1.2867P] where P=(Fo^2^+2Fc^2^)/3'
_refine_ls_weighting_scheme      calc
_refine_ls_wR_factor_gt          0.0645
_refine_ls_wR_factor_ref         0.0652
_reflns_Friedel_coverage         0.000
_reflns_number_gt                1673
_reflns_number_total             1766
_reflns_threshold_expression     'I > 2\s(I)'
_cod_data_source_file            d1ce00190f2.cif
_cod_data_source_block           x
_cod_depositor_comments
'Adding full bibliography for 7242583--7242585.cif.'
_cod_original_formula_sum        'Ca H3 Ni2 O10.50 Se3'
_cod_database_code               7242583
_shelx_shelxl_version_number     2016/6
_shelx_space_group_comment
;
The symmetry employed for this shelxl refinement is uniquely defined
by the following loop, which should always be used as a source of
symmetry information in preference to the above space-group names.
They are only intended as comments.
;
_reflns_odcompleteness_completeness 94.25
_reflns_odcompleteness_iscentric 1
_reflns_odcompleteness_theta     33.04
_olex2_refinement_description
;
1. Fixed Uiso
 At 1.5 times of:
  All O(H,H) groups
2. Restrained distances
 H1WA-H1WA_$1
 2.2 with sigma of 0.01
 O1W-H1WA = O1W-H1WB
 0.82 with sigma of 0.01
 H1WA-H1WB
 1.39 with sigma of 0.01
 H1WA-Ca1 \\sim H1WB-Ca1
 with sigma of 0.02
 H1BA-O1B \\sim H1BB-O1B
 with sigma of 0.02
3. Uiso/Uaniso restraints and constraints
O1W \\sim O1B: within 2A with sigma of 0.02 and sigma for terminal atoms of 0.04
4. Others
 Fixed Sof: O1W(0.5) H1WA(0.5) H1WB(0.5) O1B(0.25) H1BA(0.25) H1BB(0.25)
5.a Riding coordinates:
 O1B(H1BA,H1BB)
;
_shelx_res_file
;
TITL cani2(seo3)3(2h2o)400_a.res in P2(1)/m
    x.res
    created by SHELXL-2016/6 at 14:48:20 on 22-Oct-2020
REM Old TITL CaNi2(SeO3)3(2H2O)400 in P2(1)/m
REM SHELXT solution in P2(1)/m
REM R1 0.050, Rweak 0.006, Alpha 0.024, Orientation as input
REM Formula found by SHELXT: Ca Ni2 Se3 O9
CELL 0.71073 7.7605 7.3336 8.9393 90 115.115 90
ZERR 2 0.0002 0.0001 0.0002 0 0.003 0
LATT 1
SYMM -X,0.5+Y,-Z
SFAC Ca H Ni O Se
UNIT 2 6 4 21 6
EQIV $1 1-X,1-Y,2-Z
EQIV $2 +X,+Y,1+Z
EQIV $3 +X,0.5-Y,1+Z
EQIV $4 -X,1-Y,1-Z
DFIX 2.2 0.01 H1Wa H1Wa_$1
DFIX 0.82 0.01 O1W H1Wa O1W H1Wb
SADI H1Wa Ca1 H1Wb Ca1
SADI H1Ba O1B H1Bb O1B
DANG 1.39 0.01 H1Wa H1Wb
SIMU 0.02 0.04 2 O1W O1B

L.S. 30
PLAN  60
TEMP 24.85
HTAB O1W Se3_$2
HTAB O1W O5_$2
HTAB O1W O1_$4
HTAB O1B Se3_$2
HTAB O1B O5_$3
CONN 6 1.25 Ni1
list 4
HTAB
fmap 2
acta
REM <olex2.extras>
REM <HklSrc "%.\\x.hkl">
REM </olex2.extras>

WGHT    0.034900    1.286700
FVAR       0.49966
NI1   3    0.175658    0.558363    0.313679    11.00000    0.00878    0.00797 =
         0.00638   -0.00018    0.00259   -0.00064
SE1   5    0.005707    0.250000    0.046299    10.50000    0.00687    0.00978 =
         0.00565    0.00000    0.00089    0.00000
SE2   5    0.031684    0.250000    0.481161    10.50000    0.00623    0.00944 =
         0.00708    0.00000    0.00287    0.00000
SE3   5    0.536158    0.250000    0.325522    10.50000    0.00634    0.00863 =
         0.00709    0.00000    0.00250    0.00000
O1    4   -0.046172    0.426921    0.141508    11.00000    0.01243    0.01352 =
         0.01066   -0.00585    0.00366   -0.00230
O2    4   -0.191957    0.250000   -0.143130    10.50000    0.00807    0.01082 =
         0.00465    0.00000   -0.00079    0.00000
O3    4    0.193379    0.423040    0.519192    11.00000    0.00988    0.01146 =
         0.01013    0.00139    0.00388   -0.00310
O4    4    0.014389    0.250000    0.665775    10.50000    0.01272    0.01062 =
         0.00926    0.00000    0.00703    0.00000
O5    4    0.393462    0.434299    0.274269    11.00000    0.01115    0.01131 =
         0.01410    0.00320    0.00362    0.00418
O6    4    0.619436    0.250000    0.537881    10.50000    0.01091    0.01214 =
         0.00630    0.00000    0.00041    0.00000
CA1   1    0.469282    0.250000    0.715270    10.50000    0.00928    0.01669 =
         0.01509    0.00000    0.00293    0.00000
PART 1
O1W   4    0.406116    0.414695    0.926277    10.50000    0.11934    0.21521 =
         0.06108   -0.04192    0.05873   -0.05168
H1WA  2    0.441317    0.370157    1.019173    10.50000   -1.50000
H1WB  2    0.311065    0.480241    0.896924    10.50000   -1.50000
PART 0
PART 2
O1B   4    0.367615    0.250000    0.921673    10.25000    0.02653    0.23777 =
         0.02946    0.00000    0.01446    0.00000
AFIX   3
H1BA  2    0.253935    0.250000    0.869843    10.25000   -1.50000
H1BB  2    0.405345    0.230130    1.019863    10.25000   -1.50000
AFIX   0
HKLF 4




REM  cani2(seo3)3(2h2o)400_a.res in P2(1)/m
REM R1 =  0.0250 for    1673 Fo > 4sig(Fo)  and  0.0267 for all    1766 data
REM    100 parameters refined using     12 restraints

END

WGHT      0.0349      1.2867

REM Instructions for potential hydrogen bonds
HTAB O1W Se3_$2
HTAB O1W O5_$2
HTAB O1W O1_$4
HTAB O1B Se3_$2
HTAB O1B O5_$3

REM Highest difference peak  1.616,  deepest hole -1.110,  1-sigma level  0.218
Q1    1  -0.1716  0.2500  0.0535  10.50000  0.05    1.62
Q2    1   0.2640  0.2500  0.6241  10.50000  0.05    0.83
Q3    1   0.7014  0.1638  0.6005  11.00000  0.05    0.75
Q4    1  -0.0409  0.1697  0.4184  11.00000  0.05    0.74
Q5    1   0.4687  0.3513  0.2597  11.00000  0.05    0.72
Q6    1   0.6049  0.2500  0.4574  10.50000  0.05    0.71
Q7    1   0.7345  0.2500  0.2893  10.50000  0.05    0.68
Q8    1   0.0603  0.4965  0.4250  11.00000  0.05    0.67
Q9    1  -0.2440  0.2500 -0.0629  10.50000  0.05    0.67
Q10   1  -0.2627  0.1806 -0.1754  11.00000  0.05    0.66
Q11   1   0.0659  0.2500  0.4131  10.50000  0.05    0.65
Q12   1   0.7032  0.1722  0.4212  11.00000  0.05    0.64
Q13   1   0.1622  0.1496  0.1406  11.00000  0.05    0.62
Q14   1   0.0368  0.1697  0.6459  11.00000  0.05    0.61
Q15   1  -0.0891  0.3331  0.0852  11.00000  0.05    0.59
Q16   1   0.2669  0.2500  0.1909  10.50000  0.05    0.59
Q17   1   0.3935  0.1659  0.6475  11.00000  0.05    0.59
Q18   1   0.2992  0.3699  0.6001  11.00000  0.05    0.58
Q19   1   0.1031  0.6111  0.2572  11.00000  0.05    0.57
Q20   1   0.1466  0.2500  0.8793  10.50000  0.05    0.57
Q21   1   0.6018  0.1841  0.3630  11.00000  0.05    0.57
Q22   1   0.0893  0.1617  0.0906  11.00000  0.05    0.56
Q23   1  -0.1404  0.1482  0.3785  11.00000  0.05    0.56
Q24   1   0.6711  0.2500  1.0416  10.50000  0.05    0.55
Q25   1   0.1398  0.3403  0.5570  11.00000  0.05    0.55
Q26   1   0.2738  0.5160  0.2033  11.00000  0.05    0.55
Q27   1   0.2854  0.3979  0.2180  11.00000  0.05    0.54
Q28   1   0.4380  0.2500  0.4619  10.50000  0.05    0.54
Q29   1   0.1394  0.3607  0.4617  11.00000  0.05    0.54
Q30   1  -0.0863  0.1842  0.5656  11.00000  0.05    0.52
Q31   1   0.4307  0.4608  0.2280  11.00000  0.05    0.51
Q32   1   0.1377  0.4953  0.6162  11.00000  0.05    0.51
Q33   1   0.0188  0.3472  0.1569  11.00000  0.05    0.51
Q34   1   0.2752  0.4841  0.5637  11.00000  0.05    0.50
Q35   1   0.2259  0.1711  0.8153  11.00000  0.05    0.50
Q36   1   0.0401  0.4609  0.2067  11.00000  0.05    0.50
Q37   1   0.0157  0.6430  0.2182  11.00000  0.05    0.50
Q38   1   0.1363  0.1423  0.7286  11.00000  0.05    0.49
Q39   1   0.5791  0.4203  1.1977  11.00000  0.05    0.49
Q40   1   0.5232  0.5293  0.2615  11.00000  0.05    0.49
Q41   1  -0.0466  0.2500  0.3395  10.50000  0.05    0.49
Q42   1   0.3330  0.5524  1.0240  11.00000  0.05    0.48
Q43   1  -0.1710  0.1559 -0.0837  11.00000  0.05    0.48
Q44   1   0.5946  0.4821  0.3493  11.00000  0.05    0.48
Q45   1   0.3687  0.2500  0.7708  10.50000  0.05    0.48
Q46   1  -0.1506  0.1788  0.2986  11.00000  0.05    0.48
Q47   1   0.2572  0.6971  0.8014  11.00000  0.05    0.48
Q48   1   0.1880  0.5194  0.5250  11.00000  0.05    0.47
Q49   1   0.0612  0.5578  0.5387  11.00000  0.05    0.45
Q50   1   0.2006  0.2500  0.9752  10.50000  0.05    0.45
Q51   1   0.2392  0.3445  0.3426  11.00000  0.05    0.44
Q52   1   0.2401  0.4887  0.3610  11.00000  0.05    0.44
Q53   1   0.7422  0.1348  0.3391  11.00000  0.05    0.44
Q54   1   0.3211  0.6790  1.0154  11.00000  0.05    0.44
Q55   1   0.4107  0.1699  0.5466  11.00000  0.05    0.43
Q56   1  -0.0527  0.5041 -0.0220  11.00000  0.05    0.43
Q57   1   0.6406  0.2500  0.2019  10.50000  0.05    0.43
Q58   1  -0.0516  0.1036 -0.0613  11.00000  0.05    0.43
Q59   1   0.7004  0.2500  0.5253  10.50000  0.05    0.42
Q60   1  -0.1172  0.2500  0.4602  10.50000  0.05    0.42
;
_shelx_res_checksum              5195
_shelx_hkl_file
;
   0   0   1 2138.77    7.66
   0   0   1 2138.88    9.06
   0   0   1 2180.42    9.39
   0   0  -1 2052.89    7.93
   0   0  -2   89.31    2.37
   0   0   2   93.00    2.80
   0   0   2   84.32    2.13
   0   0   2   80.65    2.45
   0   0   3 2568.16   16.36
   0   0   3 2588.69   13.82
   0   0   3 2596.31   16.82
   0   0   4  971.46   11.12
   0   0   4  977.70    9.70
   0   0   4 1002.81   11.74
   0   0   5 8310.35   30.37
   0   0   5 8213.42   36.51
   0   0   6 3323.08   20.32
   0   0   6 3324.15   23.11
   0   0   6 3351.98   25.06
   0   0   7    9.93    1.61
   0   0   7    8.78    1.75
   0   0   8 1236.11   15.55
   0   0   9   32.52    2.81
   0   0  -9   27.44    3.04
   0   0 -10    3.46    1.83
   0   1   0    0.22    0.12
   0  -1   0    0.04    0.09
   0   1   1    7.33    0.62
   0  -1  -1    4.39    0.56
   0  -1   1    7.48    0.37
   0   1  -1    5.44    0.32
   0   1  -1    5.58    0.38
   0   1   2   84.99    2.45
   0  -1   2   81.03    2.37
   0   1  -2   80.08    1.74
   0   1   2   90.49    3.21
   0   1   2   91.83    1.50
   0   1  -2   84.07    1.72
   0  -1   2   89.59    1.84
   0   1   3  742.12    5.97
   0  -1   3  715.71    8.14
   0   1   3  768.52   10.62
   0   1   3  771.63    8.92
   0  -1   3  742.24    7.44
   0  -1   3  800.82    7.57
   0   1   4  135.51    3.01
   0  -1   4  131.51    3.96
   0  -1   4  130.92    3.83
   0  -1   4  130.54    3.98
   0   1   4  134.58    4.35
   0  -1   5  307.86    6.64
   0   1   5  331.42    8.17
   0  -1   5  310.46    6.66
   0   1   5  331.97    7.69
   0  -1   5  311.33    6.65
   0   1   5  330.35    5.19
   0  -1   6  361.38    7.83
   0   1   6  381.74    6.08
   0  -1   6  384.31    7.74
   0   1   6  391.38    9.03
   0   1   6  389.56    9.21
   0  -1   7  918.43   13.32
   0   1   7  910.33    9.79
   0  -1   7  893.31   12.19
   0   1   8   93.86    4.83
   0  -1   8   85.01    4.48
   0  -1   8  100.78    4.42
   0  -1  -8   85.60    4.75
   0  -1  -9  389.72   10.60
   0   1   9  393.22   10.06
   0  -1 -10   12.60    2.60
   0   1  10    9.62    2.14
   0  -1 -11    2.73    2.45
   0   2   0 4177.89   14.53
   0  -2   0 3953.22   13.00
   0   2  -1   26.90    0.97
   0   2  -1   26.74    1.07
   0   2   1   24.12    1.31
   0  -2  -1   27.15    1.42
   0  -2   1   25.36    0.87
   0  -2   2 2359.21    8.71
   0  -2  -2 2391.46   17.15
   0   2  -2 2395.18   10.27
   0   2   2 2386.45   14.44
   0  -2  -3    1.20    0.81
   0   2   3    1.11    0.61
   0  -2   4  491.49    6.25
   0  -2  -4  510.34   10.26
   0   2   4  514.60    8.71
   0   2   4  512.56    5.13
   0  -2   5  119.64    3.86
   0   2   5  130.04    4.87
   0   2   5  124.47    2.84
   0  -2  -5  123.13    5.35
   0  -2   6  161.68    5.02
   0  -2  -6  181.16    6.75
   0   2   6  167.99    6.30
   0   2   6  169.89    3.46
   0   2   7  544.21   11.74
   0  -2  -7  564.10   12.19
   0   2   8    3.26    1.57
   0  -2   8    4.10    1.51
   0  -2  -8    2.85    1.45
   0  -2  -9  166.77    7.32
   0   2   9  170.33    7.32
   0  -2 -10  280.01    9.94
   0   2  10  272.13    9.43
   0  -2 -11   82.90    6.25
   0   3   0    0.58    0.43
   0  -3   0    0.53    0.34
   0   3  -1  801.86    7.19
   0  -3   1  815.27    6.15
   0   3   2 1644.24   13.95
   0  -3  -2 1644.53   14.74
   0  -3   2 1587.66    8.20
   0   3  -2 1591.56   10.02
   0  -3  -3  457.32    9.31
   0   3  -3  454.77    5.50
   0  -3   3  441.39    4.51
   0   3   3  434.69    7.62
   0   3  -4 2646.18   14.34
   0   3   4 2669.21   21.10
   0  -3   4 2698.21   13.40
   0  -3  -5   90.47    5.15
   0  -3   5   85.51    2.94
   0   3   5   85.91    4.22
   0   3   5   84.37    2.22
   0  -3  -6    1.60    1.44
   0   3   6    0.36    0.99
   0  -3   6    2.10    0.86
   0  -3  -7 4208.23   35.72
   0  -3   7 4161.27   25.92
   0   3   8  481.81   12.33
   0  -3  -8  476.91   12.24
   0  -3  -9   28.90    3.46
   0   3   9   29.46    3.55
   0   3  10  259.79   10.06
   0  -3 -10  252.38    9.79
   0   3  11   72.46    5.71
   0  -3 -11   75.94    6.01
   0   4   0 7858.70   28.32
   0  -4   0 7569.30   24.56
   0  -4  -1  286.74    5.69
   0   4  -1  297.20    5.35
   0  -4   1  281.53    4.21
   0   4   1  294.40    5.95
   0   4  -2  201.63    4.18
   0  -4   2  190.98    3.24
   0  -4  -2  202.53    5.44
   0   4   2  201.10    5.34
   0  -4  -3  653.42   11.49
   0   4   3  673.68   10.49
   0  -4   3  639.39    5.78
   0   4  -3  683.57    7.77
   0   4   4  413.55    9.01
   0   4  -4  438.45    6.34
   0  -4  -4  435.02   10.90
   0  -4   4  424.29    5.17
   0   4   5 1210.31   16.21
   0  -4   5 1261.80   10.33
   0   4  -5 1246.47   11.30
   0  -4  -5 1203.75   19.59
   0  -4   6  785.09    9.69
   0   4  -6  763.05    9.85
   0   4   7  134.15    6.38
   0  -4  -7  142.81    7.25
   0   4   8  268.86    9.92
   0  -4  -8  274.80   10.17
   0   4   9   32.34    4.09
   0  -4  -9   32.65    3.89
   0  -4 -10   39.47    4.48
   0   4  10   42.71    4.81
   0   4  11  344.86   12.79
   0  -4 -11  344.00   12.33
   0   5   0    0.14    0.63
   0  -5   0    0.54    0.55
   0  -5  -1   97.29    3.56
   0   5  -1   97.05    3.44
   0   5   1   94.69    3.74
   0  -5   1   93.68    2.77
   0   5   2  397.01    8.36
   0  -5  -2  402.31    8.22
   0  -5   2  387.94    5.21
   0  -5   3  784.28    7.22
   0   5  -3  779.90    9.18
   0  -5  -3  772.80   12.91
   0   5  -4   26.84    2.24
   0  -5   4   20.32    1.28
   0   5   4   22.77    2.47
   0  -5  -4   21.61    2.65
   0  -5  -5  399.72   11.85
   0   5   5  411.68   10.30
   0   5   6  471.25   11.74
   0  -5  -6  479.72   13.80
   0   5   7  131.69    6.75
   0  -5  -7  136.00    7.67
   0   5   8   39.40    4.41
   0  -5  -8   24.21    3.59
   0  -5  -9  604.76   16.07
   0   5   9  672.10   17.44
   0  -5 -10   23.11    3.80
   0   5  10   23.71    4.22
   0   5  11   12.40    3.99
   0  -6   0 9347.86   33.66
   0   6   0 9216.24   38.85
   0  -6  -1  419.78    7.87
   0  -6   1  414.88    6.34
   0   6  -1  427.40    8.05
   0  -6   2   15.19    1.25
   0  -6  -2   14.72    1.85
   0   6   2   16.40    2.03
   0   6  -2   16.36    1.65
   0  -6  -3  496.17   10.96
   0   6  -3  509.90    8.48
   0  -6   3  526.62    6.70
   0   6   3  483.72   10.36
   0  -6  -4  391.57   10.87
   0   6   4  380.89    9.84
   0   6  -4  389.15    7.40
   0   6   5 2064.49   24.62
   0  -6  -5 2118.90   28.07
   0   6   6 1099.53   19.18
   0  -6  -6 1059.11   21.57
   0   6   7   25.26    3.48
   0  -6  -7   23.13    3.99
   0   6   8  310.71   11.73
   0  -6  -8  330.39   12.91
   0  -6  -9   45.57    5.13
   0   6   9   30.52    4.52
   0  -6 -10    7.39    2.94
   0   6  10    1.44    3.23
   0  -7   0    0.91    0.86
   0   7   0    4.39    1.25
   0   7   1  439.49    9.77
   0  -7  -1  445.34    8.74
   0   7  -1  426.61    8.92
   0  -7   1  434.18    7.21
   0  -7  -2  176.28    6.09
   0  -7   2  173.44    4.27
   0   7  -2  164.14    5.48
   0   7   2  161.79    6.22
   0   7   3  149.12    6.18
   0  -7  -3  155.14    6.42
   0   7  -3  139.94    4.93
   0   7   4  690.26   14.07
   0  -7  -4  686.72   14.99
   0   7   5   18.75    2.83
   0  -7  -5   20.06    3.44
   0   7   6    6.12    2.12
   0  -7  -6    2.37    2.60
   0   7   7 1237.70   22.16
   0  -7  -7 1274.23   26.37
   0   7   8  104.95    7.27
   0  -7  -8  101.95    7.99
   0   7   9    2.92    2.70
   0  -7  -9    0.78    2.77
   0  -8   0  505.84    9.30
   0   8   0  481.58   10.84
   0   8   1    3.43    1.59
   0   8  -1    0.45    1.24
   0  -8  -1   -0.22    1.06
   0  -8   1    2.96    1.11
   0   8   2  668.55   13.54
   0   8  -2  631.57   11.50
   0   8   3   15.03    2.53
   0  -8  -3   14.63    2.43
   0  -8  -4  135.35    7.12
   0   8   4  144.48    6.89
   0  -8  -5    5.03    2.38
   0   8   5    5.48    2.03
   0   8   6   23.59    3.48
   0  -8  -6   30.85    4.56
   0  -8  -7  259.32   12.86
   0   8   7  224.86    9.89
   0   8   8    4.24    2.71
   0  -8  -8    0.50    3.46
   0   9   0   -0.37    1.42
   0   9   1   50.59    4.19
   0  -9  -1   63.79    4.09
   0   9  -1   58.51    4.33
   0  -9  -2   64.26    4.46
   0   9   2   50.88    4.39
   0   9   3  165.06    7.69
   0  -9  -3  160.92    7.37
   0  -9  -4  189.65    8.70
   0   9   4  192.39    8.63
   0   9   5   70.47    5.62
   0  -9  -5   70.22    6.21
   0   9   6   22.44    3.58
   0  -9  -6   29.21    5.05
   0  10   0 2516.99   29.22
   0  10   1  123.17    6.94
   0  10   2    8.90    2.59
   0 -10  -3  440.18   12.76
   0  10   3  434.17   13.54
   0  10   4   90.31    6.48
   0 -10  -4   90.92    6.62
   0 -10  -5  741.03   19.70
   0  11   1    3.46    2.51
   0  11   2   36.59    4.62
   1   0 -11  308.21   11.84
  -1   0  10    4.60    2.01
  -1   0   9 1077.51   14.06
  -1   0   9 1056.05   17.07
  -1   0   8   46.35    3.51
  -1   0   8   50.84    3.08
  -1   0   7    2.98    1.13
  -1   0   7    9.92    1.74
  -1   0   6    7.87    1.45
  -1   0   6   32.34    2.32
  -1   0   5  208.12    5.01
  -1   0   5  196.47    5.76
  -1   0   4 1737.55   14.65
  -1   0   4 1756.76   11.82
  -1   0   3 3376.31   17.14
  -1   0   3 3422.02   12.74
  -1   0   2 1785.78   10.03
  -1   0   2 1757.06    6.84
   1   0  -1    0.01    0.09
  -1   0   1 3273.48    8.37
   1   0   0 1884.88    8.48
  -1   0   0 1953.89    6.18
   1   0   1  952.27    5.78
  -1   0  -1  945.24    5.74
   1   0   1  954.37    8.42
   1   0   1  945.87    8.09
   1   0   2 7526.85   29.92
   1   0   2 7425.57   26.52
   1   0   3  192.21    4.85
  -1   0  -3  181.51    4.54
   1   0   3  190.39    5.33
  -1   0  -4  162.13    4.82
   1   0   4  167.27    5.21
   1   0   4  151.76    4.47
   1   0   5    7.61    1.37
  -1   0  -5    6.80    1.33
   1   0   5    5.87    1.10
   1   0   6 1189.23   13.80
   1   0   6 1192.88   15.14
  -1   0  -6 1151.99   14.51
  -1   0  -7 1321.30   16.51
   1   0   7 1277.79   16.16
   1   0   7 1309.42   14.87
  -1   0  -8    3.36    1.47
   1   0   8    2.43    1.44
   1   0   9   53.40    3.88
  -1   0  -9   51.88    3.89
   1  -1 -12   15.23    4.31
   1  -1 -11  107.56    7.21
  -1  -1  10  758.16   14.83
  -1   1  10  770.12   13.90
  -1   1   9 1338.73   19.93
  -1  -1   9 1293.57   18.08
  -1   1   8   15.67    2.23
  -1  -1   8   10.79    1.95
  -1  -1   8    9.66    1.45
  -1   1   8   10.12    2.06
  -1  -1   7  240.10    5.68
  -1  -1   7  226.01    6.94
  -1   1   7  238.64    7.82
  -1  -1   6  377.25    6.73
  -1  -1   6  362.70    7.86
  -1   1   6  354.10    7.46
  -1  -1   5 3048.00   17.31
  -1  -1   5 3059.47   19.47
  -1   1   5 3077.36   24.67
  -1   1   5 3086.33   19.65
  -1   1   4  995.18    9.54
  -1  -1   4 1011.41    9.83
  -1   1   4 1024.54   13.23
  -1  -1   3 2702.67   10.29
  -1  -1   3 2688.20   13.46
  -1   1   3 2696.60   19.17
   1   1  -3 2678.45    8.26
  -1   1   2  562.96    5.41
  -1  -1   2  549.97    4.95
  -1   1   2  556.93    7.53
  -1   1   1   97.82    1.97
  -1   1   1  101.31    2.27
  -1   1   1  111.73    2.61
   1  -1  -1  104.79    2.31
  -1  -1   1  106.50    1.60
   1   1  -1  111.37    1.97
   1  -1  -1  108.11    2.31
  -1  -1   1  105.77    1.93
   1   1   0  142.89    3.24
   1  -1   0  148.61    3.55
  -1  -1  -1  134.30    2.85
   1  -1   1  143.27    4.08
   1   1   1  144.66    3.95
  -1   1  -2 3515.64   12.57
  -1   1  -2 3504.78   13.77
   1   1   2 3484.00   14.59
   1   1   2 3463.04   21.71
  -1  -1  -2 3505.75   18.36
   1  -1   3  305.57    6.71
   1   1   3  320.07    7.31
   1  -1   3  316.75    5.15
  -1  -1  -3  313.35    6.56
   1   1   3  312.71    5.27
   1   1   4    1.10    0.90
   1  -1   4    1.37    0.76
   1  -1   4    1.81    0.92
   1  -1   4    1.85    0.86
  -1  -1  -4    1.71    0.91
   1   1   4    1.12    0.60
   1  -1   5 3581.38   25.28
   1   1   5 3521.90   20.51
  -1  -1  -5 3603.31   26.92
   1   1   5 3598.40   26.83
   1   1   6   14.89    1.59
   1   1   6   18.26    2.23
  -1  -1  -6   15.02    2.00
  -1   1  -6   15.30    1.68
   1  -1   6   16.16    2.04
   1  -1   6   17.62    2.10
   1  -1   7    0.84    1.09
  -1  -1  -7    1.67    1.09
   1   1   7    1.35    1.00
  -1   1  -7    0.67    0.91
  -1  -1  -8  598.60   12.35
  -1   1  -8  577.46   10.82
   1   1   8  598.42   12.29
   1   1   9  210.59    7.64
  -1  -1  -9  218.70    8.01
   1   1  10  590.57   13.37
  -1  -1 -10  597.33   13.92
   1  -2 -11    3.79    2.44
  -1   2  10  765.82   15.65
   1  -2 -10  757.42   16.53
  -1   2   9   65.92    4.60
  -1  -2   9   67.57    4.23
   1  -2  -9   62.03    4.45
  -1  -2   8  243.05    7.25
  -1   2   8  238.28    7.92
  -1   2   8  237.97    8.44
  -1   2   7 1683.02   21.77
  -1  -2   7 1678.19   17.52
  -1   2   6   20.73    2.62
  -1  -2   6   21.51    1.83
  -1   2   6   22.14    2.15
  -1   2   5  959.19   14.90
  -1   2   5  947.26   11.55
   1   2  -4  189.79    3.11
  -1  -2   4  191.55    4.08
  -1   2   4  186.07    6.32
  -1   2   4  187.50    4.61
  -1   2   3   98.17    4.25
   1   2  -3  103.56    1.35
   1   2  -3   99.34    1.43
  -1   2   3   98.96    3.07
  -1   2   2 9902.92   21.53
  -1   2   2 9973.46   37.05
  -1  -2   1  198.10    3.19
   1   2  -1  202.46    3.00
  -1   2   1  195.40    3.58
   1  -2   0    7.03    0.50
   1   2   0    6.07    0.74
  -1   2   0    6.27    0.68
  -1  -2   0    7.84    0.74
   1  -2   0    6.95    0.76
  -1  -2  -1 3076.66   16.10
   1  -2   1 3089.15   19.10
  -1   2  -1 3062.06   14.48
  -1   2  -2 1419.53    4.62
   1  -2   2 1429.48   14.85
   1   2   2 1401.01   13.74
  -1  -2  -2 1409.76   12.72
   1  -2   3 3407.43   13.84
   1   2   3 3397.69   24.02
   1  -2   3 3346.40   25.02
  -1  -2  -3 3316.96   23.49
   1  -2   4 4769.91   20.32
   1  -2   4 4631.24   30.96
   1   2   4 4681.00   31.48
  -1  -2  -4 4655.16   31.11
   1   2   4 4798.28   20.98
   1  -2   5   20.67    1.73
   1   2   5   17.68    2.22
   1   2   5   19.89    1.56
  -1  -2  -5   21.35    2.42
   1  -2   5   18.18    2.15
   1   2   6  411.67    6.93
   1  -2   6  397.95    9.59
   1   2   6  432.18   10.65
  -1  -2  -6  411.43   10.23
  -1   2  -7  134.05    4.54
   1   2   7  148.34    6.47
  -1  -2  -7  142.91    6.31
   1   2   8  296.68    9.33
  -1  -2  -8  306.99    9.50
  -1  -2  -9 2083.48   25.29
   1   2   9 2160.69   26.07
  -1  -2 -10    0.67    1.92
   1   2  10    3.69    2.29
  -1  -2 -11    2.80    2.47
   1  -3 -12   62.44    6.11
  -1   3  11 1124.47   21.23
   1  -3 -11 1185.79   22.18
  -1   3  10 1244.17   21.86
   1  -3 -10 1132.96   20.68
  -1   3   9   75.92    5.31
   1  -3  -9   77.04    5.36
  -1  -3   8  810.70   12.77
   1  -3  -8  784.55   15.88
  -1   3   8  813.41   14.95
  -1   3   7  190.08    6.73
  -1  -3   7  196.88    5.66
   1  -3  -7  180.94    7.34
  -1   3   6  340.79    8.28
   1   3  -6  321.94    4.53
  -1  -3   6  329.26    6.44
   1  -3  -6  347.89   10.01
   1   3  -5 5827.17   16.44
  -1  -3   5 5870.03   24.02
  -1   3   5 5880.29   30.97
   1   3  -4  263.69    3.20
   1   3  -4  255.24    3.31
  -1   3   4  259.31    6.14
  -1   3   4  235.25    3.20
  -1  -3   4  241.42    4.32
  -1   3   3  611.95    8.57
   1  -3  -3  600.80   10.96
  -1  -3   3  606.17    6.43
   1   3  -2  455.93    4.78
  -1  -3   2  465.74    5.43
  -1   3   1  193.67    4.15
  -1  -3   1  194.42    3.70
   1   3  -1  196.81    3.67
   1  -3  -1  205.27    4.07
   1  -3   0  219.96    3.18
  -1  -3   0  222.69    4.27
   1   3   0  217.45    4.46
  -1   3   0  212.00    4.17
   1  -3   1   66.56    2.95
   1  -3   1   68.47    1.31
   1   3   1   74.46    3.00
  -1  -3  -1   68.47    2.70
  -1   3  -1   69.29    1.81
  -1   3  -1   67.76    2.44
  -1   3  -2  489.83    6.68
   1  -3   2  487.35    9.19
   1   3   2  482.73    8.38
  -1   3  -2  475.69    3.39
   1   3   3 1233.11   14.89
   1  -3   3 1192.45   15.92
  -1   3  -3 1199.62   11.23
  -1   3  -3 1169.78    6.08
  -1  -3  -3 1244.69   15.11
  -1  -3  -4   65.64    4.06
   1  -3   4   61.57    2.11
   1   3   4   54.68    3.48
   1  -3   4   68.33    4.17
   1   3   5 1451.15   12.06
   1   3   5 1466.78   19.56
  -1  -3  -5 1463.82   20.04
   1  -3   5 1510.97   11.89
   1   3   6   58.47    4.32
   1   3   6   49.23    2.28
   1  -3   6   54.41    2.65
  -1  -3  -6   60.24    4.37
   1   3   7  528.16   13.02
  -1  -3  -7  543.63   12.97
   1   3   8   17.28    2.85
  -1  -3  -8   16.32    2.56
  -1  -3  -9  251.75    9.29
   1   3   9  257.78    9.62
   1   3  10  113.11    6.86
  -1  -3 -10  113.80    6.73
   1   3  11   99.16    6.72
  -1  -3 -11   91.75    6.62
  -1   4  11   24.42    4.41
   1  -4 -11   29.04    4.24
  -1   4  10  152.91    8.52
   1  -4 -10  139.27    7.71
  -1   4   9  282.42   10.67
   1  -4  -9  274.42   10.25
   1  -4  -8   44.73    4.41
  -1   4   8   49.04    4.14
  -1  -4   7  306.06    6.79
  -1   4   7  314.45    9.33
   1  -4  -7  329.51   11.06
  -1  -4   6   66.78    2.89
  -1   4   6   60.99    3.81
   1  -4  -6   61.18    4.83
   1   4  -5   81.09    2.26
  -1   4   5   70.47    3.79
   1  -4  -5   73.03    5.13
  -1  -4   5   76.70    2.75
   1   4  -4  215.87    3.69
   1  -4  -4  208.89    7.70
  -1  -4   4  202.02    4.08
  -1   4   4  206.27    6.03
   1  -4  -3  255.71    7.23
  -1   4   3  249.18    6.15
   1   4  -3  239.61    3.93
  -1  -4   3  247.51    4.40
   1   4  -2 3440.48   16.25
  -1   4   2 3420.61   20.95
  -1  -4   2 3408.32   16.15
  -1  -4   1  185.16    4.05
   1   4  -1  186.52    4.17
  -1   4   1  191.56    4.80
   1  -4  -1  177.79    4.07
  -1   4   0  194.63    4.63
  -1  -4   0  194.43    4.45
   1  -4   0  184.35    3.42
   1   4   1  159.20    4.77
  -1  -4  -1  162.30    4.61
   1  -4   1  151.51    2.52
  -1   4  -1  150.64    4.09
   1   4   2 2327.40   19.90
   1  -4   2 2305.03    8.35
  -1  -4  -2 2282.56   19.61
   1   4   3  828.79   13.00
  -1   4  -3  841.61    9.96
  -1   4  -3  822.36    5.70
  -1  -4  -4  838.44   15.00
  -1   4  -4  838.30   10.64
   1   4   4  839.22   13.90
  -1  -4  -5    2.67    1.55
  -1   4  -5    2.44    1.14
   1   4   5    3.29    1.51
   1   4   5    4.02    0.91
  -1  -4  -6    7.01    2.01
   1   4   6    7.85    2.09
  -1   4  -6    4.58    1.44
   1   4   7  476.78   12.80
  -1  -4  -7  524.84   13.68
   1   4   8   94.76    6.22
  -1  -4  -8   83.84    5.74
  -1  -4  -9  607.61   15.24
   1   4   9  619.26   15.85
   1   4  10   21.57    3.71
  -1  -4 -10   21.49    3.67
   1   4  11  105.44    7.31
   1  -5 -11    3.43    2.87
  -1   5  11    1.25    3.24
  -1   5  10  407.64   14.74
   1  -5 -10  343.79   12.64
   1  -5  -9 1640.61   26.95
  -1   5   9 1707.14   26.86
  -1   5   8   71.01    5.22
   1  -5  -8   66.71    5.60
   1  -5  -7   99.02    6.73
  -1   5   7   82.51    5.09
  -1   5   6  773.55   14.17
  -1  -5   6  828.54    9.95
   1  -5  -6  792.47   17.92
  -1  -5   5  781.33    8.94
   1  -5  -5  759.94   16.45
   1   5  -4 1046.62    9.20
  -1  -5   4 1078.21    9.73
   1  -5  -4 1094.49   17.62
   1   5  -3 2900.79   16.37
  -1  -5   3 2903.75   16.34
  -1   5   3 2914.46   22.44
   1  -5  -2  109.96    4.06
   1   5  -2  112.29    3.45
  -1  -5   2  109.83    3.22
  -1   5   2  106.79    4.15
   1   5  -1  483.06    7.74
  -1  -5   1  468.05    7.11
   1  -5  -1  483.43    7.45
  -1   5   1  474.78    8.22
  -1  -5   0  637.24    8.90
   1  -5   0  621.61    6.98
   1   5   0  626.41    9.52
   1  -5   1  170.42    3.18
  -1   5  -1  175.69    4.98
   1   5   1  182.60    5.55
  -1  -5  -1  175.60    5.14
  -1   5  -2 3017.17   19.74
  -1  -5  -2 3075.75   23.96
   1   5   2 3162.57   24.59
   1  -5   2 3103.79   11.91
   1   5   3    0.87    1.10
  -1  -5  -3    0.57    1.07
   1  -5   3   -0.02    0.23
   1   5   4   42.87    3.50
  -1  -5  -4   45.40    3.85
  -1   5  -4   49.90    2.93
  -1   5  -5 3270.95   23.81
  -1  -5  -5 3327.99   34.33
   1   5   6   41.44    3.93
  -1  -5  -6   57.16    5.03
   1   5   7   77.14    5.68
  -1  -5  -7   65.16    5.47
   1   5   8  849.30   19.08
  -1  -5  -8  873.23   19.20
  -1  -5  -9  154.43    8.42
   1   5   9  154.03    8.65
   1   5  10  654.71   17.98
  -1  -5 -10  653.47   17.31
   1  -6 -10   16.61    3.75
  -1   6  10   14.20    4.33
  -1   6   9  489.02   15.00
   1  -6  -9  478.22   15.67
   1  -6  -8   61.89    6.05
  -1   6   8   44.80    4.58
  -1   6   7   48.51    4.13
   1  -6  -7   69.38    6.00
  -1   6   6    7.89    2.00
   1  -6  -6    4.05    2.33
  -1   6   5    6.11    1.69
   1  -6  -5    3.79    1.84
  -1  -6   5    4.93    1.05
   1   6  -4  472.62    7.25
  -1   6   4  495.84   10.66
   1  -6  -4  490.69   11.73
  -1   6   3  644.95   11.62
   1   6  -3  621.80    8.65
   1  -6  -3  633.05   11.70
  -1  -6   3  639.42    8.09
   1   6  -2 1268.74   13.18
  -1  -6   2 1234.25   11.57
  -1   6   2 1259.37   15.26
   1  -6  -1  408.76    7.30
   1   6  -1  404.80    7.98
  -1  -6   1  402.16    7.03
  -1   6   1  394.79    8.32
   1   6   0  447.21    8.96
  -1   6   0  444.71    8.65
   1  -6   0  448.74    6.66
  -1  -6   0  447.94    8.10
  -1   6  -1   11.77    1.65
  -1  -6  -1   10.87    1.65
   1   6   1    8.50    1.53
   1  -6   1   10.09    0.99
  -1   6  -2 2271.56   19.15
   1   6   2 2290.81   22.45
   1  -6   2 2283.95   12.17
  -1  -6  -3  267.32    8.37
   1   6   3  270.96    8.29
   1   6   4   40.31    3.69
  -1   6  -4   41.42    2.87
  -1  -6  -4   34.20    3.58
  -1  -6  -5    3.53    2.24
   1   6   5    0.36    1.50
   1   6   6  180.51    8.29
  -1  -6  -6  193.74    9.72
  -1  -6  -7  435.96   14.83
   1   6   7  418.06   13.50
  -1  -6  -8   15.94    3.77
   1   6   8   16.15    3.85
   1   6   9  126.58    8.52
  -1  -6  -9  129.76    8.42
  -1   7   9  163.32    9.05
   1  -7  -9  180.12   10.50
   1  -7  -8  224.52   11.42
  -1   7   8  211.16    9.47
   1  -7  -7  119.59    8.27
  -1   7   7  121.54    6.77
  -1   7   6   39.85    3.81
   1  -7  -6   39.94    4.85
  -1   7   5 1739.95   22.17
   1  -7  -5 1760.93   25.83
  -1   7   4   14.98    2.18
   1  -7  -4   11.59    2.24
  -1  -7   3   19.12    1.70
   1   7  -3   21.51    2.03
  -1   7   3   18.42    2.41
   1  -7  -3   18.55    2.37
   1  -7  -2  184.06    5.90
  -1   7   2  186.17    6.48
   1   7  -2  194.32    5.91
  -1  -7   2  184.66    4.79
   1  -7  -1   90.63    3.73
  -1   7   1   85.69    4.36
   1   7  -1   93.92    4.36
  -1  -7   1   99.15    3.88
   1  -7   0  111.28    3.66
  -1   7   0  100.19    4.58
   1   7   0   97.28    4.51
  -1  -7   0  105.21    4.28
   1   7   1   11.49    2.01
  -1   7  -1   10.55    1.75
  -1  -7  -1   11.72    1.71
   1  -7   1    9.51    1.13
   1   7   2   50.67    3.72
  -1   7  -2   53.84    3.45
   1   7   3  280.63    8.86
  -1  -7  -3  295.59    9.27
   1   7   4   36.04    3.66
  -1  -7  -4   36.17    3.91
  -1  -7  -5  481.25   14.49
   1   7   5  475.05   13.03
  -1  -7  -6   17.72    3.81
   1   7   6   14.98    3.03
   1   7   7  113.30    7.54
  -1  -7  -7  107.49    8.20
   1   7   8   29.85    4.80
  -1  -7  -8   23.10    4.57
   1  -8  -8  102.00    8.56
  -1   8   8   83.83    6.24
   1  -8  -7  667.27   20.03
  -1   8   7  682.90   16.39
  -1   8   6    8.92    2.33
   1  -8  -6    3.19    3.10
  -1   8   5  359.81   11.00
   1  -8  -5  344.99   11.98
  -1   8   4   43.56    3.91
   1  -8  -4   51.07    4.34
   1  -8  -3   66.59    4.36
  -1   8   3   69.47    4.66
   1  -8  -2 3008.76   25.03
  -1   8   2 2968.11   28.05
  -1   8   1   90.09    4.81
  -1  -8   1   87.21    3.97
   1  -8  -1   90.49    4.11
   1   8  -1   86.61    4.54
   1   8   0    0.66    1.23
  -1   8   0    0.33    1.24
  -1   8  -1  847.43   14.15
   1   8   1  847.26   15.27
   1   8   2  390.47   11.06
  -1  -8  -2  370.40   10.10
  -1  -8  -3 1095.96   18.69
   1   8   3 1031.04   18.29
   1   8   4 1548.89   23.58
  -1  -8  -4 1559.37   24.43
  -1  -8  -5    4.70    2.64
   1   8   5    4.13    1.99
   1   8   6  258.39   10.72
  -1  -8  -6  255.90   12.33
   1   8   7   23.84    4.34
  -1  -8  -7   26.45    4.88
   1  -9  -7   29.62    5.44
  -1   9   7   31.65    4.30
   1  -9  -6    7.06    3.34
  -1   9   6    4.68    2.35
  -1   9   5  842.43   17.87
   1  -9  -5  845.62   19.16
  -1   9   4    5.84    2.29
   1  -9  -4    9.60    2.43
   1  -9  -3   54.07    4.28
  -1   9   3   47.07    4.26
  -1   9   2   75.16    5.02
   1  -9  -2   76.21    4.58
   1   9  -1    5.37    2.05
  -1   9   1    9.49    2.34
  -1  -9   0    3.92    1.67
   1   9   0    2.92    1.78
  -1   9   0    0.18    1.50
  -1   9  -1    5.72    1.88
  -1  -9  -1    1.06    1.58
   1   9   1    3.84    1.75
   1   9   2   48.91    4.33
  -1  -9  -2   52.07    4.28
   1   9   3   91.54    6.12
  -1  -9  -3   96.43    6.22
  -1  -9  -4   -0.89    2.27
   1   9   4    4.00    2.32
   1   9   5  695.61   17.44
  -1  -9  -5  752.54   19.79
   1   9   6   -0.36    2.39
  -1  -9  -6    6.57    3.72
   1 -10  -6   23.21    4.79
   1 -10  -5   12.33    3.58
  -1  10   5   13.54    3.16
  -1  10   4  255.15   10.36
   1 -10  -4  254.61   10.19
  -1  10   3  100.62    6.41
  -1  10   2  229.79    9.39
  -1  10   1  187.04    8.33
   1  10   0  113.63    6.81
  -1  10   0  124.39    6.97
  -1 -10  -1   37.63    3.85
   1  10   1   37.94    4.21
  -1 -10  -2  727.62   16.00
   1  10   2  700.68   17.01
  -1 -10  -3   35.25    4.42
   1  10   3   30.37    4.12
   1  10   4    5.11    2.62
  -1 -10  -4    5.61    3.24
  -1  11   2   21.91    3.91
  -1  11   1   46.34    4.83
   1  11   2  412.29   13.97
  -2   0  12  463.49   13.25
  -2   0  11   60.70    4.92
  -2   0  10   -0.35    1.58
  -2   0   9 1321.32   15.13
  -2   0   9 1278.69   19.38
  -2   0   8  107.26    5.58
  -2   0   8  112.59    4.48
  -2   0   7  258.81    6.18
  -2   0   7  247.88    7.71
  -2   0   6   16.61    1.94
  -2   0   6   13.37    1.30
  -2   0   5 1386.23   10.15
  -2   0   5 1415.12   14.61
  -2   0   4 5046.27   16.07
  -2   0   4 5313.36   25.14
  -2   0   3   40.75    1.49
  -2   0   3   39.14    1.92
  -2   0   2   19.89    1.11
  -2   0   2   19.05    0.91
  -2   0   1 2234.99    9.99
   2   0   0 5389.18   20.33
  -2   0  -1  959.69    6.99
   2   0   1  932.92   10.04
  -2   0  -2 2602.40   13.87
   2   0   2 2620.87   20.30
   2   0   3  231.63    6.63
  -2   0  -3  229.45    4.96
  -2   0  -4  469.49    8.09
   2   0   4  459.19    8.93
   2   0   4  474.53    9.82
  -2   0  -5    1.63    1.02
   2   0   5    2.80    1.27
   2   0   5    1.58    1.06
   2   0   6  558.74   11.15
  -2   0  -6  567.10   10.51
   2   0   6  547.91   10.08
   2   0   7 1700.49   20.19
  -2   0  -7 1678.24   18.74
   2   0   7 1728.77   18.62
  -2   0  -8   15.25    2.13
   2   0   8   17.21    2.41
   2  -1 -13  372.90   16.99
  -2  -1  12  760.26   16.88
   2  -1 -12 1013.90   23.46
  -2  -1  11   31.66    3.59
  -2   1  11   27.74    3.74
  -2   1  10  158.00    7.46
  -2  -1  10  132.67    6.54
  -2   1   9  110.63    6.04
  -2   1   9  117.98    5.26
  -2  -1   9  117.37    5.86
  -2   1   8  260.32    7.21
  -2   1   8  249.21    8.55
  -2  -1   8  256.04    5.56
  -2  -1   8  252.27    7.97
  -2   1   7 4430.59   26.18
  -2  -1   7 4437.52   21.34
  -2   1   6  145.22    5.84
  -2  -1   6  146.77    3.54
  -2   1   6  146.05    4.20
  -2  -1   6  151.92    5.03
  -2   1   5  110.25    4.68
  -2  -1   5  104.58    3.74
  -2   1   5  106.97    3.29
  -2  -1   5   96.23    2.42
  -2   1   4  165.79    5.02
  -2  -1   4  170.76    4.16
  -2   1   4  168.72    3.73
   2   1  -4  160.86    1.95
   2  -1  -3 2632.17   12.17
  -2   1   3 2675.72   17.38
  -2   1   3 2675.23   13.40
   2  -1  -2 1056.24    9.43
  -2  -1   2  968.90    6.37
  -2  -1   2 1046.90    8.00
  -2   1   2 1011.09    8.60
  -2   1   2  965.35    7.42
  -2   1   1 3567.86   12.60
   2   1  -1 3510.31   13.35
  -2  -1   1 3624.14   14.19
   2  -1  -1 3685.45   20.64
   2  -1   0    2.17    0.31
  -2  -1   0    3.15    0.55
  -2   1   0    2.60    0.31
   2  -1   0    1.88    0.84
  -2  -1  -1   46.73    1.91
  -2   1  -1   49.45    1.16
   2  -1   1   52.30    2.98
   2   1   1   45.70    2.65
   2  -1   1   47.70    1.16
   2  -1   2  715.33   11.43
   2   1   2  683.92   10.80
  -2  -1  -2  672.80    8.38
   2   1   2  690.62    8.15
  -2   1  -2  715.46    5.58
  -2   1  -3  318.14    4.85
  -2  -1  -3  311.04    6.57
   2   1   3  308.31    6.20
   2   1   3  295.38    7.55
   2  -1   3  307.80    7.50
   2   1   4  942.39   12.15
   2   1   4  987.93   14.44
  -2  -1  -4  947.66   12.81
   2  -1   4  959.25   13.78
  -2   1  -4  987.21   10.32
   2   1   5   83.89    3.86
   2   1   5   85.37    4.52
   2  -1   5   72.28    3.85
  -2  -1  -5   86.39    4.25
  -2   1  -5   83.57    3.49
   2   1   6  103.46    5.04
   2   1   6  119.94    4.50
  -2   1  -6  114.80    4.34
   2  -1   6  111.90    5.05
  -2  -1  -6  110.30    5.09
  -2  -1  -7  782.23   13.64
   2   1   7  737.03   11.25
   2  -1   7  781.89   13.36
  -2   1  -7  778.83   11.70
   2   1   7  775.30   14.20
   2  -1   8   44.68    3.48
   2   1   8   51.82    4.05
  -2  -1  -8   53.73    3.96
  -2  -1  -9  236.75    8.28
   2   1   9  259.76    8.89
   2   1  10   24.64    3.54
   2  -2 -12    4.36    3.08
   2  -2 -11  792.40   18.26
  -2  -2  11  620.18   14.08
  -2   2  10   73.41    4.87
  -2   2  10   71.64    5.31
  -2  -2  10   68.35    4.73
  -2   2   9  103.27    6.06
  -2   2   9  107.42    5.49
  -2  -2   9   97.03    5.21
  -2  -2   8  760.91   12.85
  -2   2   8  779.66   12.88
  -2   2   8  777.47   15.67
  -2  -2   7  538.81    9.83
  -2   2   7  533.28   12.35
  -2  -2   6 1426.80   14.31
  -2   2   6 1411.07   14.26
  -2   2   6 1374.20   19.22
   2   2  -6 1375.06    6.33
  -2   2   5 1997.41   21.86
  -2  -2   5 2019.80   15.47
  -2   2   5 2030.97   16.25
  -2   2   4  645.87    8.28
  -2  -2   4  635.00    7.67
  -2   2   3 2809.12   21.93
  -2  -2   3 2737.12   14.84
  -2   2   3 2839.14   15.97
  -2   2   3 2735.14   10.65
   2  -2  -3 2739.80   10.33
   2  -2  -2  694.21    7.49
  -2   2   2  694.95    9.80
   2   2  -2  703.51    5.85
  -2  -2   2  688.05    7.13
  -2  -2   2  694.05    5.28
  -2   2   1  957.16    9.71
   2  -2  -1  967.86   11.31
  -2   2   1  980.60    8.95
   2   2  -1  956.69    9.99
  -2  -2   0 9827.56   28.76
   2  -2   0 9999.00   41.67
   2  -2   1 1376.54   16.94
  -2  -2  -1 1336.97   11.61
   2   2   1 1348.00   15.32
  -2  -2  -2    4.03    0.92
   2  -2   2    5.91    1.44
   2   2   3 1359.64   17.49
   2   2   3 1365.76   12.14
  -2  -2  -3 1361.93   15.20
   2  -2   3 1326.68   17.18
  -2   2  -3 1327.37    7.09
  -2  -2  -4 1386.99   17.02
   2   2   4 1378.29   18.56
  -2   2  -4 1416.44   10.22
   2  -2   4 1400.15   18.22
   2   2   4 1396.33   13.79
   2   2   5 2302.83   19.16
  -2  -2  -5 2299.97   23.76
   2   2   5 2355.53   24.76
  -2   2  -5 2333.66   15.56
  -2   2  -6  978.64   11.14
   2   2   6  966.12   12.57
   2   2   6  980.59   16.15
   2  -2   6  958.63   15.72
  -2  -2  -6  970.43   15.99
   2   2   7  132.89    6.28
  -2  -2  -7  127.51    6.12
   2  -2   7  118.39    5.59
   2   2   8  519.09   12.72
  -2  -2  -8  512.50   12.40
   2  -2   8  489.63   11.61
   2   2   9  298.00    9.97
  -2  -2  -9  275.39    9.49
  -2  -2 -10   62.63    5.06
   2   2  10   67.20    5.31
   2  -3 -12  173.97    9.76
   2  -3 -11  171.98    8.96
  -2   3  11  174.40    8.75
  -2  -3  10   27.28    3.35
   2  -3 -10   38.78    4.11
  -2   3  10   35.80    4.08
  -2   3   9  124.93    6.36
  -2   3   9  116.84    6.68
  -2  -3   9  114.83    5.42
  -2   3   8   77.61    5.36
  -2   3   8   75.68    4.52
  -2  -3   8   73.42    3.92
  -2  -3   7  476.91    8.88
  -2   3   7  483.14   10.25
  -2   3   7  491.57   12.78
  -2  -3   6    8.88    1.39
  -2   3   6    8.95    2.10
  -2   3   5 3192.36   30.05
  -2   3   5 3169.60   21.85
  -2  -3   5 3101.06   18.87
  -2  -3   4    3.39    0.73
  -2   3   4    1.03    1.24
  -2   3   4    1.79    0.78
  -2   3   4    2.83    0.43
  -2   3   3   20.31    1.64
  -2  -3   3   20.73    1.44
  -2   3   3   17.15    2.03
   2   3  -3   36.08    1.42
  -2  -3   3   37.34    1.36
  -2   3   2 1114.34   10.61
  -2  -3   2 1182.19   10.16
  -2   3   2 1131.85   13.55
   2  -3  -2 1175.81    9.60
   2   3  -2 1203.38   10.24
   2  -3  -1   92.90    3.35
  -2   3   1  100.56    3.09
   2   3  -1   97.63    3.44
  -2   3   1   98.39    3.33
  -2  -3   1   99.72    3.11
   2   3   0 3176.03   21.82
  -2  -3   0 3147.63   18.34
   2  -3   0 3152.31   11.46
   2  -3   0 3176.56   22.95
  -2   3   0 3182.09   18.57
   2  -3   0 3181.07   10.83
  -2  -3  -1  922.11   10.76
   2   3   1  989.97   13.56
  -2   3  -1  941.73   10.55
   2  -3   1  965.29   14.53
   2   3   2   62.32    3.86
   2  -3   2   66.59    4.23
  -2  -3  -2   57.24    3.07
  -2   3  -2   59.02    2.83
  -2  -3  -3 3302.81   26.01
   2  -3   3 3288.56   30.25
   2   3   3 3358.68   28.95
  -2  -3  -4   54.17    3.78
   2  -3   4   55.69    4.20
   2   3   4   54.41    4.08
   2   3   4   67.39    2.93
   2   3   5   71.15    4.79
  -2  -3  -5   81.36    4.90
   2  -3   5   66.82    4.51
   2   3   5   75.45    3.36
   2   3   6 1748.73   23.66
   2   3   6 1608.63   15.70
  -2  -3  -6 1705.91   22.78
   2  -3   6 1652.05   21.85
  -2  -3  -7  543.41   13.20
   2  -3   7  539.55   12.66
   2   3   7  557.87   13.54
   2   3   8  572.98   14.04
  -2  -3  -8  581.95   14.04
   2   3   9  661.38   15.34
  -2  -3  -9  586.26   14.56
   2   3  10   22.51    3.65
  -2  -3 -10   23.46    3.91
   2  -4 -12   79.76    6.79
  -2   4  11  243.31   11.36
   2  -4 -11  210.71   10.08
   2  -4 -10    9.64    2.68
  -2   4  10   12.49    3.06
  -2   4   9   73.58    5.33
   2  -4  -9   57.72    5.06
   2  -4  -8  247.05    9.53
  -2  -4   8  262.12    7.11
  -2   4   7   41.99    3.42
  -2  -4   7   35.01    2.47
   2  -4  -7   43.66    4.17
  -2  -4   6  162.89    4.68
  -2   4   6  168.67    6.02
  -2   4   5 1199.21   14.58
  -2  -4   5 1169.46   11.42
  -2   4   5 1181.24   19.10
   2   4  -4 1454.03    8.40
  -2   4   4 1403.19   15.14
  -2  -4   4 1418.30   12.22
  -2   4   4 1434.50   19.67
   2   4  -3  367.40    5.42
  -2   4   3  345.37    7.00
  -2  -4   3  356.10    6.02
   2  -4  -3  340.53    8.53
   2  -4  -2  164.07    4.95
   2   4  -2  164.17    4.15
  -2  -4   2  164.87    4.13
  -2   4   2  150.19    4.45
  -2  -4   1    3.06    0.84
  -2   4   1    3.12    0.93
   2  -4  -1    3.23    0.68
  -2  -4   0 4844.78   25.13
   2   4   0 4818.75   28.09
   2  -4   0 4936.67   15.73
   2  -4   0 4787.28   28.85
  -2   4   0 5008.82   26.53
   2   4   1 1142.47   14.83
  -2  -4  -1 1143.76   13.22
   2  -4   1 1149.55    4.49
   2  -4   1 1157.46    5.39
  -2   4  -1 1133.30   12.38
  -2  -4  -2  667.91   11.27
   2   4   2  706.06   12.75
  -2   4  -2  668.83    9.85
   2  -4   2  690.59   13.83
   2  -4   3  473.19   12.27
  -2  -4  -3  476.58   10.52
   2   4   3  490.41   11.52
  -2   4  -3  462.03    8.74
   2  -4   4  180.92    7.94
  -2  -4  -4  181.70    7.31
  -2   4  -4  184.21    6.06
   2   4   5  522.05    8.34
  -2  -4  -5  527.50   13.41
   2   4   5  474.74   12.30
  -2   4  -5  521.15   11.51
   2  -4   5  487.78   12.78
  -2  -4  -6  668.29   15.48
   2   4   6  706.30   15.86
   2   4   7  612.57   15.16
  -2  -4  -7  643.42   15.53
   2   4   8   80.37    5.86
  -2  -4  -8   78.22    5.83
   2   4   9   76.38    5.81
  -2  -4  -9   76.81    5.92
  -2  -4 -10   30.48    4.19
   2   4  10   28.10    4.18
  -2   5  11    2.81    3.48
   2  -5 -11    1.36    2.49
  -2   5  10  428.08   14.51
   2  -5 -10  376.39   13.24
  -2   5   9   62.49    5.44
   2  -5  -9   61.79    5.72
  -2   5   8  528.03   13.49
   2  -5  -8  460.51   14.53
  -2  -5   7 4604.45   27.17
  -2   5   7 4503.43   35.36
  -2   5   6   47.09    3.50
   2  -5  -6   54.03    5.14
  -2  -5   6   52.08    2.83
  -2  -5   5   55.84    2.67
   2  -5  -5   63.57    5.04
  -2   5   5   58.93    3.63
   2  -5  -4  532.58   12.65
  -2  -5   4  547.21    7.85
   2   5  -4  574.54    7.10
  -2   5   4  565.96   10.31
   2   5  -3 1791.34   13.74
  -2  -5   3 1740.52   14.10
  -2   5   3 1767.44   17.28
   2  -5  -3 1763.99   18.97
  -2  -5   2 1913.09   15.11
   2   5  -2 1931.96   16.01
  -2   5   2 1956.28   18.20
   2  -5  -1 1842.04   13.35
  -2  -5   1 1863.88   15.66
   2   5  -1 1839.86   16.80
   2  -5   0  179.91    3.38
   2   5   0  179.99    5.86
  -2  -5   0  176.53    5.21
  -2  -5  -1  718.17   11.21
  -2   5  -1  757.09   11.47
   2   5   1  644.91   11.86
   2  -5   1  669.13    4.84
   2   5   2  410.82   10.09
  -2  -5  -2  398.50    9.25
  -2   5  -2  407.33    8.43
  -2   5  -3    6.76    1.47
   2   5   3    7.32    1.79
  -2  -5  -3    6.54    1.66
  -2  -5  -4 1064.84   18.48
   2   5   4 1085.68   19.11
  -2   5  -5  191.83    7.07
  -2  -5  -5  207.73    8.98
   2   5   5  194.58    8.49
  -2  -5  -6   16.77    3.17
   2   5   6   17.23    2.91
   2   5   7  527.56   14.79
  -2  -5  -7  568.27   15.78
   2   5   8    6.30    2.73
  -2  -5  -8    2.22    2.37
   2   5   9   42.73    4.93
  -2  -5  -9   36.41    4.64
  -2   6  11   78.62    7.80
  -2   6  10    3.72    3.00
   2  -6 -10    2.67    2.70
  -2   6   9  389.13   13.12
   2  -6  -9  372.74   13.92
  -2   6   8  106.83    6.50
   2  -6  -8  111.68    7.84
  -2   6   7   25.99    3.16
   2  -6  -7   39.78    4.90
  -2  -6   6   30.66    2.33
  -2   6   6   24.82    2.84
   2  -6  -6   21.46    3.72
  -2   6   5  587.23   11.90
  -2  -6   5  594.71    8.91
  -2   6   4 1183.34   16.22
  -2  -6   4 1136.39   12.21
   2  -6  -4 1149.38   17.96
  -2   6   3   37.77    2.89
   2   6  -3   39.36    2.44
   2  -6  -3   38.09    2.99
  -2  -6   3   42.02    2.47
  -2  -6   2    3.46    1.06
   2   6  -2    5.80    1.27
   2  -6  -2    3.03    0.96
  -2   6   2    2.35    1.04
   2  -6  -1  248.35    5.30
  -2  -6   1  245.09    6.21
   2   6  -1  260.59    7.12
  -2   6   0 2149.68   19.97
   2   6   0 2130.52   21.35
   2  -6   0 2135.90   12.85
  -2  -6   0 2119.49   19.36
  -2   6  -1  348.25    8.62
   2   6   1  339.49    9.31
  -2  -6  -1  322.95    8.17
  -2  -6  -2  770.82   13.69
   2   6   2  758.10   14.29
  -2  -6  -3  164.58    7.04
   2   6   3  167.35    7.20
   2   6   4   17.96    2.86
  -2   6  -4   21.99    2.70
  -2  -6  -4   15.27    2.76
  -2  -6  -5   52.53    5.04
   2   6   5   53.20    4.87
  -2   6  -5   61.14    4.62
  -2  -6  -6  327.60   12.53
   2   6   6  295.85   11.34
   2   6   7  532.32   15.82
  -2  -6  -7  562.27   16.69
  -2  -6  -8    2.26    2.57
   2   6   8    6.46    2.70
  -2   7  10    6.09    3.31
  -2   7   9   91.03    6.78
   2  -7  -9   78.78    7.36
   2  -7  -8    2.05    2.74
  -2   7   8    4.33    2.52
  -2   7   7  706.27   15.49
   2  -7  -7  710.01   19.65
  -2   7   6   38.31    3.63
   2  -7  -6   46.96    5.06
  -2   7   5  744.60   14.74
  -2  -7   5  773.31   10.86
   2  -7  -4    3.38    1.51
  -2  -7   4    3.24    1.13
  -2   7   4    2.96    1.42
   2  -7  -3  140.11    5.53
  -2   7   3  131.12    5.71
   2   7  -3  139.69    5.21
  -2  -7   3  130.88    4.46
  -2  -7   2   27.31    2.23
   2   7  -2   35.98    2.93
   2  -7  -2   30.39    2.47
  -2   7   2   36.18    3.06
   2  -7  -1  408.46    7.25
  -2  -7   1  381.14    8.32
  -2   7   1  389.13    9.20
   2   7  -1  375.07    9.06
   2   7   0  510.59   11.25
  -2  -7   0  515.81   10.24
  -2   7  -1   96.82    4.81
   2   7   1   90.83    5.19
  -2  -7  -1   93.92    4.78
  -2  -7  -2   14.10    2.27
  -2   7  -2   14.88    2.30
   2   7   2   10.96    2.23
  -2  -7  -3  839.09   16.59
   2   7   3  825.87   16.77
   2   7   4   70.38    5.41
  -2   7  -4   87.03    5.43
  -2  -7  -4   70.96    5.54
  -2  -7  -5   20.06    3.79
   2   7   5   17.53    3.41
  -2  -7  -6  436.32   15.55
   2   7   6  449.63   14.52
  -2  -7  -7  271.33   12.72
   2   7   7  247.28   11.32
  -2   8   8  297.72   10.93
   2  -8  -8  321.05   14.54
  -2   8   7  219.18    9.13
   2  -8  -7  209.24   11.29
   2  -8  -6  499.99   15.61
  -2   8   6  499.55   12.90
  -2   8   5  523.49   12.92
   2  -8  -5  510.39   13.99
  -2   8   4   55.43    4.25
   2  -8  -4   70.79    4.87
  -2   8   3  722.69   14.13
  -2  -8   3  733.11   11.26
   2  -8  -3  744.26   13.19
  -2   8   2  151.43    6.57
   2   8  -2  133.26    5.71
  -2  -8   2  143.44    5.23
   2  -8  -2  155.34    5.51
  -2   8   1  303.47    8.98
   2   8  -1  292.02    8.81
  -2  -8   1  295.52    7.81
  -2  -8   0 2728.09   25.10
   2   8   0 2708.26   28.08
  -2   8  -1  160.47    6.60
  -2  -8  -1  165.11    6.73
   2   8   1  149.84    6.97
  -2   8  -2    7.48    2.05
   2   8   2    6.47    2.11
  -2  -8  -2    2.96    1.64
  -2   8  -3  367.69   10.37
  -2  -8  -3  354.94   11.48
   2   8   3  352.49   11.53
  -2  -8  -4  540.02   15.46
   2   8   4  510.18   14.64
   2   8   5  898.56   20.57
  -2  -8  -5  951.37   22.32
  -2  -8  -6  363.80   15.02
   2   8   6  334.29   13.09
  -2   9   7  394.60   12.77
   2  -9  -7  372.03   15.55
   2  -9  -6    3.45    3.26
  -2   9   6    0.89    2.08
   2  -9  -5  222.69    9.64
  -2   9   5  212.22    9.00
  -2   9   4   60.97    4.89
   2  -9  -4   76.28    5.20
  -2   9   3   92.84    5.70
  -2  -9   2    1.67    1.56
  -2   9   2    1.80    1.64
  -2   9   1  158.07    7.05
   2   9  -1  144.43    7.13
  -2  -9   1  153.95    6.23
  -2  -9   0  149.39    6.55
  -2   9   0  152.77    7.00
   2   9   0  145.70    7.18
  -2   9  -1    0.03    1.64
   2   9   1    3.93    2.05
  -2  -9  -1    1.24    1.87
  -2   9  -2    0.80    1.60
  -2  -9  -2    0.59    1.97
   2   9   2    1.80    2.11
  -2  -9  -3  264.55   10.46
   2   9   3  244.81   10.25
  -2  -9  -4  118.33    8.00
   2   9   4  106.62    7.26
  -2  -9  -5   -0.13    2.94
   2   9   5   -0.15    2.45
   2 -10  -6    3.69    3.09
  -2  10   5  199.44    9.26
  -2  10   4  570.81   15.39
  -2  10   3   -2.76    2.29
  -2  10   2    5.63    2.54
  -2  10   1  120.79    6.88
  -2  10   0  525.08   13.79
  -2 -10   0  601.27   13.81
  -2 -10  -1  286.35   10.25
   2  10   1  241.15   10.27
  -2 -10  -2  518.83   14.38
   2  10   2  414.28   13.69
   2  10   3   26.30    4.16
  -2 -10  -3   36.72    4.78
  -2  11   2  243.05   10.58
  -2  11   1  271.33   11.08
  -3   0  13  305.12   11.77
  -3   0  12  140.02    7.74
  -3   0  11  410.44   12.48
  -3   0  10 2218.53   28.10
  -3   0   9  208.52    8.28
  -3   0   8  663.84   13.67
  -3   0   8  679.25    9.88
  -3   0   7 1142.89   11.02
  -3   0   7 1151.77   16.34
  -3   0   6  873.35    8.53
  -3   0   6  869.95   12.91
  -3   0   5 6375.99   21.73
  -3   0   5 5899.71   30.11
  -3   0   4  182.27    4.05
  -3   0   4  123.63    4.00
  -3   0   3 2759.96   12.94
  -3   0   3 2712.90   15.95
  -3   0   2 6415.33   21.58
  -3   0   1  144.32    3.12
  -3   0   0  365.77    4.80
   3   0   0  377.82    6.66
  -3   0  -1 3568.44   16.22
   3   0   1 3486.57   22.64
  -3   0  -2 4650.01   20.78
   3   0   2 4687.66   28.59
  -3   0  -3 2879.12   18.37
   3   0   3 2883.77   23.95
   3   0   3 2825.75   25.94
   3   0   4 1755.24   19.32
  -3   0  -4 1734.50   16.33
  -3   0  -5   12.85    1.84
   3   0   5   13.70    2.20
   3   0   5   11.45    1.87
   3   0   6  602.33   11.78
  -3   0  -6  643.63   11.69
   3   0   7  331.47    8.85
  -3   0  -7  329.68    8.77
  -3   1  13   17.47    3.79
  -3  -1  12   58.24    5.06
  -3   1  12   60.30    5.54
  -3  -1  11  216.55    8.98
  -3   1  11  231.32    9.82
  -3   1  10  427.31   12.65
  -3  -1  10  416.94   11.95
  -3   1   9 1218.81   15.40
  -3   1   9 1289.45   21.14
  -3  -1   9 1261.25   19.22
  -3   1   8  108.90    4.28
  -3   1   8   94.95    5.57
  -3  -1   8   91.31    4.80
  -3  -1   7  449.63    6.18
  -3   1   7  461.27    7.88
  -3   1   7  464.25   11.33
  -3  -1   7  460.27    9.80
  -3  -1   6    4.03    1.24
  -3   1   6    1.98    0.82
  -3  -1   6    2.18    0.55
   3  -1  -6    3.38    0.68
  -3  -1   5 2502.90    9.75
  -3  -1   5 2546.48   18.97
  -3   1   5 2522.83   15.91
  -3   1   5 2505.93   21.27
  -3  -1   4  131.08    3.88
   3  -1  -4  137.61    3.64
  -3   1   4  139.42    4.44
  -3  -1   3  611.21    7.53
   3  -1  -3  602.68    8.11
  -3   1   2  136.32    3.57
  -3  -1   2  123.61    3.25
   3  -1  -2  128.06    4.12
   3  -1  -1  374.50    7.72
  -3  -1   1  359.76    5.32
  -3  -1   0  124.75    3.31
   3   1   0  128.33    4.04
   3  -1   0  129.24    4.86
  -3   1   0  116.35    2.44
   3   1   1  333.56    6.26
  -3   1  -1  320.58    3.99
   3  -1   1  330.99    8.13
   3   1   1  332.65    7.76
   3   1   2  677.01    9.77
  -3  -1  -2  661.89    8.97
   3   1   2  662.89   11.80
  -3   1  -2  683.10    6.49
   3   1   3    5.62    1.25
  -3  -1  -3    3.67    1.03
   3   1   3    3.03    1.24
  -3   1  -3    2.26    0.65
   3  -1   3    2.75    1.20
  -3   1  -4  626.19    8.59
   3   1   4  615.18   11.20
   3   1   4  598.35   11.96
   3  -1   4  604.78   11.83
  -3  -1  -4  603.63   10.73
   3  -1   5  686.80   13.02
   3   1   5  696.61   13.35
  -3  -1  -5  676.55   12.46
  -3   1  -5  668.92    9.92
  -3  -1  -6   63.31    4.15
  -3   1  -6   57.47    3.29
   3  -1   6   68.53    4.30
   3   1   6   58.30    4.11
   3   1   6   61.77    3.85
   3   1   7  226.07    8.16
   3  -1   7  227.98    7.86
   3   1   7  224.84    7.12
  -3  -1  -7  240.63    8.07
   3  -1   8  455.05   11.48
  -3  -1  -8  442.81   11.17
   3  -2 -13    3.96    3.36
  -3   2  12  268.65   11.05
  -3  -2  12  218.90    9.46
  -3   2  11  111.44    7.04
  -3  -2  11  101.48    6.44
  -3   2  10   86.86    5.17
  -3   2  10   95.16    6.43
  -3   2   9    9.45    2.27
  -3  -2   9    9.81    1.92
  -3   2   9   13.31    2.19
  -3  -2   8  358.92    9.02
  -3   2   8  351.01   10.86
  -3   2   7  433.57    8.69
  -3  -2   7  424.27    9.02
  -3   2   7  408.59   11.17
  -3   2   6  316.81    6.83
  -3  -2   6  319.03    7.40
  -3   2   5   52.41    3.57
  -3  -2   5   52.63    2.76
  -3   2   5   47.44    2.50
   3  -2  -5   47.90    1.17
   3  -2  -4   86.19    2.73
  -3  -2   4   84.21    3.14
  -3   2   3  503.23    7.20
  -3   2   3  493.43    8.43
  -3  -2   3  518.18    7.37
  -3   2   2 3931.18   20.45
  -3  -2   2 3869.42   19.43
   3   2  -2 3899.87   16.02
  -3   2   2 3917.60   20.93
  -3  -2   1  980.61   10.03
   3   2  -1  945.82   10.46
  -3   2   1 1019.26    9.07
   3  -2  -1  982.18   15.37
  -3   2   1 1032.74   11.16
  -3  -2   0 2162.62   15.46
  -3   2   0 2142.99   10.37
   3  -2   0 2180.28   23.73
  -3   2  -1   42.42    1.09
  -3  -2  -1   48.05    2.52
   3   2   1   46.15    3.15
   3  -2   1   50.19    3.75
   3  -2   1   42.00    1.00
  -3  -2  -2  871.58   11.43
   3  -2   2  951.51   15.77
   3   2   2  962.22   14.87
  -3   2  -2  906.78    6.39
  -3   2  -2  922.94    5.15
   3  -2   3  187.76    7.14
   3   2   3  200.78    5.46
  -3   2  -3  190.84    2.95
   3   2   3  197.59    7.13
  -3  -2  -3  180.95    5.98
   3  -2   4 1848.10   21.81
  -3  -2  -4 1759.16   19.96
   3   2   4 1806.79   21.93
  -3   2  -4 1700.53   11.01
   3   2   4 1752.26   17.41
   3  -2   5  530.76   12.01
   3   2   5  524.78   10.46
  -3  -2  -6   97.71    5.44
   3   2   6   99.90    5.60
   3  -2   6   94.26    5.39
   3   2   6   92.57    4.52
   3  -2   7  374.82   10.70
   3   2   7  382.42   10.93
  -3  -2  -7  366.94   10.71
  -3  -2  -8   29.99    3.53
   3   2   8   28.78    3.63
   3  -2   8   26.36    3.23
  -3  -2  -9  318.59   10.47
   3   2   9  355.40   11.31
   3   2  10   24.36    3.89
   3  -3 -12  229.67   10.91
  -3   3  11   59.26    5.41
  -3   3  11   67.39    5.94
  -3  -3  11   52.32    4.70
  -3   3  10  850.41   19.07
  -3  -3  10  839.58   15.74
  -3   3   9 2228.39   29.37
  -3  -3   9 2372.26   24.30
  -3   3   8    0.54    1.65
  -3   3   8    0.17    1.27
  -3  -3   8    2.60    1.34
  -3   3   7  139.88    7.01
  -3  -3   7  154.57    5.47
  -3   3   7  148.65    5.61
  -3   3   6  880.65   16.71
  -3   3   6  895.12   12.59
  -3  -3   6  909.71   11.73
  -3   3   5 2667.99   19.68
  -3  -3   5 2719.81   18.79
  -3  -3   4 1441.36   13.04
  -3   3   4 1474.79   19.52
   3  -3  -4 1467.03    9.73
   3   3  -3 4101.06   14.87
  -3  -3   3 4095.57   21.91
   3  -3  -3 4059.51   20.77
  -3   3   2  440.00    7.67
  -3   3   2  428.77    9.13
  -3  -3   2  445.09    7.13
   3  -3  -2  453.04    8.30
   3   3  -2  436.85    6.91
  -3  -3   1 1520.87   13.62
  -3   3   1 1499.81   13.69
   3  -3  -1 1535.78   18.02
  -3   3   0    8.67    1.29
  -3  -3   0   11.86    1.41
   3   3   0   12.59    1.80
   3  -3   0   10.63    1.90
   3  -3   0    8.73    0.54
  -3   3  -1 1107.58   13.20
   3   3   1 1119.14   16.31
   3  -3   1 1103.13   18.21
  -3  -3  -1 1113.21   13.14
   3   3   2 3978.15   32.64
  -3  -3  -2 4092.42   27.42
   3  -3   2 4037.38   35.22
   3  -3   3   19.71    2.88
  -3  -3  -3   20.62    2.36
   3   3   3   22.04    2.72
  -3  -3  -4  165.15    6.70
   3   3   4  154.85    6.90
   3   3   4  162.05    5.22
   3  -3   4  161.02    7.28
   3   3   5 1661.97   22.60
   3   3   5 1686.19   17.88
   3  -3   5 1631.63   22.82
  -3  -3  -5 1706.78   22.75
   3  -3   6  462.14   12.27
  -3  -3  -6  434.80   11.97
   3   3   6  426.67    9.42
   3   3   7  129.43    6.75
   3  -3   7  123.12    6.37
  -3  -3  -7  129.50    6.78
   3  -3   8  654.33   14.86
  -3  -3  -8  680.87   15.61
   3   3   8  684.88   15.87
  -3  -3  -9  121.90    7.06
   3   3   9  129.26    7.24
   3   3  10  362.08   12.32
   3  -4 -12  187.07   10.30
  -3   4  11    9.02    3.38
   3  -4 -11    6.87    2.81
  -3  -4  10  478.89   12.01
   3  -4 -10  483.97   14.33
  -3  -4   9   69.87    4.27
  -3   4   9   70.70    5.64
  -3   4   8   18.85    3.23
  -3   4   8   17.44    2.59
  -3  -4   8   16.73    2.20
  -3   4   7  640.72   12.34
  -3  -4   7  637.03   10.50
  -3   4   7  642.02   15.70
  -3   4   6    2.37    1.15
  -3  -4   6    3.46    1.14
  -3   4   6    2.55    1.65
  -3  -4   5  448.99    7.80
  -3   4   5  469.23   12.43
  -3   4   5  455.49    8.92
  -3   4   4   28.06    2.30
  -3   4   4   29.86    3.23
   3   4  -4   31.57    1.14
  -3  -4   4   30.22    2.12
  -3   4   3   76.82    3.50
   3   4  -3   91.38    3.18
  -3  -4   3   84.03    3.35
  -3   4   3   83.14    4.60
   3  -4  -3   88.52    3.14
  -3   4   2 4567.79   26.19
  -3  -4   2 4548.24   24.24
   3   4  -2 4431.21   26.67
   3  -4  -2 4394.40   25.35
  -3   4   2 4366.62   26.89
  -3   4   1  142.74    4.97
  -3  -4   1  149.49    4.73
   3   4  -1  129.19    5.10
   3  -4  -1  131.95    3.46
   3  -4  -1  133.02    5.32
  -3   4   0  140.29    4.84
   3  -4   0  157.16    6.62
  -3  -4   0  149.59    4.90
   3   4   0  147.46    5.94
   3  -4   0  149.57    2.34
  -3   4  -1  410.59    8.45
  -3  -4  -1  414.76    8.80
   3   4   1  421.05   10.44
   3  -4   1  423.87   11.84
  -3  -4  -2 1571.46   18.54
   3   4   2 1662.26   22.23
  -3   4  -2 1560.89   17.51
   3  -4   2 1625.77   24.47
   3   4   3  989.12   17.95
   3  -4   3  989.11   19.45
  -3  -4  -3  960.01   15.72
  -3   4  -3  929.30   14.57
  -3  -4  -4 1525.73   21.90
  -3   4  -4 1485.95   20.84
   3   4   4 1564.05   23.13
   3  -4   4 1521.90   23.62
   3   4   4 1560.20   16.18
  -3  -4  -5   71.95    5.24
   3   4   5   70.76    5.11
   3   4   5   80.03    3.94
   3  -4   5   64.10    5.00
  -3  -4  -6   23.64    3.49
   3   4   6   21.67    3.24
   3  -4   6   26.87    3.61
  -3  -4  -7  304.24   11.06
   3   4   7  298.80   10.65
  -3  -4  -8   66.74    5.59
   3   4   8   56.91    5.15
  -3  -4  -9  517.29   14.90
   3   4   9  546.01   15.07
   3  -5 -11  232.81   11.27
  -3   5  11  314.14   13.67
   3  -5 -10  158.57    8.98
  -3   5  10  182.02    9.49
   3  -5  -9  399.01   13.80
  -3   5   9  422.80   12.54
  -3   5   8   66.84    4.58
   3  -5  -8   67.03    5.70
  -3  -5   8   71.52    4.10
   3  -5  -7  732.87   17.98
  -3  -5   7  716.69   11.26
  -3   5   7  717.79   13.79
  -3  -5   6  112.21    4.22
  -3   5   6  108.20    4.97
  -3   5   5 1005.57   14.36
   3  -5  -5  990.84   19.61
  -3  -5   5  995.67   11.91
  -3  -5   4   37.68    2.46
  -3   5   4   29.69    2.45
   3   5  -4   38.94    2.00
   3  -5  -4   30.63    3.33
  -3   5   3  143.77    5.27
   3   5  -3  146.52    4.82
  -3  -5   3  143.70    4.60
   3  -5  -3  144.48    5.73
  -3   5   2    9.51    1.63
   3   5  -2   10.74    1.68
  -3  -5   2    7.68    1.35
   3  -5  -2    9.04    1.32
  -3  -5   1 1175.69   14.09
   3   5  -1 1173.45   16.53
   3  -5  -1 1162.27   15.31
   3  -5  -1 1174.69   10.12
  -3   5   0   84.09    4.21
  -3  -5   0   90.83    4.13
   3   5   0   96.35    5.18
   3  -5   0   83.68    1.97
   3  -5   0   93.11    5.18
  -3  -5  -1  618.52   11.51
   3   5   1  597.31   13.34
   3  -5   1  587.81   14.14
  -3   5  -2   31.78    2.74
   3   5   2   43.25    3.93
  -3  -5  -2   33.54    3.10
   3  -5   2   39.18    4.17
  -3   5  -3    1.26    1.18
  -3  -5  -3    1.33    1.58
   3   5   3    0.63    1.42
   3  -5   3    1.34    1.83
  -3   5  -4 1198.10   18.73
  -3  -5  -4 1217.28   20.61
   3   5   4 1220.34   21.61
   3  -5   4 1191.72   22.77
  -3   5  -5  192.67    8.36
  -3  -5  -5  210.86    9.35
   3   5   5  212.19    9.32
  -3   5  -6  197.65    9.74
   3   5   6  182.09    8.71
  -3  -5  -6  206.10    9.72
  -3  -5  -7  501.15   15.20
   3   5   7  519.00   14.80
  -3  -5  -8  238.67   10.67
   3   5   8  226.38   10.00
  -3  -5  -9   41.15    5.04
  -3   6  11  117.92    8.83
  -3   6  10 1087.87   22.70
   3  -6 -10  945.31   22.31
  -3   6   9   86.76    5.94
   3  -6  -9   85.62    7.34
  -3   6   8   99.86    5.82
   3  -6  -8  109.08    8.20
  -3  -6   7  424.57    9.29
   3  -6  -7  397.33   14.70
  -3  -6   6  125.48    4.67
  -3   6   6  113.78    5.48
   3  -6  -6  128.64    8.08
   3  -6  -5 1204.03   21.75
  -3   6   5 1238.26   17.13
  -3   6   4    2.17    1.19
  -3  -6   4    1.95    0.97
  -3   6   3  377.20    9.18
   3  -6  -3  383.38    8.78
  -3  -6   3  389.60    7.91
   3  -6  -2 2405.25   18.27
   3   6  -2 2341.33   22.76
  -3  -6   2 2326.21   19.88
  -3   6   2 2445.42   23.29
  -3   6   1    6.18    1.52
  -3  -6   1    7.86    1.62
   3   6  -1    8.45    1.83
  -3  -6   0    4.39    1.37
  -3   6   0    5.70    1.49
   3   6   0    2.77    1.50
  -3   6  -1  835.35   14.31
  -3  -6  -1  824.14   14.10
   3   6   1  821.26   16.32
  -3   6  -2 1345.40   18.20
   3   6   2 1326.04   21.59
   3   6   3  888.81   18.29
  -3  -6  -3  865.39   17.17
  -3   6  -4  784.88   15.89
   3   6   4  754.17   17.55
  -3   6  -5    9.17    2.57
  -3  -6  -5   11.34    3.15
   3   6   5    7.63    2.50
  -3  -6  -6  143.81    8.65
   3   6   6  131.74    8.06
   3   6   7  142.35    8.40
  -3  -6  -7  138.05    8.64
  -3  -6  -8  199.11   10.39
   3   6   8  182.64    9.41
  -3   7  10  449.19   14.74
   3  -7 -10  460.84   16.83
  -3   7   9 1030.07   20.31
   3  -7  -9 1204.17   27.09
   3  -7  -8   10.69    3.93
  -3   7   8    7.94    2.29
  -3   7   7    2.12    1.55
   3  -7  -7   -0.65    2.61
  -3   7   6  218.17    8.15
  -3  -7   6  231.88    6.72
  -3   7   5 1009.70   16.89
  -3  -7   5 1032.17   13.62
   3  -7  -5  992.52   19.16
  -3  -7   4  484.43    9.32
  -3   7   4  466.26   11.17
   3  -7  -4  465.37   11.23
  -3  -7   3  925.23   12.87
  -3   7   3  906.43   14.85
   3  -7  -2  147.86    4.85
  -3   7   2  148.22    6.23
   3   7  -2  150.70    6.27
  -3  -7   2  132.47    5.03
  -3  -7   1  122.27    5.15
   3   7  -1  135.15    6.28
  -3   7   1  138.97    6.08
  -3   7   0    2.67    1.45
   3   7   0    0.21    1.46
  -3  -7   0    1.25    1.27
  -3   7  -1  106.14    5.61
  -3  -7  -1  102.89    5.39
   3   7   1   95.02    5.91
  -3   7  -2 1069.32   16.56
  -3  -7  -2 1123.84   18.80
   3   7   2 1133.17   20.78
  -3   7  -3    3.51    1.96
   3   7   3    4.98    2.22
  -3  -7  -3    4.50    1.87
  -3  -7  -4    4.47    2.48
   3   7   4    7.80    2.56
  -3   7  -4    5.31    2.78
   3   7   5  715.28   18.52
  -3  -7  -5  576.06   17.43
  -3  -7  -6   30.62    4.87
   3   7   6   26.70    4.37
  -3  -7  -7   14.58    3.94
   3   7   7    6.78    3.02
   3  -8  -9    2.18    3.45
  -3   8   9    2.53    2.55
  -3   8   8  197.21    8.94
   3  -8  -8  192.61   11.48
  -3   8   7   97.54    6.18
   3  -8  -7   89.91    7.56
  -3   8   6  101.64    6.08
   3  -8  -6  126.09    7.79
  -3   8   5   51.28    4.32
   3  -8  -5   50.47    4.60
   3  -8  -4   34.32    3.44
  -3  -8   4   33.84    2.90
  -3   8   4   38.04    3.65
  -3  -8   3  159.17    5.82
  -3   8   3  166.36    7.16
  -3  -8   2  730.41   12.65
  -3   8   2  701.99   13.97
  -3   8   1  183.96    7.44
  -3  -8   1  167.85    6.50
   3   8  -1  172.88    7.54
  -3   8   0  740.81   14.97
  -3  -8   0  719.71   14.04
  -3   8  -1    5.53    2.00
   3   8   1    4.46    2.10
  -3  -8  -1    6.83    2.20
  -3   8  -2  177.02    7.74
  -3  -8  -2  175.09    8.07
   3   8   2  168.36    8.58
  -3   8  -3   24.48    3.65
  -3  -8  -3   25.22    3.69
   3   8   3   15.49    3.14
  -3  -8  -4  636.37   17.93
   3   8   4  506.61   15.38
  -3  -8  -5  243.96   12.33
   3   8   5  243.52   11.40
  -3  -8  -6   77.09    7.59
   3   8   6   72.11    6.63
   3  -9  -8    1.64    3.71
   3  -9  -7    7.82    3.83
  -3   9   7    9.12    2.90
   3  -9  -6   43.42    5.17
  -3   9   6   49.92    4.75
  -3   9   5  559.40   14.60
   3  -9  -5  548.90   14.45
  -3   9   4   81.00    5.65
  -3   9   3  498.11   13.03
  -3  -9   3  513.01   11.10
  -3  -9   2   12.26    2.31
  -3   9   2    9.87    2.38
  -3   9   1   12.71    2.76
  -3  -9   1   17.00    2.73
  -3  -9   0   16.27    2.72
  -3   9   0   16.73    2.76
   3   9   0   14.04    3.21
  -3   9  -1   27.55    3.57
   3   9   1   33.15    4.45
  -3  -9  -1   33.99    3.84
  -3   9  -2  433.15   13.03
  -3  -9  -2  437.11   13.26
   3   9   2  415.95   14.10
  -3  -9  -3    6.20    2.85
   3   9   3    7.86    2.91
  -3  -9  -4   23.63    4.71
   3   9   4   21.38    4.13
  -3  10   5  424.20   13.66
  -3  10   4    2.40    2.28
  -3  10   3  236.31    9.90
  -3  10   2 1248.86   22.23
  -3  10   1    2.11    2.20
  -3 -10   1    0.36    1.91
  -3  10   0   25.40    3.63
  -3 -10   0   26.04    3.60
  -3  10  -1  202.74    9.13
   3  10   1  205.78   10.34
  -3 -10  -2  547.95   15.54
   3  10   2  513.41   16.18
   3  10   3  454.92   15.68
  -4   0  13    7.73    3.18
  -4   0  12    2.42    2.64
  -4   0  11  183.28    8.99
  -4   0  10 1033.60   20.14
  -4   0   9   77.01    5.28
  -4   0   8  531.10    7.95
  -4   0   8  545.53   12.46
  -4   0   7  191.27    4.49
  -4   0   7  186.10    6.80
  -4   0   6  914.04   13.56
  -4   0   6 1084.80   10.35
  -4   0   5  437.33    6.95
  -4   0   5  333.01    7.56
  -4   0   4   34.91    1.66
  -4   0   4   32.53    2.19
  -4   0   3  458.01    6.96
  -4   0   3  488.25    6.89
  -4   0   2  461.59    6.60
  -4   0   1  258.98    4.91
   4   0  -1  266.02    6.24
  -4   0   0 1907.61   13.09
   4   0   0 1854.75   17.68
  -4   0  -1  366.97    6.07
   4   0   1  370.34    8.52
  -4   0  -2  720.63    9.27
   4   0   2  705.65   12.51
  -4   0  -3   30.56    2.23
   4   0   3   22.74    2.64
  -4   0  -4  685.99   11.13
   4   0   4  503.43   11.72
  -4   0  -5  766.67   12.64
   4   0   5  795.42   15.21
  -4   0  -6   60.80    3.99
   4   0   6   62.23    4.40
   4   0   7  249.57    8.61
  -4   1  13   14.76    3.78
  -4  -1  13   14.64    3.56
  -4   1  12  773.38   18.77
  -4  -1  12  799.40   18.69
  -4   1  11  569.84   16.01
  -4  -1  11  550.52   14.92
  -4   1  10    6.08    2.49
  -4  -1  10   11.12    2.51
  -4   1   9    5.05    2.11
  -4   1   9    2.03    1.26
  -4  -1   9    1.03    1.47
  -4   1   8   19.43    2.91
  -4   1   8   22.87    2.06
  -4  -1   8   17.32    2.42
  -4   1   7 2923.75   27.86
   4  -1  -7 3118.62   18.12
  -4   1   7 3234.65   21.20
  -4  -1   7 3002.05   14.06
  -4  -1   7 3102.42   26.40
  -4  -1   6  721.80    6.45
  -4  -1   6  743.55   12.08
  -4   1   6  719.68   12.64
  -4  -1   5 2074.28   18.44
  -4   1   5 2103.77   19.71
   4  -1  -5 2074.58   17.25
  -4  -1   4  336.33    4.65
   4  -1  -4  331.49    6.94
  -4   1   4  338.25    7.05
   4  -1  -3  349.41    7.44
  -4   1   3  335.22    6.19
  -4  -1   3  345.01    6.28
   4  -1  -2    1.54    0.93
  -4   1   2    1.31    0.54
  -4  -1   2    1.86    0.72
  -4   1   2    3.42    0.93
  -4  -1   1 1159.08   11.16
   4  -1  -1 1156.37   15.25
  -4   1   1 1126.60    9.41
  -4  -1   0 1489.83   13.03
  -4   1   0 1492.41   10.79
  -4  -1  -1   59.12    2.80
  -4   1  -1   62.93    2.24
   4   1   1   61.90    3.76
   4  -1   1   62.91    4.08
   4   1   1   63.30    3.29
  -4  -1  -2   31.51    2.27
  -4   1  -2   36.63    1.89
   4   1   2   24.44    2.63
   4   1   2   30.21    2.51
   4  -1   2   26.44    2.78
  -4  -1  -3 1363.54   15.70
  -4   1  -3 1349.70   12.05
   4   1   3 1366.30   17.65
   4   1   3 1331.52   19.07
   4  -1   3 1385.48   19.67
  -4  -1  -4  252.58    7.47
   4   1   4  258.92    8.21
  -4   1  -4  253.58    5.88
   4  -1   4  255.28    8.68
   4   1   4  277.29    8.93
  -4  -1  -5   24.98    2.73
   4   1   5   29.49    3.26
   4   1   5   22.79    2.75
   4  -1   5   28.78    3.15
  -4  -1  -6  967.04   16.13
   4   1   6  977.41   16.74
   4   1   6 1019.87   18.22
   4  -1   6  975.09   17.26
  -4  -1  -7  315.37    9.55
   4  -1   7  344.80   10.59
   4   1   7  327.38    9.62
   4  -1   8  219.94    8.67
  -4  -2  13   27.62    4.61
  -4   2  13   35.03    5.03
  -4  -2  12  527.81   15.22
  -4   2  12  505.59   15.70
  -4   2  11  137.25    8.13
  -4  -2  11  158.61    8.02
  -4  -2  10   44.50    4.04
  -4   2  10   46.92    4.82
  -4   2  10   47.08    3.96
  -4   2   9  531.04   14.46
  -4  -2   9  524.08   12.23
  -4   2   8  686.00   15.63
  -4  -2   8  700.58   13.17
  -4  -2   7  926.19   14.10
  -4   2   7  920.96   12.69
   4  -2  -6   59.46    2.05
  -4   2   6   71.84    3.31
  -4   2   6   64.53    4.27
  -4  -2   6   64.76    3.50
  -4   2   5 1480.86   17.59
  -4  -2   5 1505.45   14.69
  -4   2   5 1458.33   13.42
  -4   2   4 4255.72   23.04
  -4  -2   4 4278.62   23.95
  -4   2   4 4254.17   27.48
  -4   2   3  447.55    7.75
  -4  -2   3  428.78    7.48
  -4   2   3  430.76    7.92
  -4   2   2 1186.51   13.17
  -4   2   2 1162.34   11.56
  -4   2   1 1952.48   13.19
  -4  -2   1 1972.02   15.78
   4   2  -1 1990.21   16.52
   4  -2  -1 2051.95   24.25
  -4   2   1 2018.76   17.48
  -4   2   0 4265.00   17.09
  -4  -2   0 4269.45   24.52
  -4  -2  -1 2491.43   19.59
   4   2   1 2523.93   24.02
  -4  -2  -2 1243.15   15.12
   4   2   2 1252.68   14.72
   4   2   2 1269.05   18.31
  -4   2  -2 1242.80    8.43
   4   2   3 1323.25   16.25
  -4  -2  -3 1297.40   16.78
   4   2   3 1328.34   19.10
   4  -2   3 1341.19   20.19
   4   2   4  241.69    7.64
  -4  -2  -4  246.38    8.03
   4   2   4  244.90    8.59
   4  -2   4  255.77    9.08
  -4  -2  -5  305.86    9.47
   4   2   5  323.21    9.35
   4  -2   5  294.17    9.70
  -4  -2  -6 1250.51   19.81
   4   2   6 1235.21   20.16
   4  -2   6 1262.64   20.64
  -4  -2  -7 1120.49   19.19
   4  -2   7 1180.45   20.14
   4   2   7 1145.12   19.77
   4   2   8   47.98    4.59
   4  -2   8   41.78    4.30
  -4   3  12  259.73   11.73
  -4  -3  12  244.75   10.36
  -4  -3  11   34.79    4.00
  -4   3  11   26.76    4.17
  -4   3  10  100.30    7.12
  -4  -3  10  101.50    5.84
  -4   3   9  579.02   15.57
  -4  -3   9  558.26   12.32
  -4  -3   8  790.77   13.61
  -4   3   8  730.53   16.69
  -4  -3   7 2116.94   20.55
  -4   3   7 2107.89   27.04
  -4   3   6    6.45    1.33
  -4   3   6    3.37    1.65
  -4  -3   6    5.88    1.33
  -4   3   5  891.15   11.64
  -4   3   5  906.73   16.32
  -4  -3   5  971.25   12.27
   4  -3  -5  966.99    9.05
  -4   3   4    9.33    1.44
  -4   3   4   12.48    2.14
  -4  -3   4   12.87    1.54
   4  -3  -4   12.17    1.46
  -4   3   3 3813.24   29.40
  -4  -3   3 3788.26   23.60
   4  -3  -3 3854.22   28.32
  -4   3   2 1101.79   14.51
  -4  -3   2 1100.19   12.72
   4   3  -2 1101.80   11.57
  -4   3   1  189.88    5.87
  -4   3   1  167.15    5.05
  -4  -3   1  188.95    5.48
   4   3  -1  173.89    5.50
   4  -3  -1  170.60    7.67
  -4   3   0  416.21    6.29
   4  -3   0  400.10   12.12
  -4  -3   0  388.00    8.13
   4   3   0  365.73    9.04
  -4   3   0  388.94    8.50
  -4  -3  -1    5.89    1.31
   4  -3   1    6.28    1.94
  -4  -3  -2 1093.96   15.53
   4   3   2 1137.52   18.02
   4  -3   2 1132.95   20.06
  -4  -3  -3   78.93    4.63
   4   3   3   83.36    5.17
   4   3   3   85.85    4.18
   4  -3   3   81.80    5.49
  -4  -3  -4  139.29    6.59
   4   3   4  141.58    6.84
   4   3   4  142.78    5.68
   4  -3   4  131.07    6.85
  -4  -3  -5  370.42   11.16
   4   3   5  371.30    9.66
   4   3   5  373.55   11.30
   4  -3   5  381.58   11.81
  -4  -3  -6  357.65   11.36
   4   3   6  345.40   11.12
   4   3   6  319.55    9.07
   4  -3   6  355.52   11.47
  -4  -3  -7   28.83    3.75
   4   3   7   31.73    3.92
   4  -3   7   31.63    3.93
  -4  -3  -8   77.65    5.74
   4   3   8   84.98    6.06
   4  -3   8   85.30    6.09
   4   3   9  100.43    6.86
   4  -4 -12   87.30    7.22
  -4  -4  11  141.18    7.44
  -4   4  11  161.31    9.04
  -4  -4  10   73.91    4.96
  -4   4  10   76.50    6.37
  -4   4   9   63.18    5.58
  -4   4   9   74.26    5.03
  -4  -4   9   62.58    4.26
  -4  -4   8  388.00    9.58
  -4   4   8  383.42   12.75
  -4   4   8  408.58   10.37
  -4  -4   7   35.21    2.87
  -4   4   7   34.41    2.92
  -4  -4   6   27.77    2.38
  -4   4   6   25.39    3.38
  -4   4   6   28.20    2.52
  -4   4   5  255.82    9.75
  -4   4   5  252.69    7.01
  -4  -4   5  251.55    6.42
  -4  -4   4  800.49   11.42
  -4   4   4  803.85   12.18
   4  -4  -4  818.51   10.46
  -4   4   3  337.50    9.82
  -4   4   3  356.30    8.27
   4   4  -3  361.74    6.15
  -4  -4   3  359.82    7.67
   4  -4  -3  363.28    8.12
  -4   4   2   11.24    1.80
  -4  -4   2    7.57    1.38
  -4   4   2    8.74    1.64
   4  -4  -2    6.94    1.64
  -4   4   1  251.63    7.00
  -4  -4   1  270.62    6.97
   4   4  -1  238.57    7.15
  -4   4   1  253.95    5.20
   4  -4  -1  269.11    9.39
  -4  -4   0 2331.80   21.37
   4   4   0 2197.35   23.94
  -4   4   0 2306.47   21.58
   4  -4   0 2227.74   29.12
   4  -4   0 2251.94    8.46
  -4   4  -1  246.69    7.40
  -4  -4  -1  259.75    7.59
   4   4   1  270.44    8.96
   4  -4   1  267.77   10.60
  -4   4  -2  578.75   12.27
  -4  -4  -2  588.44   12.31
   4   4   2  624.60   14.05
   4  -4   2  644.34   16.69
   4  -4   3  289.92   11.12
  -4  -4  -3  271.65    9.10
   4   4   3  277.66    9.61
  -4   4  -3  261.89    9.20
  -4  -4  -4   16.53    2.90
   4   4   4   11.86    2.10
   4   4   4    8.86    2.33
   4  -4   4   15.99    3.09
  -4  -4  -5  320.71   11.20
   4   4   5  336.34   11.28
   4   4   5  323.01    8.89
   4  -4   5  336.76   11.86
  -4  -4  -6  319.20   11.55
   4   4   6  325.92   11.16
   4  -4   6  298.69   11.07
  -4  -4  -7  471.39   14.18
   4   4   7  480.80   13.95
   4  -4   7  470.40   14.10
   4   4   8    1.86    2.34
  -4  -4  -8    6.55    3.00
  -4   5  11 1074.76   23.94
   4  -5 -11  807.64   20.67
   4  -5 -10    1.95    2.45
  -4   5  10    0.01    2.33
  -4   5   9   51.39    5.33
  -4   5   9   61.18    4.82
  -4  -5   9   57.06    4.21
  -4   5   8  232.81    8.22
  -4  -5   8  247.12    7.52
  -4   5   8  234.46   10.56
  -4  -5   7 1801.17   18.88
  -4   5   7 1755.97   20.90
  -4   5   6 1019.07   21.34
  -4  -5   6  956.63   13.10
  -4   5   5 1598.48   18.44
  -4   5   5 1593.26   25.35
  -4   5   4  273.93    9.64
  -4   5   4  284.93    7.85
   4   5  -4  286.60    4.91
  -4  -5   4  284.70    7.15
  -4   5   3   22.83    2.44
  -4   5   3   19.24    2.43
   4   5  -3   27.66    2.18
  -4  -5   3   20.15    2.03
   4  -5  -3   21.14    2.13
  -4  -5   2   37.95    2.83
   4   5  -2   42.78    3.11
   4  -5  -2   36.07    2.41
  -4   5   2   39.87    3.29
   4  -5  -2   33.66    3.06
  -4   5   1 1341.20   17.58
  -4  -5   1 1307.16   16.26
   4   5  -1 1308.49   18.56
   4  -5  -1 1299.83   10.26
  -4   5   0 1815.05   20.21
  -4  -5   0 1759.88   19.70
   4   5   0 1778.71   23.12
  -4   5  -1   74.02    4.24
  -4  -5  -1   76.97    4.50
   4   5   1   82.21    5.34
  -4   5  -2   66.41    4.42
  -4  -5  -2   64.53    4.52
   4   5   2   76.45    5.42
   4  -5   2   68.72    5.96
  -4   5  -3 1574.23   22.58
  -4  -5  -3 1642.83   23.74
   4   5   3 1635.75   24.79
   4  -5   3 1675.37   27.98
  -4   5  -4  214.47    9.39
  -4  -5  -4  220.77    9.44
   4   5   4  235.11    9.69
   4  -5   4  217.47   10.06
  -4  -5  -5  228.10   10.15
   4   5   5  237.70    9.75
   4  -5   5  237.48   10.63
  -4  -5  -6  944.73   21.03
   4   5   6  954.24   20.11
   4  -5   6  967.18   20.78
  -4  -5  -7  415.40   14.37
   4   5   7  393.58   12.93
  -4  -5  -8  483.79   15.50
  -4   6  11   97.66    7.67
   4  -6 -11  105.00    8.23
  -4   6  10  315.59   11.53
   4  -6 -10  312.83   13.20
  -4   6   9   -0.57    1.71
   4  -6  -9    3.11    3.16
   4  -6  -8  393.79   15.19
  -4  -6   8  384.36    9.74
  -4   6   8  357.10   10.73
   4  -6  -7    6.29    2.77
  -4  -6   7    6.43    1.66
  -4   6   7    5.91    1.79
  -4   6   6  147.05    6.34
   4  -6  -6  144.19    8.80
  -4  -6   6  159.33    5.61
   4  -6  -5    3.13    2.26
  -4   6   5    1.62    1.23
  -4  -6   5    2.30    1.32
  -4  -6   4   77.62    3.97
  -4   6   4   69.21    4.35
   4  -6  -4   72.72    4.85
  -4   6   3  164.38    6.62
   4  -6  -3  151.32    5.50
   4   6  -3  158.76    5.64
  -4  -6   3  161.29    5.71
  -4   6   2   72.49    4.46
  -4  -6   2   65.84    3.85
   4   6  -2   63.35    4.18
   4  -6  -2   70.43    3.14
  -4  -6   1    3.84    1.48
   4   6  -1    3.03    1.55
  -4   6   1    7.11    1.75
  -4  -6   0 1198.52   17.41
   4   6   0 1134.84   19.52
   4  -6   0 1167.83   20.95
  -4   6  -1    2.15    1.37
   4   6   1    3.85    1.84
  -4  -6  -1    2.76    1.62
   4  -6   1    8.16    2.79
  -4   6  -2  505.66   12.38
  -4  -6  -2  503.40   13.05
   4   6   2  512.52   14.11
   4  -6   2  504.72   16.31
   4  -6   3   11.55    3.22
   4   6   3    8.16    2.43
  -4  -6  -3   10.66    2.89
  -4   6  -3    6.59    2.07
  -4   6  -4   90.88    6.61
  -4  -6  -4   89.97    6.75
   4   6   4   80.44    6.10
  -4   6  -5  393.71   15.13
  -4  -6  -5  388.64   14.17
   4   6   5  378.84   13.08
  -4  -6  -6  119.39    8.27
   4   6   6  106.64    7.15
  -4  -6  -7  244.44   11.75
   4   6   7  240.57   10.81
  -4   7  10   30.30    4.24
   4  -7 -10   34.62    5.65
  -4   7   9   85.94    5.95
   4  -7  -9   93.69    8.17
  -4   7   8  109.57    6.39
   4  -7  -8   99.91    8.31
  -4   7   7 1024.27   18.29
   4  -7  -7  991.52   24.13
  -4  -7   6    4.66    1.49
   4  -7  -6    8.27    3.18
  -4   7   6    7.57    2.12
  -4  -7   5  270.16    7.50
  -4   7   5  271.45    9.06
   4  -7  -5  272.16   10.07
  -4  -7   4   25.84    2.54
  -4   7   4   28.89    3.08
   4  -7  -4   33.68    3.28
  -4  -7   3  638.76   11.81
   4  -7  -3  615.88   10.67
   4   7  -2  135.20    6.58
  -4  -7   2  127.21    5.55
  -4   7   1  153.77    6.90
  -4  -7   1  143.20    6.18
  -4   7   0  119.46    6.44
  -4  -7   0  103.13    5.61
   4   7   0   98.96    6.26
  -4   7  -1    1.40    1.76
   4   7   1    3.61    2.29
  -4  -7  -1    3.48    2.02
  -4  -7  -2  221.13    9.12
   4   7   2  239.27   10.16
  -4   7  -3   51.08    5.36
  -4  -7  -3   60.99    5.53
   4   7   3   42.65    4.81
  -4   7  -4   64.74    6.77
  -4  -7  -4   67.28    6.33
   4   7   4   61.73    5.74
  -4  -7  -5  103.80    8.30
   4   7   5   87.42    6.85
  -4  -7  -6  190.51   11.21
   4   7   6  172.94    9.39
  -4   8   9  229.13   10.00
   4  -8  -9  305.93   14.93
   4  -8  -8  223.71   12.61
  -4   8   8  233.94    9.64
  -4   8   7  365.46   11.71
   4  -8  -7  347.42   14.35
  -4   8   6   42.39    4.22
   4  -8  -6   48.53    5.16
  -4  -8   6   41.80    3.49
  -4  -8   5  584.54   11.64
   4  -8  -5  563.57   13.86
  -4   8   4 1466.27   22.00
  -4  -8   4 1511.75   18.88
  -4   8   3  110.52    6.13
  -4  -8   3  128.09    5.67
  -4   8   2  367.19   11.15
  -4  -8   2  347.67    9.62
  -4   8   1  710.75   15.17
  -4  -8   1  730.50   14.51
  -4   8   0 1350.89   20.88
  -4  -8   0 1364.32   20.86
  -4  -8  -1 1009.32   18.93
   4   8   1  966.04   20.64
  -4  -8  -2  450.04   13.79
   4   8   2  451.17   14.50
  -4   8  -3  480.59   14.72
  -4  -8  -3  496.62   15.52
   4   8   3  509.45   15.67
  -4  -8  -4  168.59   10.10
   4   8   4  136.36    8.68
  -4  -8  -5  113.74    9.13
   4   8   5  102.96    7.70
   4  -9  -8   31.98    5.90
  -4   9   7  566.29   15.44
   4  -9  -7  470.93   16.61
  -4   9   6   95.44    6.56
  -4   9   5  411.70   12.58
  -4   9   4   34.01    4.11
  -4  -9   4   27.97    3.23
  -4   9   3  288.34   10.40
  -4  -9   3  283.69    8.97
  -4   9   2   85.03    5.73
  -4  -9   2   98.67    5.62
  -4   9   1  203.53    8.83
  -4  -9   1  207.58    8.31
  -4   9   0  332.21   11.63
  -4  -9   0  330.20   10.90
  -4  -9  -1   15.98    3.41
   4   9   1    9.02    3.27
  -4   9  -1   11.06    3.08
  -4   9  -2   71.37    6.11
  -4  -9  -2   63.94    5.82
   4   9   2   54.82    5.62
  -4  -9  -3   28.87    5.04
   4   9   3   26.76    4.71
  -4  10   4    4.63    2.52
  -4  10   3   86.04    6.35
  -4  10   2   74.50    5.94
  -4 -10   2   83.85    5.67
  -4 -10   1    5.08    2.50
  -4  10   1    3.52    2.66
  -4 -10   0  332.77   11.67
  -4 -10  -1   15.25    3.51
  -4  10  -1   10.34    3.22
   4  10   2   64.90    6.48
  -5   0  13   -0.10    2.96
  -5   0  12   13.42    3.76
  -5   0  11  147.84    8.63
  -5   0  10 1304.69   23.33
  -5   0   9  211.76    8.76
  -5   0   8  566.96    8.44
  -5   0   8  521.32   12.57
  -5   0   7  930.45   15.37
  -5   0   7 1104.30   11.78
  -5   0   6 2293.53   17.07
  -5   0   6 1916.37   20.72
  -5   0   5   57.35    2.41
  -5   0   5   63.69    3.43
  -5   0   4  664.68    8.88
  -5   0   4  618.54    9.60
  -5   0   3  956.50   11.17
   5   0  -2 2849.87   23.09
  -5   0   2 2716.01   18.38
   5   0  -1 2934.55   24.21
  -5   0   1 2883.76   18.89
  -5   0   0 3863.95   21.95
   5   0   0 3830.75   29.41
  -5   0  -1 1935.82   16.02
   5   0   1 1873.94   21.63
  -5   0  -2   22.55    2.05
   5   0   2   17.55    2.52
  -5   0  -3  178.47    5.74
   5   0   3  180.64    7.44
   5   0   4 2567.22   28.69
  -5   0  -4 2447.56   22.68
   5   0   5 1872.88   25.79
   5   0   6   20.49    3.21
   5   0   7   40.21    4.23
  -5   1  13   63.67    6.39
  -5  -1  13   73.33    6.72
  -5  -1  12  162.13    9.15
  -5   1  12  182.06   10.05
  -5  -1  11   30.07    4.22
  -5   1  11   31.15    4.59
  -5  -1  10  556.60   14.38
  -5   1  10  535.16   15.67
  -5   1   9 1485.33   23.98
  -5  -1   9 1496.19   22.31
  -5   1   8   84.35    5.29
  -5   1   8   77.92    3.68
  -5  -1   8   78.80    4.86
   5  -1  -7   19.85    2.17
  -5   1   7   25.21    2.12
  -5  -1   7   25.65    1.57
  -5  -1   7   22.99    2.71
  -5   1   7   17.31    2.40
  -5   1   6  312.55    6.67
  -5  -1   6  309.28    7.97
  -5   1   6  325.55    8.80
   5  -1  -6  297.32    7.73
  -5  -1   5 2657.04   14.39
  -5   1   5 2662.76   18.21
  -5  -1   5 2724.80   21.46
  -5   1   5 2661.68   22.89
   5  -1  -5 2747.72   23.05
  -5   1   4  683.75    9.75
  -5   1   4  661.03   10.18
   5  -1  -4  684.60   11.88
  -5  -1   4  670.31   10.13
  -5   1   3  898.97   11.49
  -5   1   3  861.89   11.01
  -5  -1   3  808.69   10.80
   5  -1  -3  843.12   13.51
  -5   1   2    0.43    0.55
  -5  -1   2    1.26    0.80
   5  -1  -2    0.67    0.95
   5  -1  -1   53.84    3.82
  -5  -1   1   50.30    2.73
  -5   1   1   51.22    2.41
  -5   1   0  313.62    5.97
  -5  -1   0  297.53    6.63
   5  -1   0  284.88    8.92
   5   1   0  294.17    7.67
  -5  -1  -1  318.26    7.16
  -5   1  -1  325.08    6.04
   5   1   1  322.47    8.40
   5  -1   1  326.98    9.99
  -5  -1  -2 1082.59   14.24
  -5   1  -2 1091.09   11.37
   5   1   2 1060.20   16.25
  -5   1  -3   17.10    1.74
   5   1   3   15.98    2.37
   5  -1   3   15.63    2.63
  -5  -1  -4  580.12   12.23
   5   1   4  557.63   13.25
   5  -1   4  568.67   14.20
  -5  -1  -5  330.43    9.87
   5   1   5  331.18   10.58
   5  -1   5  340.51   11.08
   5   1   6  146.78    7.37
   5  -1   6  144.29    7.51
   5  -1   7    3.59    2.44
  -5   2  13   73.61    6.98
  -5  -2  13   72.35    6.72
  -5   2  12  625.32   18.33
  -5  -2  12  615.77   16.93
  -5  -2  11  110.90    6.99
  -5   2  11  116.63    8.07
  -5   2  10 1085.67   23.03
  -5  -2  10  997.13   18.79
  -5   2   9   77.32    5.96
  -5  -2   9   88.93    5.54
  -5   2   8   84.70    4.28
  -5   2   8   68.50    5.19
  -5  -2   8   72.55    4.56
  -5   2   7  152.61    6.88
  -5   2   7  166.52    5.35
  -5  -2   7  160.79    6.17
  -5   2   6  205.72    5.53
  -5  -2   6  226.98    6.75
  -5   2   6  227.54    7.71
  -5  -2   5 1147.68   14.21
  -5  -2   5 1162.96    8.74
  -5   2   5 1139.11   12.97
   5  -2  -5 1154.18   17.59
  -5   2   4    7.67    1.55
  -5   2   4    5.88    1.27
  -5  -2   4    7.14    1.40
   5  -2  -4    2.59    1.68
  -5   2   3  197.93    5.87
  -5  -2   3  176.18    5.36
  -5   2   3  198.27    5.74
   5  -2  -3  186.01    8.10
  -5   2   2 3668.65   25.49
  -5   2   2 3685.72   22.49
  -5  -2   2 3619.46   23.93
   5  -2  -2 3685.12   35.86
  -5   2   1  270.85    5.50
  -5  -2   1  282.28    6.74
   5  -2  -1  270.60    9.22
  -5  -2   0    1.91    1.04
  -5   2   0    2.17    0.73
   5  -2   0    3.29    1.82
  -5  -2  -1  567.84   10.50
   5   2   1  590.09   12.63
   5   2   1  590.49   11.07
  -5   2  -1  550.86    7.01
  -5  -2  -2 1136.02   15.84
   5   2   2 1092.58   18.03
   5   2   2 1105.53   15.85
  -5  -2  -3  815.45   14.47
   5   2   3  837.04   16.26
   5   2   3  798.12   14.41
   5  -2   3  786.22   16.59
  -5  -2  -4  281.98    9.28
   5   2   4  255.27    9.36
   5   2   4  262.76    8.86
   5  -2   4  288.55   10.26
  -5  -2  -5   16.22    2.96
   5   2   5   18.04    3.06
   5   2   5   13.00    2.78
   5  -2   5   17.16    2.82
  -5  -2  -6    8.43    2.51
   5   2   6    7.03    2.29
   5   2   6    9.35    2.53
   5  -2   6   13.98    3.19
   5  -2   7  330.46   11.86
   5  -2   8   51.70    5.34
  -5  -3  12   29.92    4.31
  -5   3  12   26.72    4.71
  -5   3  11    2.77    2.82
  -5  -3  11    1.75    2.22
  -5  -3  10    9.35    2.40
  -5   3  10   11.58    2.75
  -5   3  10    5.41    2.44
  -5  -3   9  943.57   16.81
  -5   3   9  869.61   19.46
  -5   3   8  705.69   12.48
  -5  -3   8  702.70   13.66
  -5   3   8  702.91   16.98
  -5  -3   7 1111.36   15.84
  -5   3   7 1069.17   19.84
  -5  -3   6  193.26    6.14
  -5   3   6  189.43    5.78
   5  -3  -6  180.82    4.47
  -5   3   5  425.31   11.25
   5  -3  -5  406.13    8.30
  -5  -3   5  418.21    8.74
  -5  -3   5  421.26    4.82
  -5   3   4    1.73    1.22
  -5  -3   4    2.56    1.13
  -5   3   4    0.81    1.27
   5  -3  -4   -0.52    1.42
  -5  -3   3 3769.85   26.01
  -5   3   3 3747.68   28.99
  -5   3   2 1230.10   15.72
  -5  -3   2 1222.44   14.85
   5   3  -2 1294.82   14.31
  -5   3   2 1286.75   15.95
  -5   3   1  119.65    5.11
  -5  -3   1  134.55    5.04
   5   3  -1  133.16    5.17
  -5   3   1  138.34    4.97
  -5  -3   0    2.27    1.13
  -5   3   0    1.48    1.02
  -5   3   0    5.04    1.54
   5   3   0    6.69    1.66
   5  -3   0    6.19    2.35
  -5  -3  -1  143.59    5.73
   5   3   1  146.07    6.50
   5  -3   1  149.52    7.93
   5   3   2  835.88   13.83
  -5  -3  -2  845.03   14.75
   5   3   2  853.32   16.38
  -5  -3  -3  793.31   15.49
   5   3   3  824.57   16.74
   5   3   3  788.01   14.11
   5  -3   3  839.38   18.01
  -5  -3  -4 1259.70   20.82
   5   3   4 1260.40   18.96
   5  -3   4 1260.35   21.96
  -5  -3  -5  531.64   14.36
   5   3   5  485.28   12.32
   5   3   5  518.82   13.99
   5  -3   5  528.29   14.94
  -5  -3  -6   61.19    5.40
   5   3   6   58.13    5.13
   5  -3   6   52.51    5.06
   5   3   7  305.94   11.34
   5  -3   7  311.60   11.93
   5  -3   8  470.58   14.32
  -5   4  12  172.53   10.20
  -5   4  11    2.38    2.77
  -5   4  11   -0.11    2.65
  -5  -4  11    5.11    2.76
  -5   4  10  890.01   21.00
  -5  -4  10  933.98   17.55
  -5   4   9   24.88    3.08
  -5   4   9   20.55    3.57
  -5  -4   9   22.91    3.05
  -5   4   8   17.20    3.29
  -5   4   8   20.55    2.57
  -5  -4   8   19.62    2.52
  -5  -4   7  244.34    7.32
  -5   4   7  250.48    7.35
  -5  -4   6   54.34    3.46
  -5   4   6   58.95    3.73
  -5   4   5  381.96    8.98
  -5  -4   5  379.26    8.66
   5  -4  -5  394.63    7.63
  -5   4   4  181.62    6.26
  -5   4   4  194.80    8.95
   5  -4  -4  183.60    6.13
  -5  -4   4  198.49    6.38
  -5   4   3   93.82    4.89
  -5  -4   3   84.59    4.25
  -5   4   3   86.18    5.79
   5   4  -3   87.40    3.42
   5  -4  -3   89.34    5.15
  -5   4   2 2175.62   22.54
   5  -4  -2 2157.04   28.35
  -5  -4   2 2207.84   21.16
   5   4  -2 2203.32   19.74
  -5   4   1   88.84    4.74
  -5  -4   1   96.73    4.69
   5   4  -1   83.28    4.52
   5  -4  -1   91.16    6.51
  -5   4   1  101.25    3.94
  -5   4   0  401.96   10.16
  -5  -4   0  402.38    9.78
   5   4   0  410.33   10.66
   5  -4   0  412.35   13.91
  -5   4  -1  780.98   15.11
  -5  -4  -1  763.43   14.03
   5   4   1  782.14   15.51
   5  -4   1  796.38   19.06
  -5  -4  -2  112.20    5.87
   5   4   2  116.46    6.38
   5  -4   2  133.77    7.96
  -5   4  -2  111.77    6.39
  -5  -4  -3  295.97   10.25
   5   4   3  290.81   10.35
   5  -4   3  302.96   11.93
   5   4   3  318.33    9.54
  -5   4  -3  275.11   11.09
  -5  -4  -4  813.15   17.92
   5   4   4  830.94   17.93
   5   4   4  847.89   15.73
   5  -4   4  833.64   19.56
   5   4   5  187.91    8.73
   5   4   5  160.40    7.30
   5  -4   5  189.88    9.49
  -5  -4  -5  186.17    9.20
  -5  -4  -6   10.72    3.13
   5   4   6   11.75    2.92
   5  -4   6   13.00    3.29
  -5  -4  -7   28.78    4.44
   5   4   7   29.75    4.26
   5  -4   7   26.71    4.23
  -5   5  11   52.61    5.60
  -5   5  11   43.94    5.56
  -5   5  10  927.25   18.59
  -5  -5  10  916.07   17.53
  -5   5   9 1112.01   23.95
  -5   5   9 1155.92   19.09
  -5  -5   9 1178.22   18.76
  -5  -5   8  294.28    8.73
  -5   5   8  282.47    8.86
  -5   5   8  277.01   11.85
  -5  -5   7   55.85    3.68
  -5   5   7   63.97    4.12
  -5   5   7   55.15    5.49
  -5   5   6  175.20    6.57
  -5   5   6  188.23    9.83
  -5  -5   6  183.26    6.30
  -5  -5   5 2702.57   23.91
  -5   5   5 2699.24   25.69
  -5   5   4  838.29   14.72
  -5   5   4  792.96   17.66
  -5  -5   4  834.73   13.47
   5  -5  -4  811.04   12.49
  -5   5   3  337.16    9.64
  -5  -5   3  295.23    8.09
   5   5  -3  304.64    6.83
  -5   5   3  300.22    9.15
   5  -5  -3  327.19    9.24
  -5   5   2  211.96    7.71
  -5   5   2  190.20    5.53
  -5  -5   2  193.05    6.75
   5   5  -2  189.30    6.41
   5  -5  -2  210.17    8.45
  -5  -5   1    3.06    1.44
  -5   5   1    3.07    1.42
   5   5  -1    1.64    1.25
  -5   5   0  421.62   10.57
  -5  -5   0  462.07   11.25
   5   5   0  452.57   11.80
   5  -5   0  448.27   15.15
  -5   5  -1  582.29   13.43
  -5  -5  -1  580.88   13.16
   5   5   1  594.65   14.31
  -5   5  -2  751.90   16.64
  -5  -5  -2  739.79   15.87
   5   5   2  752.93   16.68
   5  -5   2  744.54   19.78
  -5   5  -3   37.35    4.39
  -5  -5  -3   51.00    4.84
   5   5   3   47.48    4.46
   5  -5   3   52.04    5.72
  -5   5  -4  162.32    9.70
  -5  -5  -4  167.87    8.91
   5   5   4  176.20    8.56
   5   5   4  181.26    7.68
   5  -5   4  176.91    9.60
  -5  -5  -5  155.78    9.06
   5   5   5  175.30    8.85
   5  -5   5  157.87    8.95
  -5  -5  -6  318.24   13.04
   5   5   6  295.80   11.52
   5  -5   6  317.53   12.81
  -5  -5  -7    9.91    3.46
   5  -6 -11   14.53    4.02
  -5   6  11   22.23    4.01
  -5   6  10  577.67   14.73
   5  -6 -10  602.48   18.24
  -5   6   9   30.01    3.72
  -5  -6   9   28.21    3.42
   5  -6  -9   22.91    4.12
  -5  -6   8  112.41    5.71
  -5   6   8   79.41    5.03
  -5  -6   7  291.66    8.31
  -5   6   7  292.52    9.35
  -5   6   6  350.85    9.83
  -5  -6   6  345.84    8.81
  -5   6   5  115.33    5.94
  -5  -6   5  109.01    5.04
  -5  -6   4  142.51    5.89
   5  -6  -4  130.31    6.21
  -5   6   3  158.92    7.09
   5   6  -3  151.88    5.41
  -5  -6   3  151.58    6.14
   5  -6  -3  153.31    6.28
  -5   6   2 1369.45   20.14
  -5  -6   2 1383.62   18.80
   5   6  -2 1332.54   18.23
   5  -6  -2 1374.78   21.05
  -5  -6   1  637.89   13.23
   5   6  -1  622.27   13.64
   5  -6  -1  599.31   15.32
  -5   6   0  974.87   17.24
  -5  -6   0  962.41   17.10
   5   6   0  990.14   18.10
   5  -6   0  936.76   21.47
  -5   6  -1  686.05   15.17
   5   6   1  701.97   15.98
   5  -6   1  683.52   19.40
  -5   6  -2   17.81    3.02
  -5  -6  -2   23.52    3.49
   5   6   2   24.64    3.60
   5  -6   2   18.08    3.75
  -5   6  -3  173.58    9.34
  -5  -6  -3  167.43    8.79
   5   6   3  173.32    8.68
   5  -6   3  179.71   10.55
  -5   6  -4 1051.68   25.76
  -5  -6  -4 1066.24   23.46
   5   6   4 1089.78   21.88
  -5   6  -5  571.72   21.58
  -5  -6  -5  613.20   18.59
   5   6   5  602.82   16.48
  -5  -6  -6    6.90    3.40
   5   6   6   15.37    3.68
   5  -7 -10   10.35    4.00
  -5   7  10    7.77    2.92
  -5   7   9  382.09   11.98
   5  -7  -9  421.65   16.97
  -5  -7   8   67.74    4.82
  -5   7   8   65.03    5.16
   5  -7  -8   68.17    7.49
  -5   7   7  261.13    9.34
   5  -7  -7  239.74   12.46
  -5   7   6  139.38    6.82
   5  -7  -6  139.48    8.73
  -5  -7   6  149.72    6.15
  -5   7   5  278.53    9.48
  -5  -7   5  263.95    8.12
   5  -7  -5  266.78    9.96
  -5   7   4   19.63    3.00
  -5  -7   4   17.47    2.51
  -5   7   3  995.02   18.07
  -5  -7   3  921.77   15.51
  -5   7   2  325.02   10.57
  -5  -7   2  298.42    9.27
  -5   7   1   69.74    5.05
  -5  -7   1   70.15    4.85
   5   7  -1   71.20    5.13
  -5  -7   0   -0.72    1.71
  -5   7   0    0.61    1.79
   5   7   0    1.25    1.88
  -5  -7  -1   17.55    3.22
  -5   7  -1   10.77    2.73
   5   7   1   12.39    2.80
  -5   7  -2  522.58   15.91
  -5  -7  -2  505.93   15.09
   5   7   2  476.90   14.29
  -5  -7  -3  229.66   11.00
   5   7   3  221.21   10.08
  -5  -7  -4  621.66   18.95
   5   7   4  564.74   16.34
  -5  -7  -5  216.21   12.12
   5   7   5  201.89   10.17
   5  -8  -9   45.20    6.71
  -5   8   8   52.53    4.98
   5  -8  -8   42.14    6.37
  -5  -8   7   41.00    3.81
  -5   8   7   45.81    4.47
   5  -8  -7   35.40    5.38
  -5   8   6  163.29    8.03
  -5  -8   6  155.52    6.54
  -5   8   5  409.84   12.42
  -5  -8   5  398.54   10.39
  -5   8   4    6.29    2.37
  -5  -8   4    1.68    1.66
  -5   8   3  142.33    7.63
  -5  -8   3  128.32    6.24
  -5   8   2 1067.02   19.99
  -5  -8   2 1076.16   18.12
  -5   8   1  182.64    8.43
  -5  -8   1  185.85    7.99
  -5  -8   0   13.49    2.90
   5   8   0    8.03    2.67
  -5   8   0   10.88    2.81
  -5   8  -1  138.75    8.04
  -5  -8  -1  134.97    7.73
   5   8   1  135.60    8.03
  -5  -8  -2  551.91   16.43
   5   8   2  492.16   15.21
  -5  -8  -3  343.42   14.17
   5   8   3  313.38   12.36
   5   8   4   56.18    5.79
  -5   9   6   53.03    5.34
  -5  -9   5  338.89   10.08
  -5   9   5  399.71   13.20
  -5   9   4   54.99    5.14
  -5  -9   4   52.99    4.42
  -5   9   3  609.83   15.52
  -5  -9   3  623.53   14.36
  -5   9   2   63.04    5.39
  -5  -9   2   60.99    5.00
  -5   9   1    5.08    2.45
  -5  -9   1    8.74    2.84
  -5   9   0   43.60    4.96
  -5  -9   0   40.67    4.64
  -5  -9  -1   10.13    3.17
  -5   9  -1    8.57    3.02
   5   9   1    1.34    2.49
  -5   9  -2  263.51   13.03
   5   9   2  223.34   10.70
  -5 -10   3  156.16    7.86
  -5  10   2  352.99   12.67
  -5 -10   2  390.50   12.50
  -5  10   1  177.17    9.11
  -5 -10   1  196.56    9.20
  -6   0  13  365.94   15.42
  -6   0  12  454.32   16.28
  -6   0  11  536.88   16.48
  -6   0  10   22.65    3.44
  -6   0   9   25.93    3.45
  -6   0   8 1259.78   20.34
  -6   0   7 1196.75   13.55
  -6   0   7 1016.55   16.84
  -6   0   6   20.62    1.74
  -6   0   6   25.73    2.63
  -6   0   5  826.59   10.69
  -6   0   5  837.97   13.00
  -6   0   4 1584.40   16.54
   6   0  -4 1627.40   18.27
  -6   0   4 1630.45   15.69
   6   0  -3  586.14   11.36
  -6   0   3  591.83    9.83
  -6   0   2  873.34   11.75
   6   0  -2  885.71   14.35
   6   0  -1  938.24   15.62
  -6   0   1  944.27   12.49
   6   0   0 3156.55   29.81
  -6   0   0 3340.58   23.55
  -6   0  -1 1344.78   15.25
   6   0   1 1270.64   19.93
  -6   0  -2  751.07   11.98
   6   0   2  708.28   15.59
  -6   0  -3 1015.86   14.67
   6   0   3  911.44   17.30
   6   0   4  158.26    8.09
   6   0   5  648.05   16.54
   6   0   6 1054.94   20.88
   6   0   7  523.07   14.83
  -6  -1  13    5.00    3.48
  -6   1  13    2.47    3.22
  -6  -1  12  324.12   13.20
  -6   1  12  305.82   13.81
  -6  -1  11  222.28   10.33
  -6   1  11  226.60   11.19
  -6   1  10   19.06    3.82
  -6  -1  10   22.94    3.47
  -6   1   9   95.21    6.21
  -6  -1   9   93.75    6.14
  -6  -1   8   28.18    3.38
  -6   1   8   23.26    3.12
  -6   1   7 1641.78   16.11
  -6  -1   7 1662.97   20.78
  -6  -1   6   11.93    1.25
  -6   1   6   15.13    1.72
  -6  -1   6   13.03    2.01
  -6   1   6   14.18    2.14
   6  -1  -6   13.48    2.37
  -6  -1   5 1752.52   14.34
  -6   1   5 1731.03   16.42
  -6  -1   5 1721.95   18.29
   6  -1  -5 1770.04   21.68
  -6   1   4   64.31    3.47
  -6   1   4   63.07    3.52
   6  -1  -4   73.60    4.60
  -6  -1   4   60.58    3.41
  -6   1   3  393.22    8.13
   6  -1  -3  394.54   10.57
  -6  -1   3  410.07    8.54
  -6   1   3  400.12    8.64
  -6   1   2   13.94    1.64
  -6  -1   2   18.39    2.00
   6  -1  -2   19.15    2.61
  -6  -1   1  188.05    5.80
   6  -1  -1  193.44    7.82
  -6   1   1  188.12    5.31
   6  -1   0  680.43   15.03
  -6  -1   0  685.33   11.36
   6   1   0  678.44   13.20
  -6   1   0  722.38   10.46
   6   1   1  628.10   13.34
  -6  -1  -1  584.81   10.83
  -6   1  -1  613.84    9.77
   6  -1   1  558.27   13.89
  -6  -1  -2  719.22   12.78
  -6   1  -2  676.86   10.28
   6   1   2  716.84   15.07
   6  -1   2  680.86   15.56
  -6  -1  -3  353.10    9.67
   6   1   3  337.56   10.85
  -6  -1  -4  113.39    6.09
   6   1   4  115.97    6.71
   6  -1   4  113.39    6.96
   6   1   5   16.25    3.32
   6  -1   5   16.89    3.34
   6  -1   6  951.58   20.22
   6   1   6  929.05   19.61
   6  -1   7   56.46    5.54
  -6  -2  13   28.97    5.02
  -6  -2  12  517.32   15.98
  -6   2  12  534.65   17.82
  -6   2  11   35.82    5.18
  -6  -2  11   32.43    4.63
  -6   2  10  581.68   17.01
  -6  -2  10  590.62   15.07
  -6  -2   9   13.21    2.67
  -6   2   9   21.62    2.59
  -6   2   9   19.21    3.42
  -6   2   8   60.10    4.94
  -6   2   8   66.09    3.76
  -6  -2   8   72.12    4.96
  -6   2   7  206.07    6.23
  -6  -2   7  213.00    7.44
  -6   2   7  210.52    8.34
  -6  -2   6  696.43    7.50
  -6  -2   6  742.62   12.74
  -6   2   6  734.32   14.14
  -6   2   5  106.96    4.51
   6  -2  -5  103.90    6.44
  -6   2   5  118.43    5.49
  -6  -2   5  118.25    3.62
  -6  -2   5  113.27    4.91
  -6   2   4  208.84    6.40
  -6   2   4  199.53    6.61
  -6  -2   4  216.52    6.52
  -6   2   3   22.92    2.39
  -6   2   3   26.16    2.40
  -6  -2   3   23.49    2.34
   6  -2  -3   27.89    3.82
  -6   2   2  185.00    5.57
  -6  -2   2  180.79    5.97
  -6   2   2  197.57    6.71
  -6   2   1 1386.26   14.47
  -6  -2   1 1365.29   16.37
  -6   2   0  224.48    5.51
  -6  -2   0  239.38    7.14
   6   2   0  239.52    7.68
   6  -2   0  245.83    9.79
   6   2   1    8.24    1.83
  -6  -2  -1   10.74    1.93
   6  -2   1    5.50    2.07
  -6  -2  -2  854.27   15.11
   6   2   2  833.97   15.75
  -6  -2  -3   82.65    5.30
   6   2   3   87.11    5.58
   6  -2   3   76.88    5.74
  -6  -2  -4   30.35    3.68
   6   2   4   23.47    3.43
   6  -2   4   29.18    4.01
  -6  -2  -5    4.12    2.45
   6   2   5    3.28    2.14
   6  -2   5    4.15    2.41
   6   2   6   58.76    5.43
   6  -2   6   53.76    5.37
   6  -2   7  529.50   15.99
  -6  -3  13    6.95    3.85
  -6  -3  12 1000.02   21.24
  -6   3  12  985.88   23.76
  -6   3  11 1057.72   24.13
  -6  -3  11 1105.03   21.26
  -6   3  10   81.91    5.39
  -6  -3  10   79.90    5.58
  -6   3  10   78.59    6.63
  -6   3   9  244.09    8.02
  -6  -3   9  244.71    9.06
  -6   3   9  222.54   10.31
  -6   3   8  172.51    6.21
  -6  -3   8  169.38    7.01
  -6   3   8  177.69    8.81
  -6   3   7 2755.76   23.85
  -6   3   7 2820.73   32.50
  -6  -3   6 1345.48   17.48
  -6   3   6 1376.16   21.55
  -6   3   6 1262.09   15.70
   6  -3  -6 1264.00   15.84
  -6   3   5  989.24   17.11
   6  -3  -5 1019.47   17.91
  -6  -3   5  972.69   14.49
  -6  -3   4 1380.26   17.33
   6  -3  -4 1336.81   24.11
  -6  -3   3   12.26    1.94
  -6   3   3    8.38    1.68
  -6   3   3   10.53    2.14
   6  -3  -3   10.77    3.06
  -6   3   2  287.89    8.41
  -6  -3   2  299.53    8.10
  -6   3   2  285.42    8.19
  -6   3   1 1608.62   20.72
  -6  -3   1 1616.47   18.93
  -6   3   1 1590.23   18.44
   6   3   0  930.63   16.64
   6  -3   0  927.90   20.53
  -6   3   0  912.17   17.01
  -6  -3  -1  100.31    5.30
   6   3   1  107.30    6.08
   6   3   1  104.90    5.33
   6  -3   1  108.79    7.10
  -6  -3  -2    9.88    2.18
   6   3   2    8.69    2.51
   6   3   2    5.71    1.93
   6  -3   2    7.43    2.51
  -6  -3  -3  196.00    8.42
   6   3   3  208.67    9.00
   6   3   3  191.41    8.06
   6  -3   3  194.39    9.42
  -6  -3  -4  528.59   14.71
   6   3   4  533.92   14.74
   6   3   4  516.43   13.77
   6  -3   4  487.76   14.75
  -6  -3  -5   26.15    4.04
   6   3   5   27.64    4.03
   6   3   5   25.39    3.79
   6  -3   5   24.42    3.95
  -6  -3  -6  382.02   13.30
   6  -3   6  438.65   14.78
   6  -3   7  167.52    9.60
  -6   4  12  395.73   15.38
  -6  -4  12  454.64   14.65
  -6   4  11   30.87    4.96
  -6  -4  11   40.10    4.58
  -6   4  10  114.15    8.00
  -6   4  10  133.34    6.97
  -6  -4  10  130.52    7.12
  -6  -4   9    7.63    2.45
  -6   4   9    6.74    2.69
  -6   4   9    8.66    2.11
  -6   4   8  449.35   14.85
  -6   4   8  450.16   10.56
  -6  -4   7  440.47   10.56
  -6   4   7  436.84   10.22
  -6   4   6  169.56    6.30
  -6   4   6  186.05    9.46
  -6  -4   6  184.10    6.68
  -6   4   5   56.10    3.93
  -6  -4   5   56.89    3.87
  -6   4   4  483.62   14.80
  -6  -4   4  487.75   10.89
   6  -4  -4  462.94   12.25
  -6   4   3  251.13    8.29
  -6   4   3  260.20   10.76
  -6  -4   3  255.75    7.94
  -6   4   2   21.63    2.65
  -6   4   2   26.71    3.69
  -6  -4   2   25.03    2.72
   6   4  -2   21.88    2.37
   6  -4  -2   19.77    3.68
  -6   4   1 1019.88   17.22
  -6  -4   1 1051.59   16.40
   6   4  -1 1030.88   16.17
   6  -4  -1 1068.42   24.23
  -6   4   0  910.48   17.14
  -6  -4   0  916.46   15.92
   6   4   0  929.24   16.61
   6  -4   0  945.87   22.44
  -6   4  -1  264.48   10.13
  -6  -4  -1  254.19    8.89
   6   4   1  277.48    9.80
   6  -4   1  275.11   11.97
  -6  -4  -2  525.37   13.70
   6   4   2  520.57   13.92
   6   4   2  545.26   13.01
   6  -4   2  565.94   16.65
  -6   4  -2  517.68   15.46
  -6  -4  -3   69.32    5.53
   6   4   3   68.17    5.36
   6   4   3   79.00    5.44
   6  -4   3   73.77    6.25
  -6   4  -3   63.70    6.39
   6   4   4    9.34    2.87
  -6  -4  -4    5.19    2.71
   6   4   4    4.33    2.35
   6  -4   4   -0.33    2.71
  -6  -4  -5   88.76    7.09
   6   4   5   78.66    6.23
   6   4   5   91.27    6.34
   6  -4   5   87.52    7.09
   6   4   6  323.50   12.23
   6  -4   6  333.36   13.39
  -6   5  11   28.25    4.86
  -6   5  11   28.66    4.06
  -6  -5  11   39.18    4.70
  -6   5  10   50.51    4.67
  -6  -5  10   48.84    4.43
  -6   5  10   47.99    5.91
  -6  -5   9  318.26   10.15
  -6   5   9  342.57   13.81
  -6   5   8    4.31    3.06
  -6  -5   8    3.71    1.99
  -6   5   8    1.36    1.47
  -6  -5   7  468.55   11.18
  -6   5   7  424.14   10.61
  -6   5   6   81.80    7.14
  -6   5   6   81.96    4.87
  -6  -5   6   83.28    4.73
  -6   5   5 1087.83   24.65
  -6  -5   5 1137.13   17.04
   6  -5  -5 1070.25   15.04
  -6   5   4  411.63   11.01
  -6   5   4  439.60   14.65
  -6  -5   4  436.70   10.72
  -6  -5   3  605.76   12.74
   6   5  -3  611.97   10.66
  -6   5   2   18.85    2.72
  -6  -5   2   13.93    2.38
   6   5  -2   16.11    2.19
   6  -5  -2   13.25    3.31
  -6  -5   1    2.04    1.48
  -6   5   1    4.39    1.71
   6   5  -1    4.52    1.83
   6  -5  -1    7.29    3.00
  -6   5   0  325.65   10.79
  -6  -5   0  309.56    9.93
   6   5   0  311.48   10.16
   6  -5   0  288.38   13.33
  -6   5  -1  944.89   19.53
  -6  -5  -1  912.06   17.95
   6   5   1  952.57   18.34
  -6   5  -2  944.81   21.09
  -6  -5  -2  955.17   19.65
   6   5   2  978.67   19.35
   6  -5   2 1008.22   24.10
  -6   5  -3  270.93   12.73
  -6  -5  -3  298.32   11.88
   6   5   3  279.80   10.97
   6  -5   3  299.54   13.06
   6   5   4    4.01    2.86
  -6   5  -4    6.96    4.01
  -6  -5  -4    4.41    2.84
   6   5   4    2.96    2.50
   6  -5   4    1.28    3.07
  -6   5  -5   80.35    9.59
  -6  -5  -5   72.17    6.81
   6   5   5   74.28    6.27
   6  -5   5   77.68    6.96
  -6   5  -6 1079.72   39.04
  -6  -5  -6  773.64   20.94
  -6   6  11  119.46    7.31
  -6  -6  10    7.35    2.94
  -6   6  10    3.36    2.29
  -6   6   9   21.16    3.19
  -6  -6   9   21.44    3.27
  -6   6   9   23.31    4.62
  -6  -6   8  542.56   12.53
  -6   6   8  522.74   12.96
  -6  -6   7  291.21    9.00
  -6   6   7  304.60   14.23
  -6   6   7  265.90    8.87
  -6   6   6    1.17    2.95
  -6   6   6    5.12    2.16
  -6  -6   6    0.45    1.40
  -6   6   5  173.09    7.73
  -6   6   5  164.62    9.43
  -6  -6   5  159.62    6.75
  -6  -6   4  662.54   13.78
   6  -6  -4  622.24   12.86
  -6   6   3  175.69    7.65
  -6  -6   3  191.94    7.57
   6  -6  -3  172.46    7.70
  -6   6   2  153.55    7.50
  -6  -6   2  147.22    6.83
   6   6  -2  139.26    6.12
   6  -6  -2  142.91    8.02
  -6   6   1  466.00   12.68
  -6  -6   1  474.74   12.34
   6   6  -1  473.22   12.26
   6  -6  -1  460.19   16.01
  -6   6   0 1083.03   20.15
  -6  -6   0 1116.49   19.94
   6   6   0 1141.20   20.20
  -6   6  -1  436.43   13.67
  -6  -6  -1  431.60   13.07
   6   6   1  418.08   12.87
  -6   6  -2  457.93   15.45
  -6  -6  -2  458.65   14.50
   6   6   2  460.15   13.98
   6  -6   2  448.13   17.05
  -6   6  -3  308.22   14.57
  -6  -6  -3  300.03   12.61
   6   6   3  288.26   11.53
   6  -6   3  286.63   13.50
  -6   6  -4   52.34    7.91
  -6  -6  -4   44.99    5.90
   6   6   4   45.65    5.03
   6  -6   4   56.60    6.38
  -6   6  -5  198.86   16.29
  -6  -6  -5  224.82   12.30
  -6   7  10    7.69    2.83
   6  -7 -10    9.69    4.30
  -6  -7   9   43.83    4.37
  -6   7   9   46.28    4.60
   6  -7  -9   44.64    6.86
  -6  -7   8   42.49    3.95
  -6   7   8   49.88    4.67
   6  -7  -8   41.32    6.31
  -6  -7   7 1214.79   18.65
  -6   7   7 1173.13   20.33
  -6   7   6  324.70   10.70
  -6  -7   6  321.01    9.53
  -6   7   5  746.73   17.27
  -6  -7   5  642.56   13.77
  -6   7   4  193.84    8.74
  -6  -7   4  174.00    7.45
  -6   7   3    6.83    2.38
  -6  -7   3    4.40    2.19
  -6   7   2   94.01    6.04
  -6  -7   2   92.35    5.86
  -6   7   1  666.19   16.32
  -6  -7   1  664.93   15.30
   6   7  -1  620.65   14.81
   6  -7  -1  683.49   19.29
  -6   7   0  493.28   14.90
  -6  -7   0  469.62   13.63
   6   7   0  441.22   13.07
   6  -7   0  419.12   16.78
  -6  -7  -1   13.38    2.85
   6   7   1   18.33    3.47
  -6   7  -1   16.12    3.74
   6  -7   1    7.22    3.87
  -6   7  -2   27.30    5.46
  -6  -7  -2   36.29    4.97
   6   7   2   30.08    4.13
   6  -7   2   32.92    5.65
  -6   7  -3  128.62   11.54
  -6  -7  -3  133.68    9.16
   6   7   3  125.93    8.01
  -6   7  -4  388.19   23.06
   6  -8  -9    2.31    4.38
  -6  -8   8    4.90    2.40
  -6   8   8    5.81    2.64
  -6  -8   7   49.92    4.24
  -6   8   7   52.12    5.05
  -6   8   6  313.35   11.43
  -6  -8   6  275.59    9.18
  -6   8   5   90.07    6.29
  -6  -8   5   81.31    5.33
  -6   8   4   59.72    5.54
  -6  -8   4   66.77    5.02
  -6  -8   3    1.09    1.89
  -6   8   3    2.40    2.13
  -6   8   2   99.17    6.70
  -6  -8   2  115.10    6.74
  -6   8   1  505.41   15.11
  -6  -8   1  492.01   14.02
  -6   8   0   28.99    4.47
  -6  -8   0   35.28    4.39
   6   8   0   24.89    3.87
  -6  -8  -1    1.41    2.50
   6   8   1    1.61    2.59
  -6  -8  -2  319.60   13.65
   6   8   2  298.19   11.90
  -6   8  -3  162.88   17.60
  -6  -9   6  107.70    6.25
  -6   9   5  303.93   12.00
  -6  -9   5  274.79    9.79
  -6   9   4   79.97    6.16
  -6  -9   4   74.60    5.64
  -6   9   3   31.28    4.37
  -6  -9   3   27.61    3.87
  -6  -9   2   15.51    3.30
  -6   9   2   17.25    3.42
  -6   9   1  131.97    8.27
  -6  -9   1  139.32    8.10
  -6   9   0  157.40    9.59
  -6   9  -1   11.57    4.42
  -7   0  13    2.10    3.87
  -7   0  12  798.58   22.00
  -7   0  11    8.62    3.12
  -7   0  10  149.46    8.53
  -7   0   9   86.47    6.02
  -7   0   8  441.14   12.19
  -7   0   7   51.30    2.88
  -7   0   7   51.11    4.15
  -7   0   6    5.85    1.28
   7   0  -6    7.86    2.06
  -7   0   5   86.21    4.03
  -7   0   5   89.85    4.74
   7   0  -5   91.82    5.09
  -7   0   4   49.91    3.35
   7   0  -4   45.77    3.69
  -7   0   4   49.54    3.27
   7   0  -3  718.93   14.32
  -7   0   3  720.17   12.23
   7   0  -2  141.83    6.70
  -7   0   2  131.93    5.29
  -7   0   1   65.96    3.82
   7   0  -1   58.80    4.60
  -7   0   0  232.46    7.25
   7   0   0  212.29    8.83
  -7   0  -1  183.42    6.53
   7   0   1  188.95    8.57
   7   0   2   76.55    5.73
   7   0   3   29.85    3.97
   7   0   4   38.29    4.89
   7   0   5   36.66    4.81
   7   0   6    4.57    3.09
  -7  -1  13   11.51    4.31
  -7  -1  12   52.13    6.08
  -7   1  12   51.89    6.43
  -7   1  11   94.59    7.63
  -7  -1  11  105.50    7.54
  -7   1  10   25.91    4.18
  -7  -1  10   21.96    3.75
  -7  -1   9 1306.69   22.14
  -7   1   9 1302.91   23.10
  -7   1   8  190.66    6.10
  -7  -1   8  183.13    7.95
  -7   1   8  174.74    7.91
  -7   1   7  551.96    9.54
  -7   1   7  571.06   13.27
   7  -1  -7  569.32   14.27
  -7  -1   6  350.20    6.81
  -7   1   6  352.59    7.89
  -7  -1   6  392.33   10.08
  -7   1   6  371.42   10.09
   7  -1  -6  390.83   11.75
  -7  -1   5  442.32    8.42
  -7   1   5  419.11    9.22
  -7  -1   5  405.11    9.29
  -7   1   5  451.13   10.66
   7  -1  -5  446.04   12.46
  -7   1   4  381.00    9.02
  -7   1   4  368.44    9.07
   7  -1  -4  392.47   11.51
  -7  -1   4  364.28    8.84
  -7   1   3 2174.87   21.21
   7   1  -3 2182.38   23.93
   7  -1  -3 2169.85   26.81
  -7  -1   3 2175.14   21.45
  -7   1   2  545.55   10.33
   7   1  -2  549.61   12.49
   7  -1  -2  543.87   14.03
  -7  -1   2  527.45   10.84
  -7  -1   1  208.01    6.98
   7   1  -1  211.59    8.12
   7  -1  -1  210.84    8.89
  -7   1   1  206.78    6.42
  -7  -1   0    4.13    1.49
  -7   1   0    1.86    1.23
   7   1   0    1.77    1.81
   7  -1   0    2.34    1.93
  -7  -1  -1   11.43    2.12
   7   1   1   12.41    2.50
   7  -1   1    5.23    2.00
  -7  -1  -2 1150.82   18.00
   7   1   2 1149.45   20.88
   7  -1   2 1166.64   22.40
  -7  -1  -3  163.22    7.19
   7   1   3  163.95    8.52
   7   1   4  837.96   18.87
   7  -1   4  924.03   20.62
   7   1   5  181.69    9.54
   7  -1   5  192.50    9.80
   7   1   6    0.71    2.96
   7  -1   6    2.40    2.97
  -7   2  12   18.58    4.72
  -7  -2  12   22.77    4.39
  -7   2  11    3.05    2.86
  -7  -2  11    5.47    2.99
  -7   2  10 1719.84   29.53
  -7  -2  10 1815.35   27.12
  -7   2   9  655.39   16.97
  -7   2   9  672.32   12.42
  -7   2   8   24.52    2.59
  -7  -2   8   27.84    3.34
  -7   2   8   19.98    3.18
  -7  -2   7  844.94   15.71
  -7   2   7  840.39   16.87
  -7  -2   6  138.84    6.02
  -7   2   6  145.15    5.69
  -7   2   6  143.19    6.72
  -7   2   5  783.79   13.22
  -7  -2   5  771.04   13.55
  -7   2   4 1207.34   16.86
   7  -2  -4 1266.39   24.46
  -7   2   4 1255.25   17.68
  -7  -2   4 1216.23   16.65
  -7   2   3  760.86   13.89
   7  -2  -3  765.37   18.80
  -7  -2   3  750.55   13.19
  -7   2   2 2370.69   22.06
  -7  -2   2 2307.52   23.39
   7  -2  -2 2395.37   32.02
  -7   2   2 2298.29   25.43
  -7   2   1  311.32    7.91
  -7  -2   1  322.13    8.97
  -7  -2   0  210.39    7.49
   7   2   0  229.97    8.47
   7  -2   0  212.33    9.74
  -7  -2  -1 1329.26   19.53
   7   2   1 1303.81   20.94
  -7  -2  -2  100.71    5.91
   7   2   2  105.90    6.39
  -7  -2  -3  141.71    7.41
   7   2   3  139.18    7.82
   7  -2   3  149.11    8.62
  -7  -2  -4 1196.56   21.98
   7   2   4 1199.83   23.30
   7  -2   4 1257.96   24.46
   7   2   5  243.04   10.62
   7  -2   5  234.50   10.97
   7  -2   6   38.64    5.20
  -7   3  12   21.63    4.88
  -7  -3  12   28.34    4.64
  -7  -3  11   30.14    4.15
  -7   3  11   30.54    4.82
  -7  -3  10  105.15    6.94
  -7   3  10   83.46    7.25
  -7   3   9  481.19   10.99
  -7  -3   9  529.76   13.89
  -7   3   9  522.25   16.08
  -7   3   8  171.66    6.44
  -7   3   8  162.05    8.64
  -7   3   7   37.06    4.31
  -7  -3   7   36.01    3.39
  -7   3   7   35.48    3.14
  -7  -3   6    3.11    1.53
  -7   3   6    1.52    1.33
  -7   3   6   -0.68    1.87
  -7   3   5 1661.77   20.93
   7  -3  -5 1637.35   28.31
  -7   3   5 1634.10   23.74
  -7   3   4   61.34    4.10
   7  -3  -4   51.99    5.91
  -7   3   4   65.89    4.85
  -7  -3   4   65.61    4.23
  -7   3   3  174.64    6.95
  -7  -3   3  187.52    7.06
  -7   3   3  180.01    7.49
   7  -3  -3  185.47   10.71
  -7   3   2   48.46    3.95
  -7  -3   2   52.47    3.89
  -7   3   2   56.52    4.31
  -7   3   1  456.61   12.66
  -7  -3   1  460.70   11.15
   7  -3  -1  475.41   15.89
  -7  -3   0 1004.71   17.21
   7   3   0 1043.96   17.85
   7  -3   0 1058.48   23.12
  -7   3   0 1060.06   20.91
  -7  -3  -1    4.19    1.77
   7   3   1    4.12    1.77
   7  -3   1    2.80    2.15
  -7  -3  -2   95.13    6.20
   7   3   2  103.94    6.41
   7  -3   2   99.77    7.21
  -7  -3  -3   50.06    4.99
   7   3   3   51.34    4.93
   7  -3   3   52.80    5.50
  -7  -3  -4  754.75   18.62
   7   3   4  784.89   18.72
   7  -3   4  779.94   19.67
   7   3   5   51.45    5.50
   7  -3   5   74.92    6.74
  -7  -4  12  185.15    9.69
  -7  -4  11    1.64    2.58
  -7   4  11    2.04    2.91
  -7   4  10  584.12   18.26
  -7   4  10  552.57   12.94
  -7   4   9   82.84    4.95
  -7  -4   9   89.87    5.78
  -7   4   9   92.49    7.45
  -7   4   8   62.37    4.22
  -7  -4   8   76.32    5.22
  -7   4   8   74.98    6.72
  -7  -4   7   90.77    5.32
  -7   4   7   89.66    5.03
  -7   4   7  103.53    7.57
  -7  -4   6    9.92    2.21
  -7   4   6   11.57    3.39
  -7   4   6    8.99    2.40
  -7   4   5  277.43    9.60
  -7   4   5  259.34   11.86
   7  -4  -5  222.74    8.80
  -7  -4   5  240.09    8.34
  -7   4   4  185.14    7.58
  -7   4   4  211.81   10.79
  -7  -4   4  189.99    7.50
   7  -4  -4  163.40    9.01
  -7   4   3  431.97   11.26
  -7  -4   3  440.09   11.38
  -7   4   2  789.68   16.12
  -7  -4   2  796.29   15.19
   7  -4  -2  746.95   21.50
  -7   4   1   15.69    2.97
  -7  -4   1   16.63    2.63
  -7   4   0  221.97    9.79
  -7  -4   0  221.64    8.65
   7  -4   0  217.04   11.43
  -7   4  -1  431.94   14.59
   7   4   1  427.01   12.25
  -7  -4  -1  423.24   12.44
   7   4   1  435.57   13.21
   7  -4   1  459.47   15.80
  -7  -4  -2    1.23    2.10
  -7   4  -2    1.79    2.68
   7   4   2    0.03    2.08
   7   4   2   -0.28    1.99
   7  -4   2    2.36    2.25
  -7  -4  -3   19.78    3.87
   7   4   3   20.93    3.82
  -7   4  -3   19.53    4.84
   7   4   3   22.66    3.94
   7  -4   3   18.57    3.88
  -7  -4  -4  412.64   14.75
   7   4   4  393.50   14.02
   7  -4   4  428.67   15.47
  -7   4  -4  372.41   18.25
  -7  -4  -5   99.14    7.92
   7  -4   5  106.40    8.10
  -7   5  11  223.49    9.38
  -7  -5  11  228.07   10.14
  -7   5  11  231.95   12.27
  -7   5  10    8.03    3.78
  -7  -5  10    2.52    2.39
  -7   5  10    2.19    2.22
  -7  -5   9 1102.27   19.56
  -7   5   9 1089.06   25.27
  -7  -5   8  384.16   11.13
  -7   5   8  404.16   16.06
  -7   5   8  358.26   10.24
  -7  -5   7  581.89   13.40
  -7   5   7  600.90   13.86
  -7   5   6  602.81   14.24
  -7   5   6  632.68   20.98
  -7   5   5   47.54    4.71
  -7  -5   5   50.73    4.28
   7  -5  -5   36.10    3.50
  -7   5   5   46.32    6.44
  -7  -5   4  275.56    9.37
   7  -5  -4  257.64   10.14
  -7   5   3 2295.39   27.78
   7  -5  -3 2154.62   33.11
  -7   5   2  795.90   16.66
  -7  -5   2  836.30   16.44
  -7   5   1   40.85    4.25
  -7  -5   1   27.25    3.42
   7   5  -1   35.97    3.89
   7  -5  -1   33.95    5.38
  -7   5   0  114.18    7.33
  -7  -5   0  103.60    6.27
   7   5   0  119.44    6.69
  -7  -5  -1    2.17    2.34
  -7   5  -1    3.25    3.08
   7   5   1    3.90    2.21
   7  -5   1    4.32    3.05
  -7   5  -2 1322.35   28.27
  -7  -5  -2 1372.33   25.26
   7   5   2 1408.14   24.61
  -7  -5  -3  411.35   14.78
   7   5   3  419.76   13.96
   7  -5   3  428.43   15.97
  -7  -5  -4  545.50   18.15
   7   5   4  566.67   16.65
   7  -5   4  576.34   18.66
  -7   6  11    0.79    2.47
  -7  -6  11    3.17    3.22
  -7   6  10  148.72    7.66
  -7  -6  10  154.85    8.04
  -7   6   9    3.06    3.93
  -7   6   9    3.31    2.11
  -7  -6   9    1.88    2.04
  -7  -6   8  173.70    7.59
  -7   6   8  165.45    7.69
  -7  -6   7    5.10    2.08
  -7   6   7    4.85    4.51
  -7   6   7    5.30    2.29
  -7   6   6    1.48    2.03
  -7   6   6   -0.49    3.90
  -7  -6   6    2.69    1.87
  -7   6   5  110.36    6.87
  -7  -6   5  101.22    5.86
  -7  -6   4    9.25    2.44
  -7   6   4   14.92    3.05
   7  -6  -4    9.43    2.47
  -7   6   3  405.75   12.90
  -7  -6   3  383.47   11.48
   7  -6  -3  376.83   13.37
  -7   6   2  196.23    9.02
  -7  -6   2  191.31    8.44
   7   6  -2  199.97    7.81
   7  -6  -2  183.13   10.66
  -7  -6   1    0.05    2.02
  -7   6   1    1.85    2.02
   7   6  -1   -0.97    2.06
   7  -6  -1    5.56    3.49
  -7   6   0  109.42    7.56
  -7  -6   0   95.20    6.42
   7   6   0   96.59    6.34
   7  -6   0   98.20    8.83
  -7   6  -1  266.24   12.36
  -7  -6  -1  259.39   11.14
   7   6   1  249.88   10.34
   7  -6   1  292.71   14.87
  -7  -6  -2   11.83    3.79
  -7   6  -2   12.09    4.16
   7   6   2   14.89    3.47
   7   6   2   19.78    3.96
   7  -6   2   16.40    4.56
  -7  -6  -3    1.46    3.42
  -7   6  -3    6.96    4.82
   7   6   3    2.19    2.24
   7   6   3    5.25    3.40
   7  -6   3    4.15    3.00
  -7   6  -4   91.36   11.64
  -7   7   9  307.38   11.19
   7  -7  -9  286.99   14.79
   7  -7  -8    6.94    4.15
  -7  -7   8   11.72    2.88
  -7   7   8   10.49    3.01
  -7   7   7  105.86    6.63
  -7  -7   7  119.07    6.49
  -7   7   6   14.03    3.32
  -7  -7   6    9.52    2.37
  -7   7   5  666.91   16.65
  -7  -7   5  662.74   15.20
  -7   7   4  130.11    7.72
  -7  -7   4  123.69    6.88
  -7  -7   3  266.67   10.05
   7  -7  -3  244.49   10.64
  -7   7   2   21.07    3.68
  -7  -7   2   17.63    3.32
   7  -7  -2   19.04    4.18
  -7  -7   1  201.72    9.33
   7   7  -1  181.66    8.31
   7  -7  -1  186.31   11.54
  -7  -7   0  243.57   10.71
   7   7   0  242.06   10.16
  -7   7  -1   34.15    6.12
  -7  -7  -1   22.61    4.36
   7   7   1   19.86    3.60
   7  -7   1   30.66    6.01
  -7   7  -2  177.72   13.58
  -7  -7  -2  179.78   10.58
   7   7   2  148.99    8.64
   7  -7   2  164.07   11.97
  -7  -8   8    5.45    2.92
  -7   8   7  400.47   13.40
  -7  -8   7  386.60   11.79
  -7   8   6   51.11    5.28
  -7  -8   6   54.94    4.79
  -7   8   5  358.05   13.00
  -7  -8   5  302.25   10.64
  -7   8   4  613.72   16.76
  -7  -8   4  602.21   15.45
  -7   8   3  239.88   10.60
  -7  -8   3  263.64   10.47
  -7   8   2  931.90   20.92
  -7  -8   2  975.16   20.50
  -7   8   1  156.59    9.24
  -7  -8   1  170.93    9.09
  -7   8   0   91.18    8.43
  -7  -8   0   89.48    7.15
  -7   8  -1  781.59   27.31
   7   8   1  518.29   15.70
  -8   0  12  958.31   24.18
  -8   0  11  599.40   17.98
  -8   0  10  364.41   13.31
  -8   0   9  444.97   13.62
  -8   0   8   44.36    4.46
   8   0  -8   50.83    4.73
  -8   0   7  628.89   14.61
   8   0  -7  624.25   14.84
  -8   0   6 2230.87   21.12
  -8   0   6 2256.54   25.57
   8   0  -6 2250.79   27.45
  -8   0   5  698.42   12.49
  -8   0   5  708.69   14.15
   8   0  -5  672.41   14.96
  -8   0   4 1360.23   18.71
   8   0  -4 1343.20   21.43
  -8   0   4 1319.69   17.84
  -8   0   3   89.33    4.92
   8   0  -3   98.54    6.15
   8   0  -2   29.65    3.64
  -8   0   2   35.81    3.33
   8   0  -1 2590.30   32.61
  -8   0   1 2834.71   27.40
   8   0   0   65.65    5.61
  -8   0   0   66.12    4.38
   8   0   1  112.20    7.47
   8   0   2 1385.29   24.45
   8   0   3    7.96    3.28
   8   0   4  169.51    9.69
   8   0   5   78.39    6.95
  -8  -1  12  295.97   13.37
  -8   1  12  202.91   11.93
  -8   1  11  286.56   12.87
  -8  -1  11  310.14   12.77
  -8  -1  10   49.93    5.33
  -8   1  10   40.87    4.96
  -8   1   9    5.07    2.73
  -8  -1   9    4.91    2.31
  -8   1   8  170.03    5.89
  -8   1   8  189.64    8.75
  -8  -1   7 1030.93   17.91
  -8   1   7 1055.50   19.11
   8  -1  -7 1075.98   22.03
  -8  -1   6  135.91    5.01
  -8   1   6  132.60    5.53
  -8  -1   6  136.34    6.43
  -8   1   6  158.45    7.36
   8  -1  -6  150.53    8.40
  -8   1   5  664.55   12.70
  -8   1   5  683.79   14.02
   8  -1  -5  670.07   16.73
  -8  -1   5  680.79   11.80
  -8   1   4   63.46    4.22
  -8   1   4   64.79    4.39
   8   1  -4   57.10    4.42
   8  -1  -4   60.90    5.18
  -8  -1   4   69.91    4.48
  -8   1   3   86.96    5.00
   8   1  -3   76.10    5.26
   8  -1  -3   87.39    6.23
  -8  -1   3   81.59    4.78
  -8   1   3   87.80    5.23
  -8   1   2   70.93    4.39
   8   1  -2   70.91    5.19
   8  -1  -2   73.63    5.84
  -8  -1   2   76.57    4.74
  -8   1   1  363.91    9.53
   8   1  -1  387.22   12.26
  -8  -1   1  404.95   10.78
   8  -1  -1  365.64   12.83
  -8  -1   0  450.65   11.68
   8   1   0  427.73   13.29
   8  -1   0  417.93   13.79
  -8  -1  -1   43.51    4.01
   8   1   1   44.55    4.75
   8  -1   1   47.33    5.03
   8   1   2  386.05   13.53
   8  -1   2  399.55   14.33
   8   1   3   17.75    3.73
   8  -1   3   16.75    3.81
   8   1   4  212.15   10.69
   8  -1   4  232.99   11.14
   8   1   5    2.96    3.30
  -8   2  12  331.20   15.03
  -8  -2  12  333.09   13.94
  -8   2  11   94.35    8.13
  -8  -2  11   88.99    7.13
  -8   2  10  110.59    7.87
  -8  -2  10  130.20    8.00
  -8   2   9   47.15    5.27
  -8  -2   9   50.53    4.85
  -8  -2   8  763.42   16.32
  -8   2   8  777.57   18.17
  -8   2   7  209.14    7.09
  -8  -2   7  224.16    8.67
  -8   2   7  203.95    8.86
  -8  -2   6    9.81    2.06
  -8   2   6   10.16    2.08
  -8   2   6   11.17    2.51
   8  -2  -6    4.87    3.14
  -8  -2   5   10.61    2.13
  -8   2   5    5.87    2.20
  -8   2   5    6.59    1.88
   8  -2  -5   11.04    3.46
  -8   2   4  126.73    6.10
  -8   2   4  127.85    6.42
   8  -2  -4  138.79    8.89
  -8  -2   4  109.44    5.56
  -8   2   3  465.67   12.02
   8  -2  -3  495.79   15.83
  -8  -2   3  491.19   11.76
  -8   2   2    1.26    1.62
  -8  -2   2    5.21    1.97
  -8   2   2    1.85    1.93
   8   2  -2    2.05    1.83
   8  -2  -2    5.17    2.34
  -8  -2   1  326.18   10.11
   8   2  -1  285.97   10.13
   8  -2  -1  309.68   12.30
  -8  -2   0  542.34   13.40
   8   2   0  548.13   14.70
   8  -2   0  578.79   17.14
  -8  -2  -1   21.21    3.28
   8   2   1   33.99    4.17
   8  -2   1   31.40    4.66
  -8  -2  -2  152.99    8.10
   8   2   2  150.18    8.56
   8  -2   2  168.80    9.56
   8   2   3   41.12    5.00
   8  -2   3   49.33    5.51
   8   2   4    4.67    2.69
   8  -2   4    5.22    3.14
   8   2   5  102.02    8.14
  -8  -3  12    9.87    3.75
  -8  -3  11  482.63   15.38
  -8   3  11  451.16   17.20
  -8   3  10   33.13    4.94
  -8  -3  10   38.43    4.66
  -8   3   9   24.47    2.91
  -8   3   9   23.29    4.12
  -8  -3   9   26.18    3.68
  -8   3   8  728.67   18.93
  -8  -3   8  780.01   17.01
  -8   3   7   36.07    4.54
  -8  -3   7   32.05    3.67
  -8   3   7   45.47    4.01
  -8  -3   6  120.87    6.24
  -8   3   6  143.48    6.90
   8  -3  -6  134.65    8.76
  -8   3   6  134.45    7.87
  -8   3   5 1430.01   20.79
  -8   3   5 1447.38   24.35
  -8  -3   5 1406.91   20.38
  -8   3   4   63.97    4.57
  -8   3   4   74.60    5.70
   8  -3  -4   67.57    7.07
  -8  -3   4   68.74    4.74
  -8   3   3  109.00    6.20
  -8  -3   3  104.24    5.87
  -8   3   2  292.36   10.52
  -8  -3   2  292.74    9.76
   8  -3  -2  303.82   13.66
  -8   3   1   23.99    3.77
  -8  -3   1   23.79    3.28
   8   3  -1   21.52    3.17
   8  -3  -1   34.00    5.21
  -8  -3   0 1064.24   19.33
   8  -3   0 1111.37   24.42
  -8   3   0 1118.94   23.94
  -8  -3  -1  696.59   16.53
   8   3   1  722.87   17.40
   8  -3   1  737.34   19.84
  -8  -3  -2  848.48   19.28
   8   3   2  868.87   20.09
   8  -3   2  879.62   21.64
  -8  -3  -3  253.49   11.26
   8   3   3  275.48   12.10
   8  -3   3  280.19   12.50
   8   3   4   19.61    4.66
   8  -3   4   10.36    3.33
  -8  -4  11   11.55    3.50
  -8   4  11   16.63    4.54
  -8   4  10  132.34    6.61
  -8   4  10  148.41   10.20
  -8   4   9   33.76    3.49
  -8   4   9   27.84    5.08
  -8  -4   9   35.91    4.28
  -8  -4   8  172.93    8.10
  -8   4   8  167.57    7.31
  -8   4   8  191.05   11.05
  -8  -4   7  246.68    9.15
  -8   4   7  256.72    9.11
  -8   4   7  274.43   13.31
  -8   4   6  339.60   10.52
  -8   4   6  383.65   15.59
  -8  -4   6  361.65   10.99
  -8   4   5   83.54    5.78
  -8   4   5   78.26    7.57
   8  -4  -5   67.98    6.33
  -8  -4   5   69.62    4.94
  -8   4   4  397.80   11.68
  -8  -4   4  405.84   11.62
  -8   4   3   19.19    2.98
  -8  -4   3   23.10    3.37
   8  -4  -3   23.19    4.96
  -8  -4   2   -0.27    1.78
  -8   4   2    2.32    1.94
   8  -4  -2    4.81    2.96
  -8  -4   1  821.40   17.23
   8  -4  -1  866.23   23.48
  -8   4   0   70.29    6.61
  -8  -4   0   71.03    5.60
   8   4   0   74.33    5.64
   8  -4   0   87.03    7.78
  -8   4  -1   61.36    6.66
  -8  -4  -1   58.27    5.57
   8   4   1   72.22    5.88
   8  -4   1   66.48    6.63
  -8   4  -2  481.43   18.51
  -8  -4  -2  527.23   16.11
   8   4   2  605.05   17.22
   8  -4   2  590.41   18.47
  -8  -4  -3    4.81    2.93
  -8   4  -3    8.98    4.81
   8   4   3    6.55    3.32
   8  -4   3    9.88    3.55
  -8  -4  -4   19.95    4.78
   8   4   4   22.67    5.14
  -8   5  10  101.99    6.12
  -8   5  10  108.69    9.34
  -8  -5  10  123.60    7.46
  -8   5   9   19.99    3.14
  -8  -5   9   28.63    3.90
  -8   5   9   27.28    5.56
  -8  -5   8   35.57    3.96
  -8   5   8   26.68    3.37
  -8   5   8   28.17    5.72
  -8  -5   7 1265.39   21.25
  -8   5   7 1208.63   20.52
  -8   5   7 1291.32   32.14
  -8   5   6  152.76    7.93
  -8  -5   6  123.34    6.75
  -8   5   5  224.94    9.52
  -8  -5   5  238.86    9.37
  -8   5   4  194.42    9.06
  -8  -5   4  221.70    9.16
  -8   5   3   68.37    5.58
  -8  -5   3   72.74    5.48
  -8   5   2  253.56   10.56
  -8  -5   2  246.67    9.81
   8  -5  -2  234.83   13.23
  -8   5   1  501.95   15.70
  -8  -5   1  480.47   13.91
   8  -5  -1  463.47   18.27
  -8   5   0  169.17   10.07
  -8  -5   0  181.85    9.15
   8  -5   0  157.91   10.70
  -8  -5  -1   13.41    3.66
  -8   5  -1   10.84    4.48
   8   5   1    8.98    3.02
   8  -5   1   12.24    4.17
  -8   5  -2  156.42   11.27
  -8  -5  -2  155.53    9.37
   8  -5   2  175.74   11.03
  -8  -5  -3    1.15    3.29
  -8   5  -3    5.66    5.26
   8   5   3   15.26    4.32
  -8   6  10  127.03    7.31
  -8  -6  10  143.91    8.15
  -8  -6   9  114.68    7.17
  -8   6   9   88.98    6.01
  -8   6   9  117.89   10.76
  -8  -6   8   89.04    6.11
  -8   6   8   76.66    5.66
  -8   6   8   88.44    9.65
  -8   6   7  337.11   11.80
  -8  -6   7  312.32   10.97
  -8   6   6  774.12   17.67
  -8  -6   6  818.53   17.38
  -8   6   5  277.80   11.50
  -8  -6   5  246.91    9.93
  -8   6   4  534.49   15.14
  -8  -6   4  549.18   14.88
  -8  -6   3   -1.48    2.35
  -8   6   3    3.67    2.68
   8  -6  -3    1.39    3.08
  -8   6   2   33.53    4.61
  -8  -6   2   31.22    4.21
   8  -6  -2   23.02    5.30
  -8   6   1 1093.80   24.55
  -8  -6   1 1020.79   21.20
  -8  -6   0    2.12    2.47
  -8   6   0    6.13    3.48
   8  -6   0   -2.77    4.19
  -8   6  -1   49.43    6.91
  -8  -6  -1   38.93    5.19
   8   6   1   44.98    5.37
   8  -6   1   53.37    6.90
  -8   6  -2  652.10   24.89
   8   6   2  711.10   19.76
  -8  -7   8  221.58    9.25
  -8   7   8  221.71    9.79
  -8   7   7   80.69    6.45
  -8  -7   7   82.73    6.09
  -8   7   6   53.03    5.22
  -8  -7   6   37.27    4.37
  -8   7   5  614.83   16.54
  -8  -7   5  698.29   16.93
  -8  -7   4   11.88    3.32
  -8   7   4   12.16    3.40
  -8   7   3   26.74    4.09
  -8  -7   3   40.07    4.81
   8  -7  -3   28.73    4.90
  -8   7   2   57.96    6.42
  -8  -7   2   48.94    5.49
   8  -7  -2   37.77    6.02
  -8   7   1   40.96    6.06
  -8  -7   1   34.33    4.79
  -8   7   0  476.32   19.56
   8  -7   0  304.70   16.21
   8   7   1  229.09   11.05
  -9   0  11  129.27    9.07
  -9   0  10 1765.47   29.38
  -9   0   9  343.13   12.49
  -9   0   8   99.41    6.60
   9   0  -8   93.21    6.94
  -9   0   7  292.33   10.79
   9   0  -7  286.68   11.33
  -9   0   6    2.59    1.58
   9   0  -6    3.12    2.40
  -9   0   6    7.95    2.32
  -9   0   5 1778.60   22.01
   9   0  -5 1747.99   27.08
  -9   0   4  830.83   16.16
   9   0  -4  811.90   18.83
  -9   0   4  812.35   15.66
  -9   0   3  553.72   13.41
   9   0  -3  491.26   14.91
   9   0  -2  809.74   19.70
  -9   0   2  827.49   16.36
   9   0  -1   58.29    5.74
  -9   0   1   49.39    4.30
   9   0   0   35.09    5.06
   9   0   1 1243.42   25.62
   9   0   2    2.13    2.99
   9   0   3   82.21    7.30
  -9  -1  11   14.51    3.93
  -9   1  11   16.12    4.37
  -9  -1  10   67.07    6.10
  -9   1  10   62.31    6.39
  -9  -1   9  236.40   10.37
  -9   1   9  222.01   10.30
  -9  -1   8   28.92    3.95
  -9   1   8   29.28    4.24
  -9   1   7  413.87   10.37
  -9  -1   7  440.19   12.57
  -9   1   7  465.00   13.85
   9   1  -7  423.21   12.90
   9  -1  -7  419.02   15.33
  -9  -1   6   86.83    4.67
  -9   1   6   86.75    5.05
  -9  -1   6   84.04    5.62
  -9   1   6   93.66    6.25
   9   1  -6   93.48    6.42
   9  -1  -6   96.51    7.36
  -9   1   5  198.68    7.80
  -9  -1   5  212.06    8.34
  -9   1   5  216.40    8.81
   9   1  -5  203.28    9.05
   9  -1  -5  215.70   10.68
  -9  -1   5  213.06    7.49
  -9   1   4   18.06    2.86
  -9  -1   4   11.72    2.44
  -9   1   4   13.59    2.60
   9   1  -4   15.68    2.93
   9  -1  -4   16.17    3.54
  -9   1   3  426.31   11.98
   9   1  -3  426.28   13.46
   9  -1  -3  415.20   14.43
  -9  -1   3  419.35   11.65
  -9   1   3  390.02   12.03
   9   1  -2  192.23    9.44
   9  -1  -2  184.53    9.88
  -9  -1   2  192.40    8.12
   9   1  -1  189.16    9.45
   9  -1  -1  167.67    9.52
  -9  -1   1  185.63    8.30
   9   1   0  161.82    9.32
  -9  -1   0  160.26    7.96
   9  -1   0  151.51    8.99
   9   1   1   31.98    4.80
   9  -1   1   29.49    4.53
   9   1   2   76.08    7.03
   9  -1   2   81.77    7.40
   9   1   3    8.56    3.66
   9  -1   3   14.62    4.10
  -9   2  11   59.89    6.76
  -9  -2  11   59.44    6.23
  -9   2  10  216.97   11.34
  -9  -2  10  228.46   10.87
  -9  -2   9  141.91    8.22
  -9   2   9  131.90    8.66
  -9  -2   8  651.37   15.95
  -9   2   8  683.88   18.26
  -9   2   7   66.46    4.81
  -9  -2   7   59.08    4.92
  -9   2   7   67.03    5.88
  -9   2   6   85.59    5.42
  -9  -2   6   90.85    5.79
  -9   2   6  103.07    6.92
   9  -2  -6  107.31    8.95
  -9   2   5    6.63    2.61
  -9  -2   5    6.74    2.14
  -9   2   5    4.44    2.01
   9  -2  -5    2.26    3.29
  -9   2   4  135.85    6.98
  -9   2   4  125.92    7.07
   9   2  -4  115.39    6.89
   9  -2  -4  131.81    9.15
  -9  -2   4  121.57    6.45
  -9   2   3 1374.51   22.90
   9  -2  -3 1304.27   25.90
   9   2  -3 1375.25   23.30
  -9  -2   3 1387.00   21.55
  -9   2   2    8.06    2.83
   9   2  -2   16.58    3.45
  -9  -2   2    8.79    2.44
   9  -2  -2   13.20    3.41
  -9  -2   1    1.33    2.05
  -9   2   1    0.33    2.57
   9   2  -1    3.30    2.53
   9  -2  -1    4.38    3.11
  -9  -2   0  704.64   17.03
   9   2   0  705.51   18.51
   9  -2   0  741.60   20.67
  -9  -2  -1  185.95    9.32
   9   2   1  182.17   10.00
   9   2   2  118.66    8.47
   9  -2   2  123.45    8.80
   9   2   3  172.56   10.36
  -9   3  11  195.97   11.94
  -9  -3  11  216.62   10.99
  -9   3  10   -2.41    3.22
  -9  -3  10    0.24    2.78
  -9   3   9 1543.33   30.45
  -9  -3   9 1489.93   25.34
  -9   3   8  110.67    8.23
  -9   3   8   99.54    5.84
  -9  -3   8   98.80    6.72
  -9   3   7   30.14    3.57
  -9  -3   7   27.17    3.58
  -9   3   7   21.27    3.99
  -9  -3   6  408.14   12.11
  -9   3   6  439.49   12.56
   9  -3  -6  396.11   17.03
  -9   3   5  225.53    8.91
   9  -3  -5  241.06   14.11
  -9   3   5  247.90   11.23
  -9  -3   5  223.66    8.96
   9  -3  -4  328.75   15.96
  -9  -3   4  304.41   10.47
  -9   3   3 1346.14   23.43
   9   3  -3 1347.75   22.82
  -9  -3   3 1336.51   21.87
  -9   3   2   71.72    6.16
   9   3  -2   68.83    5.74
  -9  -3   2   69.87    5.49
   9  -3  -2   77.76    7.52
  -9  -3   1    2.13    2.12
  -9   3   1    3.58    3.18
   9   3  -1    0.55    2.06
   9  -3  -1   -0.23    3.22
  -9  -3   0   78.75    6.36
   9   3   0   69.83    6.04
   9  -3   0   71.79    7.02
  -9   3   0   84.41    7.70
  -9  -3  -1    9.29    3.25
  -9   3  -1    9.71    4.19
   9   3   1   12.29    3.68
   9  -3   1   22.65    4.34
  -9  -3  -2  755.49   19.82
   9   3   2  782.65   21.05
   9  -3   2  819.21   22.16
  -9  -4  10  613.38   17.43
  -9   4  10  571.57   20.91
  -9   4   9  113.35    6.39
  -9  -4   9  140.40    8.08
  -9   4   9  142.61   10.82
  -9   4   8  197.58    8.41
  -9  -4   8  211.77    9.62
  -9   4   8  213.75   12.83
  -9   4   7   10.12    4.35
  -9  -4   7   13.75    3.01
  -9   4   7   12.62    2.96
  -9   4   6   31.54    4.03
  -9  -4   6   43.46    4.42
  -9   4   5  271.46   10.31
   9  -4  -5  258.98   13.75
  -9  -4   5  283.60   10.38
  -9   4   4  293.33   10.90
  -9  -4   4  304.73   10.93
  -9  -4   3  766.49   17.48
   9  -4  -3  782.13   24.52
  -9   4   2  137.31    8.55
  -9  -4   2  136.11    7.71
   9  -4  -2  132.75   10.26
  -9  -4   1   10.43    3.20
  -9   4   1    8.11    3.54
   9   4  -1    7.95    2.77
   9  -4  -1   12.93    4.36
  -9   4   0  138.61    9.67
  -9  -4   0  123.40    8.03
   9   4   0  137.36    8.27
   9  -4   0  143.34   10.06
  -9   4  -1  481.14   18.85
  -9  -4  -1  475.95   15.99
   9   4   1  525.24   16.72
   9  -4   1  521.94   18.12
  -9  -4  -2   44.20    5.88
   9   4   2   41.06    5.80
  -9   5  10   97.41    9.73
  -9   5  10   68.53    5.41
  -9   5   9   14.67    5.43
  -9   5   9   12.32    3.08
  -9  -5   9   15.98    3.57
  -9  -5   8    2.89    2.52
  -9   5   8    3.34    2.49
  -9  -5   7  558.77   15.31
  -9   5   7  555.72   15.52
  -9  -5   6   -1.60    2.19
  -9   5   6    7.19    2.93
  -9   5   5  137.39    8.15
  -9  -5   5  126.34    7.46
  -9   5   4  109.93    7.28
  -9  -5   4  104.72    6.74
  -9   5   3  102.88    7.42
  -9  -5   3   95.31    6.76
   9  -5  -3   82.40    8.66
  -9   5   2  202.51   10.57
  -9  -5   2  201.00    9.92
   9  -5  -2  184.04   12.33
  -9   5   1  326.07   14.41
  -9  -5   1  308.93   12.36
   9   5  -1  299.22   11.55
   9  -5  -1  308.28   15.52
  -9   5   0  200.82   12.37
  -9  -5   0  168.37    9.76
   9   5   0  168.04    9.25
   9  -5   0  164.24   11.43
  -9  -5  -1   71.44    7.07
   9   5   1   69.03    6.87
  -9  -6   8  123.79    7.77
  -9   6   8  127.60    7.82
  -9  -6   7   74.86    6.15
  -9   6   7   74.50    6.17
  -9  -6   6    1.72    2.51
  -9   6   6    5.53    2.97
  -9   6   5  625.63   17.01
  -9  -6   5  699.51   17.85
  -9   6   4  336.60   13.07
  -9  -6   4  311.54   12.21
  -9   6   3  452.58   16.11
  -9  -6   3  406.70   14.01
  -9   6   2  294.00   13.61
  -9  -6   2  262.60   11.67
  -9  -6   1   23.42    4.47
  -9   6   1   24.68    5.53
   9  -7  -2   27.47    6.41
 -10   0  10  557.05   17.60
 -10   0   9   21.57    4.31
 -10   0   8   99.34    7.34
 -10   0   7    5.37    3.07
  10   0  -7    1.36    2.75
 -10   0   6   64.05    4.80
 -10   0   6   71.16    5.95
  10   0  -6   62.44    6.30
 -10   0   5  401.54   11.69
  10   0  -5  426.06   14.99
 -10   0   4    2.51    2.17
 -10   0   4   -0.11    2.18
  10   0  -4    1.91    2.36
 -10   0   3  104.35    6.83
  10   0  -3  115.99    8.24
  10   0  -2  125.41    8.81
  10   0  -1  133.94    9.35
  10   0   0    3.46    3.61
  10   0   1  155.22    9.93
 -10  -1  10   10.10    3.41
 -10   1  10    3.52    3.32
 -10  -1   9   48.25    5.57
 -10   1   9   50.31    5.67
 -10  -1   8  673.16   17.61
 -10   1   8  717.80   19.30
 -10   1   7   70.10    4.97
 -10  -1   7   59.61    5.39
 -10   1   7   75.60    6.60
  10   1  -7   63.60    5.89
  10  -1  -7   76.20    7.84
 -10   1   6   49.09    4.28
 -10  -1   6   51.17    5.16
 -10   1   6   51.68    5.58
  10   1  -6   44.27    5.13
  10  -1  -6   54.60    6.44
 -10  -1   5  946.94   17.51
 -10   1   5  927.75   18.26
 -10  -1   5  963.47   19.34
 -10   1   5 1023.38   21.32
  10   1  -5  949.55   21.24
  10  -1  -5 1014.94   24.46
 -10   1   4    8.27    2.71
 -10  -1   4   16.61    3.07
 -10   1   4    8.64    2.72
  10   1  -4   12.30    3.26
  10  -1  -4    7.17    3.50
 -10  -1   3   -0.67    2.35
 -10   1   3   -0.90    2.41
  10   1  -3    5.82    2.90
  10  -1  -3    0.65    2.83
 -10  -1   2    7.49    3.12
  10   1  -2    5.64    3.05
  10  -1  -2    6.84    3.15
  10   1  -1   62.87    6.52
  10  -1  -1   72.46    7.06
  10   1   0  492.24   17.06
  10  -1   0  484.39   17.48
  10   1   1  188.51   11.18
 -10   2  10   84.00    7.91
 -10  -2  10   67.38    6.52
 -10  -2   9  206.48   10.49
 -10   2   9  205.04   11.47
 -10  -2   8   54.84    5.26
  10   2  -8   50.60    5.45
 -10   2   8   55.37    6.07
 -10   2   7  670.79   15.94
 -10  -2   7  711.00   17.45
 -10   2   7  732.79   19.83
 -10   2   6  607.80   14.95
 -10  -2   6  616.82   15.54
 -10   2   6  718.73   19.35
  10   2  -6  597.51   16.67
  10  -2  -6  684.66   22.83
 -10  -2   5  210.68    9.31
 -10   2   5  200.15    8.90
  10   2  -5  205.73    9.80
  10  -2  -5  222.97   12.20
 -10   2   4  341.97   11.98
  10   2  -4  356.44   12.93
  10  -2  -4  348.26   15.01
 -10  -2   4  362.23   12.19
 -10   2   3    9.90    3.02
  10   2  -3   17.27    3.67
  10  -2  -3   10.02    3.84
 -10  -2   3   10.20    3.08
 -10   2   2   42.25    5.57
  10   2  -2   34.42    4.94
 -10  -2   2   32.93    4.40
  10  -2  -2   24.88    4.70
  10   2  -1 1623.74   29.71
  10  -2  -1 1718.35   33.21
 -10  -2   1 1596.54   27.17
 -10   2   1 1690.89   32.39
 -10   2   0    8.46    3.89
  10   2   0    6.58    3.60
  10  -2   0    7.90    4.09
 -10   3  10   75.81    8.60
 -10   3   9   43.25    6.59
 -10  -3   9   40.83    5.23
 -10   3   8    7.14    2.89
 -10  -3   8    5.60    2.86
 -10   3   8    9.72    4.46
 -10   3   7  260.70   10.45
 -10  -3   7  250.15   10.35
 -10   3   7  277.82   13.65
 -10  -3   6   11.87    3.20
 -10   3   6   15.57    3.20
  10  -3  -6   21.13    5.92
 -10   3   5  130.34    7.44
  10   3  -5  134.56    7.96
  10  -3  -5  159.33   12.31
 -10  -3   5  146.99    8.05
 -10   3   4    6.55    2.64
  10   3  -4   11.83    3.19
  10  -3  -4    6.77    4.40
 -10  -3   4    5.41    2.74
 -10   3   3  509.46   16.14
  10   3  -3  472.92   14.96
 -10  -3   3  519.04   15.23
 -10   3   2   53.77    6.22
  10   3  -2   62.92    6.01
 -10  -3   2   58.62    5.74
  10  -3  -2   62.81    7.30
 -10   3   1   11.79    4.17
 -10  -3   1    3.82    3.13
  10   3  -1    5.65    3.28
  10  -3  -1    3.20    3.66
 -10   3   0   61.65    7.32
 -10  -3   0   55.37    6.36
  10   3   0   58.90    6.51
  10  -3   0   58.55    6.89
 -10   4   9    4.01    5.02
 -10   4   9   13.30    3.31
 -10   4   8   55.08    5.34
 -10  -4   8   54.65    5.82
 -10  -4   7  192.72    9.58
 -10   4   7  186.42    9.03
 -10  -4   6  234.39   10.32
 -10   4   6  240.94   10.68
 -10   4   5  228.56   10.13
  10  -4  -5  217.35   14.36
 -10  -4   5  248.62   10.53
 -10   4   4   43.04    5.12
  10  -4  -4   58.98    8.22
 -10  -4   4   49.35    5.19
 -10   4   3   12.97    3.49
 -10  -4   3   10.38    3.25
  10   4  -3    8.50    3.14
 -10   4   2    1.28    3.42
 -10  -4   2    1.29    2.63
  10   4  -2    1.28    2.62
  10  -4  -2    1.37    3.70
 -10   4   1  653.87   21.66
  10   4  -1  627.21   17.98
 -10  -4   1  642.03   18.94
  10  -4  -1  676.73   22.39
 -10  -4   0    2.84    3.30
 -10   5   8  840.36   19.18
 -10  -5   7   18.31    3.97
 -10   5   7   13.66    3.56
 -10   5   6  107.19    7.10
 -10  -5   6  116.73    7.75
 -10   5   5 1118.05   23.97
 -10  -5   5 1135.19   23.01
 -10   5   4   12.94    4.01
 -10  -5   4   12.38    3.28
  10  -5  -4    8.11    4.68
 -10  -5   3   72.87    6.59
  10  -5  -3   55.84    8.12
 -10  -5   2   35.13    5.22
  10  -5  -2   37.12    6.89
 -11   0   9  565.11   18.34
 -11   0   8  813.24   21.77
 -11   0   7    4.57    3.57
  11   0  -7    8.99    4.16
 -11   0   6  265.12   11.82
  11   0  -6  270.76   13.37
 -11   0   5   -0.65    2.49
 -11   0   5    4.72    2.99
  11   0  -5    4.90    3.56
 -11   0   4  235.66   10.57
  11   0  -4  250.05   12.79
  11   0  -3 1526.79   31.39
 -11   0   3 1447.01   27.61
  11   0  -2    3.56    3.92
 -11  -1   9  147.48    9.40
 -11   1   9  127.71    9.57
 -11  -1   8    2.11    2.98
  11   1  -8    0.65    3.17
 -11  -1   7   80.17    6.85
 -11   1   7   83.21    7.57
  11   1  -7   76.55    7.37
 -11   1   6  241.40    9.70
 -11  -1   6  283.35   12.11
 -11   1   5   92.86    6.78
 -11  -1   5  101.72    7.64
  11   1  -5   97.54    8.09
  11  -1  -5   82.35    8.29
 -11  -1   4    7.10    3.29
 -11  -1   4    8.23    2.92
 -11   1   4    5.82    3.23
  11   1  -4   -0.58    2.93
  11  -1  -4   -2.29    3.85
 -11   1   3  111.22    8.15
  11   1  -3  113.95    8.99
  11  -1  -3  109.58    9.19
 -11   1   2   27.04    5.19
  11  -1  -2   20.19    4.76
 -11   2   9   50.08    7.20
 -11  -2   8  111.40    8.02
  11   2  -8  106.70    8.34
 -11   2   8  120.60    9.66
 -11   2   7   67.13    6.00
 -11  -2   7   73.61    6.69
  11   2  -7   63.26    6.44
 -11   2   6   25.28    4.22
 -11  -2   6   23.59    4.31
  11   2  -6   31.58    4.80
  11  -2  -6   39.21    6.86
 -11   2   5  195.22    9.63
 -11  -2   5  220.51   10.56
  11   2  -5  193.30   10.56
  11  -2  -5  233.95   13.95
 -11  -2   4  142.56    8.76
 -11   2   4  148.61    9.05
  11   2  -4  146.74    9.56
  11  -2  -4  171.95   11.85
 -11   2   3  422.62   15.58
  11   2  -3  395.28   15.49
  11  -2  -3  445.30   18.39
 -11  -2   3  403.23   14.57
  11   3  -8   14.86    4.04
 -11   3   7  591.01   16.98
 -11  -3   7  570.58   16.91
  11   3  -7  568.32   17.70
 -11   3   6   38.87    4.86
 -11  -3   6   47.42    5.36
  11   3  -6   37.42    5.14
 -11  -3   5   43.05    5.18
 -11   3   5   38.99    4.94
  11   3  -5   44.64    5.50
  11  -3  -5   45.82    8.08
 -11   3   4  189.93   10.25
  11   3  -4  207.71   10.91
 -11  -3   4  196.34   10.28
  11  -3  -3  113.42   10.21
 -11  -3   3   92.83    7.55
 -11  -3   2  270.05   12.62
  11  -4  -4  188.23   13.87
   0   0   0    0.00    0.00


TITL CaNi2(SeO3)3(2H2O)400 in P2(1)/m
REM P2(1)/m (#11 in standard setting)
CELL 0.71073   7.760461   7.333636   8.939272  90.0000 115.1146  90.0000
ZERR    2.00   0.000159   0.000125   0.000209   0.0000   0.0027   0.0000
LATT  1
SYMM -x, y+1/2,-z
SFAC C H N O
UNIT 22.00 20.00 2.00 2.00
TREF
HKLF 4
END
_computing_structure_solution     'SHELXT 2014/5 (Sheldrick, 2014)'
;
_shelx_hkl_checksum              23804
_olex2_submission_special_instructions 'No special instructions were received'
_oxdiff_exptl_absorpt_empirical_details
;
Empirical correction (ABSPACK) includes:
- Absorption correction using spherical harmonics
- Frame scaling
- Detector area scaling
;
_oxdiff_exptl_absorpt_empirical_full_max 2.927
_oxdiff_exptl_absorpt_empirical_full_min 0.570
loop_
_space_group_symop_operation_xyz
'x, y, z'
'-x, y+1/2, -z'
'-x, -y, -z'
'x, -y-1/2, z'
loop_
_atom_site_label
_atom_site_type_symbol
_atom_site_fract_x
_atom_site_fract_y
_atom_site_fract_z
_atom_site_U_iso_or_equiv
_atom_site_adp_type
_atom_site_occupancy
_atom_site_site_symmetry_order
_atom_site_calc_flag
_atom_site_refinement_flags_posn
_atom_site_refinement_flags_adp
_atom_site_refinement_flags_occupancy
_atom_site_disorder_assembly
_atom_site_disorder_group
Ni1 Ni 0.17566(5) 0.55836(4) 0.31368(4) 0.00793(8) Uani 1 1 d . . . . .
Se1 Se 0.00571(5) 0.250000 0.04630(4) 0.00805(8) Uani 1 2 d S T P . .
Se2 Se 0.03168(5) 0.250000 0.48116(4) 0.00757(8) Uani 1 2 d S T P A .
Se3 Se 0.53616(5) 0.250000 0.32552(4) 0.00748(8) Uani 1 2 d S T P . .
O1 O -0.0462(3) 0.4269(3) 0.1415(2) 0.0126(4) Uani 1 1 d . . . . .
O2 O -0.1920(4) 0.250000 -0.1431(3) 0.0091(5) Uani 1 2 d S T P . .
O3 O 0.1934(3) 0.4230(3) 0.5192(2) 0.0106(3) Uani 1 1 d . . . . .
O4 O 0.0144(4) 0.250000 0.6658(3) 0.0101(5) Uani 1 2 d S T P . .
O5 O 0.3935(3) 0.4343(3) 0.2743(3) 0.0128(4) Uani 1 1 d . . . . .
O6 O 0.6194(4) 0.250000 0.5379(3) 0.0109(5) Uani 1 2 d S T P A .
Ca1 Ca 0.46928(11) 0.250000 0.71527(11) 0.01446(15) Uani 1 2 d DS T P . .
O1W O 0.406(2) 0.415(3) 0.9263(15) 0.125(7) Uani 0.5 1 d D U . A 1
H1WA H 0.441(7) 0.370(5) 1.019(3) 0.187 Uiso 0.5 1 d DR . . B 1
H1WB H 0.31(2) 0.48(3) 0.897(6) 0.187 Uiso 0.5 1 d DR . . C 1
O1B O 0.3676(18) 0.250000 0.9217(16) 0.097(8) Uani 0.5 2 d DS TU P A 2
H1BA H 0.253935 0.250000 0.869843 0.146 Uiso 0.5 2 d DRS T P A 2
H1BB H 0.405345 0.230130 1.019863 0.146 Uiso 0.25 1 d DR . . A 2
loop_
_atom_site_aniso_label
_atom_site_aniso_U_11
_atom_site_aniso_U_22
_atom_site_aniso_U_33
_atom_site_aniso_U_23
_atom_site_aniso_U_13
_atom_site_aniso_U_12
Ni1 0.00878(14) 0.00797(15) 0.00638(15) -0.00018(10) 0.00259(11) -0.00064(10)
Se1 0.00687(15) 0.00978(16) 0.00565(15) 0.000 0.00089(12) 0.000
Se2 0.00623(14) 0.00944(16) 0.00708(15) 0.000 0.00287(12) 0.000
Se3 0.00634(14) 0.00863(15) 0.00709(16) 0.000 0.00250(12) 0.000
O1 0.0124(8) 0.0135(9) 0.0107(8) -0.0059(7) 0.0037(7) -0.0023(7)
O2 0.0081(10) 0.0108(11) 0.0046(10) 0.000 -0.0008(8) 0.000
O3 0.0099(8) 0.0115(8) 0.0101(8) 0.0014(6) 0.0039(6) -0.0031(6)
O4 0.0127(11) 0.0106(11) 0.0093(11) 0.000 0.0070(9) 0.000
O5 0.0112(8) 0.0113(9) 0.0141(9) 0.0032(7) 0.0036(7) 0.0042(7)
O6 0.0109(11) 0.0121(12) 0.0063(11) 0.000 0.0004(9) 0.000
Ca1 0.0093(3) 0.0167(4) 0.0151(3) 0.000 0.0029(3) 0.000
O1W 0.119(11) 0.22(2) 0.061(7) -0.042(10) 0.059(7) -0.052(12)
O1B 0.027(5) 0.24(3) 0.029(6) 0.000 0.014(4) 0.000
loop_
_atom_type_symbol
_atom_type_description
_atom_type_scat_dispersion_real
_atom_type_scat_dispersion_imag
_atom_type_scat_source
Ca Ca 0.2262 0.3064 'International Tables Vol C Tables 4.2.6.8 and 6.1.1.4'
H H 0.0000 0.0000 'International Tables Vol C Tables 4.2.6.8 and 6.1.1.4'
Ni Ni 0.3393 1.1124 'International Tables Vol C Tables 4.2.6.8 and 6.1.1.4'
O O 0.0106 0.0060 'International Tables Vol C Tables 4.2.6.8 and 6.1.1.4'
Se Se -0.0929 2.2259 'International Tables Vol C Tables 4.2.6.8 and 6.1.1.4'
loop_
_geom_angle_atom_site_label_1
_geom_angle_atom_site_label_2
_geom_angle_atom_site_label_3
_geom_angle
_geom_angle_site_symmetry_1
_geom_angle_site_symmetry_3
_geom_angle_publ_flag
O1 Ni1 O2 93.48(9) . 3_565 ?
O1 Ni1 O3 99.51(8) . . ?
O1 Ni1 O4 89.02(9) . 3_566 ?
O1 Ni1 O5 98.90(8) . . ?
O1 Ni1 O6 166.89(8) . 3_666 ?
O3 Ni1 O2 165.85(8) . 3_565 ?
O3 Ni1 O4 91.61(9) . 3_566 ?
O3 Ni1 O5 101.01(8) . . ?
O3 Ni1 O6 90.74(9) . 3_666 ?
O4 Ni1 O2 82.97(9) 3_566 3_565 ?
O4 Ni1 O6 82.50(9) 3_566 3_666 ?
O5 Ni1 O2 82.35(9) . 3_565 ?
O5 Ni1 O4 163.70(8) . 3_566 ?
O5 Ni1 O6 87.03(9) . 3_666 ?
O6 Ni1 O2 75.63(9) 3_666 3_565 ?
O1 Se1 O1 100.19(15) 4_565 . ?
O1 Se1 O2 100.97(9) . . ?
O1 Se1 O2 100.97(9) 4_565 . ?
O3 Se2 O3 95.51(13) . 4_565 ?
O3 Se2 Ca1 51.31(7) 4_565 . ?
O3 Se2 Ca1 51.31(7) . . ?
O4 Se2 O3 99.16(9) . . ?
O4 Se2 O3 99.16(9) . 4_565 ?
O4 Se2 Ca1 82.11(10) . . ?
O5 Se3 O5 106.86(14) . 4_565 ?
O5 Se3 O6 101.26(9) . . ?
O5 Se3 O6 101.27(9) 4_565 . ?
Se1 O1 Ni1 116.44(11) . . ?
Ni1 O2 Ni1 83.22(10) 2_545 3_565 ?
Ni1 O2 Ca1 90.41(8) 2_545 1_454 ?
Ni1 O2 Ca1 90.41(8) 3_565 1_454 ?
Se1 O2 Ni1 113.85(11) . 2_545 ?
Se1 O2 Ni1 113.85(11) . 3_565 ?
Se1 O2 Ca1 146.72(15) . 1_454 ?
Ni1 O3 Ca1 126.62(9) . . ?
Se2 O3 Ni1 114.68(10) . . ?
Se2 O3 Ca1 95.84(8) . . ?
Ni1 O4 Ni1 83.97(10) 2_546 3_566 ?
Se2 O4 Ni1 115.44(11) . 3_566 ?
Se2 O4 Ni1 115.44(11) . 2_546 ?
Ni1 O5 Ca1 87.31(7) . 3_666 ?
Se3 O5 Ni1 142.60(12) . . ?
Se3 O5 Ca1 120.40(10) . 3_666 ?
Ni1 O6 Ni1 83.29(10) 3_666 2_646 ?
Ni1 O6 Ca1 91.89(9) 2_646 . ?
Ni1 O6 Ca1 91.89(9) 3_666 . ?
Se3 O6 Ni1 121.38(11) . 2_646 ?
Se3 O6 Ni1 121.38(11) . 3_666 ?
Se3 O6 Ca1 133.29(15) . . ?
Ni1 Ca1 Ni1 52.104(17) 3_666 2_646 ?
Se2 Ca1 Ni1 132.09(3) . 2_646 ?
Se2 Ca1 Ni1 132.09(3) . 3_666 ?
O2 Ca1 Ni1 41.41(5) 1_656 2_646 ?
O2 Ca1 Ni1 41.41(5) 1_656 3_666 ?
O2 Ca1 Se2 171.65(7) 1_656 . ?
O2 Ca1 O3 143.72(6) 1_656 4_565 ?
O2 Ca1 O3 143.72(6) 1_656 . ?
O2 Ca1 O5 68.22(5) 1_656 3_666 ?
O2 Ca1 O5 68.22(5) 1_656 2_646 ?
O2 Ca1 O1W 97.3(3) 1_656 4_565 ?
O2 Ca1 O1W 97.3(4) 1_656 . ?
O3 Ca1 Ni1 103.54(5) 4_565 2_646 ?
O3 Ca1 Ni1 103.54(5) . 3_666 ?
O3 Ca1 Ni1 133.33(6) 4_565 3_666 ?
O3 Ca1 Ni1 133.33(6) . 2_646 ?
O3 Ca1 Se2 32.86(5) 4_565 . ?
O3 Ca1 Se2 32.86(5) . . ?
O3 Ca1 O3 61.94(9) . 4_565 ?
O3 Ca1 O5 77.33(6) . 3_666 ?
O3 Ca1 O5 136.14(7) . 2_646 ?
O3 Ca1 O5 136.14(7) 4_565 3_666 ?
O3 Ca1 O5 77.32(6) 4_565 2_646 ?
O5 Ca1 Ni1 40.42(5) 2_646 2_646 ?
O5 Ca1 Ni1 92.37(5) 3_666 2_646 ?
O5 Ca1 Ni1 40.42(5) 3_666 3_666 ?
O5 Ca1 Ni1 92.37(5) 2_646 3_666 ?
O5 Ca1 Se2 110.06(5) 3_666 . ?
O5 Ca1 Se2 110.06(5) 2_646 . ?
O5 Ca1 O5 132.08(10) 3_666 2_646 ?
O6 Ca1 Ni1 41.35(5) . 3_666 ?
O6 Ca1 Ni1 41.34(5) . 2_646 ?
O6 Ca1 Se2 104.93(7) . . ?
O6 Ca1 O2 66.71(9) . 1_656 ?
O6 Ca1 O3 92.89(8) . 4_565 ?
O6 Ca1 O3 92.89(8) . . ?
O6 Ca1 O5 72.64(6) . 3_666 ?
O6 Ca1 O5 72.64(6) . 2_646 ?
O6 Ca1 O1W 147.3(4) . . ?
O6 Ca1 O1W 147.3(4) . 4_565 ?
O1W Ca1 Ni1 137.5(4) . 2_646 ?
O1W Ca1 Ni1 107.8(4) . 3_666 ?
O1W Ca1 Ni1 107.8(4) 4_565 2_646 ?
O1W Ca1 Ni1 137.5(4) 4_565 3_666 ?
O1W Ca1 Se2 90.0(3) 4_565 . ?
O1W Ca1 Se2 90.0(3) . . ?
O1W Ca1 O3 113.7(3) 4_565 . ?
O1W Ca1 O3 84.1(4) . . ?
O1W Ca1 O3 84.1(4) 4_565 4_565 ?
O1W Ca1 O3 113.7(4) . 4_565 ?
O1W Ca1 O5 129.7(5) 4_565 3_666 ?
O1W Ca1 O5 74.9(4) . 3_666 ?
O1W Ca1 O5 74.9(4) 4_565 2_646 ?
O1W Ca1 O5 129.7(5) . 2_646 ?
O1W Ca1 O1W 58.9(9) 4_565 . ?
O1B Ca1 Se2 83.8(3) . . ?
O1B Ca1 O3 94.6(3) . . ?
O1B Ca1 O6 171.3(3) . . ?
O1B Ca1 O1W 30.0(4) . 4_565 ?
loop_
_geom_bond_atom_site_label_1
_geom_bond_atom_site_label_2
_geom_bond_distance
_geom_bond_site_symmetry_2
_geom_bond_publ_flag
Ni1 O1 2.003(2) . ?
Ni1 O2 2.116(2) 3_565 ?
Ni1 O3 2.0407(19) . ?
Ni1 O4 2.101(2) 3_566 ?
Ni1 O5 2.077(2) . ?
Ni1 O6 2.115(2) 3_666 ?
Se1 O1 1.691(2) 4_565 ?
Se1 O1 1.691(2) . ?
Se1 O2 1.737(3) . ?
Se2 O3 1.7142(19) . ?
Se2 O3 1.7142(19) 4_565 ?
Se2 O4 1.712(3) . ?
Se2 Ca1 3.1432(9) . ?
Se3 O5 1.6829(19) . ?
Se3 O5 1.6830(19) 4_565 ?
Se3 O6 1.726(3) . ?
O2 Ca1 2.385(3) 1_454 ?
O3 Ca1 2.466(2) . ?
O5 Ca1 2.534(2) 3_666 ?
O6 Ca1 2.333(3) . ?
Ca1 O1W 2.458(13) 4_565 ?
Ca1 O1W 2.458(13) . ?
Ca1 O1B 2.294(13) . ?
loop_
_geom_hbond_atom_site_label_D
_geom_hbond_atom_site_label_H
_geom_hbond_atom_site_label_A
_geom_hbond_distance_DH
_geom_hbond_distance_HA
_geom_hbond_distance_DA
_geom_hbond_angle_DHA
_geom_hbond_site_symmetry_A
O1W H1WA Se3 0.824(10) 2.666(19) 3.487(14) 175(6) 1_556
O1W H1WA O5 0.824(10) 2.51(5) 3.157(11) 137(6) 1_556
O1W H1WB O1 0.824(10) 2.05(8) 2.843(17) 161(21) 3_566
O1B H1BB Se3 0.81 2.48 3.277(13) 166.1 1_556
O1B H1BB O5 0.81 2.61 3.356(12) 153.5 4_566
