#------------------------------------------------------------------------------
#$Date: 2021-07-05 20:10:48 +0300 (Mon, 05 Jul 2021) $
#$Revision: 267123 $
#$URL: file:///home/coder/svn-repositories/cod/cif/7/24/28/7242877.cif $
#------------------------------------------------------------------------------
#
# This file is available in the Crystallography Open Database (COD),
# http://www.crystallography.net/
#
# All data on this site have been placed in the public domain by the
# contributors.
#
data_7242877
loop_
_publ_author_name
'Richardson, Jonathan G.'
'Mizuno, Asato'
'Shuku, Yoshiaki'
'Awaga, Kunio'
'Robertson, Neil'
'Morrison, Carole A.'
'Warren, Mark R.'
'Allan, David R.'
'Moggach, Stephen A.'
_publ_section_title
;
 Evaluating the high-pressure structural response and crystal lattice
 interactions of the magnetically-bistable organic radical TTTA
;
_journal_issue                   25
_journal_name_full               CrystEngComm
_journal_page_first              4444
_journal_page_last               4450
_journal_paper_doi               10.1039/D1CE00577D
_journal_volume                  23
_journal_year                    2021
_chemical_formula_moiety         'C2 N3 S3'
_chemical_formula_sum            'C2 N3 S3'
_chemical_formula_weight         162.24
_space_group_IT_number           14
_space_group_name_Hall           '-P 2ybc'
_space_group_name_H-M_alt        'P 1 21/c 1'
_symmetry_cell_setting           monoclinic
_symmetry_space_group_name_Hall  '-P 2ybc'
_symmetry_space_group_name_H-M   'P 1 21/c 1'
_atom_sites_solution_hydrogens   difmap
_atom_sites_solution_primary     direct
_audit_creation_date             2021-04-22
_audit_creation_method           CRYSTALS_ver_14.61_build_6999
_audit_update_record
;
2021-04-27 deposited with the CCDC.	2021-05-18 downloaded from the CCDC.
;
_cell_angle_alpha                90
_cell_angle_beta                 104.37(5)
_cell_angle_gamma                90
_cell_formula_units_Z            4
_cell_length_a                   9.327(10)
_cell_length_b                   3.4620(3)
_cell_length_c                   14.734(3)
_cell_measurement_reflns_used    990
_cell_measurement_temperature    293
_cell_measurement_theta_max      22
_cell_measurement_theta_min      4
_cell_volume                     460.9(5)
_computing_cell_refinement       'USER DEFINED CELL REFINEMENT'
_computing_data_collection       'USER DEFINED DATA COLLECTION'
_computing_data_reduction
; 
 CrysAlisPro (Rigaku Oxford Diffraction, 2017) 
;
_computing_molecular_graphics    'CAMERON (Watkin et al., 1996)'
_computing_publication_material  'CRYSTALS (Betteridge et al., 2003)'
_computing_structure_refinement  'CRYSTALS (Betteridge et al., 2003)'
_computing_structure_solution    'SHELXS 86 (Sheldrick, 1986)'
_diffrn_ambient_pressure         1300000
_diffrn_ambient_temperature      293
_diffrn_measured_fraction_theta_full 0.272
_diffrn_measured_fraction_theta_max 0.237
_diffrn_measurement_device       Area
_diffrn_measurement_device_type  Synchrotron
_diffrn_measurement_method       \w
_diffrn_radiation_monochromator  'focussing mirrors'
_diffrn_radiation_type           synchrotron
_diffrn_radiation_wavelength     0.48590
_diffrn_reflns_av_R_equivalents  0.023
_diffrn_reflns_av_unetI/netI     0.036
_diffrn_reflns_limit_h_max       6
_diffrn_reflns_limit_h_min       -7
_diffrn_reflns_limit_k_max       5
_diffrn_reflns_limit_k_min       -5
_diffrn_reflns_limit_l_max       19
_diffrn_reflns_limit_l_min       -19
_diffrn_reflns_number            2294
_diffrn_reflns_theta_full        16.935
_diffrn_reflns_theta_max         22.580
_diffrn_reflns_theta_min         3.825
_diffrn_standards_number         0
_exptl_absorpt_coefficient_mu    0.490
_exptl_absorpt_correction_T_max  0.95
_exptl_absorpt_correction_T_min  0.83
_exptl_absorpt_correction_type   multi-scan
_exptl_absorpt_process_details   'DENZO/SCALEPACK (Otwinowski & Minor, 1997)'
_exptl_crystal_colour            black
_exptl_crystal_density_diffrn    2.338
_exptl_crystal_density_meas      ?
_exptl_crystal_density_method    'not measured'
_exptl_crystal_description       block
_exptl_crystal_F_000             324
_exptl_crystal_size_max          0.120
_exptl_crystal_size_mid          0.100
_exptl_crystal_size_min          0.100
_refine_diff_density_max         0.25
_refine_diff_density_min         -0.26
_refine_ls_extinction_method     None
_refine_ls_goodness_of_fit_ref   1.0109
_refine_ls_hydrogen_treatment    noref
_refine_ls_matrix_type           full
_refine_ls_number_parameters     73
_refine_ls_number_reflns         445
_refine_ls_number_restraints     104
_refine_ls_R_factor_all          0.0534
_refine_ls_R_factor_gt           0.0423
_refine_ls_shift/su_max          0.0002357
_refine_ls_shift/su_mean         0.0000129
_refine_ls_structure_factor_coef Fsqd
_refine_ls_weighting_details
;
 Method= Modified Sheldrick 
 w=1/[\s^2^(F^2^) + ( 0.05P)^2^ + 0.84P] 
 ,where P=(max(Fo^2^,0) + 2Fc^2^)/3 
;
_refine_ls_weighting_scheme      calc
_refine_ls_wR_factor_all         0.1951
_refine_ls_wR_factor_gt          0.1669
_refine_ls_wR_factor_ref         0.0938
_reflns_limit_h_max              4
_reflns_limit_h_min              -7
_reflns_limit_k_max              5
_reflns_limit_k_min              0
_reflns_limit_l_max              19
_reflns_limit_l_min              0
_reflns_number_gt                373
_reflns_number_total             454
_reflns_threshold_expression     I>2.0\s(I)
_oxford_diffrn_Wilson_B_factor   0.00
_oxford_diffrn_Wilson_scale      0.00
_oxford_refine_ls_r_factor_ref   0.0398
_oxford_refine_ls_scale          0.751(5)
_oxford_reflns_number_all        454
_iucr_refine_instructions_details
;
#
# Punched on 22/04/21 at 20:57:05
#
#LIST     12                                                                    
BLOCK SCALE X'S  U'S 
END                                                                             
#
# Punched on 22/04/21 at 20:57:05
#
#LIST     16                                                                    
DIST   1.659,.01= S(1) TO N(2) 
DIST   1.734,.01= S(1) TO C(5) 
DIST   1.656,.01= N(2) TO S(3) 
DIST   1.735,.01= S(3) TO C(4) 
DIST   1.430,.01= C(4) TO C(5) 
DIST   1.313,.01= C(4) TO N(8) 
DIST   1.318,.01= C(5) TO N(6) 
DIST   1.645,.01= N(6) TO S(7) 
DIST   1.646,.01= S(7) TO N(8) 
ANGL  98,1= C(5) TO S(1) TO N(2) 
ANGL 117,1= S(3) TO N(2) TO S(1) 
ANGL  98,1= C(4) TO S(3) TO N(2) 
ANGL 114,1= C(5) TO C(4) TO S(3) 
ANGL 132,1= N(8) TO C(4) TO S(3) 
ANGL 114,1= N(8) TO C(4) TO C(5) 
ANGL 114,1= C(4) TO C(5) TO S(1) 
ANGL 132,1= N(6) TO C(5) TO S(1) 
ANGL 114,1= N(6) TO C(5) TO C(4) 
ANGL 106,1= S(7) TO N(6) TO C(5) 
ANGL  99,1= N(8) TO S(7) TO N(6) 
ANGL 106,1= S(7) TO N(8) TO C(4) 
REM   HREST   START (DO NOT REMOVE THIS LINE) 
REM   HREST   END (DO NOT REMOVE THIS LINE) 
PLANAR 0.01 N(2) S(1) S(3) C(4) C(5) N(6) S(7) N(8) 
REM   DELU   START (DO NOT REMOVE THIS LINE) 
VIBR .0, 0.00200 = S(1) TO N(2) 
VIBR .0, 0.00200 = S(1) TO C(5) 
VIBR .0, 0.00500 = C(5) TO N(2) 
VIBR .0, 0.00200 = N(2) TO S(3) 
VIBR .0, 0.00500 = S(3) TO S(1) 
VIBR .0, 0.00200 = S(3) TO C(4) 
VIBR .0, 0.00500 = C(4) TO N(2) 
VIBR .0, 0.00200 = C(4) TO C(5) 
VIBR .0, 0.00200 = C(4) TO N(8) 
VIBR .0, 0.00500 = C(5) TO S(3) 
VIBR .0, 0.00500 = N(8) TO S(3) 
VIBR .0, 0.00500 = N(8) TO C(5) 
VIBR .0, 0.00200 = C(5) TO N(6) 
VIBR .0, 0.00500 = S(1) TO C(4) 
VIBR .0, 0.00500 = N(6) TO C(4) 
VIBR .0, 0.00500 = N(6) TO S(1) 
VIBR .0, 0.00200 = N(6) TO S(7) 
VIBR .0, 0.00500 = S(7) TO C(5) 
VIBR .0, 0.00200 = S(7) TO N(8) 
VIBR .0, 0.00500 = N(8) TO N(6) 
VIBR .0, 0.00500 = S(7) TO C(4) 
REM   DELU   END (DO NOT REMOVE THIS LINE) 
REM   THERMSIM   START (DO NOT REMOVE THIS LINE) 
U(IJ) .0, 0.04000 = S(1) TO N(2) 
U(IJ) .0, 0.04000 = S(1) TO C(5) 
U(IJ) .0, 0.04000 = N(2) TO S(3) 
U(IJ) .0, 0.04000 = S(3) TO C(4) 
U(IJ) .0, 0.04000 = C(4) TO C(5) 
U(IJ) .0, 0.04000 = C(4) TO N(8) 
U(IJ) .0, 0.04000 = C(5) TO N(6) 
U(IJ) .0, 0.04000 = N(6) TO S(7) 
U(IJ) .0, 0.04000 = S(7) TO N(8) 
REM   THERMSIM   END (DO NOT REMOVE THIS LINE) 
END                                                                             
;
_cod_data_source_file            d1ce00577d2.cif
_cod_data_source_block           130GPa
_cod_depositor_comments
;
The following automatic conversions were performed:

data item '_exptl_crystal_density_meas' value 'not measured' was
changed to '?' -- the value is perceived as not measured.

Automatic conversion script
Id: cif_fix_values 7556 2019-12-06 15:28:31Z antanas 

 Adding full bibliography for 7242874--7242883.cif.
;
_cod_original_sg_symbol_H-M      'P 1 21/c 1 '
_cod_database_code               7242877
_oxford_refine_reflns_threshold_expression_ref I>-10.0\s(I)
_iucr_refine_reflections_details
; 
 
# Data was input as F-squared 
# punching LIST  6 as LIST  6 with all keys set 
# NBGNXT=    36 
#LIST   6 
READ NCOEF= 8 TYPE=FIX, F'S = FSQ UNIT=DATA, CHECK=NO L30=NO ARCH=NO 
STORE  NCOEF= 6 
OUTPUT INDICES     /FO/        SIGMA(/FO/) RATIO/JCODE CORRECTIONS SERIAL 
CONT 
INPUT  H           K           L           /FO/        SIGMA(/FO/) JCODE 
CONT   CORRECTIONS SERIAL 
FOR (I4,I4,I4,F10.2,F8.2,F4.0,F7.4,F7.0) 
END 
   0  -1   0      0.14    0.18  0. 1.0000     0. 
   0  -1   0      0.16    0.25  0. 1.0000     0. 
   0   1   0      0.07    0.25  0. 1.0000     0. 
   0   1   0      0.16    0.30  0. 1.0000     0. 
   0   1   0     -0.12    0.23  0. 1.0000     0. 
   0   1   0      0.15    0.15  0. 1.0000     0. 
   1  -1   0   9132.42  294.61  0. 1.0000     0. 
  -1  -1   0   9999.99  257.57  0. 1.0000     0. 
  -1  -1   0   9648.31  291.87  0. 1.0000     0. 
  -1   1   0   9952.51  261.64  0. 1.0000     0. 
  -1   1   0   9885.99  257.13  0. 1.0000     0. 
   1   1   0   9838.98  262.35  0. 1.0000     0. 
   1   1   0   9838.19  258.14  0. 1.0000     0. 
  -1   1   0   9855.85  261.30  0. 1.0000     0. 
   1   1   0   9781.38  263.15  0. 1.0000     0. 
   0   2   0    798.43   22.31  0. 1.0000     0. 
   0   2   0    811.48   22.63  0. 1.0000     0. 
  -1   2   0    973.90   27.63  0. 1.0000     0. 
   1   2   0    987.66   26.80  0. 1.0000     0. 
  -1   2   0    958.53   26.86  0. 1.0000     0. 
   1   2   0   1000.68   27.60  0. 1.0000     0. 
   0  -3   0     -0.46    1.39  0. 1.0000     0. 
   0  -3   0      0.16    0.72  0. 1.0000     0. 
   0  -3   0     -0.22    0.69  0. 1.0000     0. 
   0  -3   0      0.06    0.80  0. 1.0000     0. 
   0   3   0     -0.37    1.07  0. 1.0000     0. 
   0   3   0     -1.00    1.47  0. 1.0000     0. 
   0   3   0     -0.33    1.00  0. 1.0000     0. 
   0   3   0     -0.53    0.69  0. 1.0000     0. 
  -1  -3   0      3.04    0.81  0. 1.0000     0. 
  -1  -3   0      2.78    1.04  0. 1.0000     0. 
  -1  -3   0      3.14    0.75  0. 1.0000     0. 
   1  -3   0      3.09    1.44  0. 1.0000     0. 
   1   3   0      2.01    1.51  0. 1.0000     0. 
  -1   3   0      2.38    1.20  0. 1.0000     0. 
   1   3   0      2.89    0.77  0. 1.0000     0. 
  -1   3   0      3.16    1.36  0. 1.0000     0. 
   1   3   0      2.81    1.01  0. 1.0000     0. 
  -1   3   0      2.68    0.83  0. 1.0000     0. 
   3   3   0      5.30    0.84  0. 1.0000     0. 
  -3   3   0      5.02    1.42  0. 1.0000     0. 
   3   3   0      4.87    1.13  0. 1.0000     0. 
  -3   3   0      4.61    1.80  0. 1.0000     0. 
  -4   3   0      1.88    1.43  0. 1.0000     0. 
   1  -1  -1     76.42    2.73  0. 1.0000     0. 
  -1  -1   1     71.27    2.32  0. 1.0000     0. 
   1  -1  -1     73.46    3.07  0. 1.0000     0. 
  -1  -1   1     77.48    2.51  0. 1.0000     0. 
  -1   1   1     79.18    2.43  0. 1.0000     0. 
  -1   1   1     77.04    2.56  0. 1.0000     0. 
  -1   1   1     77.72    2.54  0. 1.0000     0. 
   1   1  -1     81.09    2.51  0. 1.0000     0. 
   1   1  -1     78.01    2.47  0. 1.0000     0. 
   0  -1   1    507.00   15.51  0. 1.0000     0. 
   0  -1   1    515.30   13.55  0. 1.0000     0. 
   0  -1  -1    505.68   13.60  0. 1.0000     0. 
   0  -1  -1    525.34   15.36  0. 1.0000     0. 
   0   1   1    505.79   13.94  0. 1.0000     0. 
   0   1   1    504.20   14.09  0. 1.0000     0. 
   0   1   1    502.77   14.42  0. 1.0000     0. 
   0   1  -1    511.34   13.88  0. 1.0000     0. 
   0   1  -1    495.37   14.00  0. 1.0000     0. 
   0   1  -1    502.86   13.51  0. 1.0000     0. 
   0   1   1    510.56   13.58  0. 1.0000     0. 
  -1  -1  -1   3507.74  101.24  0. 1.0000     0. 
   1   1   1   3233.09   92.25  0. 1.0000     0. 
  -1   1  -1   3387.70   90.21  0. 1.0000     0. 
  -1   1  -1   3394.12   91.32  0. 1.0000     0. 
   1   1   1   3380.42   89.94  0. 1.0000     0. 
  -1   1  -1   3352.23   91.91  0. 1.0000     0. 
  -3   2   1    321.62    9.82  0. 1.0000     0. 
  -1  -2   1   1165.86   35.07  0. 1.0000     0. 
   1  -2  -1   1157.06   35.97  0. 1.0000     0. 
  -1  -2   1   1151.49   30.81  0. 1.0000     0. 
   1   2  -1   1175.96   31.30  0. 1.0000     0. 
  -1   2   1   1165.03   31.48  0. 1.0000     0. 
  -1   2   1   1156.98   30.82  0. 1.0000     0. 
  -1   2   1   1149.51   31.33  0. 1.0000     0. 
   1   2  -1   1117.98   33.14  0. 1.0000     0. 
   0  -2   1    217.90    7.43  0. 1.0000     0. 
   0  -2  -1    220.92    6.44  0. 1.0000     0. 
   0  -2  -1    231.82    7.61  0. 1.0000     0. 
   0  -2   1    225.24    6.40  0. 1.0000     0. 
   0  -2  -1    243.84    7.27  0. 1.0000     0. 
   0   2  -1    220.27    6.52  0. 1.0000     0. 
   0   2  -1    226.26    7.00  0. 1.0000     0. 
   0   2   1    229.90    7.22  0. 1.0000     0. 
   0   2   1    224.34    6.69  0. 1.0000     0. 
   0   2   1    233.68    6.36  0. 1.0000     0. 
   1  -2   1      1.71    1.02  0. 1.0000     0. 
  -1  -2  -1      3.73    0.59  0. 1.0000     0. 
   1   2   1      3.74    1.14  0. 1.0000     0. 
  -1   2  -1      3.53    0.77  0. 1.0000     0. 
  -1   2  -1      2.76    0.67  0. 1.0000     0. 
   1   2   1      3.86    0.53  0. 1.0000     0. 
   1   2   1      2.89    0.67  0. 1.0000     0. 
  -1   2  -1      3.17    0.92  0. 1.0000     0. 
  -4   3   1     54.67    3.13  0. 1.0000     0. 
  -4   3   1     48.74    2.88  0. 1.0000     0. 
   3  -3  -1      7.38    1.03  0. 1.0000     0. 
  -3   3   1      5.71    1.76  0. 1.0000     0. 
  -3   3   1      9.49    1.48  0. 1.0000     0. 
   3   3  -1      5.10    1.20  0. 1.0000     0. 
   3   3  -1      8.38    0.92  0. 1.0000     0. 
   1  -3  -1    208.92    8.47  0. 1.0000     0. 
  -1  -3   1    206.94    6.82  0. 1.0000     0. 
   1  -3  -1    199.73    6.17  0. 1.0000     0. 
   1  -3  -1    214.77    6.67  0. 1.0000     0. 
  -1   3   1    205.92    6.81  0. 1.0000     0. 
   0  -3   1     30.70    1.55  0. 1.0000     0. 
   0  -3  -1     28.45    1.64  0. 1.0000     0. 
   0  -3   1     30.83    2.61  0. 1.0000     0. 
   0  -3  -1     32.36    1.87  0. 1.0000     0. 
   0  -3  -1     30.99    2.45  0. 1.0000     0. 
   0  -3   1     30.85    1.58  0. 1.0000     0. 
   0  -3  -1     32.43    1.46  0. 1.0000     0. 
   0  -3   1     31.69    1.75  0. 1.0000     0. 
   0   3  -1     32.32    2.13  0. 1.0000     0. 
   0   3   1     31.32    1.92  0. 1.0000     0. 
   0   3   1     30.62    1.90  0. 1.0000     0. 
   0   3  -1     34.28    1.98  0. 1.0000     0. 
   0   3   1     27.18    2.59  0. 1.0000     0. 
   0   3  -1     31.33    2.47  0. 1.0000     0. 
   0   3   1     29.14    1.66  0. 1.0000     0. 
   2  -3   1    264.81    8.77  0. 1.0000     0. 
  -2  -3  -1    258.93    8.04  0. 1.0000     0. 
   2  -3   1    267.15   10.57  0. 1.0000     0. 
  -2  -3  -1    259.56    8.53  0. 1.0000     0. 
   2   3   1    273.47    7.45  0. 1.0000     0. 
  -2   3  -1    258.72    8.61  0. 1.0000     0. 
   2   3   1    248.39    8.51  0. 1.0000     0. 
  -2   3  -1    272.41    8.97  0. 1.0000     0. 
   3   3   1    435.20   11.86  0. 1.0000     0. 
   3   3   1    423.44   13.28  0. 1.0000     0. 
  -3   3  -1    430.44   13.71  0. 1.0000     0. 
  -2  -1   2   1190.86   31.66  0. 1.0000     0. 
   1  -1  -2     75.66    3.12  0. 1.0000     0. 
   1  -1  -2     86.79    2.82  0. 1.0000     0. 
  -1   1   2     82.20    2.40  0. 1.0000     0. 
   1   1  -2     77.72    2.61  0. 1.0000     0. 
  -1   1   2     79.77    2.63  0. 1.0000     0. 
  -1   1   2     78.98    2.72  0. 1.0000     0. 
   0  -1  -2   1294.56   37.91  0. 1.0000     0. 
   0   1  -2   1228.08   34.18  0. 1.0000     0. 
   0   1   2   1254.98   34.18  0. 1.0000     0. 
   0   1   2   1287.28   34.01  0. 1.0000     0. 
   0   1  -2   1267.46   34.57  0. 1.0000     0. 
   0   1   2   1270.45   34.95  0. 1.0000     0. 
   1  -1   2   1774.66   58.00  0. 1.0000     0. 
   3  -2  -2    680.23   21.28  0. 1.0000     0. 
  -3   2   2    678.61   19.62  0. 1.0000     0. 
   3   2  -2    687.81   19.18  0. 1.0000     0. 
  -1  -2   2    157.95    4.59  0. 1.0000     0. 
   1  -2  -2    158.40    5.39  0. 1.0000     0. 
   1   2  -2    158.20    5.06  0. 1.0000     0. 
   1   2  -2    158.86    5.22  0. 1.0000     0. 
  -1   2   2    160.48    4.65  0. 1.0000     0. 
   1   2  -2    152.14    4.62  0. 1.0000     0. 
  -1   2   2    156.63    5.46  0. 1.0000     0. 
   0  -2  -2    456.57   12.48  0. 1.0000     0. 
   0  -2  -2    463.86   14.77  0. 1.0000     0. 
   0  -2  -2    461.77   14.27  0. 1.0000     0. 
   0  -2   2    455.71   16.17  0. 1.0000     0. 
   0  -2   2    454.94   12.63  0. 1.0000     0. 
   0   2  -2    457.08   12.59  0. 1.0000     0. 
   0   2   2    460.59   13.60  0. 1.0000     0. 
   0   2  -2    472.61   13.44  0. 1.0000     0. 
   0   2   2    460.93   12.39  0. 1.0000     0. 
   2  -2   2   1516.86   49.73  0. 1.0000     0. 
  -2  -2  -2   1430.96   45.79  0. 1.0000     0. 
  -2   2  -2   1559.25   40.64  0. 1.0000     0. 
   2   2   2   1525.70   41.10  0. 1.0000     0. 
   2   2   2   1543.63   39.69  0. 1.0000     0. 
  -2   2  -2   1459.66   41.94  0. 1.0000     0. 
  -4   3   2     26.67    2.34  0. 1.0000     0. 
  -4   3   2     25.04    2.07  0. 1.0000     0. 
  -3  -3   2     13.72    1.26  0. 1.0000     0. 
   3  -3  -2     14.32    1.39  0. 1.0000     0. 
  -3   3   2     15.57    1.93  0. 1.0000     0. 
  -3   3   2     15.37    1.70  0. 1.0000     0. 
  -3   3   2     12.98    1.49  0. 1.0000     0. 
   3   3  -2     15.15    1.55  0. 1.0000     0. 
  -2  -3   2    196.91    5.84  0. 1.0000     0. 
   2  -3  -2    188.92    6.75  0. 1.0000     0. 
  -2   3   2    195.12    6.69  0. 1.0000     0. 
  -2  -3  -2     46.84    2.14  0. 1.0000     0. 
   2  -3   2     43.72    3.43  0. 1.0000     0. 
  -2   3  -2     49.24    2.62  0. 1.0000     0. 
  -2   3  -2     45.39    2.76  0. 1.0000     0. 
   2   3   2     42.90    1.97  0. 1.0000     0. 
   2   3   2     43.46    3.60  0. 1.0000     0. 
  -3   3  -2     69.35    3.65  0. 1.0000     0. 
   3   3   2     66.79    2.51  0. 1.0000     0. 
   4   4  -2      5.14    1.72  0. 1.0000     0. 
  -4   4   2      4.90    1.92  0. 1.0000     0. 
  -3  -4   2      2.73    1.18  0. 1.0000     0. 
  -3   4   2      3.17    1.93  0. 1.0000     0. 
   3   4  -2      3.14    1.60  0. 1.0000     0. 
   3  -4   2      7.01    3.44  0. 1.0000     0. 
   3  -4   2      7.32    1.29  0. 1.0000     0. 
  -3   4  -2      9.68    2.25  0. 1.0000     0. 
   3   4   2      5.96    1.21  0. 1.0000     0. 
  -1   0   3      0.03    0.15  0. 1.0000     0. 
  -1   0   3      0.21    0.13  0. 1.0000     0. 
   1   0  -3      0.08    0.13  0. 1.0000     0. 
   1   0  -3     -0.01    0.16  0. 1.0000     0. 
  -1   0   3      0.04    0.12  0. 1.0000     0. 
   1   0  -3      0.05    0.15  0. 1.0000     0. 
   0   0  -3     -0.01    0.10  0. 1.0000     0. 
   0   0   3      0.04    0.20  0. 1.0000     0. 
   0   0   3      0.07    0.09  0. 1.0000     0. 
   0   0  -3      1.00    0.23  0. 1.0000     0. 
   0   0   3      0.05    0.21  0. 1.0000     0. 
   0   0  -3     -0.01    0.15  0. 1.0000     0. 
  -2  -1   3    297.89    8.95  0. 1.0000     0. 
  -2   1   3    324.61    8.63  0. 1.0000     0. 
   2   1  -3    325.06    9.10  0. 1.0000     0. 
  -1  -1   3    412.64   11.03  0. 1.0000     0. 
   1  -1  -3    405.81   12.86  0. 1.0000     0. 
  -1   1   3    405.32   10.99  0. 1.0000     0. 
  -1   1   3    402.56   10.89  0. 1.0000     0. 
   1   1  -3    399.51   11.93  0. 1.0000     0. 
   0   1   3    156.04    4.40  0. 1.0000     0. 
   0   1   3    157.25    4.41  0. 1.0000     0. 
   0   1  -3    158.59    4.83  0. 1.0000     0. 
   0   1  -3    155.74    4.42  0. 1.0000     0. 
  -1   1  -3    786.49   22.09  0. 1.0000     0. 
  -3  -2   3    323.05    9.19  0. 1.0000     0. 
   3  -2  -3    325.22   10.18  0. 1.0000     0. 
  -3   2   3    327.41    9.50  0. 1.0000     0. 
  -3   2   3    318.06    9.99  0. 1.0000     0. 
   3   2  -3    314.17    9.97  0. 1.0000     0. 
  -2  -2  -3    126.31    4.43  0. 1.0000     0. 
   2  -2   3    135.79    5.98  0. 1.0000     0. 
  -2   2  -3    134.66    4.54  0. 1.0000     0. 
  -2   2  -3    120.33    4.95  0. 1.0000     0. 
   2   2   3    122.40    4.11  0. 1.0000     0. 
  -4   3   3      8.43    1.56  0. 1.0000     0. 
   4   3  -3      1.97    1.28  0. 1.0000     0. 
   3  -3  -3    274.23    9.45  0. 1.0000     0. 
  -3  -3   3    276.17    8.41  0. 1.0000     0. 
  -3   3   3    285.96    9.57  0. 1.0000     0. 
   3   3  -3    301.75    9.07  0. 1.0000     0. 
  -3   3   3    292.52    8.57  0. 1.0000     0. 
   3   3  -3    291.96    9.31  0. 1.0000     0. 
   2  -3  -3      6.31    1.13  0. 1.0000     0. 
  -2  -3   3      5.35    0.94  0. 1.0000     0. 
   2   3  -3      6.07    1.45  0. 1.0000     0. 
  -2   3   3      6.03    1.09  0. 1.0000     0. 
  -2   3   3      6.23    1.60  0. 1.0000     0. 
   2   3  -3      6.97    1.33  0. 1.0000     0. 
   1  -3   3     82.18    4.70  0. 1.0000     0. 
  -1  -3  -3     83.46    3.79  0. 1.0000     0. 
  -1  -3  -3     86.51    3.24  0. 1.0000     0. 
   1  -3   3     83.27    2.90  0. 1.0000     0. 
  -1   3  -3     81.28    3.56  0. 1.0000     0. 
  -1   3  -3     81.62    3.82  0. 1.0000     0. 
   1   3   3     79.28    2.98  0. 1.0000     0. 
   1   3   3     78.63    4.51  0. 1.0000     0. 
  -2  -3  -3     11.39    1.09  0. 1.0000     0. 
   2  -3   3      7.49    1.83  0. 1.0000     0. 
   2   3   3      6.69    1.97  0. 1.0000     0. 
  -2   3  -3      7.53    1.43  0. 1.0000     0. 
  -2   3  -3      6.30    1.53  0. 1.0000     0. 
   2   3   3      6.25    0.94  0. 1.0000     0. 
   3  -3   3     29.17    4.42  0. 1.0000     0. 
   3   3   3     41.97    1.87  0. 1.0000     0. 
  -3   3  -3     44.84    2.95  0. 1.0000     0. 
  -5   4   3      0.96    1.64  0. 1.0000     0. 
  -4   4   3    248.95    8.68  0. 1.0000     0. 
   4   4  -3    236.91    8.46  0. 1.0000     0. 
   3  -4  -3      5.38    1.37  0. 1.0000     0. 
  -3  -4   3      2.52    1.24  0. 1.0000     0. 
   3   4  -3      3.90    1.65  0. 1.0000     0. 
  -3   4   3      4.60    1.44  0. 1.0000     0. 
  -3   4   3      5.05    2.06  0. 1.0000     0. 
  -2  -4  -3      0.53    0.99  0. 1.0000     0. 
   2  -4   3      1.81    1.16  0. 1.0000     0. 
   2  -4   3      1.32    1.91  0. 1.0000     0. 
  -2  -4  -3     -0.86    1.67  0. 1.0000     0. 
  -2   4  -3     -1.33    1.65  0. 1.0000     0. 
  -2   4  -3      0.10    1.51  0. 1.0000     0. 
   2   4   3      0.08    0.97  0. 1.0000     0. 
   3  -4   3      4.28    2.77  0. 1.0000     0. 
   3  -4   3      6.13    1.24  0. 1.0000     0. 
  -3   4  -3      4.07    1.96  0. 1.0000     0. 
   3   4   3      7.36    1.26  0. 1.0000     0. 
  -4   4  -3     37.12    3.27  0. 1.0000     0. 
  -1   0   4   2755.43   72.35  0. 1.0000     0. 
   1   0  -4   2639.21   72.76  0. 1.0000     0. 
   1   0  -4   2694.03   71.92  0. 1.0000     0. 
   0   0   4   2340.56   62.56  0. 1.0000     0. 
   0   0  -4   2378.69   63.45  0. 1.0000     0. 
   0   0  -4   2332.64   63.50  0. 1.0000     0. 
   0   0  -4   2435.04   71.07  0. 1.0000     0. 
   2   1  -4     87.37    2.79  0. 1.0000     0. 
  -2   1   4     83.32    2.81  0. 1.0000     0. 
   1   1  -4   1609.43   43.80  0. 1.0000     0. 
  -3  -2   4    593.63   16.30  0. 1.0000     0. 
   3  -2  -4    582.66   18.53  0. 1.0000     0. 
  -3   2   4    592.12   17.43  0. 1.0000     0. 
   3   2  -4    599.87   17.38  0. 1.0000     0. 
  -3   2   4    602.41   16.04  0. 1.0000     0. 
   3   2  -4    590.23   17.31  0. 1.0000     0. 
  -2  -2   4     43.05    1.73  0. 1.0000     0. 
   2  -2  -4     43.34    2.03  0. 1.0000     0. 
   2   2  -4     44.82    2.08  0. 1.0000     0. 
  -2   2   4     43.55    1.81  0. 1.0000     0. 
   2   2  -4     40.02    1.44  0. 1.0000     0. 
  -2   2   4     41.21    1.99  0. 1.0000     0. 
   2   2  -4     40.89    2.21  0. 1.0000     0. 
  -2   2   4     42.63    2.25  0. 1.0000     0. 
  -1  -2   4    138.42    4.07  0. 1.0000     0. 
   1  -2  -4    137.98    4.82  0. 1.0000     0. 
   1  -2  -4    127.40    3.80  0. 1.0000     0. 
  -1   2   4    129.08    4.15  0. 1.0000     0. 
  -1   2   4    130.50    4.18  0. 1.0000     0. 
   1   2  -4    132.19    4.47  0. 1.0000     0. 
   1   2  -4    140.58    4.60  0. 1.0000     0. 
  -1   2   4    128.93    4.96  0. 1.0000     0. 
  -1   2   4    138.19    4.11  0. 1.0000     0. 
   1   2  -4    135.26    4.64  0. 1.0000     0. 
   1   2  -4    128.60    3.84  0. 1.0000     0. 
   0  -2   4     27.79    1.26  0. 1.0000     0. 
   0  -2  -4     28.46    1.78  0. 1.0000     0. 
   0  -2   4     26.28    2.16  0. 1.0000     0. 
   0  -2   4     27.64    1.19  0. 1.0000     0. 
   0  -2  -4     26.63    1.38  0. 1.0000     0. 
   0  -2  -4     26.85    1.08  0. 1.0000     0. 
   0   2  -4     25.27    1.53  0. 1.0000     0. 
   0   2   4     28.56    2.18  0. 1.0000     0. 
   0   2   4     26.06    1.24  0. 1.0000     0. 
   0   2  -4     27.56    1.82  0. 1.0000     0. 
   0   2   4     28.42    1.23  0. 1.0000     0. 
   0   2   4     27.15    1.24  0. 1.0000     0. 
   0   2  -4     27.41    1.48  0. 1.0000     0. 
   0   2  -4     28.80    1.10  0. 1.0000     0. 
   1  -2   4    142.99    6.18  0. 1.0000     0. 
  -1  -2  -4    138.00    4.87  0. 1.0000     0. 
  -1   2  -4    146.04    4.45  0. 1.0000     0. 
   1   2   4    145.58    4.36  0. 1.0000     0. 
   1   2   4    150.97    5.89  0. 1.0000     0. 
   1   2   4    139.84    4.48  0. 1.0000     0. 
  -1   2  -4    146.99    4.84  0. 1.0000     0. 
   2  -2   4    226.96    9.19  0. 1.0000     0. 
   2   2   4    217.82    6.65  0. 1.0000     0. 
   3  -3  -4     -0.42    0.99  0. 1.0000     0. 
  -3  -3   4     -0.07    0.94  0. 1.0000     0. 
  -3   3   4     -0.63    1.47  0. 1.0000     0. 
   3   3  -4     -1.18    1.17  0. 1.0000     0. 
  -3   3   4      1.31    1.00  0. 1.0000     0. 
   3   3  -4      0.46    1.37  0. 1.0000     0. 
   2  -3  -4    102.27    4.23  0. 1.0000     0. 
  -2  -3   4    107.73    3.50  0. 1.0000     0. 
   2   3  -4    100.57    4.35  0. 1.0000     0. 
  -2   3   4    101.33    4.62  0. 1.0000     0. 
  -2   3   4     88.99    3.75  0. 1.0000     0. 
   2   3  -4    115.00    4.22  0. 1.0000     0. 
   1  -3  -4     14.66    1.18  0. 1.0000     0. 
  -1  -3   4     15.48    1.17  0. 1.0000     0. 
   1  -3  -4     13.75    1.47  0. 1.0000     0. 
   1   3  -4     17.31    1.80  0. 1.0000     0. 
  -1   3   4     15.69    1.29  0. 1.0000     0. 
   1   3  -4     15.15    1.53  0. 1.0000     0. 
  -1   3   4     13.11    2.19  0. 1.0000     0. 
   0  -3  -4     68.37    2.76  0. 1.0000     0. 
   0  -3   4     68.91    4.19  0. 1.0000     0. 
   0  -3  -4     62.36    3.25  0. 1.0000     0. 
   0  -3   4     67.03    2.49  0. 1.0000     0. 
   0   3   4     66.01    2.60  0. 1.0000     0. 
   0   3  -4     64.34    3.42  0. 1.0000     0. 
   0   3   4     52.91    3.72  0. 1.0000     0. 
   0   3  -4     62.00    3.05  0. 1.0000     0. 
   1  -3   4     14.21    2.15  0. 1.0000     0. 
   1  -3   4     11.54    1.17  0. 1.0000     0. 
  -1  -3  -4     12.34    1.13  0. 1.0000     0. 
  -1   3  -4     13.08    1.57  0. 1.0000     0. 
  -1   3  -4     12.43    1.82  0. 1.0000     0. 
   1   3   4     11.52    1.08  0. 1.0000     0. 
   1   3   4     13.31    2.47  0. 1.0000     0. 
  -2  -3  -4     -0.06    0.85  0. 1.0000     0. 
   2  -3   4      2.81    1.72  0. 1.0000     0. 
   2   3   4      1.82    0.82  0. 1.0000     0. 
  -2   3  -4      0.17    1.28  0. 1.0000     0. 
  -2   3  -4      0.76    1.47  0. 1.0000     0. 
   2   3   4      0.91    1.72  0. 1.0000     0. 
  -5   4   4      3.23    1.85  0. 1.0000     0. 
   4  -4  -4      5.17    1.25  0. 1.0000     0. 
   4   4  -4      3.78    1.80  0. 1.0000     0. 
  -4   4   4      5.29    2.04  0. 1.0000     0. 
  -3  -4   4      0.09    1.11  0. 1.0000     0. 
   3  -4  -4      1.66    1.29  0. 1.0000     0. 
   3   4  -4     -0.54    1.57  0. 1.0000     0. 
   3   4  -4      0.45    1.60  0. 1.0000     0. 
  -3   4   4      0.87    2.02  0. 1.0000     0. 
  -3   4   4      0.80    1.23  0. 1.0000     0. 
   2  -4  -4      0.56    1.07  0. 1.0000     0. 
   2  -4  -4      0.09    1.23  0. 1.0000     0. 
  -2  -4   4     -0.91    1.18  0. 1.0000     0. 
  -2   4   4      1.06    2.12  0. 1.0000     0. 
   2   4  -4     -2.19    1.65  0. 1.0000     0. 
  -2   4   4     -1.15    1.41  0. 1.0000     0. 
   2   4  -4     -0.94    1.70  0. 1.0000     0. 
  -1  -4  -4      6.78    1.82  0. 1.0000     0. 
   1  -4   4      5.11    1.27  0. 1.0000     0. 
   1  -4   4      4.62    2.29  0. 1.0000     0. 
  -1  -4  -4      7.25    1.25  0. 1.0000     0. 
   1   4   4      8.71    1.33  0. 1.0000     0. 
  -1   4  -4      8.44    1.90  0. 1.0000     0. 
  -1   4  -4      6.00    2.23  0. 1.0000     0. 
   1   4   4      4.00    2.62  0. 1.0000     0. 
  -2  -4  -4      0.23    0.96  0. 1.0000     0. 
  -2  -4  -4      0.13    1.77  0. 1.0000     0. 
   2  -4   4     -0.54    1.08  0. 1.0000     0. 
   2  -4   4      0.17    2.00  0. 1.0000     0. 
   2   4   4      0.74    0.99  0. 1.0000     0. 
  -2   4  -4     -1.14    1.77  0. 1.0000     0. 
  -2   4  -4      0.23    1.58  0. 1.0000     0. 
  -4   4  -4      2.16    2.12  0. 1.0000     0. 
   2   0  -5     -0.02    0.25  0. 1.0000     0. 
   2   0  -5     -0.02    0.05  0. 1.0000     0. 
  -2   0   5     -0.11    0.29  0. 1.0000     0. 
   1   0  -5      0.02    0.22  0. 1.0000     0. 
   1   0  -5     -0.06    0.28  0. 1.0000     0. 
  -1   0   5      0.07    0.16  0. 1.0000     0. 
   1   0  -5      0.11    0.24  0. 1.0000     0. 
  -1   0   5      0.13    0.26  0. 1.0000     0. 
  -1   0   5      0.12    0.18  0. 1.0000     0. 
   0   0   5      0.15    0.35  0. 1.0000     0. 
   0   0  -5     -0.09    0.21  0. 1.0000     0. 
   0   0  -5      0.16    0.39  0. 1.0000     0. 
   0   0  -5      0.05    0.29  0. 1.0000     0. 
   0   0   5      0.16    0.17  0. 1.0000     0. 
   0   0   5      0.16    0.50  0. 1.0000     0. 
  -3  -1   5   1205.18   31.63  0. 1.0000     0. 
   3   1  -5   1186.59   32.13  0. 1.0000     0. 
  -3   1   5   1192.21   34.03  0. 1.0000     0. 
  -2   1   5    276.24    8.48  0. 1.0000     0. 
   2   1  -5    282.77    8.03  0. 1.0000     0. 
   0  -1   5    122.97    5.28  0. 1.0000     0. 
   0   1  -5    132.62    4.08  0. 1.0000     0. 
   1  -1   5    311.13   11.06  0. 1.0000     0. 
  -1   1  -5    282.83    9.44  0. 1.0000     0. 
   1   1   5    311.25    9.65  0. 1.0000     0. 
  -1   1  -5    311.96    9.17  0. 1.0000     0. 
  -3  -2   5     35.95    1.69  0. 1.0000     0. 
   3  -2  -5     36.22    1.94  0. 1.0000     0. 
  -3   2   5     34.91    1.77  0. 1.0000     0. 
  -3   2   5     36.75    2.18  0. 1.0000     0. 
   3   2  -5     36.45    1.96  0. 1.0000     0. 
   3   2  -5     37.95    2.05  0. 1.0000     0. 
   2  -2  -5    410.27   12.89  0. 1.0000     0. 
  -2  -2   5    393.29   11.07  0. 1.0000     0. 
  -2   2   5    406.34   11.03  0. 1.0000     0. 
   2   2  -5    407.75   11.55  0. 1.0000     0. 
  -2   2   5    419.59   11.83  0. 1.0000     0. 
   2   2  -5    395.55   11.01  0. 1.0000     0. 
  -2   2   5    368.75   11.73  0. 1.0000     0. 
   2   2  -5    414.66   11.81  0. 1.0000     0. 
  -1  -2   5     91.33    3.09  0. 1.0000     0. 
   1  -2  -5     95.18    3.65  0. 1.0000     0. 
  -1  -2   5     87.44    3.05  0. 1.0000     0. 
   1  -2  -5     94.61    2.69  0. 1.0000     0. 
  -1  -2   5     94.27    3.05  0. 1.0000     0. 
   1   2  -5     93.97    3.64  0. 1.0000     0. 
  -1   2   5     95.22    3.88  0. 1.0000     0. 
  -1   2   5     95.80    2.99  0. 1.0000     0. 
  -1   2   5     93.59    2.97  0. 1.0000     0. 
   1   2  -5     90.01    3.56  0. 1.0000     0. 
  -1   2   5     95.28    3.01  0. 1.0000     0. 
   0  -2   5    245.27    6.98  0. 1.0000     0. 
   0  -2   5    248.03    9.51  0. 1.0000     0. 
   0  -2  -5    246.24    8.41  0. 1.0000     0. 
   0  -2  -5    249.35    7.95  0. 1.0000     0. 
   0   2   5    249.23    8.40  0. 1.0000     0. 
   0   2  -5    238.40    7.52  0. 1.0000     0. 
   0   2  -5    245.65    7.84  0. 1.0000     0. 
   0   2   5    231.54    7.03  0. 1.0000     0. 
   0   2   5    248.55    7.05  0. 1.0000     0. 
   1  -2   5      7.25    1.50  0. 1.0000     0. 
  -1  -2  -5      7.04    0.80  0. 1.0000     0. 
  -1   2  -5     10.12    1.50  0. 1.0000     0. 
   1   2   5      7.47    0.80  0. 1.0000     0. 
   1   2   5      7.53    0.74  0. 1.0000     0. 
   1   2   5      6.75    1.75  0. 1.0000     0. 
  -1   2  -5      8.78    1.11  0. 1.0000     0. 
   2  -2   5     70.82    4.27  0. 1.0000     0. 
  -2  -2  -5     73.92    2.94  0. 1.0000     0. 
  -2   2  -5     78.23    3.92  0. 1.0000     0. 
   2   2   5     79.48    2.71  0. 1.0000     0. 
  -2   2  -5     74.60    3.25  0. 1.0000     0. 
  -5   3   5      2.07    1.42  0. 1.0000     0. 
  -3  -3   5    239.62    7.25  0. 1.0000     0. 
   3  -3  -5    234.97    8.31  0. 1.0000     0. 
  -3   3   5    239.87    8.31  0. 1.0000     0. 
   3   3  -5    243.90    8.09  0. 1.0000     0. 
  -3   3   5    240.93    7.42  0. 1.0000     0. 
   2  -3  -5    321.68   11.01  0. 1.0000     0. 
  -2  -3   5    318.34    9.33  0. 1.0000     0. 
  -2   3   5    321.33    9.50  0. 1.0000     0. 
   2   3  -5    333.64   10.27  0. 1.0000     0. 
   2   3  -5    324.63   10.39  0. 1.0000     0. 
  -2   3   5    334.68   10.92  0. 1.0000     0. 
  -1  -3   5    217.01    8.98  0. 1.0000     0. 
  -1  -3   5    211.32    6.48  0. 1.0000     0. 
   1  -3  -5    205.32    7.43  0. 1.0000     0. 
   1  -3  -5    220.92    7.73  0. 1.0000     0. 
  -1   3   5    221.50    7.99  0. 1.0000     0. 
  -1   3   5    221.04    6.40  0. 1.0000     0. 
   1   3  -5    221.00    7.40  0. 1.0000     0. 
   0  -3  -5      1.71    0.91  0. 1.0000     0. 
   0  -3   5      1.07    0.89  0. 1.0000     0. 
   0  -3   5      2.50    1.79  0. 1.0000     0. 
   0  -3  -5     -0.35    1.21  0. 1.0000     0. 
   0   3   5      1.22    0.92  0. 1.0000     0. 
   0   3  -5      1.90    1.39  0. 1.0000     0. 
   0   3  -5      0.72    1.30  0. 1.0000     0. 
   0   3   5      1.64    1.64  0. 1.0000     0. 
   1  -3   5     15.44    1.29  0. 1.0000     0. 
  -1  -3  -5     16.77    1.33  0. 1.0000     0. 
   1  -3   5     17.14    2.30  0. 1.0000     0. 
   1   3   5     16.92    2.59  0. 1.0000     0. 
  -1   3  -5     11.36    1.98  0. 1.0000     0. 
  -1   3  -5     14.53    1.66  0. 1.0000     0. 
   1   3   5     16.90    1.20  0. 1.0000     0. 
  -3   3  -5      5.43    1.98  0. 1.0000     0. 
  -5   4   5     14.81    2.60  0. 1.0000     0. 
   3  -4  -5     89.63    3.98  0. 1.0000     0. 
  -3  -4   5     74.73    3.28  0. 1.0000     0. 
   3   4  -5     85.59    4.10  0. 1.0000     0. 
  -3   4   5     79.73    4.72  0. 1.0000     0. 
  -3   4   5     84.83    3.50  0. 1.0000     0. 
   3   4  -5     73.33    4.04  0. 1.0000     0. 
  -2  -4   5    196.36    8.54  0. 1.0000     0. 
   2  -4  -5    199.06    7.57  0. 1.0000     0. 
   2  -4  -5    199.00    7.13  0. 1.0000     0. 
  -2  -4   5    202.82    6.35  0. 1.0000     0. 
   2   4  -5    196.58    7.51  0. 1.0000     0. 
  -2   4   5    201.96    8.25  0. 1.0000     0. 
  -2   4   5    209.35    6.52  0. 1.0000     0. 
   2   4  -5    208.32    7.33  0. 1.0000     0. 
  -1  -4   5    132.92    6.75  0. 1.0000     0. 
   1  -4  -5    120.38    5.23  0. 1.0000     0. 
   1  -4  -5    121.30    4.81  0. 1.0000     0. 
  -1  -4   5    125.60    4.27  0. 1.0000     0. 
   1   4  -5    119.13    5.33  0. 1.0000     0. 
  -1   4   5    131.67    4.46  0. 1.0000     0. 
  -1   4   5    119.70    6.15  0. 1.0000     0. 
   1   4  -5    128.56    5.18  0. 1.0000     0. 
   0  -4  -5     65.98    3.56  0. 1.0000     0. 
   0  -4  -5     65.89    3.08  0. 1.0000     0. 
   0  -4   5     69.45    4.79  0. 1.0000     0. 
   0  -4   5     67.18    2.76  0. 1.0000     0. 
   0   4  -5     57.49    3.54  0. 1.0000     0. 
   0   4  -5     63.68    3.85  0. 1.0000     0. 
   0   4   5     66.31    2.83  0. 1.0000     0. 
   1  -4   5    173.57    8.77  0. 1.0000     0. 
  -1  -4  -5    174.59    6.99  0. 1.0000     0. 
   1  -4   5    175.95    5.69  0. 1.0000     0. 
  -1  -4  -5    175.89    6.37  0. 1.0000     0. 
   1   4   5    181.80    5.68  0. 1.0000     0. 
  -1   4  -5    175.47    7.08  0. 1.0000     0. 
   1   4   5    164.29    8.57  0. 1.0000     0. 
  -1   4  -5    168.17    6.63  0. 1.0000     0. 
   2  -4   5      5.32    2.25  0. 1.0000     0. 
  -2  -4  -5      4.77    1.17  0. 1.0000     0. 
  -2  -4  -5      5.91    1.99  0. 1.0000     0. 
   2  -4   5      3.15    1.27  0. 1.0000     0. 
  -2   4  -5      4.76    1.84  0. 1.0000     0. 
  -2   4  -5      3.83    1.94  0. 1.0000     0. 
   2   4   5      4.06    1.10  0. 1.0000     0. 
   3  -4   5    118.03    8.59  0. 1.0000     0. 
  -3   4  -5    119.78    5.56  0. 1.0000     0. 
   4   5  -5      3.12    2.20  0. 1.0000     0. 
  -3  -5   5     24.77    1.94  0. 1.0000     0. 
  -3  -5   5     19.83    3.62  0. 1.0000     0. 
   3   5  -5     21.27    2.76  0. 1.0000     0. 
  -2  -5   5      9.15    3.07  0. 1.0000     0. 
  -2  -5   5     10.61    1.66  0. 1.0000     0. 
   2   5  -5      9.29    2.34  0. 1.0000     0. 
   2   5  -5     10.87    2.16  0. 1.0000     0. 
  -1  -5   5     18.04    3.61  0. 1.0000     0. 
  -1  -5   5     16.45    1.82  0. 1.0000     0. 
   1   5  -5     11.64    2.41  0. 1.0000     0. 
   1   5  -5     15.89    2.40  0. 1.0000     0. 
   0  -5   5     -0.62    1.30  0. 1.0000     0. 
   0  -5   5      4.07    2.62  0. 1.0000     0. 
   0   5  -5     -1.87    2.03  0. 1.0000     0. 
   0   5  -5     -1.52    1.90  0. 1.0000     0. 
   1  -5   5      2.81    1.44  0. 1.0000     0. 
   1  -5   5     -0.21    2.55  0. 1.0000     0. 
  -1   5  -5      3.34    2.21  0. 1.0000     0. 
   2  -5   5     27.13    3.97  0. 1.0000     0. 
   2  -5   5     27.98    2.15  0. 1.0000     0. 
  -2   5  -5     28.01    2.99  0. 1.0000     0. 
   3  -5   5     -1.54    1.88  0. 1.0000     0. 
   3  -5   5      0.11    1.34  0. 1.0000     0. 
   2   0  -6   1396.91   36.24  0. 1.0000     0. 
   2   0  -6   1319.57   42.81  0. 1.0000     0. 
  -2   0   6   1396.31   37.00  0. 1.0000     0. 
   1   0  -6     82.26    2.67  0. 1.0000     0. 
   1   0  -6     85.86    2.74  0. 1.0000     0. 
  -1   0   6     85.83    2.46  0. 1.0000     0. 
  -1   0   6     83.28    2.84  0. 1.0000     0. 
   0   0   6    172.57    6.16  0. 1.0000     0. 
   0   0  -6    175.48    4.80  0. 1.0000     0. 
   0   0   6    172.28    4.66  0. 1.0000     0. 
   0   0  -6    159.30    5.60  0. 1.0000     0. 
   3  -1  -6   1542.18   47.33  0. 1.0000     0. 
  -3  -1   6   1599.49   41.05  0. 1.0000     0. 
  -3   1   6   1536.39   43.56  0. 1.0000     0. 
   3   1  -6   1555.84   43.43  0. 1.0000     0. 
   3   1  -6   1493.83   42.57  0. 1.0000     0. 
  -3   1   6   1597.97   40.94  0. 1.0000     0. 
   2  -1  -6      0.04    0.52  0. 1.0000     0. 
  -2  -1   6      1.26    0.47  0. 1.0000     0. 
   2   1  -6      0.81    0.64  0. 1.0000     0. 
  -2   1   6      1.03    0.60  0. 1.0000     0. 
  -2   1   6     -0.08    0.42  0. 1.0000     0. 
   2   1  -6      0.47    0.49  0. 1.0000     0. 
  -1  -1   6     14.98    0.81  0. 1.0000     0. 
   1  -1  -6     15.61    1.08  0. 1.0000     0. 
   1   1  -6     14.72    1.02  0. 1.0000     0. 
  -1   1   6     16.03    1.24  0. 1.0000     0. 
  -1   1   6     11.79    0.78  0. 1.0000     0. 
   0  -1   6   1367.74   46.34  0. 1.0000     0. 
   0  -1  -6   1402.96   42.00  0. 1.0000     0. 
   0   1  -6   1377.15   38.51  0. 1.0000     0. 
   0   1  -6   1409.95   37.96  0. 1.0000     0. 
   0   1   6   1403.84   38.21  0. 1.0000     0. 
   1  -1   6      0.08    0.76  0. 1.0000     0. 
  -1  -1  -6      0.79    0.45  0. 1.0000     0. 
   1   1   6      0.76    0.54  0. 1.0000     0. 
  -1   1  -6      0.21    0.65  0. 1.0000     0. 
   1   1   6     -0.54    1.01  0. 1.0000     0. 
  -1   1  -6      0.60    0.91  0. 1.0000     0. 
   4  -2  -6    638.59   20.21  0. 1.0000     0. 
  -4  -2   6    627.90   17.74  0. 1.0000     0. 
  -4   2   6    647.65   18.62  0. 1.0000     0. 
   3  -2  -6    646.01   20.32  0. 1.0000     0. 
  -3  -2   6    648.35   17.61  0. 1.0000     0. 
  -3   2   6    644.76   18.99  0. 1.0000     0. 
  -3   2   6    649.40   18.13  0. 1.0000     0. 
  -2  -2   6    234.46    6.76  0. 1.0000     0. 
   2  -2  -6    238.40    8.06  0. 1.0000     0. 
  -2   2   6    233.03    7.86  0. 1.0000     0. 
   2   2  -6    237.28    7.48  0. 1.0000     0. 
  -2   2   6    227.29    6.95  0. 1.0000     0. 
   1  -2  -6    248.86    8.38  0. 1.0000     0. 
   1  -2  -6    257.73    7.99  0. 1.0000     0. 
  -1  -2   6    239.39    7.16  0. 1.0000     0. 
  -1   2   6    237.25    8.52  0. 1.0000     0. 
   1   2  -6    244.77    7.92  0. 1.0000     0. 
  -1   2   6    248.65    7.12  0. 1.0000     0. 
   0  -2   6    837.61   22.81  0. 1.0000     0. 
   0  -2  -6    857.90   25.75  0. 1.0000     0. 
   0   2  -6    839.20   23.99  0. 1.0000     0. 
   0   2   6    835.44   24.68  0. 1.0000     0. 
   0   2   6    831.05   22.66  0. 1.0000     0. 
  -1  -2  -6    198.32    6.75  0. 1.0000     0. 
  -1   2  -6    205.07    7.09  0. 1.0000     0. 
  -1   2  -6    203.75    6.51  0. 1.0000     0. 
   1   2   6    200.12    6.00  0. 1.0000     0. 
  -5   3   6      5.33    1.64  0. 1.0000     0. 
   4  -3  -6    124.10    4.89  0. 1.0000     0. 
  -4  -3   6    121.47    4.34  0. 1.0000     0. 
  -4   3   6    128.86    4.59  0. 1.0000     0. 
   2  -3  -6    121.25    4.92  0. 1.0000     0. 
  -2  -3   6    129.10    4.10  0. 1.0000     0. 
   2   3  -6    116.19    4.99  0. 1.0000     0. 
   2   3  -6    127.62    4.83  0. 1.0000     0. 
  -2   3   6    123.65    4.18  0. 1.0000     0. 
  -2   3   6    127.59    5.43  0. 1.0000     0. 
  -1  -3   6     94.59    3.32  0. 1.0000     0. 
   1  -3  -6     92.40    3.70  0. 1.0000     0. 
   1  -3  -6     93.52    4.23  0. 1.0000     0. 
  -1   3   6     97.83    4.73  0. 1.0000     0. 
   1   3  -6     95.21    4.45  0. 1.0000     0. 
  -1   3   6     94.94    3.41  0. 1.0000     0. 
   1   3  -6    100.17    4.04  0. 1.0000     0. 
   0  -3  -6     13.42    1.24  0. 1.0000     0. 
   0  -3   6     13.46    2.38  0. 1.0000     0. 
   0  -3   6     13.38    1.23  0. 1.0000     0. 
   0  -3  -6     13.70    1.74  0. 1.0000     0. 
   0   3   6     15.24    1.27  0. 1.0000     0. 
   0   3  -6      8.94    1.74  0. 1.0000     0. 
   0   3   6     15.58    2.34  0. 1.0000     0. 
   0   3  -6     12.90    1.71  0. 1.0000     0. 
   2   3   6     75.38    2.82  0. 1.0000     0. 
  -2   3  -6     69.86    4.02  0. 1.0000     0. 
   3  -3   6     23.04    4.15  0. 1.0000     0. 
  -5   4   6      5.90    2.09  0. 1.0000     0. 
   4  -4  -6     11.14    1.61  0. 1.0000     0. 
  -4  -4   6      9.92    1.49  0. 1.0000     0. 
  -4   4   6     15.58    2.74  0. 1.0000     0. 
   4   4  -6     10.73    2.01  0. 1.0000     0. 
  -4   4   6     15.18    1.88  0. 1.0000     0. 
   3  -4  -6     -1.54    1.45  0. 1.0000     0. 
  -3  -4   6     -0.69    1.26  0. 1.0000     0. 
   3   4  -6      1.94    1.79  0. 1.0000     0. 
   3   4  -6     -0.34    1.46  0. 1.0000     0. 
  -3   4   6      2.77    1.51  0. 1.0000     0. 
  -3   4   6      0.15    2.01  0. 1.0000     0. 
  -2  -4   6     -1.50    1.17  0. 1.0000     0. 
   2  -4  -6     -0.35    1.14  0. 1.0000     0. 
   2  -4  -6      1.35    1.56  0. 1.0000     0. 
  -2  -4   6      1.49    2.20  0. 1.0000     0. 
  -2   4   6     -0.11    1.35  0. 1.0000     0. 
   2   4  -6      1.80    1.75  0. 1.0000     0. 
   2   4  -6     -0.47    1.75  0. 1.0000     0. 
  -2   4   6     -1.29    2.19  0. 1.0000     0. 
  -1  -4   6     13.36    2.82  0. 1.0000     0. 
   1  -4  -6     12.62    1.77  0. 1.0000     0. 
  -1  -4   6     12.45    1.33  0. 1.0000     0. 
   1  -4  -6     11.31    1.45  0. 1.0000     0. 
   1   4  -6     11.74    1.99  0. 1.0000     0. 
   1   4  -6     12.34    2.03  0. 1.0000     0. 
  -1   4   6     13.18    2.67  0. 1.0000     0. 
  -1   4   6     14.18    1.60  0. 1.0000     0. 
   0  -4   6     -1.78    1.19  0. 1.0000     0. 
   0  -4  -6      0.34    1.11  0. 1.0000     0. 
   0  -4  -6      1.96    1.55  0. 1.0000     0. 
   0  -4   6     -1.60    2.23  0. 1.0000     0. 
   0   4   6     -0.29    1.24  0. 1.0000     0. 
   0   4  -6      3.08    1.71  0. 1.0000     0. 
   0   4   6      0.17    2.03  0. 1.0000     0. 
   0   4  -6      0.73    1.81  0. 1.0000     0. 
  -1  -4  -6      5.40    1.28  0. 1.0000     0. 
   1  -4   6      5.43    1.28  0. 1.0000     0. 
   1  -4   6      7.52    2.51  0. 1.0000     0. 
  -1  -4  -6      2.39    1.67  0. 1.0000     0. 
  -1   4  -6      0.13    2.08  0. 1.0000     0. 
  -1   4  -6      4.34    1.84  0. 1.0000     0. 
   1   4   6      5.46    1.32  0. 1.0000     0. 
   1   4   6      7.83    2.94  0. 1.0000     0. 
   2  -4   6      6.85    1.40  0. 1.0000     0. 
  -2  -4  -6      4.56    1.99  0. 1.0000     0. 
  -2   4  -6      6.87    1.96  0. 1.0000     0. 
  -2   4  -6      6.49    2.02  0. 1.0000     0. 
   3  -4   6      1.79    2.78  0. 1.0000     0. 
  -3   4  -6      1.59    1.95  0. 1.0000     0. 
   3   4   6      0.71    1.11  0. 1.0000     0. 
   4  -5  -6      0.11    1.47  0. 1.0000     0. 
   4  -5  -6     -1.05    1.61  0. 1.0000     0. 
  -4  -5   6      2.34    1.60  0. 1.0000     0. 
   4   5  -6     -0.86    2.00  0. 1.0000     0. 
  -4   5   6     -1.55    2.61  0. 1.0000     0. 
   3  -5  -6     18.99    1.85  0. 1.0000     0. 
   3  -5  -6     18.29    2.13  0. 1.0000     0. 
  -3  -5   6     18.13    1.84  0. 1.0000     0. 
  -3  -5   6     15.91    3.30  0. 1.0000     0. 
  -3   5   6     18.85    1.99  0. 1.0000     0. 
  -3   5   6     20.44    3.72  0. 1.0000     0. 
   3   5  -6     20.46    2.49  0. 1.0000     0. 
   3   5  -6     15.84    2.69  0. 1.0000     0. 
  -2  -5   6     16.42    1.75  0. 1.0000     0. 
   2  -5  -6     19.79    2.12  0. 1.0000     0. 
  -2  -5   6     16.49    3.60  0. 1.0000     0. 
   2  -5  -6     18.63    1.91  0. 1.0000     0. 
  -2   5   6     22.12    2.20  0. 1.0000     0. 
   2   5  -6     18.10    2.57  0. 1.0000     0. 
   2   5  -6     21.82    2.47  0. 1.0000     0. 
  -2   5   6     17.12    3.42  0. 1.0000     0. 
   1  -5  -6      9.66    1.60  0. 1.0000     0. 
  -1  -5   6     11.04    1.65  0. 1.0000     0. 
  -1  -5   6     10.47    3.14  0. 1.0000     0. 
   1  -5  -6      8.80    1.92  0. 1.0000     0. 
   1   5  -6     12.62    2.40  0. 1.0000     0. 
  -1   5   6     13.14    1.94  0. 1.0000     0. 
  -1   5   6      4.50    2.84  0. 1.0000     0. 
   1   5  -6     13.23    2.43  0. 1.0000     0. 
   0  -5   6     15.13    3.35  0. 1.0000     0. 
   0  -5   6     11.31    1.56  0. 1.0000     0. 
   0  -5  -6     12.95    2.09  0. 1.0000     0. 
   0  -5  -6     16.30    1.76  0. 1.0000     0. 
   0   5   6     22.20    2.08  0. 1.0000     0. 
   0   5  -6     15.52    2.46  0. 1.0000     0. 
   0   5   6     16.57    4.34  0. 1.0000     0. 
   0   5  -6     18.65    2.45  0. 1.0000     0. 
   1  -5   6     14.41    3.26  0. 1.0000     0. 
   1  -5   6     17.91    1.71  0. 1.0000     0. 
  -1  -5  -6     17.40    2.43  0. 1.0000     0. 
  -1  -5  -6     15.07    1.70  0. 1.0000     0. 
  -1   5  -6     19.98    2.71  0. 1.0000     0. 
   1   5   6     10.12    3.34  0. 1.0000     0. 
  -1   5  -6     14.56    2.56  0. 1.0000     0. 
   1   5   6     18.53    1.82  0. 1.0000     0. 
  -2  -5  -6      0.67    1.18  0. 1.0000     0. 
   2  -5   6      2.84    1.41  0. 1.0000     0. 
   2  -5   6     -1.61    2.64  0. 1.0000     0. 
  -2  -5  -6      1.77    1.91  0. 1.0000     0. 
  -2   5  -6      1.95    2.17  0. 1.0000     0. 
  -2   5  -6      0.76    2.14  0. 1.0000     0. 
   2   5   6      0.78    1.38  0. 1.0000     0. 
  -3  -5  -6     -0.15    1.83  0. 1.0000     0. 
   3  -5   6     -0.94    1.45  0. 1.0000     0. 
  -3   5  -6      0.62    2.23  0. 1.0000     0. 
   3   0  -7      0.03    0.41  0. 1.0000     0. 
   2   0  -7      0.02    0.35  0. 1.0000     0. 
   2   0  -7     -0.03    0.41  0. 1.0000     0. 
  -2   0   7      0.97    0.40  0. 1.0000     0. 
   2   0  -7      0.13    0.45  0. 1.0000     0. 
  -2   0   7     -0.03    0.42  0. 1.0000     0. 
  -2   0   7     -0.17    0.36  0. 1.0000     0. 
   1   0  -7     -0.04    0.30  0. 1.0000     0. 
  -1   0   7     -0.18    0.28  0. 1.0000     0. 
   1   0  -7      0.12    0.47  0. 1.0000     0. 
  -1   0   7     -0.02    0.28  0. 1.0000     0. 
  -1   0   7      0.12    0.54  0. 1.0000     0. 
  -1   0   7      0.18    0.52  0. 1.0000     0. 
   1   0  -7      0.08    0.42  0. 1.0000     0. 
   1   0  -7      0.10    0.38  0. 1.0000     0. 
   0   0   7      0.22    0.56  0. 1.0000     0. 
   0   0  -7      0.03    0.34  0. 1.0000     0. 
   0   0   7      0.09    0.28  0. 1.0000     0. 
   0   0  -7      0.39    0.49  0. 1.0000     0. 
   0   0   7      0.27    0.66  0. 1.0000     0. 
   0   0  -7      0.08    0.58  0. 1.0000     0. 
  -4   1   7    207.25    6.76  0. 1.0000     0. 
  -3  -1   7     13.53    0.97  0. 1.0000     0. 
   3  -1  -7     17.98    1.14  0. 1.0000     0. 
  -3   1   7     14.89    1.18  0. 1.0000     0. 
   3   1  -7     14.18    1.16  0. 1.0000     0. 
  -3   1   7     11.58    0.94  0. 1.0000     0. 
   3   1  -7     13.40    1.22  0. 1.0000     0. 
  -2  -1   7    233.78    6.33  0. 1.0000     0. 
  -2  -1   7    226.09    6.61  0. 1.0000     0. 
  -2   1   7    228.02    7.04  0. 1.0000     0. 
  -2   1   7    232.19    6.47  0. 1.0000     0. 
   2   1  -7    231.79    6.76  0. 1.0000     0. 
   2   1  -7    229.11    6.84  0. 1.0000     0. 
   1  -1  -7   1139.11   37.18  0. 1.0000     0. 
   1  -1  -7   1252.42   38.13  0. 1.0000     0. 
  -1   1   7   1236.51   33.13  0. 1.0000     0. 
  -1   1   7   1262.96   33.59  0. 1.0000     0. 
   1   1  -7   1240.33   34.00  0. 1.0000     0. 
   1   1  -7   1252.17   33.12  0. 1.0000     0. 
   0  -1  -7    132.17    4.40  0. 1.0000     0. 
   0   1   7    134.36    5.20  0. 1.0000     0. 
   0   1   7    127.25    3.94  0. 1.0000     0. 
   0   1  -7    134.29    4.43  0. 1.0000     0. 
   0   1  -7    134.76    4.67  0. 1.0000     0. 
  -1  -1  -7    960.97   28.21  0. 1.0000     0. 
   1  -1   7    918.22   31.44  0. 1.0000     0. 
  -1   1  -7    918.28   26.46  0. 1.0000     0. 
   1   1   7    938.49   26.54  0. 1.0000     0. 
  -1   1  -7    907.00   26.15  0. 1.0000     0. 
  -4  -2   7     46.27    2.12  0. 1.0000     0. 
   4   2  -7     46.99    2.51  0. 1.0000     0. 
  -4   2   7     45.08    2.26  0. 1.0000     0. 
   2   2  -7    403.06   12.02  0. 1.0000     0. 
   1  -2  -7     81.19    3.41  0. 1.0000     0. 
  -1  -2   7     80.86    3.85  0. 1.0000     0. 
  -1  -2   7     78.31    2.82  0. 1.0000     0. 
   1   2  -7     74.44    3.70  0. 1.0000     0. 
   1  -2   7     18.92    2.34  0. 1.0000     0. 
   1   2   7     16.40    1.12  0. 1.0000     0. 
  -1   2  -7     12.82    1.92  0. 1.0000     0. 
   2  -2   7     72.94    4.48  0. 1.0000     0. 
   2   2   7     70.41    2.68  0. 1.0000     0. 
  -2   2  -7     73.62    3.79  0. 1.0000     0. 
   5  -3  -7     17.41    1.69  0. 1.0000     0. 
  -5   3   7     20.60    2.21  0. 1.0000     0. 
  -4   3   7    140.63    5.23  0. 1.0000     0. 
   4   3  -7    126.84    5.39  0. 1.0000     0. 
   3  -3  -7     33.92    2.21  0. 1.0000     0. 
  -3  -3   7     36.32    1.86  0. 1.0000     0. 
   3   3  -7     31.32    2.60  0. 1.0000     0. 
   1  -3   7     15.81    2.65  0. 1.0000     0. 
  -1   3  -7     14.11    1.86  0. 1.0000     0. 
   1   3   7     16.56    1.31  0. 1.0000     0. 
  -2  -3  -7     22.04    1.60  0. 1.0000     0. 
   2  -3   7     20.99    2.89  0. 1.0000     0. 
  -2   3  -7     23.24    2.03  0. 1.0000     0. 
   3  -3   7      0.79    2.07  0. 1.0000     0. 
  -3   3  -7     17.46    2.49  0. 1.0000     0. 
  -4  -4   7      6.16    1.30  0. 1.0000     0. 
   4  -4  -7      7.37    1.52  0. 1.0000     0. 
  -4   4   7      5.85    1.51  0. 1.0000     0. 
  -4   4   7      4.77    2.30  0. 1.0000     0. 
   4   4  -7      7.17    2.07  0. 1.0000     0. 
   4   4  -7      7.67    1.86  0. 1.0000     0. 
   3  -4  -7      2.93    1.39  0. 1.0000     0. 
  -3  -4   7      1.50    1.16  0. 1.0000     0. 
   3   4  -7      2.57    1.80  0. 1.0000     0. 
  -1   4   7      8.71    2.44  0. 1.0000     0. 
   1  -4   7     23.81    3.30  0. 1.0000     0. 
   1  -4   7     23.70    1.79  0. 1.0000     0. 
  -1  -4  -7     26.06    1.95  0. 1.0000     0. 
  -1  -4  -7     17.27    2.37  0. 1.0000     0. 
   1   4   7     23.17    4.02  0. 1.0000     0. 
   1   4   7     24.67    1.85  0. 1.0000     0. 
  -1   4  -7     25.79    2.64  0. 1.0000     0. 
  -1   4  -7     22.57    2.67  0. 1.0000     0. 
  -2  -4  -7      3.31    1.17  0. 1.0000     0. 
  -2  -4  -7      4.70    2.01  0. 1.0000     0. 
   2  -4   7      3.20    1.24  0. 1.0000     0. 
   2  -4   7      8.88    2.54  0. 1.0000     0. 
   2   4   7      5.14    1.17  0. 1.0000     0. 
  -2   4  -7      6.11    1.86  0. 1.0000     0. 
  -2   4  -7      6.38    2.00  0. 1.0000     0. 
   5  -5  -7     -0.10    0.33  0. 1.0000     0. 
   4  -5  -7      2.69    1.43  0. 1.0000     0. 
   4  -5  -7      2.01    1.72  0. 1.0000     0. 
  -4  -5   7      2.29    1.51  0. 1.0000     0. 
  -4   5   7      3.35    2.54  0. 1.0000     0. 
  -4   5   7      4.14    1.88  0. 1.0000     0. 
  -3  -5   7      2.76    2.76  0. 1.0000     0. 
   3  -5  -7      0.33    1.63  0. 1.0000     0. 
   3  -5  -7     -1.42    1.39  0. 1.0000     0. 
  -3  -5   7     -1.60    1.45  0. 1.0000     0. 
  -3   5   7     -0.22    2.96  0. 1.0000     0. 
   3   5  -7     -0.26    1.82  0. 1.0000     0. 
  -3   5   7     -3.03    1.71  0. 1.0000     0. 
   3   5  -7      0.69    2.02  0. 1.0000     0. 
   2  -5  -7      1.27    1.71  0. 1.0000     0. 
  -2  -5   7     -0.19    2.66  0. 1.0000     0. 
   2  -5  -7      1.11    1.38  0. 1.0000     0. 
  -2  -5   7      0.71    1.32  0. 1.0000     0. 
   2   5  -7      0.43    2.06  0. 1.0000     0. 
  -2   5   7      0.69    1.70  0. 1.0000     0. 
  -2   5   7      0.21    2.64  0. 1.0000     0. 
   2   5  -7     -0.82    1.97  0. 1.0000     0. 
  -1  -5   7     17.04    3.45  0. 1.0000     0. 
   1  -5  -7     18.24    2.31  0. 1.0000     0. 
   1  -5  -7     21.53    1.93  0. 1.0000     0. 
  -1  -5   7     19.61    1.84  0. 1.0000     0. 
   1   5  -7     18.72    2.43  0. 1.0000     0. 
  -1   5   7     15.63    3.37  0. 1.0000     0. 
  -1   5   7     21.14    2.05  0. 1.0000     0. 
   1   5  -7     20.65    2.67  0. 1.0000     0. 
   0  -5   7      2.69    1.53  0. 1.0000     0. 
   0  -5  -7      1.53    1.93  0. 1.0000     0. 
   0  -5   7      0.82    2.66  0. 1.0000     0. 
   0  -5  -7      3.59    1.44  0. 1.0000     0. 
   0   5   7      2.35    3.47  0. 1.0000     0. 
   0   5  -7      3.72    2.07  0. 1.0000     0. 
   0   5  -7      2.99    2.16  0. 1.0000     0. 
   0   5   7      3.41    1.56  0. 1.0000     0. 
   1  -5   7     -0.11    1.32  0. 1.0000     0. 
  -1  -5  -7      0.88    1.26  0. 1.0000     0. 
   1  -5   7      0.65    2.52  0. 1.0000     0. 
  -1  -5  -7      0.42    1.90  0. 1.0000     0. 
   1   5   7     -0.55    2.89  0. 1.0000     0. 
  -1   5  -7      2.26    2.23  0. 1.0000     0. 
  -1   5  -7      0.65    2.17  0. 1.0000     0. 
   1   5   7      1.03    1.44  0. 1.0000     0. 
   2  -5   7      0.58    1.56  0. 1.0000     0. 
  -2  -5  -7      0.42    1.93  0. 1.0000     0. 
   2   5   7     -1.25    1.44  0. 1.0000     0. 
  -2   5  -7      0.15    2.20  0. 1.0000     0. 
  -2   0   8     71.17    2.19  0. 1.0000     0. 
   2   0  -8     69.92    2.62  0. 1.0000     0. 
   2   0  -8     68.66    2.63  0. 1.0000     0. 
  -2   0   8     72.13    2.29  0. 1.0000     0. 
   2   0  -8     72.65    2.45  0. 1.0000     0. 
   1   0  -8    962.40   26.12  0. 1.0000     0. 
  -1   0   8   1002.00   31.67  0. 1.0000     0. 
   1   0  -8    923.73   30.14  0. 1.0000     0. 
   1   0  -8    961.44   26.27  0. 1.0000     0. 
   1   0  -8    986.21   29.08  0. 1.0000     0. 
  -1   0   8    965.63   25.43  0. 1.0000     0. 
  -1   0   8    938.68   27.21  0. 1.0000     0. 
   0   0  -8    715.28   21.98  0. 1.0000     0. 
   0   0  -8    728.65   19.77  0. 1.0000     0. 
   0   0   8    698.21   21.37  0. 1.0000     0. 
   0   0   8    727.41   23.67  0. 1.0000     0. 
   4  -1  -8     38.85    1.94  0. 1.0000     0. 
   4   1  -8     41.40    2.05  0. 1.0000     0. 
  -4   1   8     42.76    2.05  0. 1.0000     0. 
   3  -1  -8     -0.10    0.71  0. 1.0000     0. 
  -3  -1   8     -0.40    0.69  0. 1.0000     0. 
   3   1  -8     -0.11    0.67  0. 1.0000     0. 
  -3   1   8     -0.35    0.70  0. 1.0000     0. 
  -3   1   8      0.06    0.77  0. 1.0000     0. 
   3   1  -8     -0.13    0.90  0. 1.0000     0. 
   1  -1   8   1117.54   37.35  0. 1.0000     0. 
  -1  -1  -8   1100.13   34.14  0. 1.0000     0. 
   1   1   8   1130.38   29.67  0. 1.0000     0. 
  -1   1  -8   1126.18   30.62  0. 1.0000     0. 
  -1   1  -8   1090.64   32.58  0. 1.0000     0. 
   1   1   8   1134.83   31.87  0. 1.0000     0. 
   4  -2  -8     67.91    2.95  0. 1.0000     0. 
  -4  -2   8     70.42    2.58  0. 1.0000     0. 
  -4   2   8     67.64    2.73  0. 1.0000     0. 
  -4   2   8     66.02    3.30  0. 1.0000     0. 
   4   2  -8     59.75    3.15  0. 1.0000     0. 
   4   2  -8     73.31    3.11  0. 1.0000     0. 
  -3  -2   8      0.46    0.79  0. 1.0000     0. 
   3  -2  -8      0.75    0.97  0. 1.0000     0. 
   3   2  -8      0.31    1.02  0. 1.0000     0. 
  -3   2   8      0.45    1.18  0. 1.0000     0. 
  -3   2   8      0.36    0.82  0. 1.0000     0. 
   3   2  -8      0.07    0.98  0. 1.0000     0. 
  -2  -2   8    130.86    4.11  0. 1.0000     0. 
   2  -2  -8    130.03    4.98  0. 1.0000     0. 
  -2   2   8    124.20    5.40  0. 1.0000     0. 
  -2   2   8    129.38    4.23  0. 1.0000     0. 
   2   2  -8    135.22    4.63  0. 1.0000     0. 
   2   2  -8    130.50    4.91  0. 1.0000     0. 
  -1  -2   8     24.55    1.38  0. 1.0000     0. 
  -1  -2   8     19.97    2.19  0. 1.0000     0. 
   1  -2  -8     24.34    1.46  0. 1.0000     0. 
   1  -2  -8     25.88    1.80  0. 1.0000     0. 
  -1   2   8     20.07    1.33  0. 1.0000     0. 
   1   2  -8     21.54    1.73  0. 1.0000     0. 
   1   2  -8     21.83    1.96  0. 1.0000     0. 
  -1   2   8     23.15    2.19  0. 1.0000     0. 
   0  -2   8     97.99    5.32  0. 1.0000     0. 
   0  -2  -8    102.93    3.76  0. 1.0000     0. 
   0  -2   8    100.49    3.47  0. 1.0000     0. 
   0   2   8    104.85    3.41  0. 1.0000     0. 
   0   2  -8    103.77    4.28  0. 1.0000     0. 
   0   2  -8    104.67    3.98  0. 1.0000     0. 
   0   2   8    100.38    4.93  0. 1.0000     0. 
   1  -2   8    167.24    7.30  0. 1.0000     0. 
  -1  -2  -8    155.77    5.68  0. 1.0000     0. 
  -1   2  -8    154.85    5.85  0. 1.0000     0. 
  -1   2  -8    161.29    6.19  0. 1.0000     0. 
   1   2   8    169.46    7.30  0. 1.0000     0. 
   1   2   8    159.95    4.97  0. 1.0000     0. 
  -2  -2  -8     65.82    2.77  0. 1.0000     0. 
   2  -2   8     55.78    4.28  0. 1.0000     0. 
   2   2   8     66.21    2.48  0. 1.0000     0. 
  -5  -3   8     22.47    1.87  0. 1.0000     0. 
   5   3  -8     24.53    2.24  0. 1.0000     0. 
  -4  -3   8    138.41    4.78  0. 1.0000     0. 
   4  -3  -8    144.34    5.44  0. 1.0000     0. 
  -4   3   8    140.11    5.89  0. 1.0000     0. 
  -4   3   8    144.97    5.03  0. 1.0000     0. 
   4   3  -8    138.97    5.69  0. 1.0000     0. 
   4   3  -8    142.62    5.50  0. 1.0000     0. 
  -3   3   8     12.91    2.05  0. 1.0000     0. 
   3   3  -8     11.35    1.81  0. 1.0000     0. 
   2  -3  -8      0.70    1.03  0. 1.0000     0. 
   2   3  -8     -0.67    1.40  0. 1.0000     0. 
  -2   3   8      1.52    1.88  0. 1.0000     0. 
   1  -3  -8    127.11    4.69  0. 1.0000     0. 
  -1  -3   8    129.55    6.23  0. 1.0000     0. 
  -1   3   8    123.42    6.06  0. 1.0000     0. 
   1   3  -8    119.10    4.97  0. 1.0000     0. 
   0  -3  -8     -0.31    1.03  0. 1.0000     0. 
   0  -3   8      0.97    1.80  0. 1.0000     0. 
   0   3   8      3.53    2.28  0. 1.0000     0. 
   0   3  -8      0.20    1.36  0. 1.0000     0. 
  -1  -3  -8     40.22    2.16  0. 1.0000     0. 
   1  -3   8     36.91    3.43  0. 1.0000     0. 
   1   3   8     33.05    3.76  0. 1.0000     0. 
  -1   3  -8     39.58    2.72  0. 1.0000     0. 
  -2  -3  -8    185.75    6.56  0. 1.0000     0. 
   2  -3   8    178.36    8.85  0. 1.0000     0. 
  -2   3  -8    191.45    6.97  0. 1.0000     0. 
   2   3   8    191.80    5.88  0. 1.0000     0. 
  -2   3  -8    182.62    6.92  0. 1.0000     0. 
   3  -3   8      0.41    1.68  0. 1.0000     0. 
  -3   3  -8      0.16    1.99  0. 1.0000     0. 
  -4  -4   8      3.79    1.23  0. 1.0000     0. 
   4  -4  -8      4.34    1.37  0. 1.0000     0. 
  -4   4   8      7.25    2.42  0. 1.0000     0. 
  -4   4   8      6.98    1.48  0. 1.0000     0. 
   4   4  -8      6.57    1.88  0. 1.0000     0. 
   4   4  -8      3.74    1.75  0. 1.0000     0. 
  -3  -4   8      0.09    1.19  0. 1.0000     0. 
   3  -4  -8      3.33    1.57  0. 1.0000     0. 
   3  -4  -8      1.70    1.34  0. 1.0000     0. 
  -3   4   8      1.96    1.42  0. 1.0000     0. 
   3   4  -8     -0.12    1.59  0. 1.0000     0. 
   3   4  -8      0.36    1.68  0. 1.0000     0. 
  -3   4   8      1.87    2.37  0. 1.0000     0. 
  -2  -4   8      1.78    1.25  0. 1.0000     0. 
  -2  -4   8      0.31    2.22  0. 1.0000     0. 
   2  -4  -8      1.17    1.14  0. 1.0000     0. 
   2  -4  -8      3.25    1.53  0. 1.0000     0. 
   2   4  -8      0.35    1.68  0. 1.0000     0. 
   2   4  -8     -0.12    1.69  0. 1.0000     0. 
  -2   4   8     -0.30    1.23  0. 1.0000     0. 
  -2   4   8      0.73    2.42  0. 1.0000     0. 
   1  -4  -8      2.28    1.56  0. 1.0000     0. 
  -1  -4   8      1.40    2.40  0. 1.0000     0. 
   1  -4  -8      1.84    1.21  0. 1.0000     0. 
  -1  -4   8      3.16    1.15  0. 1.0000     0. 
   1   4  -8      2.58    1.74  0. 1.0000     0. 
  -1   4   8      2.36    1.28  0. 1.0000     0. 
   1   4  -8      1.66    1.84  0. 1.0000     0. 
  -1   4   8      1.89    2.47  0. 1.0000     0. 
   0  -4   8      7.91    2.54  0. 1.0000     0. 
   0  -4   8      9.98    1.44  0. 1.0000     0. 
   0  -4  -8      5.79    1.87  0. 1.0000     0. 
   0  -4  -8      9.47    1.45  0. 1.0000     0. 
   0   4   8     12.10    3.10  0. 1.0000     0. 
   0   4  -8      9.99    2.25  0. 1.0000     0. 
   0   4  -8      8.37    1.85  0. 1.0000     0. 
   0   4   8      6.86    1.39  0. 1.0000     0. 
   1  -4   8      0.19    2.38  0. 1.0000     0. 
  -1  -4  -8      1.59    1.74  0. 1.0000     0. 
   1  -4   8      0.59    1.22  0. 1.0000     0. 
  -1  -4  -8     -0.85    1.13  0. 1.0000     0. 
  -1   4  -8      0.72    1.81  0. 1.0000     0. 
   1   4   8     -0.10    1.24  0. 1.0000     0. 
   1   4   8     -0.46    2.45  0. 1.0000     0. 
  -1   4  -8      1.10    1.90  0. 1.0000     0. 
   3  -4   8      4.65    2.91  0. 1.0000     0. 
  -3   4  -8      5.32    2.22  0. 1.0000     0. 
   4  -5  -8      1.20    1.57  0. 1.0000     0. 
  -4   5   8     -0.15    1.91  0. 1.0000     0. 
   3  -5  -8      3.92    1.79  0. 1.0000     0. 
  -3  -5   8      6.15    1.62  0. 1.0000     0. 
  -3   5   8      4.28    1.73  0. 1.0000     0. 
   3   5  -8      2.98    2.00  0. 1.0000     0. 
   2  -5  -8      1.89    1.71  0. 1.0000     0. 
  -2  -5   8      3.45    1.50  0. 1.0000     0. 
   2   5  -8     -0.30    2.23  0. 1.0000     0. 
  -2   5   8      2.14    1.80  0. 1.0000     0. 
  -2   5   8     -2.20    2.60  0. 1.0000     0. 
  -1  -5   8      6.81    1.46  0. 1.0000     0. 
   1  -5  -8      2.56    1.84  0. 1.0000     0. 
   1   5  -8      4.87    2.12  0. 1.0000     0. 
  -1   5   8      5.38    1.61  0. 1.0000     0. 
   0  -5   8     -0.74    1.33  0. 1.0000     0. 
   0  -5  -8     -0.73    1.59  0. 1.0000     0. 
   0   5   8      1.08    1.45  0. 1.0000     0. 
   0   5  -8     -1.43    1.94  0. 1.0000     0. 
   1  -5   8     -0.45    1.29  0. 1.0000     0. 
  -1  -5  -8      1.84    1.96  0. 1.0000     0. 
  -1   5  -8      2.50    2.21  0. 1.0000     0. 
   1   5   8      0.46    1.36  0. 1.0000     0. 
   4   0  -9     -0.17    0.52  0. 1.0000     0. 
  -4   0   9     -0.04    0.63  0. 1.0000     0. 
  -4  -1   9     38.78    1.69  0. 1.0000     0. 
   4  -1  -9     34.52    1.88  0. 1.0000     0. 
   4   1  -9     34.43    1.99  0. 1.0000     0. 
  -4   1   9     34.66    2.03  0. 1.0000     0. 
  -3  -1   9     60.24    2.21  0. 1.0000     0. 
   3  -1  -9     58.14    2.61  0. 1.0000     0. 
  -3   1   9     59.55    2.60  0. 1.0000     0. 
   3   1  -9     58.19    2.79  0. 1.0000     0. 
   3   1  -9     59.83    2.50  0. 1.0000     0. 
  -3   1   9     60.70    2.33  0. 1.0000     0. 
  -2  -1   9     52.37    1.88  0. 1.0000     0. 
   2  -1  -9     48.00    2.33  0. 1.0000     0. 
   2   1  -9     49.42    2.38  0. 1.0000     0. 
   2   1  -9     51.48    2.27  0. 1.0000     0. 
  -2   1   9     52.28    1.99  0. 1.0000     0. 
  -2   1   9     53.67    2.55  0. 1.0000     0. 
  -1  -1   9    290.76    8.32  0. 1.0000     0. 
   1  -1  -9    295.57    9.25  0. 1.0000     0. 
  -1  -1   9    290.08   10.79  0. 1.0000     0. 
   1  -1  -9    281.23    9.80  0. 1.0000     0. 
  -1   1   9    299.25    9.27  0. 1.0000     0. 
   1   1  -9    285.17    9.25  0. 1.0000     0. 
  -1   1   9    298.92    8.34  0. 1.0000     0. 
   1   1  -9    296.19    8.51  0. 1.0000     0. 
   0  -1  -9      4.80    0.72  0. 1.0000     0. 
   0  -1   9      3.68    1.28  0. 1.0000     0. 
   0   1   9      4.43    0.63  0. 1.0000     0. 
   0   1   9      5.10    1.38  0. 1.0000     0. 
   0   1  -9      3.88    0.94  0. 1.0000     0. 
   0   1  -9      4.56    1.15  0. 1.0000     0. 
  -1  -1  -9     11.65    0.94  0. 1.0000     0. 
   1  -1   9      7.28    1.52  0. 1.0000     0. 
  -1   1  -9      9.13    1.22  0. 1.0000     0. 
   1   1   9     11.37    0.87  0. 1.0000     0. 
  -1   1  -9     10.21    1.50  0. 1.0000     0. 
   5  -2  -9      2.45    1.03  0. 1.0000     0. 
   5   2  -9      0.37    1.18  0. 1.0000     0. 
  -5   2   9      2.14    1.36  0. 1.0000     0. 
  -3  -2   9     70.13    2.50  0. 1.0000     0. 
   3  -2  -9     60.19    3.04  0. 1.0000     0. 
  -3   2   9     64.83    2.62  0. 1.0000     0. 
   3   2  -9     62.51    3.17  0. 1.0000     0. 
   3   2  -9     71.83    3.15  0. 1.0000     0. 
  -3   2   9     58.23    3.38  0. 1.0000     0. 
  -2  -2   9     59.45    2.23  0. 1.0000     0. 
   2  -2  -9     59.40    2.81  0. 1.0000     0. 
  -2   2   9     55.08    3.31  0. 1.0000     0. 
  -2   2   9     56.65    2.36  0. 1.0000     0. 
   2   2  -9     59.10    2.87  0. 1.0000     0. 
   2   2  -9     61.79    2.92  0. 1.0000     0. 
  -1  -2   9      1.17    1.43  0. 1.0000     0. 
   1  -2  -9      1.49    1.21  0. 1.0000     0. 
  -1  -2   9      0.83    0.82  0. 1.0000     0. 
   1  -2  -9      0.49    0.77  0. 1.0000     0. 
  -1   2   9      0.84    1.54  0. 1.0000     0. 
  -1   2   9      0.59    0.76  0. 1.0000     0. 
   1   2  -9     -0.07    0.97  0. 1.0000     0. 
   1   2  -9     -0.10    1.28  0. 1.0000     0. 
   0  -2   9     -0.14    0.84  0. 1.0000     0. 
   0  -2  -9      0.46    0.80  0. 1.0000     0. 
   0  -2   9      0.57    1.46  0. 1.0000     0. 
   0   2   9     -0.26    0.77  0. 1.0000     0. 
   0   2  -9      0.52    1.09  0. 1.0000     0. 
   0   2   9      0.84    1.57  0. 1.0000     0. 
   0   2  -9     -0.19    1.29  0. 1.0000     0. 
  -2  -2  -9      2.02    0.92  0. 1.0000     0. 
   2  -2   9      1.02    1.72  0. 1.0000     0. 
  -2   2  -9      1.13    1.50  0. 1.0000     0. 
   2   2   9      1.15    0.78  0. 1.0000     0. 
   5  -3  -9      0.71    1.22  0. 1.0000     0. 
  -5  -3   9      0.84    1.06  0. 1.0000     0. 
   5   3  -9     -0.88    1.54  0. 1.0000     0. 
  -5   3   9      0.59    1.64  0. 1.0000     0. 
  -5   3   9     -1.35    1.33  0. 1.0000     0. 
   4  -3  -9    211.32    7.24  0. 1.0000     0. 
  -4  -3   9    194.93    6.26  0. 1.0000     0. 
  -4   3   9    194.01    6.40  0. 1.0000     0. 
   4   3  -9    186.22    7.18  0. 1.0000     0. 
   4   3  -9    193.86    7.12  0. 1.0000     0. 
  -4   3   9    199.01    7.68  0. 1.0000     0. 
  -3  -3   9     11.15    1.39  0. 1.0000     0. 
   3  -3  -9      8.81    1.40  0. 1.0000     0. 
  -3   3   9      8.02    1.29  0. 1.0000     0. 
   3   3  -9     11.20    1.80  0. 1.0000     0. 
  -3   3   9     11.02    2.29  0. 1.0000     0. 
   3   3  -9      7.38    1.62  0. 1.0000     0. 
   2  -3  -9    294.07    9.96  0. 1.0000     0. 
  -2  -3   9    278.73    8.65  0. 1.0000     0. 
   2  -3  -9    294.86    9.44  0. 1.0000     0. 
  -2   3   9    292.20    8.83  0. 1.0000     0. 
   2   3  -9    280.98    9.88  0. 1.0000     0. 
  -2   3   9    292.11   10.42  0. 1.0000     0. 
   2   3  -9    289.34    9.38  0. 1.0000     0. 
  -1  -3   9     20.41    1.52  0. 1.0000     0. 
   1  -3  -9     15.86    1.81  0. 1.0000     0. 
   1  -3  -9     19.20    1.57  0. 1.0000     0. 
  -1   3   9     20.37    1.65  0. 1.0000     0. 
   1   3  -9     22.27    2.02  0. 1.0000     0. 
  -1   3   9     20.55    2.76  0. 1.0000     0. 
   1   3  -9     19.81    2.32  0. 1.0000     0. 
   0  -3   9      0.24    0.96  0. 1.0000     0. 
   0  -3  -9      0.63    1.06  0. 1.0000     0. 
   0  -3  -9      2.13    1.47  0. 1.0000     0. 
   0   3   9     -0.49    2.09  0. 1.0000     0. 
   0   3   9      0.32    0.93  0. 1.0000     0. 
   0   3  -9      0.10    1.33  0. 1.0000     0. 
   0   3  -9      1.74    1.72  0. 1.0000     0. 
   1  -3   9    164.27    5.44  0. 1.0000     0. 
   1  -3   9    164.84    8.08  0. 1.0000     0. 
  -1  -3  -9    169.43    6.03  0. 1.0000     0. 
  -1   3  -9    159.08    6.39  0. 1.0000     0. 
  -1   3  -9    164.85    6.49  0. 1.0000     0. 
   1   3   9    168.65    5.28  0. 1.0000     0. 
  -2  -3  -9     -0.61    1.00  0. 1.0000     0. 
   2  -3   9      0.52    1.84  0. 1.0000     0. 
  -2   3  -9     -0.45    1.63  0. 1.0000     0. 
  -2   3  -9      1.89    1.76  0. 1.0000     0. 
   2   3   9     -0.16    0.97  0. 1.0000     0. 
  -6   4   9      9.71    2.47  0. 1.0000     0. 
   5  -4  -9      3.63    1.53  0. 1.0000     0. 
  -5  -4   9      0.78    1.31  0. 1.0000     0. 
  -5   4   9      3.12    1.57  0. 1.0000     0. 
   5   4  -9     -0.26    1.90  0. 1.0000     0. 
  -5   4   9      0.93    2.31  0. 1.0000     0. 
  -3  -4   9    328.18   12.35  0. 1.0000     0. 
   3  -4  -9    319.01   11.13  0. 1.0000     0. 
   3  -4  -9    315.17   10.40  0. 1.0000     0. 
  -3  -4   9    303.28    9.49  0. 1.0000     0. 
  -3   4   9    295.32   11.86  0. 1.0000     0. 
  -3   4   9    314.56   10.12  0. 1.0000     0. 
   3   4  -9    321.37   11.04  0. 1.0000     0. 
   3   4  -9    324.80   10.88  0. 1.0000     0. 
  -2  -4   9      8.29    2.60  0. 1.0000     0. 
   2  -4  -9      7.55    1.42  0. 1.0000     0. 
  -2  -4   9      8.00    1.36  0. 1.0000     0. 
   2  -4  -9      6.49    1.68  0. 1.0000     0. 
   2   4  -9     10.89    2.07  0. 1.0000     0. 
   2   4  -9      5.40    1.92  0. 1.0000     0. 
  -2   4   9      4.42    2.61  0. 1.0000     0. 
  -2   4   9      4.35    1.35  0. 1.0000     0. 
   1  -4  -9     38.80    2.13  0. 1.0000     0. 
   1  -4  -9     35.18    2.63  0. 1.0000     0. 
  -1  -4   9     32.47    3.73  0. 1.0000     0. 
  -1  -4   9     30.57    2.00  0. 1.0000     0. 
  -1   4   9     27.03    3.53  0. 1.0000     0. 
  -1   4   9     33.79    2.16  0. 1.0000     0. 
   1   4  -9     26.50    2.73  0. 1.0000     0. 
   1   4  -9     29.70    2.83  0. 1.0000     0. 
   0  -4   9    106.59    4.11  0. 1.0000     0. 
   0  -4   9    112.76    6.45  0. 1.0000     0. 
   0  -4  -9    108.56    4.35  0. 1.0000     0. 
   0  -4  -9    106.36    5.18  0. 1.0000     0. 
   0   4   9    103.95    6.51  0. 1.0000     0. 
   0   4  -9    110.79    4.95  0. 1.0000     0. 
   0   4   9    113.55    4.18  0. 1.0000     0. 
   0   4  -9    106.86    5.32  0. 1.0000     0. 
   2  -4   9     27.73    2.07  0. 1.0000     0. 
   2  -4   9     34.41    3.71  0. 1.0000     0. 
  -2  -4  -9     29.88    3.03  0. 1.0000     0. 
  -2  -4  -9     30.07    2.10  0. 1.0000     0. 
   2   4   9     31.02    1.96  0. 1.0000     0. 
  -2   4  -9     33.23    2.84  0. 1.0000     0. 
  -2   4  -9     32.92    2.99  0. 1.0000     0. 
   3  -4   9     14.75    1.61  0. 1.0000     0. 
   4   0 -10      0.38    0.68  0. 1.0000     0. 
  -4   0  10      0.30    0.65  0. 1.0000     0. 
  -2   0  10      3.72    0.83  0. 1.0000     0. 
   2   0 -10      3.92    0.86  0. 1.0000     0. 
  -2   0  10      3.67    0.56  0. 1.0000     0. 
   1   0 -10    454.32   14.04  0. 1.0000     0. 
  -1   0  10    451.65   13.35  0. 1.0000     0. 
   0   0  10   1991.01   80.31  0. 1.0000     0. 
   0   0 -10   2384.97   65.87  0. 1.0000     0. 
  -1   0 -10   1234.44   34.54  0. 1.0000     0. 
  -5   1  10     75.00    3.25  0. 1.0000     0. 
  -4  -1  10    938.86   25.30  0. 1.0000     0. 
   4  -1 -10    941.04   28.32  0. 1.0000     0. 
   4   1 -10    936.64   25.82  0. 1.0000     0. 
  -4   1  10    901.38   26.43  0. 1.0000     0. 
  -4   1  10    929.07   26.26  0. 1.0000     0. 
  -3  -1  10      3.70    0.73  0. 1.0000     0. 
   3   1 -10      4.02    1.01  0. 1.0000     0. 
  -3   1  10      3.91    1.16  0. 1.0000     0. 
   3   1 -10      2.59    1.15  0. 1.0000     0. 
   2  -1 -10     35.56    1.90  0. 1.0000     0. 
  -2  -1  10     35.50    1.56  0. 1.0000     0. 
   2   1 -10     39.39    1.91  0. 1.0000     0. 
   2   1 -10     33.82    2.14  0. 1.0000     0. 
   1  -1 -10     91.36    3.40  0. 1.0000     0. 
  -1  -1  10     96.96    4.59  0. 1.0000     0. 
   1  -1 -10    100.37    3.84  0. 1.0000     0. 
  -1  -1  10     95.11    3.06  0. 1.0000     0. 
   1   1 -10     89.12    3.80  0. 1.0000     0. 
  -1   1  10     83.92    3.16  0. 1.0000     0. 
   1   1 -10     95.79    3.47  0. 1.0000     0. 
  -1   1  10     90.49    4.27  0. 1.0000     0. 
  -1  -1 -10    739.44   22.73  0. 1.0000     0. 
   1  -1  10    734.82   25.15  0. 1.0000     0. 
   1   1  10    729.22   19.84  0. 1.0000     0. 
  -1   1 -10    724.50   21.52  0. 1.0000     0. 
  -2   1 -10    165.75    6.47  0. 1.0000     0. 
   5  -2 -10     85.17    3.64  0. 1.0000     0. 
  -5  -2  10     88.05    3.39  0. 1.0000     0. 
   5   2 -10     83.65    3.81  0. 1.0000     0. 
  -4  -2  10    741.11   20.30  0. 1.0000     0. 
   4  -2 -10    686.91   23.11  0. 1.0000     0. 
   4   2 -10    735.60   21.28  0. 1.0000     0. 
   4   2 -10    761.42   21.00  0. 1.0000     0. 
  -4   2  10    733.75   21.42  0. 1.0000     0. 
  -4   2  10    734.65   20.30  0. 1.0000     0. 
   3  -2 -10      1.27    1.15  0. 1.0000     0. 
  -3  -2  10      1.83    0.93  0. 1.0000     0. 
   3   2 -10      1.10    1.25  0. 1.0000     0. 
   3   2 -10      1.61    1.20  0. 1.0000     0. 
  -3   2  10      0.93    0.98  0. 1.0000     0. 
  -3   2  10      3.41    1.50  0. 1.0000     0. 
   0  -2  10      3.09    1.70  0. 1.0000     0. 
   0  -2 -10      2.89    1.34  0. 1.0000     0. 
   0  -2  10      3.10    0.93  0. 1.0000     0. 
   0  -2 -10      3.13    0.97  0. 1.0000     0. 
   0   2 -10      3.39    1.24  0. 1.0000     0. 
   0   2 -10      4.39    1.54  0. 1.0000     0. 
   0   2  10      2.34    1.63  0. 1.0000     0. 
   0   2  10      2.93    0.87  0. 1.0000     0. 
   1  -2  10     25.52    2.69  0. 1.0000     0. 
  -1  -2 -10     23.87    1.53  0. 1.0000     0. 
   1   2  10     23.31    3.12  0. 1.0000     0. 
  -1   2 -10     25.61    2.33  0. 1.0000     0. 
  -1   2 -10     25.58    2.07  0. 1.0000     0. 
   1   2  10     22.25    1.42  0. 1.0000     0. 
   2   2  10      7.22    1.07  0. 1.0000     0. 
  -6   3  10      0.93    1.50  0. 1.0000     0. 
  -4  -3  10      2.40    1.18  0. 1.0000     0. 
   4  -3 -10      2.20    1.37  0. 1.0000     0. 
  -4   3  10      2.59    1.29  0. 1.0000     0. 
   4   3 -10      3.06    1.57  0. 1.0000     0. 
  -3  -3  10     32.84    1.93  0. 1.0000     0. 
   3  -3 -10     31.11    2.36  0. 1.0000     0. 
  -3   3  10     31.47    2.05  0. 1.0000     0. 
   3   3 -10     32.60    2.52  0. 1.0000     0. 
   2  -3 -10    121.14    5.37  0. 1.0000     0. 
  -2  -3  10    132.05    4.37  0. 1.0000     0. 
  -2  -3  10    134.37    6.67  0. 1.0000     0. 
  -2   3  10    131.84    4.54  0. 1.0000     0. 
   2   3 -10    129.77    5.34  0. 1.0000     0. 
   1  -3 -10    177.16    6.72  0. 1.0000     0. 
  -1  -3  10    176.29    5.51  0. 1.0000     0. 
  -1  -3  10    167.45    8.08  0. 1.0000     0. 
  -1   3  10    166.52    5.74  0. 1.0000     0. 
   1   3 -10    170.37    6.69  0. 1.0000     0. 
   0  -3  10     89.43    3.30  0. 1.0000     0. 
   0  -3 -10     83.75    4.51  0. 1.0000     0. 
   0   3  10     89.48    3.36  0. 1.0000     0. 
   0   3 -10     89.81    4.42  0. 1.0000     0. 
   1  -3  10      5.06    1.21  0. 1.0000     0. 
  -1   3 -10      7.23    1.91  0. 1.0000     0. 
   1   3  10      7.59    1.12  0. 1.0000     0. 
  -6   4  10      3.24    2.38  0. 1.0000     0. 
  -5  -4  10      1.43    1.33  0. 1.0000     0. 
   5  -4 -10      2.16    1.52  0. 1.0000     0. 
  -5   4  10      0.14    1.56  0. 1.0000     0. 
   5   4 -10      1.09    2.04  0. 1.0000     0. 
  -5   4  10     -1.61    2.18  0. 1.0000     0. 
   4  -4 -10      2.74    1.46  0. 1.0000     0. 
  -4  -4  10      3.08    1.34  0. 1.0000     0. 
   4  -4 -10      2.55    1.17  0. 1.0000     0. 
   4   4 -10      2.55    1.73  0. 1.0000     0. 
   4   4 -10      1.92    1.93  0. 1.0000     0. 
  -4   4  10      0.93    1.39  0. 1.0000     0. 
  -4   4  10      1.37    2.51  0. 1.0000     0. 
   3  -4 -10      0.11    1.65  0. 1.0000     0. 
  -3  -4  10      0.80    1.28  0. 1.0000     0. 
   3   4 -10      0.13    1.88  0. 1.0000     0. 
  -3   4  10      4.17    1.56  0. 1.0000     0. 
   3   4 -10      1.92    2.04  0. 1.0000     0. 
   0  -4 -10      7.93    2.02  0. 1.0000     0. 
   0  -4 -10      8.13    1.43  0. 1.0000     0. 
   0  -4  10      8.60    1.51  0. 1.0000     0. 
   0   4 -10      6.75    2.25  0. 1.0000     0. 
   0   4 -10      7.01    2.01  0. 1.0000     0. 
   0   4  10      8.07    1.44  0. 1.0000     0. 
   1  -4  10     15.56    3.01  0. 1.0000     0. 
  -1  -4 -10     13.32    1.52  0. 1.0000     0. 
  -1  -4 -10      6.78    2.08  0. 1.0000     0. 
   1  -4  10     12.20    1.59  0. 1.0000     0. 
   1   4  10      7.54    2.81  0. 1.0000     0. 
  -1   4 -10     12.17    2.35  0. 1.0000     0. 
   1   4  10     11.34    1.58  0. 1.0000     0. 
  -1   4 -10     14.57    2.56  0. 1.0000     0. 
   2  -4  10     -0.64    2.29  0. 1.0000     0. 
  -2  -4 -10      0.62    2.00  0. 1.0000     0. 
   2  -4  10     -0.78    1.34  0. 1.0000     0. 
  -2  -4 -10      1.98    1.30  0. 1.0000     0. 
   2   4  10      1.13    1.14  0. 1.0000     0. 
  -2   4 -10     -0.26    1.90  0. 1.0000     0. 
  -2   4 -10      0.43    1.97  0. 1.0000     0. 
   3  -4  10     -1.38    1.27  0. 1.0000     0. 
   3  -4  10     -1.92    1.67  0. 1.0000     0. 
  -3   4 -10      1.48    2.11  0. 1.0000     0. 
   4   0 -11      0.28    0.72  0. 1.0000     0. 
  -4   0  11      0.20    0.73  0. 1.0000     0. 
   2   0 -11     -0.25    0.54  0. 1.0000     0. 
   2   0 -11     -0.16    0.65  0. 1.0000     0. 
  -2   0  11     -0.23    0.88  0. 1.0000     0. 
  -2   0  11     -0.32    0.91  0. 1.0000     0. 
   1   0 -11      0.43    0.57  0. 1.0000     0. 
   1   0 -11      0.30    0.79  0. 1.0000     0. 
   1   0 -11      0.05    0.72  0. 1.0000     0. 
  -1   0  11      0.18    1.11  0. 1.0000     0. 
  -1   0  11      0.44    0.97  0. 1.0000     0. 
   1   0  11      0.45    0.59  0. 1.0000     0. 
  -1   0 -11     -0.16    1.12  0. 1.0000     0. 
  -4  -1  11      1.37    0.75  0. 1.0000     0. 
   4  -1 -11      1.30    0.88  0. 1.0000     0. 
   4   1 -11      1.36    1.05  0. 1.0000     0. 
  -4   1  11      1.15    0.94  0. 1.0000     0. 
  -4   1  11      1.22    1.00  0. 1.0000     0. 
   4   1 -11      1.05    0.94  0. 1.0000     0. 
   3  -1 -11    141.28    5.26  0. 1.0000     0. 
  -3  -1  11    140.35    4.46  0. 1.0000     0. 
  -3   1  11    144.27    5.29  0. 1.0000     0. 
  -3   1  11    140.46    4.56  0. 1.0000     0. 
   3   1 -11    143.25    4.82  0. 1.0000     0. 
   3   1 -11    144.64    5.09  0. 1.0000     0. 
   2  -1 -11   1021.25   33.33  0. 1.0000     0. 
   2  -1 -11   1076.84   33.79  0. 1.0000     0. 
  -2  -1  11   1108.19   28.65  0. 1.0000     0. 
   2   1 -11   1067.37   29.97  0. 1.0000     0. 
   2   1 -11   1089.41   30.58  0. 1.0000     0. 
  -2   1  11   1097.36   28.68  0. 1.0000     0. 
  -2   1  11   1096.27   30.51  0. 1.0000     0. 
   1  -1 -11    219.84    7.95  0. 1.0000     0. 
  -1  -1  11    224.97    6.58  0. 1.0000     0. 
  -1  -1  11    233.19    8.94  0. 1.0000     0. 
   1  -1 -11    210.83    7.42  0. 1.0000     0. 
   1   1 -11    225.78    7.18  0. 1.0000     0. 
  -1   1  11    235.26    7.89  0. 1.0000     0. 
  -1   1  11    222.46    6.67  0. 1.0000     0. 
   1   1 -11    230.11    7.33  0. 1.0000     0. 
   0  -1  11     57.00    3.82  0. 1.0000     0. 
   0  -1 -11     56.73    2.54  0. 1.0000     0. 
   0   1 -11     66.96    3.29  0. 1.0000     0. 
   0   1  11     60.77    4.03  0. 1.0000     0. 
   0   1  11     61.71    2.23  0. 1.0000     0. 
   0   1 -11     62.62    2.81  0. 1.0000     0. 
   1  -1  11    475.42   16.37  0. 1.0000     0. 
  -1  -1 -11    426.38   14.22  0. 1.0000     0. 
  -1   1 -11    438.01   13.77  0. 1.0000     0. 
   1   1  11    447.62   12.42  0. 1.0000     0. 
  -2   1 -11    249.24    8.67  0. 1.0000     0. 
   5  -2 -11     46.21    2.63  0. 1.0000     0. 
  -5  -2  11     47.75    2.27  0. 1.0000     0. 
  -5   2  11     48.65    2.51  0. 1.0000     0. 
   3  -2 -11    218.93    7.69  0. 1.0000     0. 
  -3  -2  11    218.26    6.41  0. 1.0000     0. 
  -3   2  11    208.14    6.64  0. 1.0000     0. 
  -3   2  11    214.91    7.68  0. 1.0000     0. 
   3   2 -11    206.81    7.40  0. 1.0000     0. 
   3   2 -11    213.44    7.12  0. 1.0000     0. 
   2  -2 -11     20.14    1.76  0. 1.0000     0. 
   2  -2 -11     20.67    1.42  0. 1.0000     0. 
  -2  -2  11     16.36    2.28  0. 1.0000     0. 
  -2  -2  11     20.43    1.34  0. 1.0000     0. 
   2   2 -11     20.57    2.00  0. 1.0000     0. 
   2   2 -11     22.85    1.89  0. 1.0000     0. 
  -2   2  11     24.90    2.43  0. 1.0000     0. 
  -2   2  11     19.72    1.40  0. 1.0000     0. 
  -1  -2  11    781.69   21.05  0. 1.0000     0. 
   1  -2 -11    794.46   25.29  0. 1.0000     0. 
   1  -2 -11    772.97   23.92  0. 1.0000     0. 
  -1  -2  11    756.16   27.10  0. 1.0000     0. 
   1   2 -11    763.32   22.97  0. 1.0000     0. 
  -1   2  11    772.71   23.06  0. 1.0000     0. 
   1   2 -11    770.53   22.58  0. 1.0000     0. 
  -1   2  11    785.60   21.23  0. 1.0000     0. 
   0  -2 -11    134.27    5.74  0. 1.0000     0. 
   0  -2 -11    145.84    5.00  0. 1.0000     0. 
   0  -2  11    137.69    4.46  0. 1.0000     0. 
   0  -2  11    133.51    6.53  0. 1.0000     0. 
   0   2  11    135.66    4.36  0. 1.0000     0. 
   0   2  11    117.48    6.28  0. 1.0000     0. 
   0   2 -11    137.28    5.02  0. 1.0000     0. 
   0   2 -11    135.62    5.50  0. 1.0000     0. 
  -2   2 -11    323.87   11.25  0. 1.0000     0. 
   6  -3 -11      2.66    0.92  0. 1.0000     0. 
  -5  -3  11    139.76    4.87  0. 1.0000     0. 
   5  -3 -11    150.95    5.60  0. 1.0000     0. 
  -5   3  11    137.01    5.19  0. 1.0000     0. 
   5   3 -11    131.17    5.85  0. 1.0000     0. 
   3  -3 -11     14.95    1.93  0. 1.0000     0. 
   3  -3 -11     23.02    1.73  0. 1.0000     0. 
  -3  -3  11     17.59    1.59  0. 1.0000     0. 
  -3   3  11     25.99    1.90  0. 1.0000     0. 
   3   3 -11     26.29    2.39  0. 1.0000     0. 
  -3   3  11     17.68    2.63  0. 1.0000     0. 
   3   3 -11     23.51    2.33  0. 1.0000     0. 
  -2  -3  11     91.72    5.38  0. 1.0000     0. 
   2  -3 -11     92.62    4.10  0. 1.0000     0. 
   2  -3 -11     91.80    3.70  0. 1.0000     0. 
  -2  -3  11     89.12    3.36  0. 1.0000     0. 
  -2   3  11     89.38    3.52  0. 1.0000     0. 
   2   3 -11     81.70    4.09  0. 1.0000     0. 
   2   3 -11     91.97    4.27  0. 1.0000     0. 
  -2   3  11     78.90    5.07  0. 1.0000     0. 
  -1  -3  11      9.09    2.54  0. 1.0000     0. 
   1  -3 -11      8.35    1.33  0. 1.0000     0. 
   1  -3 -11      7.26    1.56  0. 1.0000     0. 
  -1  -3  11     10.44    1.35  0. 1.0000     0. 
  -1   3  11      4.60    2.25  0. 1.0000     0. 
   1   3 -11      8.42    1.93  0. 1.0000     0. 
   1   3 -11      8.81    1.90  0. 1.0000     0. 
  -1   3  11      7.74    1.28  0. 1.0000     0. 
   2  -3  11      7.94    2.33  0. 1.0000     0. 
  -2  -3 -11      6.90    1.30  0. 1.0000     0. 
   2   3  11      9.08    1.20  0. 1.0000     0. 
  -2   3 -11      7.54    2.32  0. 1.0000     0. 
  -5  -4  11      6.45    1.51  0. 1.0000     0. 
   5  -4 -11      6.26    1.56  0. 1.0000     0. 
  -5   4  11      9.87    1.88  0. 1.0000     0. 
   5   4 -11      6.93    2.10  0. 1.0000     0. 
  -5   4  11      5.74    2.44  0. 1.0000     0. 
   4  -4 -11      7.28    1.60  0. 1.0000     0. 
  -4  -4  11      5.48    1.47  0. 1.0000     0. 
   4  -4 -11      8.32    1.77  0. 1.0000     0. 
   4   4 -11      4.97    2.02  0. 1.0000     0. 
   4   4 -11     11.20    2.41  0. 1.0000     0. 
  -4   4  11      2.62    1.54  0. 1.0000     0. 
  -4   4  11      7.93    2.64  0. 1.0000     0. 
  -3  -4  11      5.60    2.56  0. 1.0000     0. 
   3  -4 -11      5.74    1.42  0. 1.0000     0. 
  -3  -4  11      6.00    1.42  0. 1.0000     0. 
   3  -4 -11      4.24    1.62  0. 1.0000     0. 
  -3   4  11      4.65    1.62  0. 1.0000     0. 
   3   4 -11      5.15    2.12  0. 1.0000     0. 
   3   4 -11      1.78    2.06  0. 1.0000     0. 
  -3   4  11      5.76    2.76  0. 1.0000     0. 
   2  -4 -11     11.03    1.59  0. 1.0000     0. 
  -2  -4  11     11.48    2.94  0. 1.0000     0. 
  -2  -4  11     11.43    1.47  0. 1.0000     0. 
   2  -4 -11     11.90    1.97  0. 1.0000     0. 
   2   4 -11     12.69    2.32  0. 1.0000     0. 
  -2   4  11      8.11    2.83  0. 1.0000     0. 
  -2   4  11      9.64    1.53  0. 1.0000     0. 
   2   4 -11      9.33    2.19  0. 1.0000     0. 
  -1  -4  11     13.07    2.99  0. 1.0000     0. 
   1  -4 -11     15.46    1.78  0. 1.0000     0. 
   1  -4 -11     17.54    2.22  0. 1.0000     0. 
  -1  -4  11     14.80    1.55  0. 1.0000     0. 
  -1   4  11     13.03    3.11  0. 1.0000     0. 
   1   4 -11     15.42    2.19  0. 1.0000     0. 
  -1   4  11     14.30    1.68  0. 1.0000     0. 
   1   4 -11     14.95    2.34  0. 1.0000     0. 
   0  -4 -11     33.01    2.95  0. 1.0000     0. 
   0  -4  11     40.69    3.98  0. 1.0000     0. 
   0  -4 -11     36.99    2.36  0. 1.0000     0. 
   0  -4  11     30.17    2.16  0. 1.0000     0. 
   0   4 -11     34.74    3.11  0. 1.0000     0. 
   0   4 -11     33.57    2.99  0. 1.0000     0. 
   0   4  11     28.90    4.37  0. 1.0000     0. 
   0   4  11     31.74    2.15  0. 1.0000     0. 
   1  -4  11      7.94    1.54  0. 1.0000     0. 
  -1  -4 -11      7.81    1.35  0. 1.0000     0. 
  -1  -4 -11     10.24    2.17  0. 1.0000     0. 
   1  -4  11     11.96    2.84  0. 1.0000     0. 
   1   4  11     11.75    2.89  0. 1.0000     0. 
  -1   4 -11      9.47    2.42  0. 1.0000     0. 
   1   4  11     10.11    1.55  0. 1.0000     0. 
  -1   4 -11      9.61    2.27  0. 1.0000     0. 
  -2  -4 -11     34.23    3.32  0. 1.0000     0. 
   2  -4  11     35.71    2.26  0. 1.0000     0. 
   2  -4  11     36.07    4.05  0. 1.0000     0. 
  -2  -4 -11     35.85    2.24  0. 1.0000     0. 
  -2   4 -11     32.96    3.29  0. 1.0000     0. 
   2   4  11     35.96    2.05  0. 1.0000     0. 
  -4   0  12   1771.01   48.46  0. 1.0000     0. 
  -3   0  12    220.23    6.56  0. 1.0000     0. 
  -3   0  12    212.54    7.39  0. 1.0000     0. 
   3   0 -12    231.24    7.28  0. 1.0000     0. 
  -2   0  12    635.28   18.31  0. 1.0000     0. 
   2   0 -12    621.40   19.25  0. 1.0000     0. 
  -1   0  12     -0.36    1.36  0. 1.0000     0. 
  -1   0  12      0.21    0.57  0. 1.0000     0. 
   0   0 -12    865.58   24.48  0. 1.0000     0. 
  -5   1  12     65.38    2.97  0. 1.0000     0. 
   5   1 -12     62.65    2.73  0. 1.0000     0. 
  -4   1  12    100.55    3.58  0. 1.0000     0. 
  -3  -1  12   1197.31   33.27  0. 1.0000     0. 
   3  -1 -12   1275.69   37.54  0. 1.0000     0. 
  -3   1  12   1209.65   34.32  0. 1.0000     0. 
   3   1 -12   1164.42   34.56  0. 1.0000     0. 
   3   1 -12   1236.28   33.09  0. 1.0000     0. 
  -2  -1  12    489.17   13.48  0. 1.0000     0. 
   2  -1 -12    498.22   15.39  0. 1.0000     0. 
   2  -1 -12    491.81   16.05  0. 1.0000     0. 
  -2   1  12    471.19   14.82  0. 1.0000     0. 
   2   1 -12    495.26   14.34  0. 1.0000     0. 
   2   1 -12    496.09   14.26  0. 1.0000     0. 
  -2   1  12    484.01   13.71  0. 1.0000     0. 
   1  -1 -12     26.55    1.85  0. 1.0000     0. 
   1  -1 -12     25.98    1.46  0. 1.0000     0. 
  -1  -1  12     25.45    1.41  0. 1.0000     0. 
  -1  -1  12     23.01    2.41  0. 1.0000     0. 
   1   1 -12     28.22    1.75  0. 1.0000     0. 
   1   1 -12     24.23    1.99  0. 1.0000     0. 
  -1   1  12     27.81    2.47  0. 1.0000     0. 
  -1   1  12     25.29    1.43  0. 1.0000     0. 
  -1  -1 -12     20.66    1.40  0. 1.0000     0. 
   1  -1  12     13.51    3.22  0. 1.0000     0. 
  -1   1 -12     19.28    2.26  0. 1.0000     0. 
   1   1  12     22.59    1.27  0. 1.0000     0. 
  -2   1 -12    345.72   11.28  0. 1.0000     0. 
  -6   2  12      1.91    1.47  0. 1.0000     0. 
   5   2 -12     12.02    1.74  0. 1.0000     0. 
  -5   2  12     14.25    1.94  0. 1.0000     0. 
   4  -2 -12     21.44    1.76  0. 1.0000     0. 
  -4  -2  12     18.68    1.42  0. 1.0000     0. 
   4   2 -12     16.08    1.98  0. 1.0000     0. 
  -4   2  12     18.52    1.60  0. 1.0000     0. 
  -3  -2  12    345.62    9.83  0. 1.0000     0. 
   3  -2 -12    332.52   11.84  0. 1.0000     0. 
   3   2 -12    350.51   10.77  0. 1.0000     0. 
  -3   2  12    346.35   10.10  0. 1.0000     0. 
  -2   2  12     83.03    3.16  0. 1.0000     0. 
   2   2 -12     83.86    3.96  0. 1.0000     0. 
  -1  -2  12    344.27   10.08  0. 1.0000     0. 
   1  -2 -12    338.43   12.06  0. 1.0000     0. 
  -1   2  12    359.66   10.10  0. 1.0000     0. 
   1   2 -12    347.58   11.37  0. 1.0000     0. 
   0  -2 -12      5.29    1.66  0. 1.0000     0. 
   0  -2  12      8.46    1.18  0. 1.0000     0. 
   0   2  12      4.42    0.95  0. 1.0000     0. 
   0   2 -12      5.92    1.68  0. 1.0000     0. 
  -1  -2 -12    450.92   14.44  0. 1.0000     0. 
  -1   2 -12    446.95   13.81  0. 1.0000     0. 
   2  -2  12      7.05    2.49  0. 1.0000     0. 
   6  -3 -12     -0.18    1.23  0. 1.0000     0. 
  -6   3  12      0.61    1.86  0. 1.0000     0. 
   5  -3 -12     14.54    1.74  0. 1.0000     0. 
  -5  -3  12     13.82    1.45  0. 1.0000     0. 
  -5   3  12     12.95    1.65  0. 1.0000     0. 
  -5   3  12     11.00    2.33  0. 1.0000     0. 
   5   3 -12     11.94    1.92  0. 1.0000     0. 
   5   3 -12      9.51    1.88  0. 1.0000     0. 
  -4  -3  12      1.64    1.12  0. 1.0000     0. 
   4  -3 -12      3.91    1.36  0. 1.0000     0. 
   4   3 -12      0.70    1.68  0. 1.0000     0. 
   4   3 -12      1.40    1.55  0. 1.0000     0. 
  -4   3  12      1.40    1.24  0. 1.0000     0. 
  -4   3  12      0.88    1.90  0. 1.0000     0. 
   3  -3 -12      0.43    1.15  0. 1.0000     0. 
  -3  -3  12     -0.24    1.64  0. 1.0000     0. 
  -3  -3  12      0.09    1.24  0. 1.0000     0. 
   3  -3 -12      0.20    1.38  0. 1.0000     0. 
  -3   3  12     -1.03    1.32  0. 1.0000     0. 
   3   3 -12      0.47    1.55  0. 1.0000     0. 
  -3   3  12      2.51    2.28  0. 1.0000     0. 
   3   3 -12     -1.54    1.78  0. 1.0000     0. 
  -1  -3  12     -0.82    2.07  0. 1.0000     0. 
   1  -3 -12      0.84    1.16  0. 1.0000     0. 
  -1  -3  12     -0.10    1.24  0. 1.0000     0. 
   1  -3 -12     -0.75    1.50  0. 1.0000     0. 
  -1   3  12     -1.09    1.25  0. 1.0000     0. 
   1   3 -12     -0.13    1.86  0. 1.0000     0. 
   1   3 -12     -0.11    1.57  0. 1.0000     0. 
   0  -3  12      1.32    2.04  0. 1.0000     0. 
   0  -3 -12      4.36    1.21  0. 1.0000     0. 
   0  -3  12      3.75    1.12  0. 1.0000     0. 
   0  -3 -12      2.51    1.76  0. 1.0000     0. 
   0   3 -12      2.52    1.61  0. 1.0000     0. 
   0   3 -12      2.73    1.95  0. 1.0000     0. 
   0   3  12      2.69    2.48  0. 1.0000     0. 
   0   3  12      3.10    1.22  0. 1.0000     0. 
  -1  -3 -12     13.55    1.39  0. 1.0000     0. 
   1  -3  12     11.68    1.46  0. 1.0000     0. 
  -1  -3 -12     10.45    2.16  0. 1.0000     0. 
   1  -3  12      8.93    2.29  0. 1.0000     0. 
   1   3  12     13.51    2.79  0. 1.0000     0. 
   1   3  12     14.63    1.39  0. 1.0000     0. 
  -1   3 -12     14.90    2.00  0. 1.0000     0. 
  -1   3 -12     10.80    2.08  0. 1.0000     0. 
   6  -4 -12      4.94    1.52  0. 1.0000     0. 
   5   4 -12      0.69    2.00  0. 1.0000     0. 
  -5   4  12     -0.70    2.33  0. 1.0000     0. 
   4  -4 -12     -0.56    1.55  0. 1.0000     0. 
   4  -4 -12     -0.20    1.38  0. 1.0000     0. 
  -4  -4  12      1.22    1.47  0. 1.0000     0. 
  -4   4  12      1.39    1.65  0. 1.0000     0. 
   4   4 -12     -1.64    1.93  0. 1.0000     0. 
   4   4 -12     -0.69    1.93  0. 1.0000     0. 
  -4   4  12      0.55    2.46  0. 1.0000     0. 
   3  -4 -12      2.26    1.61  0. 1.0000     0. 
   3  -4 -12      0.87    1.28  0. 1.0000     0. 
  -3  -4  12      3.27    2.56  0. 1.0000     0. 
  -3  -4  12      0.53    1.31  0. 1.0000     0. 
   3   4 -12      0.26    1.77  0. 1.0000     0. 
  -3   4  12      2.79    1.50  0. 1.0000     0. 
   3   4 -12      0.76    1.88  0. 1.0000     0. 
  -3   4  12     -0.83    2.79  0. 1.0000     0. 
  -2  -4  12      5.46    2.68  0. 1.0000     0. 
   2  -4 -12      3.78    1.75  0. 1.0000     0. 
   2  -4 -12      3.87    1.41  0. 1.0000     0. 
  -2  -4  12      7.69    1.50  0. 1.0000     0. 
   2   4 -12      6.71    2.06  0. 1.0000     0. 
   2   4 -12      5.17    2.19  0. 1.0000     0. 
  -2   4  12      2.83    2.52  0. 1.0000     0. 
  -2   4  12      7.16    1.52  0. 1.0000     0. 
  -1  -4  12      6.51    2.70  0. 1.0000     0. 
  -1  -4  12      5.55    1.40  0. 1.0000     0. 
   1  -4 -12      3.09    1.35  0. 1.0000     0. 
   1  -4 -12      6.54    1.94  0. 1.0000     0. 
  -1   4  12      3.00    2.33  0. 1.0000     0. 
   1   4 -12      5.18    2.06  0. 1.0000     0. 
   1   4 -12      4.43    1.90  0. 1.0000     0. 
  -1   4  12      3.66    1.43  0. 1.0000     0. 
   0  -4  12     33.10    3.80  0. 1.0000     0. 
   0  -4  12     29.41    2.11  0. 1.0000     0. 
   0  -4 -12     22.89    2.68  0. 1.0000     0. 
   0  -4 -12     30.16    2.11  0. 1.0000     0. 
   0   4 -12     30.03    2.90  0. 1.0000     0. 
   0   4  12     30.32    4.34  0. 1.0000     0. 
   0   4 -12     28.67    3.00  0. 1.0000     0. 
   0   4  12     24.10    2.02  0. 1.0000     0. 
   1  -4  12     -0.32    1.35  0. 1.0000     0. 
  -1  -4 -12      1.84    1.94  0. 1.0000     0. 
  -1  -4 -12      1.30    1.27  0. 1.0000     0. 
   1  -4  12     -0.19    2.14  0. 1.0000     0. 
  -1   4 -12     -0.72    1.95  0. 1.0000     0. 
  -1   4 -12     -1.22    1.65  0. 1.0000     0. 
   1   4  12      0.21    1.31  0. 1.0000     0. 
   1   4  12     -0.50    2.55  0. 1.0000     0. 
  -6   1  13      0.17    1.06  0. 1.0000     0. 
   4  -1 -13      6.14    1.18  0. 1.0000     0. 
  -4  -1  13      6.67    0.98  0. 1.0000     0. 
  -4   1  13      5.10    1.03  0. 1.0000     0. 
   4   1 -13      5.75    1.38  0. 1.0000     0. 
   4   1 -13      5.69    1.26  0. 1.0000     0. 
  -4   1  13      5.59    1.38  0. 1.0000     0. 
  -3  -1  13      3.48    0.93  0. 1.0000     0. 
   3  -1 -13      3.39    1.16  0. 1.0000     0. 
   3   1 -13      4.05    1.21  0. 1.0000     0. 
  -3   1  13      3.32    0.96  0. 1.0000     0. 
  -3   1  13      2.62    1.32  0. 1.0000     0. 
   3   1 -13      1.34    1.26  0. 1.0000     0. 
  -2  -1  13     16.07    1.16  0. 1.0000     0. 
   2  -1 -13     16.96    1.49  0. 1.0000     0. 
   2  -1 -13     13.46    1.23  0. 1.0000     0. 
  -2  -1  13     14.61    2.11  0. 1.0000     0. 
  -2   1  13     16.59    2.18  0. 1.0000     0. 
  -2   1  13     17.07    1.25  0. 1.0000     0. 
   2   1 -13     19.84    1.56  0. 1.0000     0. 
   2   1 -13     18.62    1.72  0. 1.0000     0. 
   1  -1 -13      6.52    1.33  0. 1.0000     0. 
  -1  -1  13      6.16    0.89  0. 1.0000     0. 
   1  -1 -13      5.55    0.99  0. 1.0000     0. 
  -1  -1  13      4.24    1.66  0. 1.0000     0. 
  -1   1  13      5.71    1.72  0. 1.0000     0. 
   1   1 -13      4.89    1.20  0. 1.0000     0. 
   1   1 -13      5.08    1.44  0. 1.0000     0. 
  -1   1  13      3.75    0.85  0. 1.0000     0. 
   0  -1 -13     75.73    3.21  0. 1.0000     0. 
   0  -1  13     85.83    4.68  0. 1.0000     0. 
   0   1 -13     81.52    3.34  0. 1.0000     0. 
   0   1 -13     82.85    3.87  0. 1.0000     0. 
   0   1  13     82.13    4.64  0. 1.0000     0. 
   0   1  13     82.59    2.90  0. 1.0000     0. 
   6  -2 -13     -0.08    0.17  0. 1.0000     0. 
  -6   2  13      5.04    1.57  0. 1.0000     0. 
   6   2 -13     -0.49    1.30  0. 1.0000     0. 
   5  -2 -13     68.69    3.44  0. 1.0000     0. 
  -5   2  13     74.16    3.32  0. 1.0000     0. 
   5   2 -13     72.15    3.51  0. 1.0000     0. 
  -5   2  13     75.36    3.80  0. 1.0000     0. 
  -4   2  13     77.70    4.26  0. 1.0000     0. 
  -3  -2  13     11.37    1.30  0. 1.0000     0. 
   3  -2 -13     10.03    1.26  0. 1.0000     0. 
   3   2 -13      8.71    1.79  0. 1.0000     0. 
  -3   2  13      9.83    2.03  0. 1.0000     0. 
   3   2 -13      9.79    1.67  0. 1.0000     0. 
  -2  -2  13      1.45    0.92  0. 1.0000     0. 
   2  -2 -13      0.59    0.98  0. 1.0000     0. 
  -2   2  13     -1.36    2.04  0. 1.0000     0. 
   2   2 -13      1.82    1.50  0. 1.0000     0. 
  -1  -2  13    107.60    5.67  0. 1.0000     0. 
   1  -2 -13    100.08    4.11  0. 1.0000     0. 
   1   2 -13    106.43    4.80  0. 1.0000     0. 
   1   2 -13    101.28    4.36  0. 1.0000     0. 
   0  -2  13      7.40    2.16  0. 1.0000     0. 
   0  -2 -13     11.70    1.30  0. 1.0000     0. 
   0   2 -13     10.48    1.91  0. 1.0000     0. 
   0   2  13      9.61    2.67  0. 1.0000     0. 
   1   2  13    177.95    5.65  0. 1.0000     0. 
  -1   2 -13    177.74    6.53  0. 1.0000     0. 
  -2   2 -13     15.00    2.61  0. 1.0000     0. 
   6  -3 -13     14.37    1.56  0. 1.0000     0. 
  -6   3  13     11.90    2.30  0. 1.0000     0. 
   6   3 -13      2.17    1.88  0. 1.0000     0. 
   5  -3 -13     74.21    3.47  0. 1.0000     0. 
  -5  -3  13     70.30    3.00  0. 1.0000     0. 
  -5   3  13     66.56    3.30  0. 1.0000     0. 
   5   3 -13     70.66    3.92  0. 1.0000     0. 
  -5   3  13     73.37    4.47  0. 1.0000     0. 
   5   3 -13     74.49    3.79  0. 1.0000     0. 
  -3  -3  13     88.90    5.49  0. 1.0000     0. 
   3  -3 -13     87.44    4.21  0. 1.0000     0. 
   3  -3 -13     85.24    3.73  0. 1.0000     0. 
  -3  -3  13     89.25    3.43  0. 1.0000     0. 
   3   3 -13     87.30    4.39  0. 1.0000     0. 
  -3   3  13     93.72    5.02  0. 1.0000     0. 
  -3   3  13     94.29    3.66  0. 1.0000     0. 
   3   3 -13     91.31    4.48  0. 1.0000     0. 
   2  -3 -13    113.23    4.84  0. 1.0000     0. 
   2  -3 -13    119.31    4.49  0. 1.0000     0. 
  -2  -3  13    110.10    3.96  0. 1.0000     0. 
  -2  -3  13    105.01    6.33  0. 1.0000     0. 
  -2   3  13    112.13    4.14  0. 1.0000     0. 
   2   3 -13    104.16    5.10  0. 1.0000     0. 
  -2   3  13    115.33    5.80  0. 1.0000     0. 
   2   3 -13    101.95    4.95  0. 1.0000     0. 
  -1  -3  13     47.61    3.99  0. 1.0000     0. 
   1  -3 -13     40.51    2.48  0. 1.0000     0. 
  -1  -3  13     43.16    2.33  0. 1.0000     0. 
   1  -3 -13     48.44    3.00  0. 1.0000     0. 
   1   3 -13     44.34    3.04  0. 1.0000     0. 
   1   3 -13     48.43    3.27  0. 1.0000     0. 
  -1   3  13     46.30    2.44  0. 1.0000     0. 
  -1   3  13     46.12    4.01  0. 1.0000     0. 
  -1  -3 -13      4.59    2.03  0. 1.0000     0. 
   1  -3  13      0.91    2.16  0. 1.0000     0. 
  -1  -3 -13      2.14    1.09  0. 1.0000     0. 
   1  -3  13      1.81    1.14  0. 1.0000     0. 
  -1   3 -13      3.24    1.93  0. 1.0000     0. 
   1   3  13      2.38    1.01  0. 1.0000     0. 
   1   3  13      3.02    2.46  0. 1.0000     0. 
  -1   3 -13      3.47    1.95  0. 1.0000     0. 
   2  -3  13      3.59    2.69  0. 1.0000     0. 
   2   3  13      0.09    1.02  0. 1.0000     0. 
  -2   3 -13      3.22    1.92  0. 1.0000     0. 
   6  -4 -13      8.58    1.59  0. 1.0000     0. 
   5  -4 -13     12.83    1.94  0. 1.0000     0. 
  -5  -4  13     10.91    1.61  0. 1.0000     0. 
   5   4 -13     18.10    2.34  0. 1.0000     0. 
  -5   4  13      8.84    1.92  0. 1.0000     0. 
   2  -4 -13     -0.57    1.30  0. 1.0000     0. 
  -2   4  13      2.87    2.80  0. 1.0000     0. 
  -2   4  13      0.33    1.51  0. 1.0000     0. 
  -1  -4 -13     25.35    2.87  0. 1.0000     0. 
   1  -4  13     23.62    2.05  0. 1.0000     0. 
   1   4  13     25.92    2.05  0. 1.0000     0. 
  -1   4 -13     27.51    3.01  0. 1.0000     0. 
  -2  -4 -13      0.94    2.05  0. 1.0000     0. 
  -2   4 -13     -0.15    1.98  0. 1.0000     0. 
   5  -1 -14     38.66    2.03  0. 1.0000     0. 
   5   1 -14     33.65    2.22  0. 1.0000     0. 
  -5   1  14     34.36    2.33  0. 1.0000     0. 
  -4  -1  14    448.46   11.82  0. 1.0000     0. 
   4  -1 -14    412.35   13.45  0. 1.0000     0. 
  -4   1  14    425.00   12.82  0. 1.0000     0. 
  -4   1  14    396.17   12.25  0. 1.0000     0. 
   4   1 -14    393.87   13.13  0. 1.0000     0. 
   4   1 -14    426.32   12.67  0. 1.0000     0. 
  -1  -1  14    679.87   18.42  0. 1.0000     0. 
   1  -1 -14    694.84   22.17  0. 1.0000     0. 
   1  -1 -14    622.84   21.15  0. 1.0000     0. 
   1   1 -14    679.15   19.83  0. 1.0000     0. 
  -1   1  14    710.62   20.42  0. 1.0000     0. 
   1   1 -14    671.65   19.14  0. 1.0000     0. 
   0  -1  14     57.00    3.93  0. 1.0000     0. 
   0  -1  14     52.62    2.17  0. 1.0000     0. 
   0  -1 -14     52.34    2.38  0. 1.0000     0. 
   0   1  14     48.68    2.20  0. 1.0000     0. 
   0   1 -14     49.48    3.11  0. 1.0000     0. 
   0   1  14     55.16    4.01  0. 1.0000     0. 
   0   1 -14     53.64    2.81  0. 1.0000     0. 
  -1   1 -14     17.79    2.28  0. 1.0000     0. 
   1   1  14     18.49    1.27  0. 1.0000     0. 
  -5   2  14    232.55    8.59  0. 1.0000     0. 
   5   2 -14    236.02    7.83  0. 1.0000     0. 
  -5   2  14    228.93    7.66  0. 1.0000     0. 
   4  -2 -14      4.77    1.32  0. 1.0000     0. 
  -4  -2  14      3.28    1.07  0. 1.0000     0. 
   4   2 -14      4.67    1.46  0. 1.0000     0. 
  -4   2  14      5.02    1.33  0. 1.0000     0. 
  -4   2  14      4.32    1.88  0. 1.0000     0. 
   4   2 -14      3.76    1.67  0. 1.0000     0. 
   3  -2 -14     31.33    2.22  0. 1.0000     0. 
   3  -2 -14     25.49    1.81  0. 1.0000     0. 
  -3  -2  14     27.89    2.95  0. 1.0000     0. 
  -3   2  14     31.84    2.93  0. 1.0000     0. 
  -3   2  14     30.96    1.85  0. 1.0000     0. 
   3   2 -14     27.72    2.35  0. 1.0000     0. 
   2  -2 -14     69.79    3.05  0. 1.0000     0. 
  -2  -2  14     63.57    4.35  0. 1.0000     0. 
   2   2 -14     69.55    3.46  0. 1.0000     0. 
  -2   2  14     67.42    4.14  0. 1.0000     0. 
  -1  -2  14      0.29    1.77  0. 1.0000     0. 
   1  -2 -14     -0.88    1.09  0. 1.0000     0. 
   1  -2 -14     -0.71    1.42  0. 1.0000     0. 
  -1   2  14      0.81    0.97  0. 1.0000     0. 
   1   2 -14     -0.59    1.47  0. 1.0000     0. 
  -1   2  14      0.16    1.89  0. 1.0000     0. 
   0  -2  14      3.11    1.99  0. 1.0000     0. 
   0  -2  14      4.29    1.21  0. 1.0000     0. 
   0  -2 -14      3.56    1.14  0. 1.0000     0. 
   0  -2 -14      3.66    1.77  0. 1.0000     0. 
   0   2  14      4.71    1.03  0. 1.0000     0. 
   0   2 -14      1.77    1.76  0. 1.0000     0. 
   0   2 -14      6.23    1.83  0. 1.0000     0. 
   0   2  14      2.97    2.34  0. 1.0000     0. 
  -2   2 -14      7.79    2.18  0. 1.0000     0. 
  -6  -3  14     12.08    1.64  0. 1.0000     0. 
   6  -3 -14     20.97    1.93  0. 1.0000     0. 
  -6   3  14     22.28    2.83  0. 1.0000     0. 
   6   3 -14     19.55    2.26  0. 1.0000     0. 
  -4  -3  14      0.58    1.15  0. 1.0000     0. 
   4  -3 -14     -0.10    1.36  0. 1.0000     0. 
   4  -3 -14     -0.18    1.17  0. 1.0000     0. 
   4   3 -14      0.35    1.72  0. 1.0000     0. 
   4   3 -14     -1.69    1.73  0. 1.0000     0. 
  -4   3  14      3.01    2.30  0. 1.0000     0. 
  -4   3  14     -1.26    1.38  0. 1.0000     0. 
   3  -3 -14      0.75    1.51  0. 1.0000     0. 
   3  -3 -14     -0.44    1.15  0. 1.0000     0. 
  -3  -3  14      0.45    2.17  0. 1.0000     0. 
  -3  -3  14      0.29    1.17  0. 1.0000     0. 
  -3   3  14     -0.11    1.26  0. 1.0000     0. 
   3   3 -14     -0.82    1.74  0. 1.0000     0. 
  -3   3  14      0.17    2.18  0. 1.0000     0. 
   3   3 -14      1.70    1.64  0. 1.0000     0. 
  -2  -3  14     13.89    1.49  0. 1.0000     0. 
   2  -3 -14     19.62    1.68  0. 1.0000     0. 
   2  -3 -14     12.02    1.86  0. 1.0000     0. 
  -2  -3  14     16.42    2.96  0. 1.0000     0. 
   2   3 -14     15.80    2.36  0. 1.0000     0. 
   2   3 -14     14.54    2.20  0. 1.0000     0. 
  -2   3  14     16.66    2.87  0. 1.0000     0. 
  -2   3  14     13.91    1.63  0. 1.0000     0. 
   1  -3 -14      0.36    1.17  0. 1.0000     0. 
  -1  -3  14      0.89    1.24  0. 1.0000     0. 
   1  -3 -14      1.43    1.72  0. 1.0000     0. 
  -1  -3  14      1.18    2.08  0. 1.0000     0. 
  -1   3  14     -1.13    1.25  0. 1.0000     0. 
  -1   3  14      1.16    2.36  0. 1.0000     0. 
   1   3 -14      0.23    1.75  0. 1.0000     0. 
   1   3 -14      0.82    1.92  0. 1.0000     0. 
   0  -3 -14     19.57    1.75  0. 1.0000     0. 
   0  -3 -14     14.73    2.25  0. 1.0000     0. 
   0  -3  14     20.33    1.66  0. 1.0000     0. 
   0  -3  14     17.28    3.15  0. 1.0000     0. 
   0   3 -14     19.73    2.25  0. 1.0000     0. 
   0   3  14     17.63    3.48  0. 1.0000     0. 
   0   3  14     16.91    1.59  0. 1.0000     0. 
   0   3 -14     22.88    2.57  0. 1.0000     0. 
   2  -3  14      0.46    2.44  0. 1.0000     0. 
   2  -3  14      2.36    1.27  0. 1.0000     0. 
  -2   3 -14      2.85    2.06  0. 1.0000     0. 
  -4  -4  14      1.11    1.36  0. 1.0000     0. 
   4  -4 -14     -0.94    1.59  0. 1.0000     0. 
  -4   4  14     -1.69    1.64  0. 1.0000     0. 
   4   4 -14      0.14    1.97  0. 1.0000     0. 
   3  -4 -14      1.93    1.60  0. 1.0000     0. 
  -3  -4  14      3.40    1.48  0. 1.0000     0. 
   3   4 -14      3.59    2.03  0. 1.0000     0. 
  -3   4  14      1.52    1.43  0. 1.0000     0. 
  -2  -4  14      1.20    1.47  0. 1.0000     0. 
   2  -4 -14      4.13    1.81  0. 1.0000     0. 
  -2   4  14      3.87    1.45  0. 1.0000     0. 
   2   4 -14      1.50    1.97  0. 1.0000     0. 
   1  -4 -14      1.89    1.80  0. 1.0000     0. 
  -1  -4  14      3.31    1.33  0. 1.0000     0. 
   1   4 -14      1.76    1.95  0. 1.0000     0. 
  -1   4  14      2.13    1.36  0. 1.0000     0. 
   0  -4  14      1.58    1.49  0. 1.0000     0. 
   0  -4 -14     -1.20    1.92  0. 1.0000     0. 
   0   4 -14      0.90    2.07  0. 1.0000     0. 
   0   4  14      0.12    1.43  0. 1.0000     0. 
   6   1 -15    303.11    9.68  0. 1.0000     0. 
   5  -1 -15    295.83    9.73  0. 1.0000     0. 
   5   1 -15    289.45    9.55  0. 1.0000     0. 
   4  -1 -15    153.11    5.64  0. 1.0000     0. 
  -4   1  15    152.43    5.12  0. 1.0000     0. 
  -4   1  15    154.48    6.09  0. 1.0000     0. 
   4   1 -15    150.48    5.58  0. 1.0000     0. 
   4   1 -15    153.57    5.84  0. 1.0000     0. 
   3  -1 -15     70.40    3.17  0. 1.0000     0. 
   3  -1 -15     73.08    3.54  0. 1.0000     0. 
  -3   1  15     75.37    3.00  0. 1.0000     0. 
  -3   1  15     78.22    3.90  0. 1.0000     0. 
   3   1 -15     72.06    3.75  0. 1.0000     0. 
   3   1 -15     79.09    3.32  0. 1.0000     0. 
   2  -1 -15    252.35    8.49  0. 1.0000     0. 
   2  -1 -15    253.07    8.87  0. 1.0000     0. 
   2   1 -15    259.78    8.21  0. 1.0000     0. 
  -2   1  15    251.65    7.63  0. 1.0000     0. 
  -2   1  15    253.62    9.31  0. 1.0000     0. 
   2   1 -15    257.34    8.47  0. 1.0000     0. 
   1  -1 -15     92.46    3.59  0. 1.0000     0. 
   1  -1 -15     84.31    4.00  0. 1.0000     0. 
   1   1 -15     90.64    3.97  0. 1.0000     0. 
   1   1 -15     89.73    4.10  0. 1.0000     0. 
  -1   1  15     90.40    3.22  0. 1.0000     0. 
  -1   1  15     86.03    5.17  0. 1.0000     0. 
   0  -1 -15      1.13    1.43  0. 1.0000     0. 
   0  -1 -15      0.78    0.90  0. 1.0000     0. 
   0   1  15      0.92    0.77  0. 1.0000     0. 
   0   1 -15      0.92    1.46  0. 1.0000     0. 
   1   1  15    106.82    3.68  0. 1.0000     0. 
  -1   1 -15    106.63    4.76  0. 1.0000     0. 
   6  -2 -15    221.51    7.91  0. 1.0000     0. 
   6   2 -15    220.55    7.89  0. 1.0000     0. 
  -6   2  15    219.24    8.08  0. 1.0000     0. 
  -5  -2  15     29.59    1.83  0. 1.0000     0. 
   5  -2 -15     26.54    2.10  0. 1.0000     0. 
  -5   2  15     33.74    2.92  0. 1.0000     0. 
   5   2 -15     28.02    2.48  0. 1.0000     0. 
   5   2 -15     21.37    2.27  0. 1.0000     0. 
  -5   2  15     27.45    2.06  0. 1.0000     0. 
   0  -2 -15    114.18    5.15  0. 1.0000     0. 
   0  -2  15    106.44    6.15  0. 1.0000     0. 
   0  -2 -15    108.44    4.20  0. 1.0000     0. 
   0  -2  15    107.68    3.85  0. 1.0000     0. 
   0   2  15     99.90    6.07  0. 1.0000     0. 
   0   2  15    107.89    3.84  0. 1.0000     0. 
   0   2 -15    107.11    4.90  0. 1.0000     0. 
   0   2 -15     98.05    4.63  0. 1.0000     0. 
   1  -2  15      9.31    2.64  0. 1.0000     0. 
  -1  -2 -15      8.33    1.27  0. 1.0000     0. 
   1  -2  15      9.43    1.32  0. 1.0000     0. 
   1   2  15     10.21    1.30  0. 1.0000     0. 
  -1   2 -15     10.10    2.23  0. 1.0000     0. 
  -6  -3  15     39.34    2.53  0. 1.0000     0. 
   6  -3 -15     43.01    2.69  0. 1.0000     0. 
  -6   3  15     44.27    3.51  0. 1.0000     0. 
   6   3 -15     38.98    3.03  0. 1.0000     0. 
  -5  -3  15      0.10    1.21  0. 1.0000     0. 
   5  -3 -15     -0.30    1.39  0. 1.0000     0. 
   5   3 -15     -1.69    1.94  0. 1.0000     0. 
  -5   3  15     -0.11    1.26  0. 1.0000     0. 
  -5   3  15      2.45    2.35  0. 1.0000     0. 
   5   3 -15      0.61    1.70  0. 1.0000     0. 
  -4  -3  15      3.10    1.23  0. 1.0000     0. 
   4  -3 -15      1.33    1.54  0. 1.0000     0. 
  -4   3  15      1.54    1.42  0. 1.0000     0. 
   4   3 -15      3.31    1.95  0. 1.0000     0. 
   0  -3 -15     12.30    2.28  0. 1.0000     0. 
   0  -3  15     11.55    2.67  0. 1.0000     0. 
   0  -3  15     15.19    1.64  0. 1.0000     0. 
   0  -3 -15     12.28    1.48  0. 1.0000     0. 
   0   3 -15     12.78    2.44  0. 1.0000     0. 
   0   3 -15     17.73    2.53  0. 1.0000     0. 
   0   3  15     11.11    1.47  0. 1.0000     0. 
   0   3  15     13.95    3.06  0. 1.0000     0. 
  -1  -3 -15     10.77    1.48  0. 1.0000     0. 
   1  -3  15      9.54    2.70  0. 1.0000     0. 
  -1  -3 -15     10.75    2.25  0. 1.0000     0. 
   1  -3  15      8.75    1.50  0. 1.0000     0. 
  -1   3 -15      6.81    2.15  0. 1.0000     0. 
   1   3  15     10.51    1.38  0. 1.0000     0. 
  -1   3 -15     11.04    2.16  0. 1.0000     0. 
   2  -3  15     17.12    1.71  0. 1.0000     0. 
   6  -2 -16     25.64    2.06  0. 1.0000     0. 
   6   2 -16     27.77    2.39  0. 1.0000     0. 
  -6   2  16     26.51    2.77  0. 1.0000     0. 
   4  -2 -16      2.81    1.44  0. 1.0000     0. 
  -4  -2  16      5.84    1.26  0. 1.0000     0. 
   4  -2 -16      3.80    1.26  0. 1.0000     0. 
  -4  -2  16      2.19    1.77  0. 1.0000     0. 
   4   2 -16      2.92    1.70  0. 1.0000     0. 
   4   2 -16      3.31    1.79  0. 1.0000     0. 
  -4   2  16      3.31    2.20  0. 1.0000     0. 
  -4   2  16      2.67    1.27  0. 1.0000     0. 
  -3  -2  16    529.69   20.07  0. 1.0000     0. 
  -3  -2  16    533.75   15.42  0. 1.0000     0. 
   3  -2 -16    544.92   18.25  0. 1.0000     0. 
   3  -2 -16    550.93   17.37  0. 1.0000     0. 
  -3   2  16    550.63   15.42  0. 1.0000     0. 
   3   2 -16    541.38   16.96  0. 1.0000     0. 
   3   2 -16    558.01   16.32  0. 1.0000     0. 
  -3   2  16    558.88   17.59  0. 1.0000     0. 
  -2  -2  16      0.30    2.12  0. 1.0000     0. 
   2  -2 -16      1.29    1.52  0. 1.0000     0. 
  -2  -2  16      0.95    1.08  0. 1.0000     0. 
   2  -2 -16     -0.81    1.14  0. 1.0000     0. 
  -2   2  16      2.11    2.38  0. 1.0000     0. 
   2   2 -16     -0.11    1.56  0. 1.0000     0. 
   2   2 -16     -0.46    1.62  0. 1.0000     0. 
  -2   2  16      0.56    1.11  0. 1.0000     0. 
   1  -2 -16     33.19    2.63  0. 1.0000     0. 
   1  -2 -16     33.26    2.04  0. 1.0000     0. 
  -1  -2  16     39.89    2.11  0. 1.0000     0. 
  -1  -2  16     29.02    3.30  0. 1.0000     0. 
  -1   2  16     33.65    1.94  0. 1.0000     0. 
   1   2 -16     36.21    2.96  0. 1.0000     0. 
  -1   2  16     38.56    3.78  0. 1.0000     0. 
   1   2 -16     30.15    2.59  0. 1.0000     0. 
  -1  -2 -16      5.44    1.08  0. 1.0000     0. 
   1  -2  16      2.60    3.28  0. 1.0000     0. 
   1  -2  16      5.37    1.25  0. 1.0000     0. 
  -1   2 -16      6.75    2.21  0. 1.0000     0. 
   1   2  16      2.96    1.04  0. 1.0000     0. 
  -6  -3  16     73.08    3.29  0. 1.0000     0. 
   6  -3 -16     68.56    3.62  0. 1.0000     0. 
  -6   3  16     75.06    4.53  0. 1.0000     0. 
   6   3 -16     65.90    3.84  0. 1.0000     0. 
   5  -3 -16     12.85    1.69  0. 1.0000     0. 
  -5  -3  16     18.10    1.79  0. 1.0000     0. 
   5  -3 -16     19.14    2.10  0. 1.0000     0. 
   5   3 -16     17.95    2.37  0. 1.0000     0. 
  -5   3  16     23.41    3.05  0. 1.0000     0. 
  -5   3  16     11.41    1.71  0. 1.0000     0. 
   5   3 -16     18.64    2.62  0. 1.0000     0. 
  -4  -3  16     62.79    2.75  0. 1.0000     0. 
  -4  -3  16     66.34    4.66  0. 1.0000     0. 
   4  -3 -16     62.12    3.09  0. 1.0000     0. 
   4  -3 -16     64.14    3.44  0. 1.0000     0. 
   4   3 -16     62.07    3.85  0. 1.0000     0. 
   4   3 -16     59.10    3.87  0. 1.0000     0. 
  -4   3  16     59.36    3.11  0. 1.0000     0. 
  -4   3  16     49.24    4.31  0. 1.0000     0. 
  -3  -3  16      3.13    2.61  0. 1.0000     0. 
   3  -3 -16      2.60    1.66  0. 1.0000     0. 
  -3  -3  16      5.26    1.35  0. 1.0000     0. 
   3  -3 -16      3.33    1.40  0. 1.0000     0. 
  -3   3  16      2.85    1.39  0. 1.0000     0. 
  -3   3  16      2.01    2.45  0. 1.0000     0. 
   3   3 -16      2.05    1.82  0. 1.0000     0. 
   3   3 -16      4.51    1.98  0. 1.0000     0. 
  -2  -3  16    151.33    5.09  0. 1.0000     0. 
   2  -3 -16    150.25    6.21  0. 1.0000     0. 
   2  -3 -16    152.05    5.83  0. 1.0000     0. 
  -2  -3  16    149.61    7.71  0. 1.0000     0. 
  -2   3  16    137.16    5.40  0. 1.0000     0. 
   2   3 -16    148.06    6.30  0. 1.0000     0. 
   2   3 -16    160.81    6.00  0. 1.0000     0. 
  -2   3  16    150.16    7.48  0. 1.0000     0. 
  -1  -3  16     47.82    4.44  0. 1.0000     0. 
   1  -3 -16     51.88    2.81  0. 1.0000     0. 
  -1  -3  16     56.33    2.76  0. 1.0000     0. 
   1  -3 -16     52.43    3.60  0. 1.0000     0. 
  -1   3  16     53.77    2.70  0. 1.0000     0. 
   1   3 -16     58.49    3.53  0. 1.0000     0. 
   1   3 -16     56.84    3.70  0. 1.0000     0. 
  -1   3  16     55.89    4.84  0. 1.0000     0. 
   0  -3 -16      3.49    1.30  0. 1.0000     0. 
   0  -3 -16      8.35    2.23  0. 1.0000     0. 
   0  -3  16      3.32    1.82  0. 1.0000     0. 
   0  -3  16      3.84    2.44  0. 1.0000     0. 
   0   3  16      6.95    1.48  0. 1.0000     0. 
   0   3  16      1.88    2.51  0. 1.0000     0. 
   0   3 -16      3.89    2.08  0. 1.0000     0. 
   0   3 -16      3.12    2.14  0. 1.0000     0. 
   1  -3  16     77.15    3.33  0. 1.0000     0. 
   1  -3  16     81.98    5.46  0. 1.0000     0. 
  -1  -3 -16     81.94    3.51  0. 1.0000     0. 
  -1  -3 -16     64.30    4.30  0. 1.0000     0. 
   1   3  16     75.05    3.20  0. 1.0000     0. 
  -1   3 -16     78.39    4.38  0. 1.0000     0. 
  -7   2  17      2.58    1.84  0. 1.0000     0. 
  -5  -2  17     51.38    2.52  0. 1.0000     0. 
   5  -2 -17     52.96    2.96  0. 1.0000     0. 
  -5   2  17     54.85    3.73  0. 1.0000     0. 
  -5   2  17     50.45    2.82  0. 1.0000     0. 
   5   2 -17     59.02    3.40  0. 1.0000     0. 
   5   2 -17     53.15    3.34  0. 1.0000     0. 
   4  -2 -17     35.34    2.22  0. 1.0000     0. 
  -4  -2  17     34.64    3.41  0. 1.0000     0. 
  -4  -2  17     36.65    2.05  0. 1.0000     0. 
   4  -2 -17     34.34    2.44  0. 1.0000     0. 
   4   2 -17     36.25    2.82  0. 1.0000     0. 
   4   2 -17     41.12    2.95  0. 1.0000     0. 
  -4   2  17     37.91    3.29  0. 1.0000     0. 
  -4   2  17     38.32    2.35  0. 1.0000     0. 
   3  -2 -17     44.45    2.65  0. 1.0000     0. 
   3  -2 -17     57.99    3.14  0. 1.0000     0. 
  -3  -2  17     53.07    2.45  0. 1.0000     0. 
  -3  -2  17     55.83    4.21  0. 1.0000     0. 
  -3   2  17     56.78    3.94  0. 1.0000     0. 
  -3   2  17     48.26    2.60  0. 1.0000     0. 
   3   2 -17     53.07    3.30  0. 1.0000     0. 
   3   2 -17     52.39    3.30  0. 1.0000     0. 
  -2  -2  17     23.38    3.07  0. 1.0000     0. 
   2  -2 -17     20.18    1.74  0. 1.0000     0. 
   2  -2 -17     20.42    2.08  0. 1.0000     0. 
  -2  -2  17     16.43    1.52  0. 1.0000     0. 
  -2   2  17     17.93    1.70  0. 1.0000     0. 
   2   2 -17     19.85    2.33  0. 1.0000     0. 
  -2   2  17     17.21    2.87  0. 1.0000     0. 
   2   2 -17     19.50    2.23  0. 1.0000     0. 
  -1  -2  17      4.13    1.25  0. 1.0000     0. 
   1  -2 -17      0.11    1.65  0. 1.0000     0. 
  -1  -2  17      1.62    2.23  0. 1.0000     0. 
   1  -2 -17      4.45    1.29  0. 1.0000     0. 
   1   2 -17      2.03    1.62  0. 1.0000     0. 
  -1   2  17      0.24    2.56  0. 1.0000     0. 
   1   2 -17      5.46    1.90  0. 1.0000     0. 
  -1   2  17      1.69    1.22  0. 1.0000     0. 
  -1  -2 -17     49.37    3.48  0. 1.0000     0. 
   1  -2  17     51.56    2.58  0. 1.0000     0. 
   1   2  17     52.30    2.40  0. 1.0000     0. 
  -1   2 -17     51.03    3.52  0. 1.0000     0. 
  -6  -3  17     49.20    2.74  0. 1.0000     0. 
   6  -3 -17     48.77    3.09  0. 1.0000     0. 
   6   3 -17     53.33    3.66  0. 1.0000     0. 
  -6   3  17     49.88    4.11  0. 1.0000     0. 
   4  -3 -17     40.60    2.50  0. 1.0000     0. 
  -4  -3  17     38.01    3.93  0. 1.0000     0. 
   4  -3 -17     44.80    2.86  0. 1.0000     0. 
  -4  -3  17     43.16    2.30  0. 1.0000     0. 
   4   3 -17     44.86    3.12  0. 1.0000     0. 
  -4   3  17     42.94    4.19  0. 1.0000     0. 
  -4   3  17     40.90    2.62  0. 1.0000     0. 
   4   3 -17     38.07    3.13  0. 1.0000     0. 
  -3  -3  17      0.18    2.64  0. 1.0000     0. 
   3  -3 -17      1.84    1.35  0. 1.0000     0. 
  -3  -3  17      1.66    1.38  0. 1.0000     0. 
   3  -3 -17      1.65    1.69  0. 1.0000     0. 
  -3   3  17      5.26    1.64  0. 1.0000     0. 
   3   3 -17      4.52    2.10  0. 1.0000     0. 
  -3   3  17     -0.97    2.58  0. 1.0000     0. 
   3   3 -17      3.82    1.99  0. 1.0000     0. 
  -2  -3  17     76.60    5.49  0. 1.0000     0. 
  -2  -3  17     82.26    3.35  0. 1.0000     0. 
   2  -3 -17     84.59    4.23  0. 1.0000     0. 
   2  -3 -17     82.60    3.72  0. 1.0000     0. 
  -2   3  17     87.15    5.39  0. 1.0000     0. 
   2   3 -17     84.54    4.44  0. 1.0000     0. 
  -2   3  17     79.61    3.61  0. 1.0000     0. 
   2   3 -17     83.68    4.29  0. 1.0000     0. 
   1  -3 -17     40.62    2.56  0. 1.0000     0. 
   1   3 -17     46.34    3.47  0. 1.0000     0. 
  -1   3  17     43.71    4.96  0. 1.0000     0. 
  -1  -3 -17      5.61    2.11  0. 1.0000     0. 
  -1  -3 -17      6.41    1.33  0. 1.0000     0. 
   1  -3  17      3.99    3.16  0. 1.0000     0. 
   1  -3  17      6.47    1.56  0. 1.0000     0. 
   1   3  17      5.53    1.31  0. 1.0000     0. 
  -1   3 -17      3.57    2.14  0. 1.0000     0. 
  -7   2  18     51.32    3.66  0. 1.0000     0. 
   6  -2 -18     95.79    4.19  0. 1.0000     0. 
  -6   2  18     92.77    5.16  0. 1.0000     0. 
   5  -2 -18      0.20    1.32  0. 1.0000     0. 
   5  -2 -18      2.03    1.49  0. 1.0000     0. 
  -5   2  18     -0.12    1.46  0. 1.0000     0. 
   5   2 -18      0.12    1.63  0. 1.0000     0. 
  -5   2  18      0.48    2.22  0. 1.0000     0. 
   4  -2 -18      1.45    1.45  0. 1.0000     0. 
   4  -2 -18      1.96    1.24  0. 1.0000     0. 
  -4   2  18      4.11    1.42  0. 1.0000     0. 
  -4   2  18      0.34    2.28  0. 1.0000     0. 
   4   2 -18      3.68    1.83  0. 1.0000     0. 
   3  -2 -18     -0.82    1.20  0. 1.0000     0. 
   3  -2 -18      0.84    1.59  0. 1.0000     0. 
  -3   2  18     -0.98    1.36  0. 1.0000     0. 
  -3   2  18     -2.87    2.31  0. 1.0000     0. 
   3   2 -18      0.35    1.86  0. 1.0000     0. 
   2  -2 -18      4.30    1.38  0. 1.0000     0. 
   2  -2 -18      3.88    1.62  0. 1.0000     0. 
   2   2 -18      4.30    1.73  0. 1.0000     0. 
  -2   2  18      6.07    2.58  0. 1.0000     0. 
   2   2 -18      6.61    2.12  0. 1.0000     0. 
  -2   2  18      3.82    1.38  0. 1.0000     0. 
   1  -2 -18      0.81    1.19  0. 1.0000     0. 
   1  -2 -18      1.63    1.66  0. 1.0000     0. 
  -1   2  18      2.01    2.58  0. 1.0000     0. 
  -1   2  18      0.61    1.25  0. 1.0000     0. 
   1   2 -18      1.04    1.88  0. 1.0000     0. 
   1   2 -18      0.37    1.73  0. 1.0000     0. 
   0  -2 -18     22.40    2.54  0. 1.0000     0. 
   0  -2 -18     20.59    1.80  0. 1.0000     0. 
   0   2  18     20.96    1.70  0. 1.0000     0. 
   0   2 -18     18.25    2.56  0. 1.0000     0. 
  -1  -2 -18      2.28    2.08  0. 1.0000     0. 
   1   2  18     -0.17    1.05  0. 1.0000     0. 
  -6  -3  18     23.49    2.13  0. 1.0000     0. 
   6  -3 -18     27.88    2.53  0. 1.0000     0. 
   5  -3 -18     -3.14    1.69  0. 1.0000     0. 
  -5  -3  18     -1.12    1.41  0. 1.0000     0. 
  -5  -3  18     -2.50    2.34  0. 1.0000     0. 
   5  -3 -18      1.08    1.45  0. 1.0000     0. 
   5   3 -18     -1.26    2.09  0. 1.0000     0. 
   5   3 -18      1.16    1.89  0. 1.0000     0. 
  -5   3  18     -1.75    2.40  0. 1.0000     0. 
  -5   3  18     -0.12    1.36  0. 1.0000     0. 
  -4  -3  18     10.97    3.00  0. 1.0000     0. 
   4  -3 -18     12.00    1.93  0. 1.0000     0. 
   4  -3 -18     13.50    1.79  0. 1.0000     0. 
  -4  -3  18     11.25    1.60  0. 1.0000     0. 
   4   3 -18     11.13    2.22  0. 1.0000     0. 
  -4   3  18      8.84    1.82  0. 1.0000     0. 
   4   3 -18     14.21    2.38  0. 1.0000     0. 
  -4   3  18     10.80    3.17  0. 1.0000     0. 
   3  -3 -18     32.65    2.17  0. 1.0000     0. 
  -3  -3  18     29.31    3.91  0. 1.0000     0. 
   3  -3 -18     39.49    3.01  0. 1.0000     0. 
  -3  -3  18     36.96    2.18  0. 1.0000     0. 
  -3   3  18     33.71    3.91  0. 1.0000     0. 
   3   3 -18     31.09    3.02  0. 1.0000     0. 
  -3   3  18     39.40    2.68  0. 1.0000     0. 
   3   3 -18     31.86    3.15  0. 1.0000     0. 
   2  -3 -18     14.90    1.79  0. 1.0000     0. 
  -2  -3  18     16.05    1.63  0. 1.0000     0. 
   2  -3 -18     16.92    2.28  0. 1.0000     0. 
  -2  -3  18     16.95    3.03  0. 1.0000     0. 
  -2   3  18     12.30    1.66  0. 1.0000     0. 
   2   3 -18     16.05    2.29  0. 1.0000     0. 
   2   3 -18     15.76    2.51  0. 1.0000     0. 
  -2   3  18      8.25    2.99  0. 1.0000     0. 
   1  -3 -18      4.84    1.52  0. 1.0000     0. 
  -1  -3  18      2.66    2.44  0. 1.0000     0. 
  -1  -3  18      4.26    1.47  0. 1.0000     0. 
  -1   3  18      3.40    1.33  0. 1.0000     0. 
   1   3 -18      3.75    2.30  0. 1.0000     0. 
  -1   3  18      3.10    2.93  0. 1.0000     0. 
   1   3 -18      2.02    2.07  0. 1.0000     0. 
   0  -3 -18      9.01    1.52  0. 1.0000     0. 
   0  -3 -18      9.40    2.16  0. 1.0000     0. 
   0  -3  18     14.40    1.74  0. 1.0000     0. 
   0  -3  18      5.92    2.59  0. 1.0000     0. 
   0   3 -18      8.00    2.43  0. 1.0000     0. 
   0   3  18     14.06    1.62  0. 1.0000     0. 
  -1  -3 -18     15.63    2.53  0. 1.0000     0. 
   1  -3  18     16.21    1.74  0. 1.0000     0. 
   1   3  18     10.43    1.61  0. 1.0000     0. 
  -1   3 -18     20.32    2.80  0. 1.0000     0. 
  -5  -3  19      5.08    1.40  0. 1.0000     0. 
   5  -3 -19      6.77    1.88  0. 1.0000     0. 
  -5   3  19      5.41    1.67  0. 1.0000     0. 
   5   3 -19      5.57    2.11  0. 1.0000     0. 
   4  -3 -19     42.04    2.82  0. 1.0000     0. 
  -4  -3  19     36.52    2.29  0. 1.0000     0. 
  -4   3  19     36.42    2.63  0. 1.0000     0. 
   4   3 -19     36.35    3.14  0. 1.0000     0. 
  -3  -3  19     48.90    2.66  0. 1.0000     0. 
   3  -3 -19     49.18    3.38  0. 1.0000     0. 
   3   3 -19     49.09    3.62  0. 1.0000     0. 
  -3   3  19     50.02    2.96  0. 1.0000     0. 
   2  -3 -19     18.10    2.50  0. 1.0000     0. 
  -2  -3  19     25.19    1.92  0. 1.0000     0. 
   2   3 -19     26.59    2.87  0. 1.0000     0. 
  -2   3  19     24.54    2.09  0. 1.0000     0. 
  -1  -3  19     18.94    1.83  0. 1.0000     0. 
   1  -3 -19     15.13    2.35  0. 1.0000     0. 
   1   3 -19     15.04    2.42  0. 1.0000     0. 
  -1   3  19     17.07    1.80  0. 1.0000     0. 
-512 
#   2371 reflections output 
;
loop_
_symmetry_equiv_pos_as_xyz
x,y,z
-x,-y,-z
-x,y+1/2,-z+1/2
x,-y+1/2,z+1/2
loop_
_atom_site_label
_atom_site_type_symbol
_atom_site_fract_x
_atom_site_fract_y
_atom_site_fract_z
_atom_site_U_iso_or_equiv
_atom_site_occupancy
_atom_site_adp_type
_atom_site_refinement_flags_posn
_atom_site_refinement_flags_adp
_atom_site_refinement_flags_occupancy
_atom_site_disorder_assembly
_atom_site_disorder_group
_atom_site_attached_hydrogens
S1 S 0.4380(3) 0.3013(3) 0.33852(8) 0.0349 1.0000 Uani D U . . . .
N2 N 0.3138(7) 0.1836(9) 0.2410(2) 0.0361 1.0000 Uani D U . . . .
S3 S 0.1471(3) 0.0624(3) 0.25114(7) 0.0322 1.0000 Uani D U . . . .
C4 C 0.1797(6) 0.1216(8) 0.3714(2) 0.0230 1.0000 Uani D U . . . .
C5 C 0.3260(6) 0.2437(8) 0.4153(2) 0.0237 1.0000 Uani D U . . . .
N6 N 0.3512(7) 0.2960(8) 0.5070(2) 0.0263 1.0000 Uani D U . . . .
S7 S 0.1956(2) 0.1825(2) 0.53496(7) 0.0251 1.0000 Uani D U . . . .
N8 N 0.0943(6) 0.0710(8) 0.4296(2) 0.0255 1.0000 Uani D U . . . .
loop_
_atom_site_aniso_label
_atom_site_aniso_U_11
_atom_site_aniso_U_22
_atom_site_aniso_U_33
_atom_site_aniso_U_23
_atom_site_aniso_U_13
_atom_site_aniso_U_12
S1 0.032(3) 0.0501(6) 0.0278(6) 0.0119(4) 0.0174(11) 0.0066(7)
N2 0.047(4) 0.0433(16) 0.0231(14) 0.0050(11) 0.0184(18) 0.007(2)
S3 0.043(3) 0.0398(5) 0.0158(5) 0.0017(3) 0.0112(10) 0.0065(6)
C4 0.028(5) 0.0269(13) 0.0170(13) 0.0015(10) 0.010(2) 0.001(2)
C5 0.023(4) 0.0284(13) 0.0221(14) 0.0053(10) 0.011(2) 0.005(2)
N6 0.023(4) 0.0364(13) 0.0233(14) 0.0014(10) 0.013(2) 0.004(2)
S7 0.026(3) 0.0349(4) 0.0172(5) -0.0010(3) 0.0100(10) -0.0027(6)
N8 0.027(4) 0.0347(13) 0.0176(13) -0.0018(10) 0.0118(17) -0.004(2)
loop_
_atom_type_symbol
_atom_type_scat_dispersion_real
_atom_type_scat_dispersion_imag
_atom_type_scat_Cromer_Mann_a1
_atom_type_scat_Cromer_Mann_b1
_atom_type_scat_Cromer_Mann_a2
_atom_type_scat_Cromer_Mann_b2
_atom_type_scat_Cromer_Mann_a3
_atom_type_scat_Cromer_Mann_b3
_atom_type_scat_Cromer_Mann_a4
_atom_type_scat_Cromer_Mann_b4
_atom_type_scat_Cromer_Mann_c
_atom_type_scat_source
C 0.0006 0.0007 2.3100 20.8439 1.0200 10.2075 1.5886 0.5687 0.8650 51.6512
0.2156 'International Tables Vol C 4.2.6.8 and 6.1.1.4'
N 0.0016 0.0014 12.2126 0.0057 3.1322 9.8933 2.0125 28.9975 1.1663 0.5826
-11.5290 'International Tables Vol C 4.2.6.8 and 6.1.1.4'
S 0.0630 0.0572 6.9053 1.4679 5.2034 22.2151 1.4379 0.2536 1.5863 56.1720
0.8669 'International Tables Vol C 4.2.6.8 and 6.1.1.4'
loop_
_geom_angle_atom_site_label_1
_geom_angle_site_symmetry_1
_geom_angle_atom_site_label_2
_geom_angle_site_symmetry_2
_geom_angle_atom_site_label_3
_geom_angle_site_symmetry_3
_geom_angle
_geom_angle_publ_flag
N2 . S1 . C5 . 97.6(3) yes
S1 . N2 . S3 . 117.10(19) yes
N2 . S3 . C4 . 97.6(2) yes
S3 . C4 . C5 . 113.9(3) yes
S3 . C4 . N8 . 131.9(4) yes
C5 . C4 . N8 . 114.2(3) yes
C4 . C5 . S1 . 113.8(3) yes
C4 . C5 . N6 . 114.4(4) yes
S1 . C5 . N6 . 131.9(4) yes
C5 . N6 . S7 . 106.1(4) yes
N6 . S7 . N8 . 98.9(2) yes
C4 . N8 . S7 . 106.5(4) yes
loop_
_geom_bond_atom_site_label_1
_geom_bond_site_symmetry_1
_geom_bond_atom_site_label_2
_geom_bond_site_symmetry_2
_geom_bond_distance
_geom_bond_publ_flag
S1 . N2 . 1.658(5) yes
S1 . C5 . 1.732(4) yes
N2 . S3 . 1.653(6) yes
S3 . C4 . 1.734(3) yes
C4 . C5 . 1.421(6) yes
C4 . N8 . 1.319(5) yes
C5 . N6 . 1.324(4) yes
N6 . S7 . 1.652(6) yes
S7 . N8 . 1.650(4) yes
loop_
_oxford_refln_omitted_index_h
_oxford_refln_omitted_index_k
_oxford_refln_omitted_index_l
_oxford_refln_omitted_flag
_oxford_refln_omitted_details
-6 3 10 x .
2 3 15 x .
-5 1 10 x .
2 2 12 x .
-6 4 9 x .
3 3 6 x .
-5 3 5 x .
-6 1 13 x .
-6 3 11 x .
