#------------------------------------------------------------------------------
#$Date: 2021-07-05 20:10:48 +0300 (Mon, 05 Jul 2021) $
#$Revision: 267123 $
#$URL: file:///home/coder/svn-repositories/cod/cif/7/24/28/7242879.cif $
#------------------------------------------------------------------------------
#
# This file is available in the Crystallography Open Database (COD),
# http://www.crystallography.net/
#
# All data on this site have been placed in the public domain by the
# contributors.
#
data_7242879
loop_
_publ_author_name
'Richardson, Jonathan G.'
'Mizuno, Asato'
'Shuku, Yoshiaki'
'Awaga, Kunio'
'Robertson, Neil'
'Morrison, Carole A.'
'Warren, Mark R.'
'Allan, David R.'
'Moggach, Stephen A.'
_publ_section_title
;
 Evaluating the high-pressure structural response and crystal lattice
 interactions of the magnetically-bistable organic radical TTTA
;
_journal_issue                   25
_journal_name_full               CrystEngComm
_journal_page_first              4444
_journal_page_last               4450
_journal_paper_doi               10.1039/D1CE00577D
_journal_volume                  23
_journal_year                    2021
_chemical_formula_moiety         'C2 N3 S3'
_chemical_formula_sum            'C2 N3 S3'
_chemical_formula_weight         162.24
_space_group_IT_number           14
_space_group_name_Hall           '-P 2ybc'
_space_group_name_H-M_alt        'P 1 21/c 1'
_symmetry_cell_setting           monoclinic
_symmetry_space_group_name_Hall  '-P 2ybc'
_symmetry_space_group_name_H-M   'P 1 21/c 1'
_atom_sites_solution_hydrogens   difmap
_atom_sites_solution_primary     direct
_audit_creation_date             2021-04-22
_audit_creation_method           CRYSTALS_ver_14.61_build_6999
_audit_update_record
;
2021-04-27 deposited with the CCDC.	2021-05-18 downloaded from the CCDC.
;
_cell_angle_alpha                90
_cell_angle_beta                 104.55(6)
_cell_angle_gamma                90
_cell_formula_units_Z            4
_cell_length_a                   9.409(11)
_cell_length_b                   3.6033(3)
_cell_length_c                   14.945(3)
_cell_measurement_reflns_used    1071
_cell_measurement_temperature    293
_cell_measurement_theta_max      23
_cell_measurement_theta_min      4
_cell_volume                     490.4(6)
_computing_cell_refinement       'USER DEFINED CELL REFINEMENT'
_computing_data_collection       'USER DEFINED DATA COLLECTION'
_computing_data_reduction
; 
 CrysAlisPro (Rigaku Oxford Diffraction, 2017) 
;
_computing_molecular_graphics    'CAMERON (Watkin et al., 1996)'
_computing_publication_material  'CRYSTALS (Betteridge et al., 2003)'
_computing_structure_refinement  'CRYSTALS (Betteridge et al., 2003)'
_computing_structure_solution    'SHELXS 86 (Sheldrick, 1986)'
_diffrn_ambient_pressure         330000
_diffrn_ambient_temperature      293
_diffrn_measured_fraction_theta_full 0.293
_diffrn_measured_fraction_theta_max 0.258
_diffrn_measurement_device       Area
_diffrn_measurement_device_type  Synchrotron
_diffrn_measurement_method       \w
_diffrn_radiation_monochromator  'focussing mirrors'
_diffrn_radiation_type           synchrotron
_diffrn_radiation_wavelength     0.48590
_diffrn_reflns_av_R_equivalents  0.038
_diffrn_reflns_av_unetI/netI     0.066
_diffrn_reflns_limit_h_max       7
_diffrn_reflns_limit_h_min       -6
_diffrn_reflns_limit_k_max       5
_diffrn_reflns_limit_k_min       -5
_diffrn_reflns_limit_l_max       20
_diffrn_reflns_limit_l_min       -20
_diffrn_reflns_number            2336
_diffrn_reflns_theta_full        17.087
_diffrn_reflns_theta_max         22.782
_diffrn_reflns_theta_min         3.770
_diffrn_standards_number         0
_exptl_absorpt_coefficient_mu    0.461
_exptl_absorpt_correction_T_max  0.95
_exptl_absorpt_correction_T_min  0.40
_exptl_absorpt_correction_type   multi-scan
_exptl_absorpt_process_details   'DENZO/SCALEPACK (Otwinowski & Minor, 1997)'
_exptl_crystal_colour            colourless
_exptl_crystal_density_diffrn    2.197
_exptl_crystal_density_meas      ?
_exptl_crystal_density_method    'not measured'
_exptl_crystal_description       lock
_exptl_crystal_F_000             324
_exptl_crystal_size_max          0.120
_exptl_crystal_size_mid          0.100
_exptl_crystal_size_min          0.100
_refine_diff_density_max         0.31
_refine_diff_density_min         -0.42
_refine_ls_extinction_method     None
_refine_ls_goodness_of_fit_ref   0.9877
_refine_ls_hydrogen_treatment    noref
_refine_ls_matrix_type           full
_refine_ls_number_parameters     73
_refine_ls_number_reflns         524
_refine_ls_number_restraints     104
_refine_ls_R_factor_all          0.0811
_refine_ls_R_factor_gt           0.0676
_refine_ls_shift/su_max          0.0002636
_refine_ls_shift/su_mean         0.0000176
_refine_ls_structure_factor_coef Fsqd
_refine_ls_weighting_details
;
 Method= Modified Sheldrick 
 w=1/[\s^2^(F^2^) + ( 0.11P)^2^ + 0.57P] 
 ,where P=(max(Fo^2^,0) + 2Fc^2^)/3 
;
_refine_ls_weighting_scheme      calc
_refine_ls_wR_factor_all         0.6141
_refine_ls_wR_factor_gt          0.3208
_refine_ls_wR_factor_ref         0.1568
_reflns_limit_h_max              4
_reflns_limit_h_min              -7
_reflns_limit_k_max              5
_reflns_limit_k_min              0
_reflns_limit_l_max              20
_reflns_limit_l_min              0
_reflns_number_gt                455
_reflns_number_total             538
_reflns_threshold_expression     I>2.0\s(I)
_oxford_diffrn_Wilson_B_factor   0.00
_oxford_diffrn_Wilson_scale      0.00
_oxford_refine_ls_r_factor_ref   0.0592
_oxford_refine_ls_scale          0.945(12)
_oxford_reflns_number_all        538
_iucr_refine_instructions_details
;
#
# Punched on 22/04/21 at 20:52:40
#
#LIST     12                                                                    
BLOCK SCALE X'S  U'S 
END                                                                             
#
# Punched on 22/04/21 at 20:52:40
#
#LIST     16                                                                    
DIST   1.659,.01= S(1) TO N(2) 
DIST   1.734,.01= S(1) TO C(5) 
DIST   1.656,.01= N(2) TO S(3) 
DIST   1.735,.01= S(3) TO C(4) 
DIST   1.430,.01= C(4) TO C(5) 
DIST   1.313,.01= C(4) TO N(8) 
DIST   1.318,.01= C(5) TO N(6) 
DIST   1.645,.01= N(6) TO S(7) 
DIST   1.646,.01= S(7) TO N(8) 
ANGL  98,1= C(5) TO S(1) TO N(2) 
ANGL 117,1= S(3) TO N(2) TO S(1) 
ANGL  98,1= C(4) TO S(3) TO N(2) 
ANGL 114,1= C(5) TO C(4) TO S(3) 
ANGL 132,1= N(8) TO C(4) TO S(3) 
ANGL 114,1= N(8) TO C(4) TO C(5) 
ANGL 114,1= C(4) TO C(5) TO S(1) 
ANGL 132,1= N(6) TO C(5) TO S(1) 
ANGL 114,1= N(6) TO C(5) TO C(4) 
ANGL 106,1= S(7) TO N(6) TO C(5) 
ANGL  99,1= N(8) TO S(7) TO N(6) 
ANGL 106,1= S(7) TO N(8) TO C(4) 
REM   HREST   START (DO NOT REMOVE THIS LINE) 
REM   HREST   END (DO NOT REMOVE THIS LINE) 
PLANAR 0.01 N(2) S(1) S(3) C(4) C(5) N(6) S(7) N(8) 
REM   DELU   START (DO NOT REMOVE THIS LINE) 
VIBR .0, 0.00200 = S(1) TO N(2) 
VIBR .0, 0.00200 = S(1) TO C(5) 
VIBR .0, 0.00500 = C(5) TO N(2) 
VIBR .0, 0.00200 = N(2) TO S(3) 
VIBR .0, 0.00500 = S(3) TO S(1) 
VIBR .0, 0.00200 = S(3) TO C(4) 
VIBR .0, 0.00500 = C(4) TO N(2) 
VIBR .0, 0.00200 = C(4) TO C(5) 
VIBR .0, 0.00200 = C(4) TO N(8) 
VIBR .0, 0.00500 = C(5) TO S(3) 
VIBR .0, 0.00500 = N(8) TO S(3) 
VIBR .0, 0.00500 = N(8) TO C(5) 
VIBR .0, 0.00200 = C(5) TO N(6) 
VIBR .0, 0.00500 = S(1) TO C(4) 
VIBR .0, 0.00500 = N(6) TO C(4) 
VIBR .0, 0.00500 = N(6) TO S(1) 
VIBR .0, 0.00200 = N(6) TO S(7) 
VIBR .0, 0.00500 = S(7) TO C(5) 
VIBR .0, 0.00200 = S(7) TO N(8) 
VIBR .0, 0.00500 = N(8) TO N(6) 
VIBR .0, 0.00500 = S(7) TO C(4) 
REM   DELU   END (DO NOT REMOVE THIS LINE) 
REM   THERMSIM   START (DO NOT REMOVE THIS LINE) 
U(IJ) .0, 0.04000 = S(1) TO N(2) 
U(IJ) .0, 0.04000 = S(1) TO C(5) 
U(IJ) .0, 0.04000 = N(2) TO S(3) 
U(IJ) .0, 0.04000 = S(3) TO C(4) 
U(IJ) .0, 0.04000 = C(4) TO C(5) 
U(IJ) .0, 0.04000 = C(4) TO N(8) 
U(IJ) .0, 0.04000 = C(5) TO N(6) 
U(IJ) .0, 0.04000 = N(6) TO S(7) 
U(IJ) .0, 0.04000 = S(7) TO N(8) 
REM   THERMSIM   END (DO NOT REMOVE THIS LINE) 
END                                                                             
;
_cod_data_source_file            d1ce00577d2.cif
_cod_data_source_block           033GPa
_cod_depositor_comments
;
The following automatic conversions were performed:

data item '_exptl_crystal_density_meas' value 'not measured' was
changed to '?' -- the value is perceived as not measured.

Automatic conversion script
Id: cif_fix_values 7556 2019-12-06 15:28:31Z antanas 

 Adding full bibliography for 7242874--7242883.cif.
;
_cod_original_cell_volume        490.5(6)
_cod_original_sg_symbol_H-M      'P 1 21/c 1 '
_cod_database_code               7242879
_oxford_refine_reflns_threshold_expression_ref I>-10.0\s(I)
_iucr_refine_reflections_details
; 
 
# Data was input as F-squared 
# punching LIST  6 as LIST  6 with all keys set 
# NBGNXT=    36 
#LIST   6 
READ NCOEF= 8 TYPE=FIX, F'S = FSQ UNIT=DATA, CHECK=NO L30=NO ARCH=NO 
STORE  NCOEF= 6 
OUTPUT INDICES     /FO/        SIGMA(/FO/) RATIO/JCODE CORRECTIONS SERIAL 
CONT 
INPUT  H           K           L           /FO/        SIGMA(/FO/) JCODE 
CONT   CORRECTIONS SERIAL 
FOR (I4,I4,I4,F10.2,F8.2,F4.0,F7.4,F7.0) 
END 
   0  -1   0      0.03    0.21  0. 1.0000     0. 
   0  -1   0      0.16    0.21  0. 1.0000     0. 
   0   1   0     -0.03    0.24  0. 1.0000     0. 
   0   1   0      0.04    0.28  0. 1.0000     0. 
   0   1   0     -0.06    0.19  0. 1.0000     0. 
   0   1   0      0.09    0.31  0. 1.0000     0. 
  -1  -1   0   9468.17  446.99  0. 1.0000     0. 
  -1  -1   0   8828.18  539.43  0. 1.0000     0. 
   1   1   0   9585.61  588.88  0. 1.0000     0. 
  -1   1   0   9581.48  526.86  0. 1.0000     0. 
  -1   1   0   9999.99  574.71  0. 1.0000     0. 
   0  -2   0   1021.34   52.50  0. 1.0000     0. 
   0   2   0    979.79   61.54  0. 1.0000     0. 
   0   2   0   1026.22   55.64  0. 1.0000     0. 
   1  -2   0   1752.41   89.32  0. 1.0000     0. 
   1   2   0   1902.64  114.90  0. 1.0000     0. 
   2  -2   0     76.54    4.49  0. 1.0000     0. 
  -2  -2   0     79.52    4.96  0. 1.0000     0. 
  -2   2   0     78.90    4.86  0. 1.0000     0. 
   2   2   0     74.35    5.36  0. 1.0000     0. 
   2   2   0     75.32    4.92  0. 1.0000     0. 
  -2   2   0     79.05    5.33  0. 1.0000     0. 
   0  -3   0      0.13    1.15  0. 1.0000     0. 
   0  -3   0      0.09    0.98  0. 1.0000     0. 
   0  -3   0      0.28    0.93  0. 1.0000     0. 
   0  -3   0     -0.08    0.81  0. 1.0000     0. 
   0   3   0      0.33    1.17  0. 1.0000     0. 
   0   3   0      0.29    1.39  0. 1.0000     0. 
   0   3   0     -0.42    1.08  0. 1.0000     0. 
   0   3   0     -0.19    0.94  0. 1.0000     0. 
   1  -3   0      5.43    1.10  0. 1.0000     0. 
  -1  -3   0      2.71    1.20  0. 1.0000     0. 
   1  -3   0      4.34    0.98  0. 1.0000     0. 
  -1  -3   0      4.55    1.00  0. 1.0000     0. 
  -1  -3   0      3.44    1.24  0. 1.0000     0. 
   1  -3   0      8.27    1.39  0. 1.0000     0. 
   1   3   0      4.53    1.46  0. 1.0000     0. 
   1   3   0      5.23    1.55  0. 1.0000     0. 
  -1   3   0      5.06    1.09  0. 1.0000     0. 
   1   3   0      3.38    1.18  0. 1.0000     0. 
  -1   3   0      6.09    1.15  0. 1.0000     0. 
   1   3   0      3.75    1.15  0. 1.0000     0. 
  -1   3   0      7.54    1.58  0. 1.0000     0. 
  -1   3   0      6.51    1.65  0. 1.0000     0. 
   2  -3   0    869.40   51.70  0. 1.0000     0. 
   2  -3   0    809.27   42.44  0. 1.0000     0. 
  -2  -3   0    850.36   40.99  0. 1.0000     0. 
   2   3   0    884.33   51.84  0. 1.0000     0. 
  -2   3   0    802.08   49.46  0. 1.0000     0. 
   2   3   0    794.76   51.86  0. 1.0000     0. 
  -2   3   0    828.31   46.95  0. 1.0000     0. 
   3   3   0     14.72    2.06  0. 1.0000     0. 
  -3   3   0     12.56    1.60  0. 1.0000     0. 
   3   3   0      8.69    1.93  0. 1.0000     0. 
  -3   3   0     11.06    1.93  0. 1.0000     0. 
  -1  -1   1    121.95    6.51  0. 1.0000     0. 
   1  -1  -1    119.29    7.23  0. 1.0000     0. 
   1  -1  -1    127.47    6.32  0. 1.0000     0. 
   1   1  -1    125.26    8.03  0. 1.0000     0. 
  -1   1   1    124.52    7.24  0. 1.0000     0. 
   0  -1  -1    731.95   41.42  0. 1.0000     0. 
   0   1   1    707.32   45.05  0. 1.0000     0. 
   0   1   1    679.59   39.53  0. 1.0000     0. 
   0   1  -1    727.10   42.34  0. 1.0000     0. 
   1   1   1   6557.90  389.50  0. 1.0000     0. 
   1   1   1   6543.18  404.23  0. 1.0000     0. 
  -2   2   1    248.00   14.03  0. 1.0000     0. 
   2   2  -1    245.46   16.34  0. 1.0000     0. 
   1   2  -1   1939.21  122.46  0. 1.0000     0. 
  -1   2   1   1968.80  121.60  0. 1.0000     0. 
  -1   2   1   1967.19  108.93  0. 1.0000     0. 
   0  -2   1    252.35   15.07  0. 1.0000     0. 
   0  -2  -1    230.32   14.96  0. 1.0000     0. 
   0  -2   1    231.01   14.77  0. 1.0000     0. 
   0   2   1    242.15   13.47  0. 1.0000     0. 
  -1  -2  -1     15.33    1.41  0. 1.0000     0. 
   1  -2   1     14.43    1.18  0. 1.0000     0. 
  -1   2  -1     15.81    1.20  0. 1.0000     0. 
  -1   2  -1     14.21    1.86  0. 1.0000     0. 
   1   2   1     12.66    1.32  0. 1.0000     0. 
  -1   2  -1     12.39    1.53  0. 1.0000     0. 
   1   2   1     12.98    1.44  0. 1.0000     0. 
   1   2   1     14.37    1.57  0. 1.0000     0. 
   2  -2   1   2784.86  140.67  0. 1.0000     0. 
  -2   2  -1   2852.38  176.59  0. 1.0000     0. 
   2   2   1   2889.75  158.43  0. 1.0000     0. 
   4   3  -1    106.48    8.22  0. 1.0000     0. 
  -3  -3   1      1.61    1.02  0. 1.0000     0. 
  -3   3   1      1.43    1.05  0. 1.0000     0. 
   3   3  -1      2.16    1.24  0. 1.0000     0. 
  -3   3   1      2.33    1.39  0. 1.0000     0. 
   3   3  -1      1.56    1.40  0. 1.0000     0. 
  -2  -3   1    159.87   10.13  0. 1.0000     0. 
  -2  -3   1    164.51    9.56  0. 1.0000     0. 
   2  -3  -1    173.97    9.00  0. 1.0000     0. 
   2   3  -1    179.17   10.19  0. 1.0000     0. 
   2   3  -1    159.93   11.13  0. 1.0000     0. 
  -2   3   1    174.81   10.05  0. 1.0000     0. 
   2   3  -1    164.02   11.56  0. 1.0000     0. 
  -1  -3   1    494.93   31.00  0. 1.0000     0. 
  -1  -3   1    477.83   24.30  0. 1.0000     0. 
  -1   3   1    471.59   29.53  0. 1.0000     0. 
  -1   3   1    496.78   30.05  0. 1.0000     0. 
  -1   3   1    482.06   31.54  0. 1.0000     0. 
   1   3  -1    488.95   31.05  0. 1.0000     0. 
   1   3  -1    499.23   27.84  0. 1.0000     0. 
   0  -3   1     26.10    2.43  0. 1.0000     0. 
   0  -3   1     27.93    2.17  0. 1.0000     0. 
   0  -3   1     28.46    2.48  0. 1.0000     0. 
   0  -3  -1     30.86    2.62  0. 1.0000     0. 
   0  -3  -1     30.05    2.32  0. 1.0000     0. 
   0   3   1     29.51    2.23  0. 1.0000     0. 
   0   3  -1     28.99    2.18  0. 1.0000     0. 
   0   3   1     20.50    2.62  0. 1.0000     0. 
   0   3  -1     29.61    3.17  0. 1.0000     0. 
   0   3  -1     28.28    2.52  0. 1.0000     0. 
  -1  -3  -1     27.10    2.20  0. 1.0000     0. 
   1  -3   1     27.42    2.08  0. 1.0000     0. 
  -1   3  -1     25.16    3.08  0. 1.0000     0. 
  -1   3  -1     26.95    2.61  0. 1.0000     0. 
   1   3   1     24.35    2.59  0. 1.0000     0. 
  -1   3  -1     30.74    2.62  0. 1.0000     0. 
   1   3   1     27.88    2.62  0. 1.0000     0. 
  -1   3  -1     29.56    2.14  0. 1.0000     0. 
   1   3   1     21.19    2.24  0. 1.0000     0. 
   2  -3   1    465.81   24.29  0. 1.0000     0. 
  -2   3  -1    441.75   32.09  0. 1.0000     0. 
   2   3   1    492.28   29.16  0. 1.0000     0. 
  -3   3  -1    831.76   38.95  0. 1.0000     0. 
  -3   3  -1    817.22   39.86  0. 1.0000     0. 
   3   3   1    805.26   39.89  0. 1.0000     0. 
   3   3   1    805.32   40.04  0. 1.0000     0. 
  -4   4   1      0.17    1.43  0. 1.0000     0. 
   2  -4  -1     44.31    3.92  0. 1.0000     0. 
  -2  -4   1     39.73    3.47  0. 1.0000     0. 
  -2   4   1     44.20    3.95  0. 1.0000     0. 
  -1  -4   1      3.01    1.48  0. 1.0000     0. 
   1  -4  -1      3.01    1.20  0. 1.0000     0. 
   1  -4  -1      0.32    1.40  0. 1.0000     0. 
  -1  -4   1      2.39    1.13  0. 1.0000     0. 
  -1   4   1      1.12    1.39  0. 1.0000     0. 
  -1   4   1      1.22    1.21  0. 1.0000     0. 
   0  -4   1    249.37   15.54  0. 1.0000     0. 
  -1  -4  -1     27.85    2.98  0. 1.0000     0. 
   1  -4   1     29.31    2.74  0. 1.0000     0. 
  -1  -4  -1     24.19    2.92  0. 1.0000     0. 
   1   4   1     23.90    2.54  0. 1.0000     0. 
   2  -4   1     92.00    6.84  0. 1.0000     0. 
  -2   4  -1    101.54    7.29  0. 1.0000     0. 
  -2  -1   2   1574.54   91.01  0. 1.0000     0. 
   2   1  -2   1555.89   97.44  0. 1.0000     0. 
  -1  -1   2     88.00    5.12  0. 1.0000     0. 
   1   1  -2     95.13    5.68  0. 1.0000     0. 
  -1   1   2     95.35    5.70  0. 1.0000     0. 
   1   1  -2     86.38    6.23  0. 1.0000     0. 
  -1   1   2     96.57    5.25  0. 1.0000     0. 
   0   1   2   2175.26  130.15  0. 1.0000     0. 
   0   1  -2   2210.27  136.74  0. 1.0000     0. 
   1  -1   2   2863.14  142.07  0. 1.0000     0. 
   3   2  -2   1350.14   84.16  0. 1.0000     0. 
   2  -2  -2      1.65    0.71  0. 1.0000     0. 
  -2  -2   2      2.50    0.84  0. 1.0000     0. 
   2   2  -2      2.87    0.77  0. 1.0000     0. 
  -2   2   2      2.16    0.71  0. 1.0000     0. 
  -2   2   2      3.10    0.79  0. 1.0000     0. 
  -2   2   2      3.20    0.96  0. 1.0000     0. 
   2   2  -2      2.55    0.88  0. 1.0000     0. 
   2   2  -2      1.86    0.93  0. 1.0000     0. 
   1  -2  -2    298.86   15.19  0. 1.0000     0. 
  -1  -2   2    287.64   17.90  0. 1.0000     0. 
   1   2  -2    318.73   19.55  0. 1.0000     0. 
  -1   2   2    298.36   18.83  0. 1.0000     0. 
  -1   2   2    283.64   16.64  0. 1.0000     0. 
   0  -2   2   1056.12   50.68  0. 1.0000     0. 
   0  -2   2   1060.26   60.79  0. 1.0000     0. 
   0   2  -2    982.44   65.99  0. 1.0000     0. 
   1  -2   2    356.30   17.53  0. 1.0000     0. 
  -1  -2  -2    309.61   18.19  0. 1.0000     0. 
  -1   2  -2    353.31   22.92  0. 1.0000     0. 
  -1   2  -2    346.54   22.37  0. 1.0000     0. 
   1   2   2    366.34   22.57  0. 1.0000     0. 
   1   2   2    383.24   20.14  0. 1.0000     0. 
   4   3  -2     58.02    4.39  0. 1.0000     0. 
   4   3  -2     52.65    4.86  0. 1.0000     0. 
  -3  -3   2     38.65    2.84  0. 1.0000     0. 
   3  -3  -2     34.08    3.39  0. 1.0000     0. 
  -2  -3   2    212.34   10.48  0. 1.0000     0. 
  -2  -3   2    217.00   12.38  0. 1.0000     0. 
  -2  -3   2    206.93   13.39  0. 1.0000     0. 
  -2   3   2    203.26   13.78  0. 1.0000     0. 
   2   3  -2    216.87   13.22  0. 1.0000     0. 
   2   3  -2    191.06   13.98  0. 1.0000     0. 
   2   3  -2    173.01   12.51  0. 1.0000     0. 
   2   3  -2    198.98   14.23  0. 1.0000     0. 
  -2   3   2    229.02   11.94  0. 1.0000     0. 
  -1  -3   2     15.56    1.62  0. 1.0000     0. 
   1  -3  -2     14.87    1.42  0. 1.0000     0. 
   1  -3  -2     13.06    1.35  0. 1.0000     0. 
   1  -3  -2     13.09    1.72  0. 1.0000     0. 
  -1  -3   2     12.29    1.55  0. 1.0000     0. 
  -1  -3   2     12.30    1.46  0. 1.0000     0. 
  -1  -3   2     11.72    1.73  0. 1.0000     0. 
  -1   3   2     12.19    1.71  0. 1.0000     0. 
  -1   3   2     11.67    1.95  0. 1.0000     0. 
   1   3  -2     10.43    1.84  0. 1.0000     0. 
   1   3  -2     10.94    1.63  0. 1.0000     0. 
   1   3  -2     10.12    1.41  0. 1.0000     0. 
   1   3  -2     10.78    2.00  0. 1.0000     0. 
  -1   3   2      9.87    1.98  0. 1.0000     0. 
  -1   3   2      9.63    1.41  0. 1.0000     0. 
   0  -3   2      2.29    1.06  0. 1.0000     0. 
   0  -3   2      3.13    1.10  0. 1.0000     0. 
   0  -3   2      3.05    1.22  0. 1.0000     0. 
   0  -3  -2      1.64    0.80  0. 1.0000     0. 
   0  -3   2      3.30    0.93  0. 1.0000     0. 
   0  -3  -2      2.02    1.21  0. 1.0000     0. 
   0  -3  -2      3.73    0.88  0. 1.0000     0. 
   0  -3  -2      1.37    1.35  0. 1.0000     0. 
   0   3  -2      2.75    1.14  0. 1.0000     0. 
   0   3  -2      3.36    1.37  0. 1.0000     0. 
   0   3  -2      4.36    1.56  0. 1.0000     0. 
   0   3  -2      1.95    0.82  0. 1.0000     0. 
   0   3   2      2.59    1.36  0. 1.0000     0. 
   0   3   2      2.26    1.31  0. 1.0000     0. 
   0   3   2      2.89    1.16  0. 1.0000     0. 
   0   3   2      2.94    1.28  0. 1.0000     0. 
  -1  -3  -2    759.10   32.73  0. 1.0000     0. 
   1  -3   2    577.74   42.95  0. 1.0000     0. 
  -1  -3  -2    736.17   43.25  0. 1.0000     0. 
   1  -3   2    682.42   34.67  0. 1.0000     0. 
  -1   3  -2    701.89   42.43  0. 1.0000     0. 
  -1   3  -2    734.29   43.99  0. 1.0000     0. 
   1   3   2    721.30   42.49  0. 1.0000     0. 
  -1   3  -2    689.44   44.47  0. 1.0000     0. 
   1   3   2    658.07   39.29  0. 1.0000     0. 
  -1   3  -2    631.51   38.85  0. 1.0000     0. 
   1   3   2    698.69   41.50  0. 1.0000     0. 
   2  -3   2     58.89    3.12  0. 1.0000     0. 
  -2   3  -2     59.05    4.77  0. 1.0000     0. 
   2   3   2     60.30    3.75  0. 1.0000     0. 
  -2   3  -2     58.81    3.89  0. 1.0000     0. 
   2   3   2     53.85    3.94  0. 1.0000     0. 
   2   3   2     58.77    4.15  0. 1.0000     0. 
  -3   3  -2     32.85    2.82  0. 1.0000     0. 
  -4   4   2     11.04    1.91  0. 1.0000     0. 
   4   4  -2     13.51    2.78  0. 1.0000     0. 
  -3   4   2     20.72    2.21  0. 1.0000     0. 
   3   4  -2     19.98    2.89  0. 1.0000     0. 
  -2  -4   2     10.02    1.65  0. 1.0000     0. 
   2  -4  -2     12.81    1.91  0. 1.0000     0. 
  -2   4   2     11.02    2.36  0. 1.0000     0. 
   2   4  -2     10.61    2.06  0. 1.0000     0. 
   1  -4  -2      7.82    1.71  0. 1.0000     0. 
  -1  -4   2      5.69    1.43  0. 1.0000     0. 
  -1   4   2     10.30    1.94  0. 1.0000     0. 
   1   4  -2      9.48    2.09  0. 1.0000     0. 
   0  -4   2      3.48    1.47  0. 1.0000     0. 
   0  -4  -2      2.29    1.40  0. 1.0000     0. 
   0   4   2      2.13    1.60  0. 1.0000     0. 
   0   4  -2      1.27    1.75  0. 1.0000     0. 
  -1  -4  -2      7.49    1.79  0. 1.0000     0. 
   1  -4   2      9.27    1.87  0. 1.0000     0. 
   1   4   2      4.78    1.62  0. 1.0000     0. 
  -1   4  -2     11.99    2.30  0. 1.0000     0. 
  -2  -4  -2      8.55    2.24  0. 1.0000     0. 
   2  -4   2     13.92    1.95  0. 1.0000     0. 
   2  -4   2     14.34    2.04  0. 1.0000     0. 
   2   4   2     10.87    2.17  0. 1.0000     0. 
   4   4   2     25.75    3.16  0. 1.0000     0. 
   1   0  -3      0.28    0.23  0. 1.0000     0. 
  -1   0   3     -0.06    0.14  0. 1.0000     0. 
  -1   0   3     -0.02    0.21  0. 1.0000     0. 
   1   0  -3     -0.02    0.20  0. 1.0000     0. 
  -1   0   3      0.04    0.15  0. 1.0000     0. 
   1   0  -3      0.42    0.16  0. 1.0000     0. 
   0   0  -3      0.03    0.19  0. 1.0000     0. 
   0   0   3      0.02    0.13  0. 1.0000     0. 
   0   0   3     -0.02    0.16  0. 1.0000     0. 
   0   0   3      0.09    0.27  0. 1.0000     0. 
   0   0  -3      0.17    0.15  0. 1.0000     0. 
   0   0  -3     -0.03    0.16  0. 1.0000     0. 
  -2  -1   3    606.34   32.16  0. 1.0000     0. 
  -2   1   3    564.35   35.43  0. 1.0000     0. 
   2   1  -3    541.70   36.27  0. 1.0000     0. 
   1   1  -3    518.94   32.59  0. 1.0000     0. 
   0   1  -3    224.90   14.33  0. 1.0000     0. 
  -3  -2   3    413.05   24.99  0. 1.0000     0. 
  -3   2   3    437.42   24.27  0. 1.0000     0. 
   3   2  -3    428.13   27.52  0. 1.0000     0. 
  -2  -2   3    227.56   13.18  0. 1.0000     0. 
   2   2  -3    215.20   14.61  0. 1.0000     0. 
  -2   2   3    226.41   14.17  0. 1.0000     0. 
  -2   2   3    217.14   13.66  0. 1.0000     0. 
   2   2  -3    221.06   15.35  0. 1.0000     0. 
  -1  -2   3    144.85    9.38  0. 1.0000     0. 
  -1   2   3    162.14    8.74  0. 1.0000     0. 
   1   2  -3    150.24    9.90  0. 1.0000     0. 
   1   2  -3    140.81    8.71  0. 1.0000     0. 
   1   2  -3    148.90    9.82  0. 1.0000     0. 
   0  -2   3    562.37   34.07  0. 1.0000     0. 
   0  -2  -3    565.24   35.11  0. 1.0000     0. 
   0   2  -3    587.84   35.59  0. 1.0000     0. 
   0   2  -3    584.30   31.50  0. 1.0000     0. 
   0   2   3    506.33   31.87  0. 1.0000     0. 
   0   2  -3    584.93   35.59  0. 1.0000     0. 
   1  -2   3    136.28    7.02  0. 1.0000     0. 
  -1   2  -3    128.54    9.14  0. 1.0000     0. 
   2   2   3    265.37   15.16  0. 1.0000     0. 
   2   2   3    253.58   16.30  0. 1.0000     0. 
  -4   3   3      5.51    1.35  0. 1.0000     0. 
  -3  -3   3    478.93   29.03  0. 1.0000     0. 
  -3   3   3    512.30   30.89  0. 1.0000     0. 
   2  -3  -3     29.94    2.46  0. 1.0000     0. 
  -2  -3   3     27.92    2.29  0. 1.0000     0. 
  -2   3   3     25.12    2.52  0. 1.0000     0. 
  -2   3   3     26.49    2.28  0. 1.0000     0. 
   2   3  -3     22.55    2.93  0. 1.0000     0. 
   2   3  -3     28.30    2.89  0. 1.0000     0. 
  -1  -3   3     -0.30    1.05  0. 1.0000     0. 
   1  -3  -3     -0.10    0.94  0. 1.0000     0. 
  -1  -3   3      0.22    1.04  0. 1.0000     0. 
  -1   3   3     -0.11    0.96  0. 1.0000     0. 
   1   3  -3      0.79    1.64  0. 1.0000     0. 
  -1   3   3      0.59    1.11  0. 1.0000     0. 
   1   3  -3      1.40    1.50  0. 1.0000     0. 
   0  -3  -3    407.57   18.87  0. 1.0000     0. 
   0   3   3    415.65   22.32  0. 1.0000     0. 
   0   3   3    388.57   25.04  0. 1.0000     0. 
   0   3  -3    355.95   25.99  0. 1.0000     0. 
   1  -3   3    125.91    5.82  0. 1.0000     0. 
  -1  -3  -3     98.96    8.17  0. 1.0000     0. 
  -1   3  -3    101.26    8.03  0. 1.0000     0. 
   2  -3   3     38.45    2.64  0. 1.0000     0. 
  -2  -3  -3     37.30    3.34  0. 1.0000     0. 
   2   3   3     34.55    3.06  0. 1.0000     0. 
  -2   3  -3     34.67    3.83  0. 1.0000     0. 
   2   3   3     33.81    3.40  0. 1.0000     0. 
  -2   3  -3     36.99    3.35  0. 1.0000     0. 
   5   4  -3      7.92    2.91  0. 1.0000     0. 
   4   4  -3    420.67   26.44  0. 1.0000     0. 
  -4   4   3    409.45   24.53  0. 1.0000     0. 
   3  -4  -3      1.48    1.60  0. 1.0000     0. 
  -3   4   3      2.71    1.63  0. 1.0000     0. 
  -3   4   3      3.73    1.42  0. 1.0000     0. 
   3   4  -3      4.06    1.89  0. 1.0000     0. 
  -2  -4   3     12.19    1.79  0. 1.0000     0. 
  -2   4   3     11.85    1.81  0. 1.0000     0. 
   2   4  -3      9.48    2.55  0. 1.0000     0. 
  -1  -4   3    112.63    6.71  0. 1.0000     0. 
   0  -4   3      8.70    1.79  0. 1.0000     0. 
   0  -4  -3     11.12    2.28  0. 1.0000     0. 
   0   4   3      9.78    1.70  0. 1.0000     0. 
   0   4  -3      7.75    2.65  0. 1.0000     0. 
   2  -4   3      0.67    1.34  0. 1.0000     0. 
  -2  -4  -3      0.45    1.63  0. 1.0000     0. 
   2   4   3      0.15    1.47  0. 1.0000     0. 
   2   4   3      0.56    1.75  0. 1.0000     0. 
  -3  -4  -3      8.07    2.31  0. 1.0000     0. 
  -3   4  -3     12.72    2.41  0. 1.0000     0. 
   3   4   3      8.36    2.16  0. 1.0000     0. 
   1   0  -4   3676.35  221.50  0. 1.0000     0. 
   1   0  -4   3161.59  207.32  0. 1.0000     0. 
  -1   0   4   3727.19  215.25  0. 1.0000     0. 
   1   0  -4   3656.45  221.22  0. 1.0000     0. 
   0   0  -4   3437.73  209.40  0. 1.0000     0. 
   0   0  -4   3312.21  207.96  0. 1.0000     0. 
  -2   1   4    142.59    8.62  0. 1.0000     0. 
   2   1  -4    132.16    9.21  0. 1.0000     0. 
   1   1  -4   2545.30  158.21  0. 1.0000     0. 
  -1   1  -4    353.01   21.87  0. 1.0000     0. 
  -1   1  -4    370.06   22.39  0. 1.0000     0. 
   1   1   4    337.51   22.79  0. 1.0000     0. 
   3  -2  -4    983.16   54.18  0. 1.0000     0. 
   3   2  -4   1016.37   56.25  0. 1.0000     0. 
   3   2  -4    952.22   58.11  0. 1.0000     0. 
  -3   2   4    980.53   52.03  0. 1.0000     0. 
   1  -2   4    200.03   10.14  0. 1.0000     0. 
  -1   2  -4    200.41   13.54  0. 1.0000     0. 
   1   2   4    213.71   12.12  0. 1.0000     0. 
  -1   2  -4    193.62   11.91  0. 1.0000     0. 
   2  -2   4    307.70   16.10  0. 1.0000     0. 
  -2  -2  -4    309.90   16.11  0. 1.0000     0. 
   2   2   4    303.44   19.54  0. 1.0000     0. 
   2   2   4    321.19   17.78  0. 1.0000     0. 
  -4  -3   4     24.03    2.18  0. 1.0000     0. 
   4   3  -4     16.83    2.83  0. 1.0000     0. 
  -4   3   4     24.48    2.24  0. 1.0000     0. 
  -3  -3   4      0.55    0.91  0. 1.0000     0. 
   3  -3  -4      1.69    1.22  0. 1.0000     0. 
  -3   3   4      0.36    1.14  0. 1.0000     0. 
   3   3  -4      0.43    1.52  0. 1.0000     0. 
   3   3  -4     -0.21    1.17  0. 1.0000     0. 
  -3   3   4      0.61    1.25  0. 1.0000     0. 
  -2  -3   4     90.82    6.34  0. 1.0000     0. 
   2  -3  -4     79.77    6.73  0. 1.0000     0. 
   2   3  -4    104.02    6.83  0. 1.0000     0. 
  -2   3   4     94.94    6.64  0. 1.0000     0. 
   2   3  -4    100.66    7.16  0. 1.0000     0. 
  -2   3   4    103.24    6.15  0. 1.0000     0. 
  -1  -3   4     23.16    2.26  0. 1.0000     0. 
  -1   3   4     20.41    2.26  0. 1.0000     0. 
  -1   3   4     25.09    2.60  0. 1.0000     0. 
   1   3  -4     18.61    2.58  0. 1.0000     0. 
   1   3  -4     22.96    2.86  0. 1.0000     0. 
   0  -3  -4     59.03    4.52  0. 1.0000     0. 
   0  -3   4     53.32    4.31  0. 1.0000     0. 
   0   3   4     52.46    3.94  0. 1.0000     0. 
   0   3  -4     61.26    4.51  0. 1.0000     0. 
   0   3  -4     53.94    5.13  0. 1.0000     0. 
  -1  -3  -4      0.97    1.38  0. 1.0000     0. 
  -1  -3  -4      1.62    1.17  0. 1.0000     0. 
   1  -3   4      3.25    1.19  0. 1.0000     0. 
   1   3   4      2.65    1.33  0. 1.0000     0. 
  -1   3  -4      2.76    1.82  0. 1.0000     0. 
  -1   3  -4      3.43    1.41  0. 1.0000     0. 
   1   3   4      2.19    1.21  0. 1.0000     0. 
   2  -3   4     -0.30    0.94  0. 1.0000     0. 
  -2  -3  -4      0.38    1.44  0. 1.0000     0. 
   2   3   4      1.67    1.72  0. 1.0000     0. 
  -2   3  -4      0.11    1.31  0. 1.0000     0. 
  -2   3  -4     -0.80    1.60  0. 1.0000     0. 
   2   3   4      0.14    1.47  0. 1.0000     0. 
   5   4  -4      8.96    3.02  0. 1.0000     0. 
  -4  -4   4      8.52    1.52  0. 1.0000     0. 
   4   4  -4     11.62    2.52  0. 1.0000     0. 
  -4   4   4      7.04    1.70  0. 1.0000     0. 
  -2  -4   4      3.25    1.38  0. 1.0000     0. 
   2  -4  -4      2.27    1.56  0. 1.0000     0. 
  -2  -4   4      5.07    1.44  0. 1.0000     0. 
   2   4  -4      3.00    1.87  0. 1.0000     0. 
   2   4  -4      2.82    1.79  0. 1.0000     0. 
  -2   4   4      1.96    1.25  0. 1.0000     0. 
  -2   4   4      1.82    1.57  0. 1.0000     0. 
  -1  -4   4     -0.25    1.24  0. 1.0000     0. 
   1  -4  -4     -0.15    1.64  0. 1.0000     0. 
   1  -4  -4      2.28    2.11  0. 1.0000     0. 
  -1   4   4      0.18    1.99  0. 1.0000     0. 
   1   4  -4      1.56    2.45  0. 1.0000     0. 
  -1   4   4     -0.17    1.51  0. 1.0000     0. 
   0  -4  -4     18.59    2.64  0. 1.0000     0. 
   0  -4  -4     17.29    2.64  0. 1.0000     0. 
   0  -4   4     17.73    2.17  0. 1.0000     0. 
   0   4  -4     14.17    3.10  0. 1.0000     0. 
   0   4   4     20.38    2.59  0. 1.0000     0. 
   0   4   4     15.85    2.22  0. 1.0000     0. 
   1  -4   4     21.91    2.45  0. 1.0000     0. 
  -1  -4  -4     17.00    2.55  0. 1.0000     0. 
   1  -4   4     17.37    2.33  0. 1.0000     0. 
  -1  -4  -4     19.60    2.50  0. 1.0000     0. 
  -1   4  -4     18.97    2.74  0. 1.0000     0. 
  -1   4  -4     16.54    3.43  0. 1.0000     0. 
   1   4   4     17.89    2.56  0. 1.0000     0. 
   1   4   4     15.65    2.33  0. 1.0000     0. 
  -3  -4  -4     26.42    3.75  0. 1.0000     0. 
   3   4   4     40.74    3.72  0. 1.0000     0. 
  -3   4  -4     36.26    3.85  0. 1.0000     0. 
   4   4   4      2.09    1.74  0. 1.0000     0. 
   2  -5  -4      4.73    1.80  0. 1.0000     0. 
   2  -5  -4      0.49    2.14  0. 1.0000     0. 
   1  -5  -4      2.63    2.14  0. 1.0000     0. 
   0  -5  -4     22.90    2.94  0. 1.0000     0. 
  -1  -5  -4      2.12    2.20  0. 1.0000     0. 
  -2  -5  -4     16.52    3.02  0. 1.0000     0. 
  -2   0   5      0.04    0.29  0. 1.0000     0. 
   2   0  -5      0.05    0.44  0. 1.0000     0. 
   1   0  -5     -0.03    0.31  0. 1.0000     0. 
  -1   0   5      0.03    0.27  0. 1.0000     0. 
  -1   0   5      0.56    0.23  0. 1.0000     0. 
   1   0  -5     -0.03    0.22  0. 1.0000     0. 
  -1   0   5     -0.03    0.25  0. 1.0000     0. 
   1   0  -5      0.25    0.26  0. 1.0000     0. 
   0   0   5     -0.15    0.37  0. 1.0000     0. 
   0   0   5      0.08    0.28  0. 1.0000     0. 
   0   0   5     -0.07    0.28  0. 1.0000     0. 
   0   0  -5      0.06    0.31  0. 1.0000     0. 
   0   0  -5      0.24    0.25  0. 1.0000     0. 
   0   0  -5     -0.05    0.31  0. 1.0000     0. 
  -3  -1   5   1888.07  112.92  0. 1.0000     0. 
   3   1  -5   2010.63  121.55  0. 1.0000     0. 
  -3   1   5   1951.86  108.60  0. 1.0000     0. 
   2   1  -5    564.51   33.95  0. 1.0000     0. 
  -2   1   5    519.79   30.52  0. 1.0000     0. 
  -4  -2   5    623.64   36.91  0. 1.0000     0. 
  -3  -2   5     58.69    4.07  0. 1.0000     0. 
   3  -2  -5     57.84    4.23  0. 1.0000     0. 
   3   2  -5     57.71    4.61  0. 1.0000     0. 
  -3   2   5     60.00    3.97  0. 1.0000     0. 
   2  -2  -5    772.35   49.45  0. 1.0000     0. 
  -2   2   5    832.48   50.58  0. 1.0000     0. 
   2   2  -5    821.01   51.77  0. 1.0000     0. 
   2   2  -5    817.47   49.66  0. 1.0000     0. 
   2   2  -5    823.42   50.15  0. 1.0000     0. 
  -1  -2   5    224.22   14.20  0. 1.0000     0. 
   1  -2  -5    230.00   13.25  0. 1.0000     0. 
   1   2  -5    226.65   14.19  0. 1.0000     0. 
   1   2  -5    223.87   14.98  0. 1.0000     0. 
  -1   2   5    207.44   14.42  0. 1.0000     0. 
  -1   2   5    239.85   14.27  0. 1.0000     0. 
   1   2  -5    228.08   12.53  0. 1.0000     0. 
   0  -2   5    428.79   20.86  0. 1.0000     0. 
   0   2  -5    405.70   23.02  0. 1.0000     0. 
   0   2  -5    409.49   26.77  0. 1.0000     0. 
   0   2   5    401.10   23.66  0. 1.0000     0. 
   1  -2   5     60.47    3.80  0. 1.0000     0. 
   1   2   5     61.12    4.15  0. 1.0000     0. 
  -1   2  -5     63.05    4.83  0. 1.0000     0. 
  -1   2  -5     62.94    5.18  0. 1.0000     0. 
  -1   2  -5     62.35    3.78  0. 1.0000     0. 
   2  -2   5     96.37    5.89  0. 1.0000     0. 
  -2  -2  -5     99.01    6.39  0. 1.0000     0. 
   2   2   5    104.33    7.18  0. 1.0000     0. 
   2   2   5    111.64    6.40  0. 1.0000     0. 
   4   3  -5     18.74    2.49  0. 1.0000     0. 
  -4   3   5     18.56    1.93  0. 1.0000     0. 
  -3  -3   5    354.76   21.53  0. 1.0000     0. 
   3   3  -5    379.65   23.14  0. 1.0000     0. 
  -3   3   5    342.79   21.08  0. 1.0000     0. 
  -2  -3   5    575.30   35.51  0. 1.0000     0. 
  -2   3   5    616.17   33.33  0. 1.0000     0. 
   2   3  -5    588.98   37.96  0. 1.0000     0. 
  -1  -3   5    428.37   19.83  0. 1.0000     0. 
   1  -3  -5    340.30   26.12  0. 1.0000     0. 
   1   3  -5    392.55   24.15  0. 1.0000     0. 
  -1   3   5    393.24   24.73  0. 1.0000     0. 
   0  -3  -5      3.07    1.37  0. 1.0000     0. 
   0  -3   5      2.67    1.37  0. 1.0000     0. 
   0  -3   5      3.09    1.22  0. 1.0000     0. 
   0  -3  -5      2.42    1.43  0. 1.0000     0. 
   0   3   5      2.28    1.27  0. 1.0000     0. 
   0   3  -5      1.78    1.72  0. 1.0000     0. 
   0   3  -5      2.82    1.42  0. 1.0000     0. 
   0   3   5      3.13    1.55  0. 1.0000     0. 
   1  -3   5     23.12    2.49  0. 1.0000     0. 
  -1   3  -5     31.54    2.92  0. 1.0000     0. 
  -1   3  -5     28.43    3.53  0. 1.0000     0. 
   1   3   5     31.07    3.22  0. 1.0000     0. 
   2   3   5    933.53   57.76  0. 1.0000     0. 
   2   3   5    898.18   54.05  0. 1.0000     0. 
  -2   3  -5    976.26   58.35  0. 1.0000     0. 
  -2   3  -5    962.46   59.26  0. 1.0000     0. 
   5   4  -5     14.77    3.05  0. 1.0000     0. 
  -4  -4   5      1.83    1.13  0. 1.0000     0. 
   4  -4  -5      4.34    1.89  0. 1.0000     0. 
   4   4  -5      2.86    1.84  0. 1.0000     0. 
  -4   4   5      2.92    1.58  0. 1.0000     0. 
   4   4  -5      1.38    2.08  0. 1.0000     0. 
  -3  -4   5     90.98    6.22  0. 1.0000     0. 
   3  -4  -5     90.65    6.64  0. 1.0000     0. 
   3   4  -5     86.04    6.98  0. 1.0000     0. 
  -3   4   5     82.98    6.70  0. 1.0000     0. 
   3   4  -5     88.14    7.32  0. 1.0000     0. 
   1  -4  -5    204.17   11.88  0. 1.0000     0. 
  -1  -4   5    199.17   13.47  0. 1.0000     0. 
  -1   4   5    207.77   12.70  0. 1.0000     0. 
   1   4  -5    211.88   14.21  0. 1.0000     0. 
   0  -4   5     75.79    4.89  0. 1.0000     0. 
   0  -4   5     75.97    5.43  0. 1.0000     0. 
   0   4   5     63.77    5.12  0. 1.0000     0. 
   0   4  -5     73.53    5.75  0. 1.0000     0. 
   0   4  -5     61.88    6.83  0. 1.0000     0. 
  -2  -4  -5      4.38    1.59  0. 1.0000     0. 
   2  -4   5      6.28    1.69  0. 1.0000     0. 
  -2  -4  -5      6.31    1.95  0. 1.0000     0. 
   2  -4   5      5.80    1.59  0. 1.0000     0. 
  -2   4  -5      6.98    2.01  0. 1.0000     0. 
   2   4   5      6.50    2.19  0. 1.0000     0. 
   2   4   5      6.40    1.92  0. 1.0000     0. 
   3   4   5    196.82   12.37  0. 1.0000     0. 
  -3   4  -5    173.26   13.10  0. 1.0000     0. 
  -4  -5   5      0.14    1.24  0. 1.0000     0. 
  -4  -5   5      0.56    1.76  0. 1.0000     0. 
   4  -5  -5      0.19    0.87  0. 1.0000     0. 
  -4   5   5     -0.55    1.83  0. 1.0000     0. 
   3  -5  -5     39.13    4.18  0. 1.0000     0. 
  -3  -5   5     43.78    3.72  0. 1.0000     0. 
  -3   5   5     42.20    4.30  0. 1.0000     0. 
   2  -5  -5      2.04    1.83  0. 1.0000     0. 
   2  -5  -5      0.47    2.10  0. 1.0000     0. 
  -2  -5   5      2.52    1.66  0. 1.0000     0. 
  -2  -5   5      3.74    1.90  0. 1.0000     0. 
  -2   5   5      0.65    2.07  0. 1.0000     0. 
   2   5  -5      1.58    1.95  0. 1.0000     0. 
  -2   5   5      1.06    2.32  0. 1.0000     0. 
   2   5  -5      1.60    1.96  0. 1.0000     0. 
  -1  -5   5     14.36    2.35  0. 1.0000     0. 
   1  -5  -5     11.77    2.63  0. 1.0000     0. 
  -1  -5   5     11.33    2.03  0. 1.0000     0. 
   1  -5  -5     18.92    2.80  0. 1.0000     0. 
   1   5  -5     15.68    2.81  0. 1.0000     0. 
   1   5  -5     14.02    3.29  0. 1.0000     0. 
  -1   5   5     10.03    2.24  0. 1.0000     0. 
  -1   5   5     10.03    2.42  0. 1.0000     0. 
   0  -5  -5     -0.48    1.95  0. 1.0000     0. 
   0  -5  -5      1.19    1.85  0. 1.0000     0. 
   0  -5   5      1.11    1.81  0. 1.0000     0. 
   0  -5   5      3.80    2.06  0. 1.0000     0. 
   0   5   5     -0.20    1.88  0. 1.0000     0. 
   0   5  -5      2.31    2.17  0. 1.0000     0. 
   0   5  -5     -0.30    2.75  0. 1.0000     0. 
   0   5   5      1.35    2.13  0. 1.0000     0. 
   1  -5   5      3.98    1.89  0. 1.0000     0. 
  -1  -5  -5      4.83    2.13  0. 1.0000     0. 
  -1  -5  -5      2.14    2.18  0. 1.0000     0. 
   1  -5   5      4.31    1.55  0. 1.0000     0. 
   1   5   5      1.78    1.78  0. 1.0000     0. 
   1   5   5      4.42    2.13  0. 1.0000     0. 
  -1   5  -5      2.24    2.70  0. 1.0000     0. 
  -1   5  -5      4.60    1.88  0. 1.0000     0. 
  -2  -5  -5     27.21    3.23  0. 1.0000     0. 
   2  -5   5     30.28    2.88  0. 1.0000     0. 
  -2  -5  -5     29.00    3.60  0. 1.0000     0. 
   2  -5   5     22.80    2.80  0. 1.0000     0. 
   2   5   5     23.39    3.37  0. 1.0000     0. 
  -2   5  -5     32.75    4.17  0. 1.0000     0. 
   2   5   5     14.31    2.77  0. 1.0000     0. 
   3  -5   5     -0.66    1.44  0. 1.0000     0. 
  -3  -5  -5      1.05    1.68  0. 1.0000     0. 
  -3  -5  -5      0.77    1.27  0. 1.0000     0. 
   3   5   5      0.23    2.26  0. 1.0000     0. 
  -3   5  -5      3.16    2.26  0. 1.0000     0. 
   1   0  -6    183.11   10.53  0. 1.0000     0. 
  -1   0   6    159.64   10.45  0. 1.0000     0. 
   0   0   6    234.37   12.02  0. 1.0000     0. 
   0   0   6    238.60   14.45  0. 1.0000     0. 
  -3  -1   6   2338.68  140.04  0. 1.0000     0. 
  -3   1   6   2555.30  146.59  0. 1.0000     0. 
  -3   1   6   2433.06  136.86  0. 1.0000     0. 
   2  -1  -6      4.37    0.85  0. 1.0000     0. 
  -2  -1   6      3.81    0.77  0. 1.0000     0. 
  -2   1   6      5.88    1.02  0. 1.0000     0. 
  -2   1   6      4.46    0.75  0. 1.0000     0. 
   2   1  -6      4.51    1.06  0. 1.0000     0. 
   2   1  -6      4.12    0.89  0. 1.0000     0. 
   1   1  -6      1.61    0.71  0. 1.0000     0. 
  -1   1   6      0.57    0.45  0. 1.0000     0. 
   0  -1  -6   1533.44   75.06  0. 1.0000     0. 
   0  -1   6   1507.82   78.07  0. 1.0000     0. 
   0   1   6   1575.16   83.96  0. 1.0000     0. 
  -1  -1  -6      4.95    1.00  0. 1.0000     0. 
   1  -1   6      5.47    0.75  0. 1.0000     0. 
   1   1   6      1.80    0.89  0. 1.0000     0. 
  -1   1  -6      3.92    1.13  0. 1.0000     0. 
   1   1   6      3.11    0.99  0. 1.0000     0. 
  -1   1  -6      2.61    0.92  0. 1.0000     0. 
  -3  -2   6   1063.81   63.79  0. 1.0000     0. 
   3  -2  -6   1054.07   65.08  0. 1.0000     0. 
   3   2  -6   1112.73   68.07  0. 1.0000     0. 
  -2  -2   6    337.23   20.91  0. 1.0000     0. 
   2   2  -6    352.25   22.01  0. 1.0000     0. 
  -1  -2   6    553.47   32.81  0. 1.0000     0. 
   1   2  -6    568.02   34.57  0. 1.0000     0. 
  -1   2   6    574.98   33.22  0. 1.0000     0. 
   0  -2  -6   1428.06   86.34  0. 1.0000     0. 
   0   2   6   1281.49   84.59  0. 1.0000     0. 
   0   2  -6   1494.93   87.52  0. 1.0000     0. 
  -1   2  -6    247.68   15.41  0. 1.0000     0. 
  -1   2  -6    219.92   16.34  0. 1.0000     0. 
   1   2   6    222.43   14.07  0. 1.0000     0. 
   5   3  -6      5.72    1.75  0. 1.0000     0. 
  -3  -3   6    183.74   12.39  0. 1.0000     0. 
   3   3  -6    216.72   13.78  0. 1.0000     0. 
  -3   3   6    189.15   11.93  0. 1.0000     0. 
   3   3  -6    211.56   13.89  0. 1.0000     0. 
  -2  -3   6    230.64   14.39  0. 1.0000     0. 
  -2   3   6    229.66   15.34  0. 1.0000     0. 
   2   3  -6    233.38   15.31  0. 1.0000     0. 
  -1  -3   6     95.21    6.24  0. 1.0000     0. 
   1  -3  -6     90.90    7.03  0. 1.0000     0. 
  -1   3   6     93.05    6.54  0. 1.0000     0. 
   1   3  -6     92.85    6.45  0. 1.0000     0. 
   0  -3   6     17.81    2.30  0. 1.0000     0. 
   0  -3   6     16.94    1.89  0. 1.0000     0. 
   0  -3  -6     16.81    2.43  0. 1.0000     0. 
   0  -3  -6     19.36    2.41  0. 1.0000     0. 
   0   3  -6     15.90    2.77  0. 1.0000     0. 
   0   3  -6     15.27    2.19  0. 1.0000     0. 
   0   3   6     21.41    2.00  0. 1.0000     0. 
   0   3   6     17.25    2.40  0. 1.0000     0. 
   1  -3   6    194.26   11.47  0. 1.0000     0. 
  -1  -3  -6    209.86   13.28  0. 1.0000     0. 
  -1   3  -6    203.33   13.59  0. 1.0000     0. 
  -3  -3  -6      0.60    1.23  0. 1.0000     0. 
   5   4  -6      3.65    2.14  0. 1.0000     0. 
  -4  -4   6     27.05    2.94  0. 1.0000     0. 
   4  -4  -6     39.90    3.72  0. 1.0000     0. 
   4   4  -6     43.87    4.38  0. 1.0000     0. 
  -4   4   6     35.41    3.00  0. 1.0000     0. 
   3  -4  -6      1.48    1.48  0. 1.0000     0. 
  -3  -4   6      2.64    1.62  0. 1.0000     0. 
  -3   4   6      2.46    1.89  0. 1.0000     0. 
   3   4  -6      0.61    1.84  0. 1.0000     0. 
   3   4  -6      0.72    2.06  0. 1.0000     0. 
  -3   4   6      1.98    1.37  0. 1.0000     0. 
   2  -4  -6     -0.29    1.54  0. 1.0000     0. 
   2  -4  -6     -0.84    1.90  0. 1.0000     0. 
  -2  -4   6      0.57    1.53  0. 1.0000     0. 
  -2  -4   6     -0.46    1.53  0. 1.0000     0. 
   2   4  -6     -0.53    1.67  0. 1.0000     0. 
  -2   4   6      0.83    1.34  0. 1.0000     0. 
   2   4  -6     -0.29    1.85  0. 1.0000     0. 
  -2   4   6     -1.12    1.80  0. 1.0000     0. 
   0  -4   6     20.72    2.46  0. 1.0000     0. 
   0  -4   6     19.51    2.62  0. 1.0000     0. 
   0  -4  -6     18.83    2.80  0. 1.0000     0. 
   0   4  -6     19.51    2.89  0. 1.0000     0. 
   0   4  -6     20.53    3.61  0. 1.0000     0. 
   0   4   6     19.51    2.81  0. 1.0000     0. 
   0   4   6     19.62    2.78  0. 1.0000     0. 
  -1  -4  -6     10.27    2.35  0. 1.0000     0. 
   1  -4   6     13.75    2.10  0. 1.0000     0. 
   1  -4   6      9.40    2.02  0. 1.0000     0. 
  -1  -4  -6     15.36    2.37  0. 1.0000     0. 
   1   4   6     10.76    2.24  0. 1.0000     0. 
  -1   4  -6     12.76    2.29  0. 1.0000     0. 
  -1   4  -6     21.20    3.55  0. 1.0000     0. 
   1   4   6     12.16    2.09  0. 1.0000     0. 
  -2  -4  -6      7.37    1.87  0. 1.0000     0. 
  -2  -4  -6      9.36    2.09  0. 1.0000     0. 
   2  -4   6      8.15    1.76  0. 1.0000     0. 
   2  -4   6      6.49    1.71  0. 1.0000     0. 
   2   4   6      5.59    1.84  0. 1.0000     0. 
   2   4   6      6.41    2.07  0. 1.0000     0. 
  -2   4  -6      7.93    2.20  0. 1.0000     0. 
  -3  -4  -6     -0.34    1.61  0. 1.0000     0. 
   3   4   6      0.36    1.69  0. 1.0000     0. 
  -3   4  -6      0.34    2.11  0. 1.0000     0. 
   5   5  -6     21.94    4.41  0. 1.0000     0. 
  -4  -5   6      1.18    1.88  0. 1.0000     0. 
   4  -5  -6      7.57    2.38  0. 1.0000     0. 
  -4  -5   6      5.04    1.61  0. 1.0000     0. 
  -4   5   6      4.60    1.98  0. 1.0000     0. 
   4   5  -6      4.13    2.53  0. 1.0000     0. 
   4   5  -6      6.85    2.17  0. 1.0000     0. 
   3  -5  -6     27.46    3.63  0. 1.0000     0. 
  -3  -5   6     39.51    3.46  0. 1.0000     0. 
   3  -5  -6     35.74    4.07  0. 1.0000     0. 
   3   5  -6     33.52    4.31  0. 1.0000     0. 
   3   5  -6     39.88    4.00  0. 1.0000     0. 
  -3   5   6     41.98    4.22  0. 1.0000     0. 
  -3   5   6     27.34    3.29  0. 1.0000     0. 
  -2  -5   6     19.00    2.73  0. 1.0000     0. 
  -2  -5   6     19.40    2.55  0. 1.0000     0. 
   2  -5  -6     13.41    2.65  0. 1.0000     0. 
   2  -5  -6     14.11    2.83  0. 1.0000     0. 
   2   5  -6     20.24    3.48  0. 1.0000     0. 
   2   5  -6     21.38    3.26  0. 1.0000     0. 
  -2   5   6     15.92    2.76  0. 1.0000     0. 
  -2   5   6     17.62    3.00  0. 1.0000     0. 
  -1  -5   6     26.40    2.83  0. 1.0000     0. 
   1  -5  -6     21.47    3.23  0. 1.0000     0. 
  -1  -5   6     23.53    2.89  0. 1.0000     0. 
   1  -5  -6     24.43    3.03  0. 1.0000     0. 
  -1   5   6     19.65    2.97  0. 1.0000     0. 
   1   5  -6     18.51    4.00  0. 1.0000     0. 
   1   5  -6     27.43    3.50  0. 1.0000     0. 
  -1   5   6     23.53    3.35  0. 1.0000     0. 
   0  -5  -6     26.55    3.43  0. 1.0000     0. 
   0  -5   6     30.96    3.37  0. 1.0000     0. 
   0  -5  -6     26.47    3.47  0. 1.0000     0. 
   0  -5   6     31.11    3.32  0. 1.0000     0. 
   0   5  -6     31.59    3.95  0. 1.0000     0. 
   0   5  -6     22.19    4.37  0. 1.0000     0. 
   0   5   6     28.90    3.41  0. 1.0000     0. 
   0   5   6     27.71    3.23  0. 1.0000     0. 
   1  -5   6     28.03    2.91  0. 1.0000     0. 
  -1  -5  -6     25.48    3.35  0. 1.0000     0. 
  -1  -5  -6     23.84    3.65  0. 1.0000     0. 
   1   5   6     24.88    3.11  0. 1.0000     0. 
   1   5   6     30.26    3.46  0. 1.0000     0. 
  -1   5  -6     29.68    3.38  0. 1.0000     0. 
  -1   5  -6     34.97    4.95  0. 1.0000     0. 
   2  -5   6      0.92    1.31  0. 1.0000     0. 
  -2  -5  -6      0.29    2.26  0. 1.0000     0. 
  -2  -5  -6      1.10    1.69  0. 1.0000     0. 
   2  -5   6      2.10    1.92  0. 1.0000     0. 
   2   5   6     -0.21    1.80  0. 1.0000     0. 
  -2   5  -6      1.75    2.44  0. 1.0000     0. 
   2   5   6      0.99    2.19  0. 1.0000     0. 
  -3  -5  -6      0.39    1.35  0. 1.0000     0. 
   3  -5   6      1.19    1.47  0. 1.0000     0. 
  -3  -5  -6     -0.14    1.43  0. 1.0000     0. 
  -3   5  -6     -1.52    2.38  0. 1.0000     0. 
   3   5   6     -1.96    2.21  0. 1.0000     0. 
   3   0  -7     -0.14    0.71  0. 1.0000     0. 
  -3   0   7     -0.06    0.51  0. 1.0000     0. 
  -2   0   7      0.06    0.66  0. 1.0000     0. 
   2   0  -7     -0.05    0.50  0. 1.0000     0. 
   2   0  -7     -0.15    0.39  0. 1.0000     0. 
   2   0  -7     -0.14    0.52  0. 1.0000     0. 
  -2   0   7      0.04    0.41  0. 1.0000     0. 
  -2   0   7     -0.24    0.36  0. 1.0000     0. 
   1   0  -7      0.04    0.44  0. 1.0000     0. 
   1   0  -7      1.12    0.47  0. 1.0000     0. 
   1   0  -7      0.03    0.34  0. 1.0000     0. 
  -1   0   7      0.22    0.52  0. 1.0000     0. 
  -1   0   7     -0.12    0.39  0. 1.0000     0. 
   1   0  -7      0.10    0.46  0. 1.0000     0. 
  -1   0   7     -0.08    0.45  0. 1.0000     0. 
  -1   0   7     -0.08    0.42  0. 1.0000     0. 
   0   0  -7      0.04    0.47  0. 1.0000     0. 
   0   0   7     -0.06    0.57  0. 1.0000     0. 
   0   0  -7     -0.18    0.40  0. 1.0000     0. 
   0   0   7     -0.31    0.48  0. 1.0000     0. 
   0   0   7     -0.16    0.39  0. 1.0000     0. 
   0   0  -7     -0.08    0.58  0. 1.0000     0. 
  -3  -1   7     29.86    2.91  0. 1.0000     0. 
   3  -1  -7     44.13    3.10  0. 1.0000     0. 
  -3   1   7     42.34    2.82  0. 1.0000     0. 
   3   1  -7     45.56    3.46  0. 1.0000     0. 
  -2  -1   7    346.47   20.04  0. 1.0000     0. 
   2  -1  -7    332.09   21.23  0. 1.0000     0. 
   2  -1  -7    361.01   20.12  0. 1.0000     0. 
   2   1  -7    312.98   21.76  0. 1.0000     0. 
  -2   1   7    336.82   19.13  0. 1.0000     0. 
   2   1  -7    332.30   21.73  0. 1.0000     0. 
  -1  -1   7   1789.57  100.88  0. 1.0000     0. 
   1   1  -7   1694.43  108.09  0. 1.0000     0. 
   1   1  -7   1658.83  103.22  0. 1.0000     0. 
   0  -1  -7    364.58   16.56  0. 1.0000     0. 
   0  -1   7    325.52   18.12  0. 1.0000     0. 
   0   1  -7    346.62   23.38  0. 1.0000     0. 
   0   1   7    367.49   20.65  0. 1.0000     0. 
   0   1   7    368.36   21.71  0. 1.0000     0. 
   0   1  -7    351.75   22.52  0. 1.0000     0. 
  -1  -1  -7   1824.97   84.61  0. 1.0000     0. 
  -1   1  -7   1796.84  112.36  0. 1.0000     0. 
   1   1   7   1860.38  105.55  0. 1.0000     0. 
  -1   1  -7   1630.26  113.71  0. 1.0000     0. 
   4  -2  -7     49.02    3.85  0. 1.0000     0. 
  -4   2   7     41.03    3.29  0. 1.0000     0. 
   3  -2  -7     98.57    6.67  0. 1.0000     0. 
   3   2  -7     95.39    7.29  0. 1.0000     0. 
  -3   2   7    101.08    6.14  0. 1.0000     0. 
   2  -2  -7    713.38   42.52  0. 1.0000     0. 
  -2   2   7    665.06   38.96  0. 1.0000     0. 
  -1  -2   7    107.03    6.80  0. 1.0000     0. 
   1   2  -7     92.39    7.24  0. 1.0000     0. 
  -1   2   7    101.24    6.17  0. 1.0000     0. 
   0   2  -7   2138.32  138.91  0. 1.0000     0. 
   0   2   7   2342.46  133.87  0. 1.0000     0. 
  -2  -2  -7     99.98    6.14  0. 1.0000     0. 
  -2   2  -7     91.63    7.00  0. 1.0000     0. 
   2   2   7     92.06    6.96  0. 1.0000     0. 
  -4   3   7    214.83   14.05  0. 1.0000     0. 
  -3   3   7     60.55    4.59  0. 1.0000     0. 
  -2  -3   7    157.26   10.10  0. 1.0000     0. 
   2   3  -7    158.59   10.74  0. 1.0000     0. 
  -2   3   7    143.47   10.66  0. 1.0000     0. 
  -2   3   7    155.86    9.24  0. 1.0000     0. 
   1   3  -7    599.60   38.48  0. 1.0000     0. 
  -1   3   7    607.38   37.53  0. 1.0000     0. 
   0  -3   7     21.49    2.44  0. 1.0000     0. 
   0  -3  -7     14.30    2.71  0. 1.0000     0. 
   0  -3   7     21.33    2.07  0. 1.0000     0. 
   0   3  -7     19.00    2.33  0. 1.0000     0. 
   0   3  -7     21.78    3.09  0. 1.0000     0. 
   0   3   7     20.44    2.62  0. 1.0000     0. 
   2  -3   7     12.57    1.73  0. 1.0000     0. 
  -2  -3  -7      5.17    2.06  0. 1.0000     0. 
   2   3   7     16.41    2.30  0. 1.0000     0. 
  -2   3  -7     15.72    2.16  0. 1.0000     0. 
  -3  -3  -7      0.31    0.75  0. 1.0000     0. 
  -5  -4   7     76.02    5.66  0. 1.0000     0. 
   5   4  -7     92.31    6.48  0. 1.0000     0. 
   4  -4  -7     10.43    2.30  0. 1.0000     0. 
  -4  -4   7      6.92    2.57  0. 1.0000     0. 
  -4   4   7      9.80    2.20  0. 1.0000     0. 
   4   4  -7      4.53    2.06  0. 1.0000     0. 
   4   4  -7     11.52    2.99  0. 1.0000     0. 
  -4   4   7      9.85    1.80  0. 1.0000     0. 
  -3  -4   7     10.59    1.94  0. 1.0000     0. 
  -3  -4   7      5.62    1.79  0. 1.0000     0. 
   3  -4  -7      4.59    1.81  0. 1.0000     0. 
   3   4  -7      5.43    2.04  0. 1.0000     0. 
  -3   4   7      5.35    1.73  0. 1.0000     0. 
   3   4  -7      5.06    2.03  0. 1.0000     0. 
  -3   4   7      3.85    1.99  0. 1.0000     0. 
  -2  -4   7    114.09    7.36  0. 1.0000     0. 
   2  -4  -7    106.23    7.16  0. 1.0000     0. 
  -2  -4   7    117.38    7.54  0. 1.0000     0. 
  -2   4   7    110.41    8.22  0. 1.0000     0. 
   2   4  -7    109.66    8.43  0. 1.0000     0. 
   1  -4  -7     27.48    3.31  0. 1.0000     0. 
  -1  -4   7     26.97    3.16  0. 1.0000     0. 
   1   4  -7     34.09    3.75  0. 1.0000     0. 
  -1   4   7     31.54    3.36  0. 1.0000     0. 
  -1   4   7     31.52    3.11  0. 1.0000     0. 
   1   4  -7     28.66    4.22  0. 1.0000     0. 
   0  -4   7     41.39    3.44  0. 1.0000     0. 
   0  -4   7     36.25    3.77  0. 1.0000     0. 
   0  -4  -7     42.97    4.07  0. 1.0000     0. 
   0  -4  -7     52.40    3.85  0. 1.0000     0. 
   0   4   7     29.63    3.72  0. 1.0000     0. 
   0   4   7     46.63    3.69  0. 1.0000     0. 
   0   4  -7     27.78    4.88  0. 1.0000     0. 
   0   4  -7     44.06    4.30  0. 1.0000     0. 
   1  -4   7     32.00    3.27  0. 1.0000     0. 
   1  -4   7     31.12    2.83  0. 1.0000     0. 
  -1  -4  -7     26.64    3.23  0. 1.0000     0. 
  -1  -4  -7     25.39    3.39  0. 1.0000     0. 
   1   4   7     24.87    2.93  0. 1.0000     0. 
  -1   4  -7     34.37    5.24  0. 1.0000     0. 
   1   4   7     30.10    3.38  0. 1.0000     0. 
  -2  -4  -7     12.71    2.50  0. 1.0000     0. 
  -2  -4  -7     14.13    2.57  0. 1.0000     0. 
   2  -4   7     19.91    2.44  0. 1.0000     0. 
   2  -4   7     19.89    2.33  0. 1.0000     0. 
  -2   4  -7     21.15    3.17  0. 1.0000     0. 
   2   4   7     20.53    2.61  0. 1.0000     0. 
   2   4   7     25.86    3.04  0. 1.0000     0. 
  -3  -4  -7      0.35    1.42  0. 1.0000     0. 
   3   4   7      3.69    1.76  0. 1.0000     0. 
  -5  -5   7     -0.31    0.90  0. 1.0000     0. 
  -5   5   7     -0.61    1.81  0. 1.0000     0. 
   5   5  -7      0.27    2.69  0. 1.0000     0. 
  -4  -5   7      8.18    2.70  0. 1.0000     0. 
   4  -5  -7      7.06    2.19  0. 1.0000     0. 
  -4  -5   7      4.88    1.83  0. 1.0000     0. 
   4   5  -7      7.84    2.88  0. 1.0000     0. 
   4   5  -7      3.77    2.53  0. 1.0000     0. 
  -4   5   7      5.12    1.78  0. 1.0000     0. 
   3  -5  -7      1.76    1.88  0. 1.0000     0. 
  -3  -5   7      1.69    1.83  0. 1.0000     0. 
   3  -5  -7     -1.51    2.12  0. 1.0000     0. 
  -3  -5   7      0.83    1.87  0. 1.0000     0. 
  -3   5   7     -1.54    1.60  0. 1.0000     0. 
   3   5  -7      0.23    2.15  0. 1.0000     0. 
   3   5  -7      0.73    2.21  0. 1.0000     0. 
  -3   5   7      0.63    2.26  0. 1.0000     0. 
   2  -5  -7     -0.50    2.17  0. 1.0000     0. 
  -2  -5   7      0.19    1.80  0. 1.0000     0. 
   2  -5  -7     -0.18    1.70  0. 1.0000     0. 
  -2  -5   7     -0.19    1.96  0. 1.0000     0. 
   2   5  -7      0.77    2.34  0. 1.0000     0. 
  -2   5   7      1.37    1.91  0. 1.0000     0. 
   2   5  -7     -0.37    2.47  0. 1.0000     0. 
  -2   5   7      0.79    1.90  0. 1.0000     0. 
   1  -5  -7     38.55    3.70  0. 1.0000     0. 
   1  -5  -7     22.42    3.85  0. 1.0000     0. 
  -1  -5   7     35.45    3.51  0. 1.0000     0. 
  -1   5   7     31.21    3.53  0. 1.0000     0. 
  -1   5   7     35.79    4.04  0. 1.0000     0. 
   1   5  -7     44.32    5.22  0. 1.0000     0. 
   1   5  -7     32.80    4.08  0. 1.0000     0. 
   0  -5  -7      6.33    1.97  0. 1.0000     0. 
   0  -5   7      3.89    1.89  0. 1.0000     0. 
   0  -5  -7      5.56    2.61  0. 1.0000     0. 
   0  -5   7      1.53    2.06  0. 1.0000     0. 
   0   5   7      3.87    2.02  0. 1.0000     0. 
   0   5  -7      3.81    2.22  0. 1.0000     0. 
   0   5  -7      7.63    3.32  0. 1.0000     0. 
   0   5   7      3.36    2.29  0. 1.0000     0. 
  -1  -5  -7      3.18    2.02  0. 1.0000     0. 
  -1  -5  -7      4.14    2.10  0. 1.0000     0. 
   1  -5   7      1.94    1.56  0. 1.0000     0. 
   1  -5   7      2.45    1.85  0. 1.0000     0. 
  -1   5  -7      2.15    2.19  0. 1.0000     0. 
   1   5   7      3.70    2.05  0. 1.0000     0. 
   1   5   7      2.69    2.05  0. 1.0000     0. 
  -1   5  -7      4.50    3.34  0. 1.0000     0. 
  -2  -5  -7     -0.32    2.24  0. 1.0000     0. 
   2  -5   7      1.57    1.34  0. 1.0000     0. 
   2  -5   7     -0.18    1.75  0. 1.0000     0. 
  -2  -5  -7     -0.16    1.77  0. 1.0000     0. 
   2   5   7     -0.22    2.09  0. 1.0000     0. 
   2   5   7      1.98    1.85  0. 1.0000     0. 
  -2   5  -7      1.13    1.95  0. 1.0000     0. 
  -3  -5  -7      1.01    1.69  0. 1.0000     0. 
   3   5   7     -0.22    1.88  0. 1.0000     0. 
  -2   0   8    134.29    8.17  0. 1.0000     0. 
   2   0  -8    132.19    9.01  0. 1.0000     0. 
   1   0  -8   1628.17   96.82  0. 1.0000     0. 
  -1   0   8   1541.76   93.20  0. 1.0000     0. 
   0   0  -8   1346.93   85.74  0. 1.0000     0. 
   0   0   8   1358.62   76.06  0. 1.0000     0. 
   0   0   8   1379.77   83.74  0. 1.0000     0. 
   0   0  -8   1403.97   64.50  0. 1.0000     0. 
  -4   1   8     30.96    2.50  0. 1.0000     0. 
  -2  -1   8   1671.75   97.88  0. 1.0000     0. 
   2  -1  -8   1607.05  102.48  0. 1.0000     0. 
   2   1  -8   1734.32  102.47  0. 1.0000     0. 
   2   1  -8   1682.44  103.91  0. 1.0000     0. 
   1  -1  -8    123.92    8.47  0. 1.0000     0. 
  -1  -1   8    122.31    7.93  0. 1.0000     0. 
  -1  -1   8    127.81    6.96  0. 1.0000     0. 
   1   1  -8    130.80    8.25  0. 1.0000     0. 
   1  -1   8   1650.59   86.18  0. 1.0000     0. 
  -1   1  -8   1786.64  106.96  0. 1.0000     0. 
  -1   1  -8   1798.30  110.51  0. 1.0000     0. 
  -5  -2   8      0.10    0.17  0. 1.0000     0. 
  -4  -2   8    117.46    7.87  0. 1.0000     0. 
   4  -2  -8    136.16    8.42  0. 1.0000     0. 
  -4   2   8    119.79    8.79  0. 1.0000     0. 
  -4   2   8    119.16    7.36  0. 1.0000     0. 
   3  -2  -8      0.18    0.88  0. 1.0000     0. 
  -3  -2   8     -0.41    1.02  0. 1.0000     0. 
   3   2  -8      0.11    0.95  0. 1.0000     0. 
  -3   2   8     -0.11    1.00  0. 1.0000     0. 
  -3   2   8      0.11    0.81  0. 1.0000     0. 
   3   2  -8      0.60    1.45  0. 1.0000     0. 
   0  -2  -8    134.48    8.83  0. 1.0000     0. 
   0  -2   8    132.54    7.04  0. 1.0000     0. 
   0   2   8    136.30    7.68  0. 1.0000     0. 
   0   2   8    106.19    8.97  0. 1.0000     0. 
   0   2  -8    124.16    9.12  0. 1.0000     0. 
   1  -2   8    237.53   12.64  0. 1.0000     0. 
  -1   2  -8    234.59   15.71  0. 1.0000     0. 
  -2  -2  -8     61.85    4.76  0. 1.0000     0. 
   2   2   8     61.00    5.11  0. 1.0000     0. 
   5  -3  -8     18.05    2.45  0. 1.0000     0. 
  -5   3   8     13.20    1.72  0. 1.0000     0. 
  -3  -3   8      7.64    1.64  0. 1.0000     0. 
  -3   3   8      8.62    1.56  0. 1.0000     0. 
   3   3  -8     10.89    1.98  0. 1.0000     0. 
   0  -3   8      3.85    1.60  0. 1.0000     0. 
   0  -3  -8      2.53    1.71  0. 1.0000     0. 
   0   3  -8      3.17    1.45  0. 1.0000     0. 
   0   3   8      1.55    1.87  0. 1.0000     0. 
  -3  -3  -8     -0.64    0.93  0. 1.0000     0. 
   3   3   8      0.99    1.76  0. 1.0000     0. 
   5  -4  -8      9.44    2.15  0. 1.0000     0. 
  -5  -4   8     12.15    1.71  0. 1.0000     0. 
  -5   4   8     11.44    1.96  0. 1.0000     0. 
   5   4  -8      9.22    2.39  0. 1.0000     0. 
   4  -4  -8     -0.16    1.38  0. 1.0000     0. 
  -4  -4   8     -0.14    1.28  0. 1.0000     0. 
  -4   4   8     -0.14    1.29  0. 1.0000     0. 
   4   4  -8     -0.89    1.98  0. 1.0000     0. 
   4   4  -8      1.15    2.10  0. 1.0000     0. 
  -4   4   8     -0.36    1.81  0. 1.0000     0. 
  -3  -4   8     -0.16    1.67  0. 1.0000     0. 
   3  -4  -8      0.45    1.60  0. 1.0000     0. 
  -3  -4   8      2.95    1.61  0. 1.0000     0. 
   3   4  -8      1.41    2.40  0. 1.0000     0. 
  -3   4   8      3.05    1.36  0. 1.0000     0. 
   3   4  -8      2.10    2.16  0. 1.0000     0. 
  -3   4   8      1.01    1.85  0. 1.0000     0. 
   2  -4  -8      1.17    1.39  0. 1.0000     0. 
   2  -4  -8      1.52    1.97  0. 1.0000     0. 
  -2  -4   8      1.40    1.64  0. 1.0000     0. 
  -2  -4   8      2.64    1.70  0. 1.0000     0. 
  -2   4   8      4.53    2.21  0. 1.0000     0. 
  -2   4   8      1.13    1.75  0. 1.0000     0. 
   2   4  -8      2.26    2.01  0. 1.0000     0. 
   2   4  -8      1.91    2.15  0. 1.0000     0. 
  -1  -4   8     10.56    2.21  0. 1.0000     0. 
   1  -4  -8     13.11    2.36  0. 1.0000     0. 
   1  -4  -8     17.46    2.64  0. 1.0000     0. 
  -1  -4   8     12.87    2.10  0. 1.0000     0. 
   1   4  -8     13.79    2.67  0. 1.0000     0. 
  -1   4   8     10.54    2.51  0. 1.0000     0. 
   1   4  -8     13.61    3.05  0. 1.0000     0. 
  -1   4   8     16.23    2.44  0. 1.0000     0. 
   0  -4  -8      1.58    1.66  0. 1.0000     0. 
   0  -4  -8      4.49    2.11  0. 1.0000     0. 
   0  -4   8      4.49    1.87  0. 1.0000     0. 
   0  -4   8      5.95    1.74  0. 1.0000     0. 
   0   4   8      4.26    2.14  0. 1.0000     0. 
   0   4   8      3.20    2.08  0. 1.0000     0. 
   0   4  -8      3.95    2.02  0. 1.0000     0. 
   0   4  -8      7.27    3.03  0. 1.0000     0. 
   1  -4   8     -1.67    1.51  0. 1.0000     0. 
  -1  -4  -8      0.73    1.90  0. 1.0000     0. 
  -1  -4  -8     -0.84    1.77  0. 1.0000     0. 
   1  -4   8      1.03    1.68  0. 1.0000     0. 
   1   4   8      0.19    1.59  0. 1.0000     0. 
  -1   4  -8      0.30    1.70  0. 1.0000     0. 
   1   4   8      0.37    1.89  0. 1.0000     0. 
  -1   4  -8     -2.11    2.66  0. 1.0000     0. 
  -2  -4  -8      5.79    2.00  0. 1.0000     0. 
  -2  -4  -8      6.83    2.01  0. 1.0000     0. 
   2  -4   8      7.84    1.89  0. 1.0000     0. 
   2  -4   8     11.08    1.89  0. 1.0000     0. 
   2   4   8      4.90    1.95  0. 1.0000     0. 
  -2   4  -8      6.63    2.38  0. 1.0000     0. 
   2   4   8      8.76    2.13  0. 1.0000     0. 
  -3  -4  -8     -0.35    1.26  0. 1.0000     0. 
   3   4   8      0.19    1.92  0. 1.0000     0. 
  -5  -5   8     -0.17    1.50  0. 1.0000     0. 
  -4  -5   8      1.32    2.53  0. 1.0000     0. 
   4  -5  -8      0.75    1.79  0. 1.0000     0. 
  -4  -5   8     -0.68    1.77  0. 1.0000     0. 
   4   5  -8      1.00    2.46  0. 1.0000     0. 
  -4   5   8      0.61    1.86  0. 1.0000     0. 
   4   5  -8      0.47    2.41  0. 1.0000     0. 
  -3  -5   8      2.41    2.01  0. 1.0000     0. 
   3  -5  -8      1.34    1.76  0. 1.0000     0. 
  -3  -5   8      2.99    1.94  0. 1.0000     0. 
   3  -5  -8      2.73    2.39  0. 1.0000     0. 
   3   5  -8     -0.24    2.55  0. 1.0000     0. 
  -3   5   8      1.93    1.67  0. 1.0000     0. 
   3   5  -8      3.81    2.32  0. 1.0000     0. 
  -3   5   8      4.71    2.40  0. 1.0000     0. 
   2  -5  -8      0.95    1.65  0. 1.0000     0. 
  -2  -5   8     -0.57    1.95  0. 1.0000     0. 
  -2  -5   8      1.10    1.89  0. 1.0000     0. 
   2  -5  -8      0.51    2.36  0. 1.0000     0. 
  -2   5   8      0.21    1.77  0. 1.0000     0. 
   2   5  -8     -0.19    2.40  0. 1.0000     0. 
  -2   5   8      1.58    2.19  0. 1.0000     0. 
   2   5  -8      0.26    2.66  0. 1.0000     0. 
  -1  -5   8      9.69    2.26  0. 1.0000     0. 
   1  -5  -8     10.26    2.42  0. 1.0000     0. 
   1  -5  -8      6.93    2.91  0. 1.0000     0. 
  -1  -5   8      8.40    2.13  0. 1.0000     0. 
   1   5  -8      9.67    3.72  0. 1.0000     0. 
  -1   5   8      9.86    2.77  0. 1.0000     0. 
  -1   5   8      6.77    2.32  0. 1.0000     0. 
   1   5  -8      8.95    2.83  0. 1.0000     0. 
   0  -5   8      2.87    1.82  0. 1.0000     0. 
   0  -5  -8     -0.26    1.93  0. 1.0000     0. 
   0  -5  -8      0.16    1.75  0. 1.0000     0. 
   0  -5   8      1.22    2.08  0. 1.0000     0. 
   0   5   8      7.85    2.74  0. 1.0000     0. 
   0   5  -8      1.86    2.76  0. 1.0000     0. 
   0   5   8      3.58    2.00  0. 1.0000     0. 
   0   5  -8      2.91    2.21  0. 1.0000     0. 
   1  -5   8      3.39    1.73  0. 1.0000     0. 
  -1  -5  -8      0.28    2.34  0. 1.0000     0. 
   1  -5   8      1.21    1.75  0. 1.0000     0. 
  -1  -5  -8      2.59    1.72  0. 1.0000     0. 
   1   5   8      0.23    2.01  0. 1.0000     0. 
   1   5   8      0.19    2.21  0. 1.0000     0. 
  -1   5  -8      0.69    3.11  0. 1.0000     0. 
  -1   5  -8      2.07    2.14  0. 1.0000     0. 
  -2  -5  -8     11.05    2.29  0. 1.0000     0. 
   2  -5   8     26.66    2.59  0. 1.0000     0. 
   2  -5   8     16.27    2.32  0. 1.0000     0. 
  -2   5  -8     29.34    3.85  0. 1.0000     0. 
   2   5   8     15.24    2.50  0. 1.0000     0. 
   2   5   8     15.81    2.78  0. 1.0000     0. 
  -3  -5  -8      1.91    1.47  0. 1.0000     0. 
   3   5   8      0.21    2.21  0. 1.0000     0. 
   4   0  -9      0.25    0.75  0. 1.0000     0. 
   2   0  -9      0.10    0.52  0. 1.0000     0. 
  -2   0   9     -0.36    0.58  0. 1.0000     0. 
  -2   0   9      0.58    0.65  0. 1.0000     0. 
   2   0  -9      0.51    0.73  0. 1.0000     0. 
   1   0  -9      0.05    0.62  0. 1.0000     0. 
   1   0  -9     -0.07    0.62  0. 1.0000     0. 
   1   0  -9      0.05    0.53  0. 1.0000     0. 
  -1   0   9      0.51    0.61  0. 1.0000     0. 
  -1   0   9      0.05    0.53  0. 1.0000     0. 
  -1   0   9      0.06    0.71  0. 1.0000     0. 
  -4   1   9     22.32    2.26  0. 1.0000     0. 
  -3  -1   9    157.54   10.31  0. 1.0000     0. 
  -3   1   9    164.61    9.84  0. 1.0000     0. 
   3   1  -9    175.85   11.33  0. 1.0000     0. 
   3   1  -9    173.04   11.46  0. 1.0000     0. 
  -2  -1   9    107.40    7.02  0. 1.0000     0. 
  -2   1   9    107.63    7.10  0. 1.0000     0. 
   1  -1  -9    383.58   22.25  0. 1.0000     0. 
   1  -1  -9    362.29   18.47  0. 1.0000     0. 
  -1   1   9    365.55   20.38  0. 1.0000     0. 
  -1   1   9    331.85   22.63  0. 1.0000     0. 
   0  -1   9     10.15    1.16  0. 1.0000     0. 
   0  -1  -9     10.41    1.37  0. 1.0000     0. 
   0   1  -9     10.21    1.91  0. 1.0000     0. 
   0   1   9     11.03    1.64  0. 1.0000     0. 
   0   1   9      9.76    1.41  0. 1.0000     0. 
   0   1  -9     10.13    1.39  0. 1.0000     0. 
   1   1   9     33.40    3.08  0. 1.0000     0. 
   1   1   9     29.60    2.54  0. 1.0000     0. 
  -5  -2   9      4.70    1.33  0. 1.0000     0. 
   5   2  -9      2.60    1.33  0. 1.0000     0. 
  -5   2   9      0.31    1.17  0. 1.0000     0. 
   4   2  -9    706.11   47.77  0. 1.0000     0. 
   4   2  -9    762.41   46.28  0. 1.0000     0. 
  -4   2   9    723.61   40.75  0. 1.0000     0. 
  -3  -2   9    175.45   10.79  0. 1.0000     0. 
   3  -2  -9    191.95   11.15  0. 1.0000     0. 
   3   2  -9    151.98   12.85  0. 1.0000     0. 
   3   2  -9    175.95   11.93  0. 1.0000     0. 
  -2  -2   9     67.31    4.76  0. 1.0000     0. 
  -2   2   9     69.69    4.30  0. 1.0000     0. 
   2   2  -9     62.11    5.20  0. 1.0000     0. 
  -2   2   9     62.75    4.98  0. 1.0000     0. 
   2   2  -9     65.22    5.25  0. 1.0000     0. 
  -1  -2   9     15.03    1.69  0. 1.0000     0. 
  -1  -2   9     11.44    1.49  0. 1.0000     0. 
   1  -2  -9     11.83    1.68  0. 1.0000     0. 
   1  -2  -9     10.67    1.92  0. 1.0000     0. 
  -1   2   9     10.52    1.45  0. 1.0000     0. 
  -1   2   9     11.81    1.90  0. 1.0000     0. 
   1   2  -9     13.01    1.89  0. 1.0000     0. 
   1   2  -9      9.90    1.84  0. 1.0000     0. 
   0  -2   9      5.18    1.13  0. 1.0000     0. 
   0  -2  -9      3.49    1.52  0. 1.0000     0. 
   0  -2  -9      7.54    1.54  0. 1.0000     0. 
   0   2   9      4.28    1.43  0. 1.0000     0. 
   0   2  -9      5.72    1.80  0. 1.0000     0. 
   0   2   9      4.06    1.62  0. 1.0000     0. 
   0   2  -9      6.39    1.57  0. 1.0000     0. 
   1  -2   9     26.72    2.10  0. 1.0000     0. 
  -1  -2  -9     14.75    2.54  0. 1.0000     0. 
  -1   2  -9     18.91    3.38  0. 1.0000     0. 
   1   2   9     21.92    2.69  0. 1.0000     0. 
  -1   2  -9     25.85    2.57  0. 1.0000     0. 
   1   2   9     26.95    2.25  0. 1.0000     0. 
   2  -2   9      0.80    1.07  0. 1.0000     0. 
  -2  -2  -9      0.25    1.83  0. 1.0000     0. 
   2   2   9      1.87    1.85  0. 1.0000     0. 
  -2   2  -9      1.91    1.39  0. 1.0000     0. 
  -5  -3   9     -0.49    1.26  0. 1.0000     0. 
   5  -3  -9      0.82    1.46  0. 1.0000     0. 
   5   3  -9      0.91    1.51  0. 1.0000     0. 
   5   3  -9      1.99    1.33  0. 1.0000     0. 
  -4   3   9    394.98   23.23  0. 1.0000     0. 
  -4   3   9    337.04   20.90  0. 1.0000     0. 
   4   3  -9    366.06   24.48  0. 1.0000     0. 
  -3   3   9      8.09    1.56  0. 1.0000     0. 
   3   3  -9     14.29    2.70  0. 1.0000     0. 
  -2  -3   9    475.04   24.72  0. 1.0000     0. 
   1   3  -9     39.93    4.28  0. 1.0000     0. 
   0  -3   9      5.83    1.55  0. 1.0000     0. 
   0   3  -9      4.94    2.20  0. 1.0000     0. 
   0   3   9      4.38    1.75  0. 1.0000     0. 
   1   3   9    273.11   16.15  0. 1.0000     0. 
   2  -3   9      1.37    1.45  0. 1.0000     0. 
   2   3   9      2.19    1.76  0. 1.0000     0. 
   2   3   9      2.04    1.57  0. 1.0000     0. 
  -2   3  -9      1.16    1.60  0. 1.0000     0. 
   3   3   9      8.43    2.28  0. 1.0000     0. 
   6   4  -9     26.20    3.16  0. 1.0000     0. 
  -5  -4   9      3.31    1.44  0. 1.0000     0. 
   5  -4  -9      6.49    2.32  0. 1.0000     0. 
   5   4  -9      6.70    1.83  0. 1.0000     0. 
   5   4  -9     12.21    2.67  0. 1.0000     0. 
  -5   4   9      4.26    1.62  0. 1.0000     0. 
   4  -4  -9      0.33    1.66  0. 1.0000     0. 
  -4  -4   9      0.46    1.52  0. 1.0000     0. 
   4   4  -9      0.16    1.79  0. 1.0000     0. 
  -4   4   9      0.47    1.31  0. 1.0000     0. 
  -4   4   9      0.37    1.59  0. 1.0000     0. 
   4   4  -9     -0.21    2.06  0. 1.0000     0. 
   3  -4  -9    357.57   24.11  0. 1.0000     0. 
  -3   4   9    391.47   22.94  0. 1.0000     0. 
  -3   4   9    355.36   22.21  0. 1.0000     0. 
   3   4  -9    383.68   24.69  0. 1.0000     0. 
   2  -4  -9      7.18    2.56  0. 1.0000     0. 
  -2  -4   9      8.41    2.00  0. 1.0000     0. 
   2  -4  -9      8.13    2.29  0. 1.0000     0. 
  -2  -4   9      6.85    1.85  0. 1.0000     0. 
   2   4  -9      6.75    2.31  0. 1.0000     0. 
   2   4  -9      5.87    2.58  0. 1.0000     0. 
  -2   4   9      8.62    2.51  0. 1.0000     0. 
  -2   4   9      9.17    1.95  0. 1.0000     0. 
  -1  -4   9     48.46    3.81  0. 1.0000     0. 
  -1  -4   9     42.49    4.01  0. 1.0000     0. 
  -1   4   9     45.01    4.45  0. 1.0000     0. 
   1   4  -9     52.54    4.79  0. 1.0000     0. 
   0  -4  -9    171.20   11.41  0. 1.0000     0. 
   0  -4  -9    167.62    9.34  0. 1.0000     0. 
   0   4  -9    162.58   11.97  0. 1.0000     0. 
   0   4   9    140.78   11.19  0. 1.0000     0. 
   0   4  -9    159.85   12.45  0. 1.0000     0. 
   0   4   9    171.41   10.02  0. 1.0000     0. 
   1  -4   9      1.58    1.70  0. 1.0000     0. 
   1  -4   9      3.07    1.57  0. 1.0000     0. 
  -1  -4  -9      2.33    1.95  0. 1.0000     0. 
  -1  -4  -9      2.73    2.06  0. 1.0000     0. 
   1   4   9      3.72    1.79  0. 1.0000     0. 
  -1   4  -9      2.48    2.22  0. 1.0000     0. 
   1   4   9      1.35    1.85  0. 1.0000     0. 
  -1   4  -9      4.02    2.10  0. 1.0000     0. 
   2   4   9     57.41    4.36  0. 1.0000     0. 
   2   4   9     56.19    4.69  0. 1.0000     0. 
  -2   4  -9     46.19    5.18  0. 1.0000     0. 
  -3  -4  -9      2.17    1.33  0. 1.0000     0. 
  -4  -5   9     35.18    3.50  0. 1.0000     0. 
   4  -5  -9     35.57    4.12  0. 1.0000     0. 
  -4   5   9     33.83    3.75  0. 1.0000     0. 
   4   5  -9     39.80    4.51  0. 1.0000     0. 
  -3  -5   9      2.40    1.81  0. 1.0000     0. 
  -3  -5   9      4.12    2.01  0. 1.0000     0. 
   3  -5  -9      1.21    1.85  0. 1.0000     0. 
   3   5  -9      3.18    2.28  0. 1.0000     0. 
  -3   5   9      2.65    2.48  0. 1.0000     0. 
  -2  -5   9     16.71    3.04  0. 1.0000     0. 
   2  -5  -9     31.85    3.42  0. 1.0000     0. 
  -2  -5   9     34.85    3.35  0. 1.0000     0. 
   2   5  -9     32.75    3.77  0. 1.0000     0. 
  -2   5   9     25.48    3.32  0. 1.0000     0. 
   2   5  -9     32.05    4.71  0. 1.0000     0. 
   1  -5  -9     -0.56    2.60  0. 1.0000     0. 
   1  -5  -9      2.80    2.08  0. 1.0000     0. 
  -1  -5   9      3.59    1.90  0. 1.0000     0. 
  -1  -5   9      2.92    1.88  0. 1.0000     0. 
  -1   5   9      2.29    2.28  0. 1.0000     0. 
  -1   5   9      1.42    2.08  0. 1.0000     0. 
   1   5  -9      2.17    2.94  0. 1.0000     0. 
   1   5  -9     -0.37    2.16  0. 1.0000     0. 
   0  -5  -9      1.34    1.69  0. 1.0000     0. 
   0  -5   9     -0.59    1.87  0. 1.0000     0. 
   0  -5   9      1.24    1.66  0. 1.0000     0. 
   0   5  -9      0.20    2.52  0. 1.0000     0. 
   0   5   9     -0.20    2.00  0. 1.0000     0. 
   0   5   9      0.24    1.69  0. 1.0000     0. 
   1  -5   9     18.45    2.61  0. 1.0000     0. 
  -1  -5  -9     20.28    2.90  0. 1.0000     0. 
   1   5   9     18.34    2.99  0. 1.0000     0. 
  -1   5  -9     23.83    3.46  0. 1.0000     0. 
  -4   0  10      0.10    0.90  0. 1.0000     0. 
   4   0 -10     -0.19    0.98  0. 1.0000     0. 
   2   0 -10     22.12    1.85  0. 1.0000     0. 
  -1   0  10    608.26   36.73  0. 1.0000     0. 
   5   1 -10     89.30    6.52  0. 1.0000     0. 
  -3  -1  10      2.00    1.00  0. 1.0000     0. 
   3  -1 -10      3.27    0.89  0. 1.0000     0. 
  -3   1  10      3.14    0.99  0. 1.0000     0. 
   3   1 -10      1.81    1.37  0. 1.0000     0. 
  -3   1  10      1.41    0.94  0. 1.0000     0. 
   3   1 -10      2.93    1.28  0. 1.0000     0. 
  -2  -1  10      3.44    1.03  0. 1.0000     0. 
   2  -1 -10      4.22    0.98  0. 1.0000     0. 
   2   1 -10      3.07    1.24  0. 1.0000     0. 
  -2   1  10      4.47    1.24  0. 1.0000     0. 
  -2   1  10      4.61    0.99  0. 1.0000     0. 
   2   1 -10      5.88    1.28  0. 1.0000     0. 
  -1  -1  10     81.80    4.57  0. 1.0000     0. 
  -1   1  10     82.99    6.06  0. 1.0000     0. 
   0   1  10   1582.31   95.29  0. 1.0000     0. 
   0   1  10   1789.80   99.81  0. 1.0000     0. 
   5   2 -10    127.12    9.14  0. 1.0000     0. 
  -4   2  10   1183.52   66.45  0. 1.0000     0. 
   3  -2 -10      5.07    1.36  0. 1.0000     0. 
  -3  -2  10      6.88    1.39  0. 1.0000     0. 
   3   2 -10      4.93    1.67  0. 1.0000     0. 
   3   2 -10      8.63    1.66  0. 1.0000     0. 
  -3   2  10      8.94    1.72  0. 1.0000     0. 
  -3   2  10      5.52    1.26  0. 1.0000     0. 
  -2  -2  10    102.65    6.95  0. 1.0000     0. 
  -2  -2  10    102.47    5.96  0. 1.0000     0. 
   2   2 -10     90.91    7.54  0. 1.0000     0. 
  -2   2  10    106.49    6.46  0. 1.0000     0. 
   2   2 -10    114.54    7.62  0. 1.0000     0. 
  -1  -2  10    903.60   40.90  0. 1.0000     0. 
   1   2 -10    793.31   58.03  0. 1.0000     0. 
   0  -2 -10     30.25    2.58  0. 1.0000     0. 
   0  -2 -10     22.34    2.73  0. 1.0000     0. 
   0  -2  10     25.35    2.43  0. 1.0000     0. 
   0   2  10     23.20    2.49  0. 1.0000     0. 
   0   2 -10     28.05    2.88  0. 1.0000     0. 
   0   2 -10     19.61    3.49  0. 1.0000     0. 
   0   2  10     35.21    3.26  0. 1.0000     0. 
   1   2  10     45.51    3.65  0. 1.0000     0. 
  -2  -2 -10      2.18    1.77  0. 1.0000     0. 
   2  -2  10      0.90    1.17  0. 1.0000     0. 
   2   2  10      0.62    2.00  0. 1.0000     0. 
  -2   2 -10      0.33    1.32  0. 1.0000     0. 
   5  -3 -10    408.88   26.83  0. 1.0000     0. 
  -5  -3  10    417.04   24.38  0. 1.0000     0. 
   5   3 -10    406.14   26.91  0. 1.0000     0. 
   4  -3 -10      3.12    1.31  0. 1.0000     0. 
  -4  -3  10      1.64    1.38  0. 1.0000     0. 
  -4   3  10      0.37    1.82  0. 1.0000     0. 
   4   3 -10      0.56    1.44  0. 1.0000     0. 
  -3  -3  10     54.71    4.37  0. 1.0000     0. 
  -3   3  10     56.13    4.58  0. 1.0000     0. 
   3   3 -10     55.93    4.69  0. 1.0000     0. 
  -2  -3  10    195.83   12.26  0. 1.0000     0. 
   2  -3 -10    197.69    9.87  0. 1.0000     0. 
   2  -3 -10    185.95   12.00  0. 1.0000     0. 
  -2   3  10    169.78   12.42  0. 1.0000     0. 
   2   3 -10    171.56   13.04  0. 1.0000     0. 
  -1  -3  10    170.58   10.64  0. 1.0000     0. 
  -1   3  10    162.24   10.84  0. 1.0000     0. 
   1   3 -10    148.13   11.32  0. 1.0000     0. 
   0  -3 -10    127.59    8.31  0. 1.0000     0. 
   0  -3  10    126.16    9.54  0. 1.0000     0. 
   0   3 -10    154.84    9.54  0. 1.0000     0. 
  -1  -3 -10     19.89    2.76  0. 1.0000     0. 
  -1  -3 -10     21.08    2.66  0. 1.0000     0. 
  -1   3 -10     27.20    3.37  0. 1.0000     0. 
   1   3  10     27.08    3.29  0. 1.0000     0. 
  -2  -3 -10      4.41    1.97  0. 1.0000     0. 
  -2   3 -10      0.90    1.64  0. 1.0000     0. 
   2   3  10      5.04    2.28  0. 1.0000     0. 
  -6  -4  10     -0.14    0.35  0. 1.0000     0. 
   6   4 -10      0.35    1.75  0. 1.0000     0. 
  -5  -4  10      2.23    1.50  0. 1.0000     0. 
   5  -4 -10      1.46    1.87  0. 1.0000     0. 
   5   4 -10      1.01    2.31  0. 1.0000     0. 
   5   4 -10     -0.89    1.91  0. 1.0000     0. 
  -5   4  10      3.18    1.42  0. 1.0000     0. 
   4  -4 -10      0.63    1.49  0. 1.0000     0. 
   4   4 -10      2.35    2.08  0. 1.0000     0. 
  -4   4  10     -0.93    1.99  0. 1.0000     0. 
   4   4 -10     -1.96    1.96  0. 1.0000     0. 
  -4   4  10     -0.76    1.50  0. 1.0000     0. 
   3  -4 -10      6.49    2.09  0. 1.0000     0. 
  -3  -4  10      5.44    2.29  0. 1.0000     0. 
  -3  -4  10      3.14    1.89  0. 1.0000     0. 
   3  -4 -10      3.72    1.75  0. 1.0000     0. 
   3   4 -10      3.46    2.24  0. 1.0000     0. 
  -3   4  10      4.90    1.80  0. 1.0000     0. 
   3   4 -10      4.40    2.27  0. 1.0000     0. 
  -3   4  10      5.11    2.05  0. 1.0000     0. 
  -2  -4  10      3.50    1.53  0. 1.0000     0. 
   2  -4 -10     -0.23    2.03  0. 1.0000     0. 
  -2  -4  10      3.51    1.81  0. 1.0000     0. 
   2  -4 -10      1.48    1.98  0. 1.0000     0. 
  -2   4  10      2.21    1.87  0. 1.0000     0. 
   2   4 -10      4.92    2.83  0. 1.0000     0. 
  -2   4  10      2.39    2.18  0. 1.0000     0. 
   2   4 -10      1.95    1.95  0. 1.0000     0. 
   1  -4 -10     -0.24    2.13  0. 1.0000     0. 
  -1  -4  10      0.51    1.58  0. 1.0000     0. 
  -1  -4  10      0.16    1.71  0. 1.0000     0. 
   1  -4 -10     -1.03    1.77  0. 1.0000     0. 
   1   4 -10      0.17    1.88  0. 1.0000     0. 
  -1   4  10      3.00    1.83  0. 1.0000     0. 
   1   4 -10      0.26    2.03  0. 1.0000     0. 
  -1   4  10     -0.20    1.94  0. 1.0000     0. 
   0  -4 -10      3.56    2.01  0. 1.0000     0. 
   0  -4  10      5.33    1.93  0. 1.0000     0. 
   0  -4 -10      3.76    2.03  0. 1.0000     0. 
   0  -4  10      3.70    1.69  0. 1.0000     0. 
   0   4  10      4.45    2.18  0. 1.0000     0. 
   0   4 -10      5.09    2.59  0. 1.0000     0. 
   0   4  10      2.19    2.04  0. 1.0000     0. 
   0   4 -10      5.89    2.34  0. 1.0000     0. 
   1   4  10     32.53    3.40  0. 1.0000     0. 
  -2  -4 -10      0.54    1.98  0. 1.0000     0. 
   2  -4  10      1.27    1.63  0. 1.0000     0. 
   2  -4  10      0.79    1.59  0. 1.0000     0. 
  -2  -4 -10      1.12    2.05  0. 1.0000     0. 
  -2   4 -10      0.37    2.23  0. 1.0000     0. 
   2   4  10      1.48    2.11  0. 1.0000     0. 
   2   4  10     -0.55    1.83  0. 1.0000     0. 
  -3  -4 -10     -0.37    0.90  0. 1.0000     0. 
   3   4  10     -0.68    2.24  0. 1.0000     0. 
  -3  -5  10      7.22    2.25  0. 1.0000     0. 
   3   5 -10      6.08    2.24  0. 1.0000     0. 
  -2  -5  10     26.97    3.16  0. 1.0000     0. 
   2  -5 -10     25.50    3.34  0. 1.0000     0. 
  -2   5  10     21.14    3.21  0. 1.0000     0. 
   2   5 -10     25.77    3.68  0. 1.0000     0. 
   1  -5 -10      0.20    2.09  0. 1.0000     0. 
  -1  -5  10     -1.34    1.96  0. 1.0000     0. 
   1   5 -10      0.19    2.31  0. 1.0000     0. 
  -1   5  10     -0.23    2.23  0. 1.0000     0. 
   3   0 -11      0.29    0.88  0. 1.0000     0. 
   3   0 -11     -0.22    0.73  0. 1.0000     0. 
  -3   0  11     -0.31    0.56  0. 1.0000     0. 
  -3   0  11      0.18    0.58  0. 1.0000     0. 
  -2   0  11     -0.43    0.68  0. 1.0000     0. 
   2   0 -11     -0.15    0.69  0. 1.0000     0. 
  -2   0  11      0.07    0.61  0. 1.0000     0. 
   2   0 -11      0.08    0.73  0. 1.0000     0. 
  -1   0  11     -0.87    0.78  0. 1.0000     0. 
   1   0 -11     -0.44    0.67  0. 1.0000     0. 
  -1   0  11      0.06    0.69  0. 1.0000     0. 
   1   0 -11      0.12    1.02  0. 1.0000     0. 
  -1   0 -11      0.07    0.84  0. 1.0000     0. 
   1   0  11     -0.39    1.01  0. 1.0000     0. 
  -5   1  11   1687.44   94.52  0. 1.0000     0. 
   4  -1 -11      0.44    1.06  0. 1.0000     0. 
  -4  -1  11      1.06    1.00  0. 1.0000     0. 
   4   1 -11      0.91    1.27  0. 1.0000     0. 
  -4   1  11      0.11    1.03  0. 1.0000     0. 
  -4   1  11      1.58    1.17  0. 1.0000     0. 
   4   1 -11      0.15    1.50  0. 1.0000     0. 
  -3  -1  11    150.29    9.99  0. 1.0000     0. 
  -3   1  11    164.90   10.09  0. 1.0000     0. 
   2  -1 -11   1616.10   95.33  0. 1.0000     0. 
  -2  -1  11   1620.28   76.63  0. 1.0000     0. 
  -2   1  11   1711.59   95.03  0. 1.0000     0. 
  -2   1  11   1520.86   89.19  0. 1.0000     0. 
   2   1 -11   1372.13  100.62  0. 1.0000     0. 
  -1  -1  11    264.88   14.81  0. 1.0000     0. 
  -1  -1  11    295.38   16.32  0. 1.0000     0. 
   1   1 -11    253.97   17.30  0. 1.0000     0. 
   0  -1  11    169.02   10.08  0. 1.0000     0. 
   0  -1 -11    170.96    9.72  0. 1.0000     0. 
   0   1  11    176.52   10.25  0. 1.0000     0. 
   0   1 -11    187.95   12.24  0. 1.0000     0. 
   0   1  11    172.53   11.74  0. 1.0000     0. 
   0   1 -11    178.35   11.74  0. 1.0000     0. 
   2   1  11    331.62   20.90  0. 1.0000     0. 
  -4  -2  11    474.42   26.50  0. 1.0000     0. 
   4   2 -11    467.40   28.20  0. 1.0000     0. 
   4   2 -11    451.92   29.66  0. 1.0000     0. 
  -4   2  11    424.23   30.56  0. 1.0000     0. 
  -3  -2  11    243.28   14.08  0. 1.0000     0. 
   3   2 -11    225.43   15.72  0. 1.0000     0. 
  -3   2  11    230.11   13.84  0. 1.0000     0. 
  -2  -2  11     51.44    4.10  0. 1.0000     0. 
  -2  -2  11     65.01    4.39  0. 1.0000     0. 
   2   2 -11     62.47    4.90  0. 1.0000     0. 
   2   2 -11     58.40    5.02  0. 1.0000     0. 
  -2   2  11     60.03    4.07  0. 1.0000     0. 
  -1  -2  11   1109.27   61.66  0. 1.0000     0. 
  -1  -2  11   1080.36   54.31  0. 1.0000     0. 
   1  -2 -11   1092.98   50.11  0. 1.0000     0. 
  -1   2  11    946.29   60.69  0. 1.0000     0. 
   1   2 -11   1074.72   67.28  0. 1.0000     0. 
   0   2 -11    161.83   10.84  0. 1.0000     0. 
   0   2  11    145.51    9.44  0. 1.0000     0. 
   0   2  11    154.78   10.48  0. 1.0000     0. 
   1   2  11     28.45    3.42  0. 1.0000     0. 
  -1   2 -11     28.54    4.03  0. 1.0000     0. 
  -1   2 -11     29.81    3.25  0. 1.0000     0. 
   1   2  11     32.42    3.03  0. 1.0000     0. 
  -4  -3  11     17.46    2.41  0. 1.0000     0. 
   4  -3 -11     20.44    2.48  0. 1.0000     0. 
  -4   3  11     14.55    2.05  0. 1.0000     0. 
   4   3 -11     15.36    2.67  0. 1.0000     0. 
  -4   3  11     24.62    2.85  0. 1.0000     0. 
   4   3 -11     19.33    2.99  0. 1.0000     0. 
  -3  -3  11    114.37    7.51  0. 1.0000     0. 
   3   3 -11    125.65    8.61  0. 1.0000     0. 
  -3   3  11    113.25    7.14  0. 1.0000     0. 
   2  -3 -11     96.75    6.29  0. 1.0000     0. 
  -2  -3  11     94.93    6.15  0. 1.0000     0. 
  -2  -3  11     82.23    6.81  0. 1.0000     0. 
  -2   3  11    104.66    7.03  0. 1.0000     0. 
   2   3 -11     97.80    7.71  0. 1.0000     0. 
  -1  -3  11      5.84    1.43  0. 1.0000     0. 
   1  -3 -11      6.02    1.89  0. 1.0000     0. 
   1  -3 -11      8.52    1.95  0. 1.0000     0. 
  -1  -3  11      3.21    1.64  0. 1.0000     0. 
  -1   3  11      7.19    1.68  0. 1.0000     0. 
  -1   3  11      5.31    1.85  0. 1.0000     0. 
   1   3 -11      4.57    2.21  0. 1.0000     0. 
   1   3 -11      6.01    1.99  0. 1.0000     0. 
   0  -3  11     55.53    4.17  0. 1.0000     0. 
   0  -3  11     62.06    5.06  0. 1.0000     0. 
   0   3  11     68.96    4.58  0. 1.0000     0. 
   0   3 -11     63.06    5.85  0. 1.0000     0. 
   1  -3  11      1.63    1.29  0. 1.0000     0. 
  -1  -3 -11      0.38    1.59  0. 1.0000     0. 
  -1  -3 -11      1.60    1.94  0. 1.0000     0. 
   1   3  11      3.26    1.74  0. 1.0000     0. 
   1   3  11      3.48    2.18  0. 1.0000     0. 
  -1   3 -11      4.22    2.29  0. 1.0000     0. 
  -1   3 -11      3.38    1.96  0. 1.0000     0. 
  -2  -3 -11      9.12    2.43  0. 1.0000     0. 
   2  -3  11      9.75    1.65  0. 1.0000     0. 
   2   3  11     12.63    2.83  0. 1.0000     0. 
  -2   3 -11      8.25    2.15  0. 1.0000     0. 
   5  -4 -11     15.98    2.63  0. 1.0000     0. 
  -5  -4  11     18.49    2.36  0. 1.0000     0. 
   5   4 -11     18.37    2.91  0. 1.0000     0. 
   5   4 -11     15.34    2.83  0. 1.0000     0. 
  -5   4  11     14.27    2.05  0. 1.0000     0. 
   4  -4 -11     19.63    2.60  0. 1.0000     0. 
  -4  -4  11     14.16    2.47  0. 1.0000     0. 
  -4  -4  11     21.19    2.57  0. 1.0000     0. 
  -4   4  11     18.70    2.20  0. 1.0000     0. 
  -4   4  11     12.62    3.10  0. 1.0000     0. 
   4   4 -11     16.70    2.98  0. 1.0000     0. 
   4   4 -11     18.62    3.07  0. 1.0000     0. 
   0  -4  11     37.13    3.77  0. 1.0000     0. 
   0  -4 -11     37.41    4.11  0. 1.0000     0. 
   0  -4  11     48.17    3.65  0. 1.0000     0. 
   0   4  11     33.80    4.08  0. 1.0000     0. 
   0   4 -11     37.11    4.23  0. 1.0000     0. 
   1  -4  11      4.01    1.62  0. 1.0000     0. 
  -1  -4 -11      4.12    2.09  0. 1.0000     0. 
   1  -4  11      4.97    1.83  0. 1.0000     0. 
  -1  -4 -11      4.12    2.02  0. 1.0000     0. 
  -1   4 -11      6.04    2.31  0. 1.0000     0. 
   1   4  11      5.23    2.33  0. 1.0000     0. 
   1   4  11      4.44    2.16  0. 1.0000     0. 
  -1   4 -11      3.03    2.78  0. 1.0000     0. 
  -2  -4 -11     40.36    4.15  0. 1.0000     0. 
   2  -4  11     35.55    3.26  0. 1.0000     0. 
  -2  -4 -11     33.06    4.01  0. 1.0000     0. 
   2  -4  11     37.04    3.64  0. 1.0000     0. 
   2   4  11     38.56    3.57  0. 1.0000     0. 
   2   4  11     34.85    3.88  0. 1.0000     0. 
  -2   4 -11     32.38    4.19  0. 1.0000     0. 
  -3  -4 -11     -0.19    1.86  0. 1.0000     0. 
   3   4  11      9.54    2.86  0. 1.0000     0. 
  -5   0  12    806.62   45.51  0. 1.0000     0. 
   3   0 -12    308.93   21.60  0. 1.0000     0. 
   3   0 -12    312.84   20.50  0. 1.0000     0. 
  -3   0  12    335.52   18.39  0. 1.0000     0. 
  -2   0  12    980.10   55.08  0. 1.0000     0. 
  -2   0  12    897.64   48.83  0. 1.0000     0. 
  -2   0  12    993.98   53.59  0. 1.0000     0. 
  -1   0  12     50.16    3.61  0. 1.0000     0. 
  -1   0  12     53.15    3.29  0. 1.0000     0. 
   0   0  12   1476.37   88.48  0. 1.0000     0. 
   1   0  12   1305.79   78.66  0. 1.0000     0. 
  -1   0 -12   1321.90   82.47  0. 1.0000     0. 
   4   1 -12    180.79   10.95  0. 1.0000     0. 
   4   1 -12    135.52   11.70  0. 1.0000     0. 
  -4   1  12    175.10    9.69  0. 1.0000     0. 
   3   1 -12   1950.17  118.10  0. 1.0000     0. 
   3   1 -12   1931.91  123.61  0. 1.0000     0. 
  -2  -1  12    616.66   36.32  0. 1.0000     0. 
   2   1 -12    662.80   40.07  0. 1.0000     0. 
  -2   1  12    620.70   34.69  0. 1.0000     0. 
  -2   1  12    576.64   38.08  0. 1.0000     0. 
  -1  -1  12     44.43    2.76  0. 1.0000     0. 
   1  -1 -12     33.25    3.36  0. 1.0000     0. 
  -1  -1  12     38.54    3.08  0. 1.0000     0. 
   1   1 -12     36.82    3.41  0. 1.0000     0. 
  -1   1  12     45.86    3.20  0. 1.0000     0. 
  -1   1  12     44.66    3.51  0. 1.0000     0. 
   0  -1  12    407.24   21.05  0. 1.0000     0. 
   0  -1 -12    425.56   19.27  0. 1.0000     0. 
   0   1 -12    377.49   28.89  0. 1.0000     0. 
   6   2 -12      0.39    1.19  0. 1.0000     0. 
  -5  -2  12      4.25    1.52  0. 1.0000     0. 
   5  -2 -12      5.08    1.73  0. 1.0000     0. 
   5   2 -12      3.40    1.77  0. 1.0000     0. 
  -4  -2  12     27.54    2.71  0. 1.0000     0. 
  -4   2  12     31.62    3.24  0. 1.0000     0. 
   2  -2 -12     63.55    5.30  0. 1.0000     0. 
  -2  -2  12     70.25    4.48  0. 1.0000     0. 
  -2  -2  12     71.66    4.94  0. 1.0000     0. 
  -2   2  12     67.49    5.35  0. 1.0000     0. 
  -1   2  12    399.71   22.94  0. 1.0000     0. 
   0   2  12      8.45    2.03  0. 1.0000     0. 
  -1   2 -12    686.74   40.70  0. 1.0000     0. 
   1   2  12    598.48   40.65  0. 1.0000     0. 
  -2  -2 -12      0.31    1.32  0. 1.0000     0. 
  -6  -3  12      1.00    1.44  0. 1.0000     0. 
   6   3 -12      1.18    1.61  0. 1.0000     0. 
   5  -3 -12      3.50    1.71  0. 1.0000     0. 
  -5  -3  12      5.49    1.63  0. 1.0000     0. 
  -5   3  12      5.51    1.92  0. 1.0000     0. 
   5   3 -12      3.63    1.99  0. 1.0000     0. 
   5   3 -12      3.97    2.15  0. 1.0000     0. 
  -5   3  12      2.59    1.30  0. 1.0000     0. 
  -3  -3  12      2.40    1.37  0. 1.0000     0. 
   3  -3 -12      1.90    1.57  0. 1.0000     0. 
   3   3 -12      2.89    1.63  0. 1.0000     0. 
  -3   3  12      2.55    1.76  0. 1.0000     0. 
  -3   3  12      1.20    1.90  0. 1.0000     0. 
   3   3 -12      3.54    2.46  0. 1.0000     0. 
  -2  -3  12    232.37   11.33  0. 1.0000     0. 
   2  -3 -12    223.39   13.77  0. 1.0000     0. 
  -2  -3  12    243.10   14.27  0. 1.0000     0. 
   2   3 -12    207.43   15.09  0. 1.0000     0. 
  -2   3  12    167.07   13.28  0. 1.0000     0. 
  -1  -3  12      0.29    1.46  0. 1.0000     0. 
   1  -3 -12      1.19    1.65  0. 1.0000     0. 
   1  -3 -12     -0.47    1.40  0. 1.0000     0. 
  -1  -3  12     -1.09    1.37  0. 1.0000     0. 
  -1   3  12     -1.93    1.67  0. 1.0000     0. 
   1   3 -12      0.45    1.87  0. 1.0000     0. 
   1   3 -12      1.03    1.90  0. 1.0000     0. 
  -1   3  12     -1.61    1.50  0. 1.0000     0. 
   1  -3  12     17.72    1.97  0. 1.0000     0. 
  -1  -3 -12     11.16    2.36  0. 1.0000     0. 
  -1  -3 -12     15.40    2.64  0. 1.0000     0. 
  -1   3 -12      5.22    2.98  0. 1.0000     0. 
   1   3  12     15.23    2.56  0. 1.0000     0. 
   1   3  12     19.37    2.95  0. 1.0000     0. 
  -1   3 -12     10.93    2.71  0. 1.0000     0. 
   2   3  12    296.16   19.67  0. 1.0000     0. 
  -6  -4  12     11.46    2.15  0. 1.0000     0. 
   6   4 -12     11.91    2.55  0. 1.0000     0. 
  -5  -4  12     -0.16    1.49  0. 1.0000     0. 
   5  -4 -12      1.12    2.05  0. 1.0000     0. 
  -5   4  12      2.19    1.64  0. 1.0000     0. 
   5   4 -12     -0.21    1.67  0. 1.0000     0. 
   5   4 -12      1.95    2.38  0. 1.0000     0. 
  -4  -4  12      1.79    1.82  0. 1.0000     0. 
  -4  -4  12     -0.17    1.79  0. 1.0000     0. 
   4  -4 -12      0.16    1.45  0. 1.0000     0. 
   4   4 -12      0.66    2.18  0. 1.0000     0. 
  -4   4  12      1.13    2.49  0. 1.0000     0. 
  -4   4  12     -1.32    1.71  0. 1.0000     0. 
   4   4 -12      0.64    1.78  0. 1.0000     0. 
  -3  -4  12      4.93    1.83  0. 1.0000     0. 
   3  -4 -12      2.57    1.84  0. 1.0000     0. 
  -3  -4  12     10.63    2.39  0. 1.0000     0. 
   3   4 -12      6.47    2.61  0. 1.0000     0. 
  -3   4  12      6.48    2.08  0. 1.0000     0. 
  -3   4  12      5.81    1.98  0. 1.0000     0. 
   3   4 -12      5.12    2.00  0. 1.0000     0. 
  -2  -4  12      6.18    2.03  0. 1.0000     0. 
   2  -4 -12      9.14    2.23  0. 1.0000     0. 
  -2  -4  12      7.93    2.01  0. 1.0000     0. 
  -2   4  12      7.32    2.29  0. 1.0000     0. 
   2   4 -12      7.68    2.49  0. 1.0000     0. 
   2   4 -12      8.58    2.83  0. 1.0000     0. 
  -2   4  12      6.00    2.74  0. 1.0000     0. 
  -1  -4  12     -0.35    1.59  0. 1.0000     0. 
   1  -4 -12      0.19    1.79  0. 1.0000     0. 
  -1  -4  12     -0.17    1.46  0. 1.0000     0. 
  -1   4  12      0.88    1.95  0. 1.0000     0. 
   1   4 -12     -0.73    2.34  0. 1.0000     0. 
   1   4 -12      0.59    2.72  0. 1.0000     0. 
  -1   4  12     -0.63    2.13  0. 1.0000     0. 
   0  -4  12     43.61    3.88  0. 1.0000     0. 
   0  -4  12     44.38    4.16  0. 1.0000     0. 
   0  -4 -12     44.41    4.56  0. 1.0000     0. 
   0   4  12     45.76    4.69  0. 1.0000     0. 
  -1  -4 -12      2.01    1.87  0. 1.0000     0. 
   1  -4  12      0.62    1.36  0. 1.0000     0. 
   1  -4  12      1.96    1.56  0. 1.0000     0. 
  -1   4 -12     -0.28    2.44  0. 1.0000     0. 
   1   4  12      1.70    2.28  0. 1.0000     0. 
  -1   4 -12      1.25    2.18  0. 1.0000     0. 
   1   4  12      2.19    2.38  0. 1.0000     0. 
  -2  -4 -12     13.37    2.56  0. 1.0000     0. 
   2  -4  12     11.32    2.37  0. 1.0000     0. 
   2  -4  12     13.63    2.16  0. 1.0000     0. 
   2   4  12     10.58    2.86  0. 1.0000     0. 
  -2   4 -12      7.78    2.68  0. 1.0000     0. 
   5   1 -13     23.81    2.93  0. 1.0000     0. 
   4  -1 -13     43.52    3.58  0. 1.0000     0. 
  -4  -1  13     43.36    3.18  0. 1.0000     0. 
   4   1 -13     40.09    4.23  0. 1.0000     0. 
  -4   1  13     33.60    3.62  0. 1.0000     0. 
   3  -1 -13      2.16    0.89  0. 1.0000     0. 
  -3  -1  13      1.31    1.01  0. 1.0000     0. 
  -3   1  13      2.59    1.03  0. 1.0000     0. 
  -3   1  13      2.81    1.20  0. 1.0000     0. 
   3   1 -13      0.53    1.41  0. 1.0000     0. 
   3   1 -13      3.58    1.57  0. 1.0000     0. 
  -2  -1  13     42.81    2.79  0. 1.0000     0. 
  -2  -1  13     40.32    3.03  0. 1.0000     0. 
  -2   1  13     27.87    2.78  0. 1.0000     0. 
  -1  -1  13      2.63    1.03  0. 1.0000     0. 
  -1  -1  13      1.31    1.03  0. 1.0000     0. 
   1  -1 -13      2.48    1.17  0. 1.0000     0. 
   1  -1 -13      0.53    1.11  0. 1.0000     0. 
   1   1 -13      0.40    1.19  0. 1.0000     0. 
  -1   1  13      1.57    1.08  0. 1.0000     0. 
  -1   1  13      3.45    1.48  0. 1.0000     0. 
   1   1 -13      1.31    1.46  0. 1.0000     0. 
   0  -1 -13     70.47    5.17  0. 1.0000     0. 
   0   1 -13     75.79    5.65  0. 1.0000     0. 
   0   1  13     70.34    5.25  0. 1.0000     0. 
   0   1 -13     72.25    6.28  0. 1.0000     0. 
   0   1  13     77.17    5.61  0. 1.0000     0. 
   2   1  13    116.14    8.25  0. 1.0000     0. 
   6   2 -13      5.45    1.77  0. 1.0000     0. 
   5   2 -13    222.45   15.74  0. 1.0000     0. 
   4  -2 -13     63.52    5.06  0. 1.0000     0. 
  -3  -2  13     13.74    2.01  0. 1.0000     0. 
  -3   2  13     24.91    2.61  0. 1.0000     0. 
  -2  -2  13     16.34    2.08  0. 1.0000     0. 
   2  -2 -13     22.23    2.42  0. 1.0000     0. 
   2   2 -13     12.46    2.30  0. 1.0000     0. 
  -2   2  13     18.61    2.53  0. 1.0000     0. 
  -1   2  13    176.58   11.81  0. 1.0000     0. 
   0  -2  13      0.15    1.60  0. 1.0000     0. 
   0  -2 -13     -0.83    1.44  0. 1.0000     0. 
   0   2 -13     -0.21    1.54  0. 1.0000     0. 
   0   2  13      0.15    1.41  0. 1.0000     0. 
   1  -2  13    228.10   12.62  0. 1.0000     0. 
  -6  -3  13      4.09    1.58  0. 1.0000     0. 
   6   3 -13      2.49    1.55  0. 1.0000     0. 
  -6   3  13      2.39    1.76  0. 1.0000     0. 
   5  -3 -13    129.64    9.12  0. 1.0000     0. 
   5   3 -13    139.68   10.05  0. 1.0000     0. 
  -5   3  13    125.32    9.63  0. 1.0000     0. 
  -4   3  13    157.43    9.38  0. 1.0000     0. 
   4   3 -13    158.27   10.95  0. 1.0000     0. 
   4   3 -13    163.01   11.48  0. 1.0000     0. 
  -4   3  13    134.35   11.01  0. 1.0000     0. 
  -3  -3  13    115.31    8.18  0. 1.0000     0. 
  -3  -3  13    118.36    8.31  0. 1.0000     0. 
   3  -3 -13    124.08    8.61  0. 1.0000     0. 
   3   3 -13    125.54    9.28  0. 1.0000     0. 
   3   3 -13    128.90    9.51  0. 1.0000     0. 
  -3   3  13    130.85    9.07  0. 1.0000     0. 
  -3   3  13    132.70    7.80  0. 1.0000     0. 
  -2  -3  13    156.32   10.09  0. 1.0000     0. 
  -2  -3  13    153.03   11.43  0. 1.0000     0. 
  -2   3  13    177.46   11.57  0. 1.0000     0. 
  -2   3  13    183.67   10.55  0. 1.0000     0. 
   2   3 -13    183.24   12.35  0. 1.0000     0. 
   2   3 -13    184.27   12.64  0. 1.0000     0. 
  -1  -3  13    102.27    6.40  0. 1.0000     0. 
   1  -3 -13     92.12    6.87  0. 1.0000     0. 
  -1  -3  13    107.71    7.43  0. 1.0000     0. 
  -1   3  13    108.59    7.87  0. 1.0000     0. 
   1   3 -13    112.14    8.61  0. 1.0000     0. 
   1   3 -13    105.96    7.89  0. 1.0000     0. 
   0  -3  13    314.05   22.52  0. 1.0000     0. 
   0  -3 -13    383.80   19.28  0. 1.0000     0. 
   0  -3  13    388.93   22.83  0. 1.0000     0. 
   0   3  13    407.70   21.41  0. 1.0000     0. 
   0   3 -13    408.87   24.45  0. 1.0000     0. 
  -1  -3 -13     15.22    2.70  0. 1.0000     0. 
   1  -3  13     15.39    2.19  0. 1.0000     0. 
  -1  -3 -13     14.06    2.47  0. 1.0000     0. 
   1  -3  13     16.58    2.05  0. 1.0000     0. 
  -1   3 -13     12.02    3.08  0. 1.0000     0. 
   1   3  13     14.12    2.43  0. 1.0000     0. 
   1   3  13     15.32    2.59  0. 1.0000     0. 
  -1   3 -13      8.24    2.53  0. 1.0000     0. 
  -2  -3 -13      8.42    2.48  0. 1.0000     0. 
   2  -3  13      5.65    1.44  0. 1.0000     0. 
  -2   3 -13      0.85    1.55  0. 1.0000     0. 
   2   3  13      6.60    2.23  0. 1.0000     0. 
  -6  -4  13      5.27    1.84  0. 1.0000     0. 
   6   4 -13      3.78    1.87  0. 1.0000     0. 
  -5  -4  13     23.26    2.71  0. 1.0000     0. 
   5   4 -13     15.20    2.97  0. 1.0000     0. 
  -5   4  13     26.48    3.30  0. 1.0000     0. 
   5   4 -13     26.51    3.52  0. 1.0000     0. 
  -4  -4  13     95.92    6.71  0. 1.0000     0. 
   4   4 -13     85.47    6.98  0. 1.0000     0. 
  -4   4  13     87.61    7.64  0. 1.0000     0. 
   3  -4 -13     26.58    4.18  0. 1.0000     0. 
   3   4 -13     35.61    3.92  0. 1.0000     0. 
  -3   4  13     39.79    3.83  0. 1.0000     0. 
  -2  -4  13      1.46    1.89  0. 1.0000     0. 
   2  -4 -13     -1.03    2.23  0. 1.0000     0. 
   2  -4 -13      0.99    2.27  0. 1.0000     0. 
   2   4 -13      0.70    2.25  0. 1.0000     0. 
  -2   4  13      0.24    2.50  0. 1.0000     0. 
  -1  -4  13    142.21   10.15  0. 1.0000     0. 
  -1   4  13    164.32   11.08  0. 1.0000     0. 
   0  -4  13     30.94    3.43  0. 1.0000     0. 
   0  -4 -13     35.87    3.64  0. 1.0000     0. 
   0  -4 -13     28.60    3.73  0. 1.0000     0. 
   0   4  13     39.85    4.11  0. 1.0000     0. 
   0   4 -13     24.98    4.13  0. 1.0000     0. 
  -1  -4 -13     54.06    4.37  0. 1.0000     0. 
   1  -4  13     41.80    4.42  0. 1.0000     0. 
  -1  -4 -13     61.73    5.25  0. 1.0000     0. 
  -1   4 -13     50.30    5.25  0. 1.0000     0. 
   1   4  13     51.72    5.21  0. 1.0000     0. 
   2  -4  13      7.36    2.11  0. 1.0000     0. 
  -2  -4 -13      8.17    2.50  0. 1.0000     0. 
  -2  -4 -13      5.70    2.20  0. 1.0000     0. 
   2   4  13      3.68    2.22  0. 1.0000     0. 
  -2   4 -13      0.59    2.49  0. 1.0000     0. 
  -6   1  14     21.23    2.25  0. 1.0000     0. 
  -5  -1  14      9.96    1.60  0. 1.0000     0. 
  -5   1  14     11.14    1.75  0. 1.0000     0. 
   5   1 -14     10.70    2.37  0. 1.0000     0. 
  -3   1  14     85.01    5.53  0. 1.0000     0. 
   2  -1 -14      0.89    1.20  0. 1.0000     0. 
  -2  -1  14     -0.23    1.24  0. 1.0000     0. 
   2  -1 -14      1.79    1.28  0. 1.0000     0. 
  -2  -1  14      1.37    1.19  0. 1.0000     0. 
   2   1 -14      0.28    1.16  0. 1.0000     0. 
  -2   1  14     -0.45    0.99  0. 1.0000     0. 
  -2   1  14      0.25    1.22  0. 1.0000     0. 
   2   1 -14      0.83    1.39  0. 1.0000     0. 
   0   1 -14     64.91    5.47  0. 1.0000     0. 
   0   1  14     55.76    4.26  0. 1.0000     0. 
   0   1  14     52.00    4.83  0. 1.0000     0. 
   1   1  14     12.83    2.02  0. 1.0000     0. 
  -1   1 -14      8.93    1.75  0. 1.0000     0. 
   2   1  14    503.37   31.34  0. 1.0000     0. 
  -6   2  14    149.88    9.55  0. 1.0000     0. 
  -5  -2  14    288.83   16.77  0. 1.0000     0. 
   5  -2 -14    232.39   18.44  0. 1.0000     0. 
  -5   2  14    295.62   15.64  0. 1.0000     0. 
  -4   2  14     50.00    3.81  0. 1.0000     0. 
  -3  -2  14     42.88    3.35  0. 1.0000     0. 
   3  -2 -14     39.14    3.40  0. 1.0000     0. 
   3   2 -14     46.36    4.48  0. 1.0000     0. 
   2  -2 -14    161.49    8.95  0. 1.0000     0. 
  -2  -2  14    156.26    9.12  0. 1.0000     0. 
  -2   2  14    158.08    9.65  0. 1.0000     0. 
   1  -2 -14      2.34    1.47  0. 1.0000     0. 
  -1  -2  14      2.68    1.35  0. 1.0000     0. 
   1   2 -14      2.04    1.73  0. 1.0000     0. 
  -1   2  14      2.17    1.42  0. 1.0000     0. 
   0  -2  14      2.50    1.48  0. 1.0000     0. 
   0  -2 -14      1.60    1.71  0. 1.0000     0. 
   0   2  14      0.47    1.34  0. 1.0000     0. 
   0   2 -14      2.58    2.39  0. 1.0000     0. 
   1  -2  14      0.44    1.53  0. 1.0000     0. 
  -1  -2 -14     -1.00    1.68  0. 1.0000     0. 
   1   2  14     -0.69    1.50  0. 1.0000     0. 
  -1   2 -14      1.08    1.54  0. 1.0000     0. 
   1   2  14      0.71    1.99  0. 1.0000     0. 
   2   2  14     35.31    3.74  0. 1.0000     0. 
  -6  -3  14     17.66    2.24  0. 1.0000     0. 
   6   3 -14     11.99    2.58  0. 1.0000     0. 
  -6   3  14     19.15    2.29  0. 1.0000     0. 
   5   3 -14     74.99    6.05  0. 1.0000     0. 
  -5   3  14     73.45    5.97  0. 1.0000     0. 
  -5   3  14     72.85    5.06  0. 1.0000     0. 
  -4  -3  14      1.04    1.33  0. 1.0000     0. 
  -4  -3  14      1.68    1.80  0. 1.0000     0. 
   4  -3 -14     -0.72    1.72  0. 1.0000     0. 
  -4   3  14      0.71    1.92  0. 1.0000     0. 
  -4   3  14      1.00    1.63  0. 1.0000     0. 
   4   3 -14     -0.48    2.61  0. 1.0000     0. 
   4   3 -14      0.15    1.75  0. 1.0000     0. 
  -3  -3  14      0.85    1.50  0. 1.0000     0. 
  -3  -3  14      0.63    1.61  0. 1.0000     0. 
   3  -3 -14      1.83    1.53  0. 1.0000     0. 
   3  -3 -14      3.25    1.83  0. 1.0000     0. 
  -3   3  14      2.75    2.17  0. 1.0000     0. 
   3   3 -14      1.18    2.20  0. 1.0000     0. 
   3   3 -14      3.69    1.91  0. 1.0000     0. 
  -3   3  14      1.92    1.73  0. 1.0000     0. 
   2  -3 -14     10.09    1.97  0. 1.0000     0. 
   2  -3 -14      6.58    2.04  0. 1.0000     0. 
  -2  -3  14      9.14    1.95  0. 1.0000     0. 
  -2  -3  14     13.35    2.15  0. 1.0000     0. 
  -2   3  14      7.51    2.15  0. 1.0000     0. 
   2   3 -14      8.02    2.38  0. 1.0000     0. 
  -2   3  14      6.19    1.79  0. 1.0000     0. 
   2   3 -14      8.20    2.60  0. 1.0000     0. 
  -1  -3  14      2.60    1.69  0. 1.0000     0. 
   1  -3 -14      6.17    2.17  0. 1.0000     0. 
  -1  -3  14      5.33    1.67  0. 1.0000     0. 
   1  -3 -14      4.70    1.81  0. 1.0000     0. 
   1   3 -14      4.18    1.96  0. 1.0000     0. 
  -1   3  14      6.39    2.21  0. 1.0000     0. 
   1   3 -14      4.93    2.63  0. 1.0000     0. 
  -1   3  14      2.40    1.85  0. 1.0000     0. 
   0  -3 -14      5.68    2.11  0. 1.0000     0. 
   0  -3  14      4.24    1.71  0. 1.0000     0. 
   0  -3  14      8.89    1.83  0. 1.0000     0. 
   0  -3 -14      5.58    1.98  0. 1.0000     0. 
   0   3 -14      5.55    2.18  0. 1.0000     0. 
   0   3  14      5.68    2.16  0. 1.0000     0. 
   0   3 -14      7.97    2.67  0. 1.0000     0. 
   0   3  14      7.11    1.76  0. 1.0000     0. 
  -1  -3 -14     21.53    2.79  0. 1.0000     0. 
  -1  -3 -14     24.23    3.02  0. 1.0000     0. 
   1  -3  14     17.47    2.26  0. 1.0000     0. 
   1  -3  14     20.69    2.66  0. 1.0000     0. 
   1   3  14     20.11    2.90  0. 1.0000     0. 
   1   3  14     13.84    2.41  0. 1.0000     0. 
  -1   3 -14     13.23    3.69  0. 1.0000     0. 
  -1   3 -14     21.14    2.77  0. 1.0000     0. 
  -6  -4  14     -0.30    1.46  0. 1.0000     0. 
   6  -4 -14     -0.20    1.72  0. 1.0000     0. 
   5  -4 -14      8.94    2.22  0. 1.0000     0. 
  -5  -4  14      7.23    2.02  0. 1.0000     0. 
  -5   4  14      5.03    1.76  0. 1.0000     0. 
   5   4 -14      5.62    2.39  0. 1.0000     0. 
  -5   4  14      6.50    2.60  0. 1.0000     0. 
   4  -4 -14     -1.03    1.74  0. 1.0000     0. 
  -4  -4  14      0.73    1.83  0. 1.0000     0. 
   4  -4 -14      0.34    1.72  0. 1.0000     0. 
  -4  -4  14      2.75    1.91  0. 1.0000     0. 
   4   4 -14     -1.44    2.36  0. 1.0000     0. 
  -4   4  14      0.88    1.75  0. 1.0000     0. 
   4   4 -14      1.45    2.08  0. 1.0000     0. 
  -4   4  14      1.31    2.32  0. 1.0000     0. 
  -3  -4  14     15.75    2.39  0. 1.0000     0. 
   3  -4 -14     13.61    2.43  0. 1.0000     0. 
  -3  -4  14     16.90    2.37  0. 1.0000     0. 
   3  -4 -14      9.28    2.53  0. 1.0000     0. 
   3   4 -14     12.62    2.70  0. 1.0000     0. 
  -3   4  14     10.45    2.32  0. 1.0000     0. 
  -3   4  14     13.33    2.48  0. 1.0000     0. 
   3   4 -14     11.43    3.45  0. 1.0000     0. 
  -2  -4  14      2.03    1.98  0. 1.0000     0. 
   2  -4 -14      5.18    2.21  0. 1.0000     0. 
  -2  -4  14      6.18    1.89  0. 1.0000     0. 
   2  -4 -14      4.25    2.33  0. 1.0000     0. 
  -2   4  14      6.28    2.66  0. 1.0000     0. 
   2   4 -14      3.23    3.09  0. 1.0000     0. 
  -2   4  14      7.14    2.19  0. 1.0000     0. 
   2   4 -14      5.79    2.42  0. 1.0000     0. 
   1  -4 -14      9.90    2.55  0. 1.0000     0. 
  -1  -4  14      8.83    1.99  0. 1.0000     0. 
   1  -4 -14     12.32    2.61  0. 1.0000     0. 
  -1  -4  14      8.58    1.95  0. 1.0000     0. 
   1   4 -14      5.14    2.97  0. 1.0000     0. 
  -1   4  14      7.49    2.59  0. 1.0000     0. 
  -1   4  14      7.88    2.19  0. 1.0000     0. 
   1   4 -14     10.90    3.12  0. 1.0000     0. 
   0  -4  14      1.52    1.67  0. 1.0000     0. 
   0  -4 -14      7.61    2.51  0. 1.0000     0. 
   0  -4 -14      1.78    2.03  0. 1.0000     0. 
   0  -4  14      1.33    1.68  0. 1.0000     0. 
   0   4  14      1.08    2.47  0. 1.0000     0. 
   0   4 -14      5.45    2.82  0. 1.0000     0. 
   0   4  14      1.85    1.89  0. 1.0000     0. 
   0   4 -14      1.88    2.60  0. 1.0000     0. 
  -1  -4 -14      5.42    2.54  0. 1.0000     0. 
   1  -4  14      7.27    1.95  0. 1.0000     0. 
  -1   4 -14      8.27    2.59  0. 1.0000     0. 
   1   4  14      5.83    2.66  0. 1.0000     0. 
  -6   1  15    501.83   28.81  0. 1.0000     0. 
   5   1 -15    408.66   25.88  0. 1.0000     0. 
  -5   1  15    402.12   23.77  0. 1.0000     0. 
  -4  -1  15    236.30   13.68  0. 1.0000     0. 
   4  -1 -15    215.97   14.09  0. 1.0000     0. 
   4   1 -15    217.40   15.48  0. 1.0000     0. 
   4   1 -15    215.25   15.32  0. 1.0000     0. 
  -3  -1  15    144.19    9.12  0. 1.0000     0. 
  -3   1  15    146.31    9.69  0. 1.0000     0. 
  -3   1  15    141.46    8.87  0. 1.0000     0. 
  -2  -1  15    442.62   20.53  0. 1.0000     0. 
  -2  -1  15    429.33   25.68  0. 1.0000     0. 
   2   1 -15    414.75   27.98  0. 1.0000     0. 
  -2   1  15    386.08   26.21  0. 1.0000     0. 
  -1  -1  15    126.09    7.25  0. 1.0000     0. 
  -1  -1  15    124.12    8.18  0. 1.0000     0. 
   1   1 -15    137.57    9.10  0. 1.0000     0. 
   0  -1  15      5.01    1.48  0. 1.0000     0. 
   0  -1 -15      0.66    1.52  0. 1.0000     0. 
   0  -1  15      5.86    1.40  0. 1.0000     0. 
   0  -1 -15      8.87    1.66  0. 1.0000     0. 
   0   1 -15      6.99    1.81  0. 1.0000     0. 
   0   1  15      6.53    1.91  0. 1.0000     0. 
   0   1  15      3.48    1.55  0. 1.0000     0. 
   1   1  15    276.93   17.85  0. 1.0000     0. 
   6   2 -15    324.18   21.84  0. 1.0000     0. 
  -6   2  15    328.22   19.38  0. 1.0000     0. 
  -5  -2  15     28.60    2.70  0. 1.0000     0. 
   5  -2 -15     20.75    2.92  0. 1.0000     0. 
  -5   2  15     27.04    3.16  0. 1.0000     0. 
   5   2 -15     22.44    3.18  0. 1.0000     0. 
   5   2 -15     23.71    3.64  0. 1.0000     0. 
  -4   2  15    106.41    6.92  0. 1.0000     0. 
  -3  -2  15    415.87   25.29  0. 1.0000     0. 
  -3  -2  15    405.79   23.47  0. 1.0000     0. 
   3  -2 -15    428.26   25.73  0. 1.0000     0. 
  -3   2  15    445.36   24.18  0. 1.0000     0. 
  -3   2  15    425.09   27.41  0. 1.0000     0. 
  -2  -2  15     43.82    3.65  0. 1.0000     0. 
   2  -2 -15     45.10    3.85  0. 1.0000     0. 
  -2  -2  15     37.20    3.37  0. 1.0000     0. 
   1  -2 -15     25.32    3.04  0. 1.0000     0. 
   1  -2 -15     21.95    2.88  0. 1.0000     0. 
  -1  -2  15     26.12    2.44  0. 1.0000     0. 
  -1  -2  15     26.55    2.84  0. 1.0000     0. 
  -1   2  15     23.61    3.21  0. 1.0000     0. 
   1   2 -15     31.19    3.32  0. 1.0000     0. 
   1   2 -15     22.43    3.45  0. 1.0000     0. 
  -1   2  15     30.10    2.88  0. 1.0000     0. 
  -1  -2 -15     32.95    4.42  0. 1.0000     0. 
   1  -2  15     38.98    2.93  0. 1.0000     0. 
  -1   2 -15     30.48    3.48  0. 1.0000     0. 
   1   2  15     31.51    3.86  0. 1.0000     0. 
   6  -3 -15     26.71    3.56  0. 1.0000     0. 
  -6  -3  15     31.83    3.02  0. 1.0000     0. 
  -6   3  15     38.39    3.33  0. 1.0000     0. 
   6   3 -15     30.22    3.92  0. 1.0000     0. 
  -4  -3  15     12.03    1.96  0. 1.0000     0. 
  -4  -3  15     16.41    2.21  0. 1.0000     0. 
   4  -3 -15     12.16    2.25  0. 1.0000     0. 
   4  -3 -15      4.67    1.80  0. 1.0000     0. 
   4   3 -15     10.03    2.49  0. 1.0000     0. 
  -4   3  15      8.76    2.00  0. 1.0000     0. 
   4   3 -15     11.58    3.18  0. 1.0000     0. 
  -4   3  15     11.30    2.38  0. 1.0000     0. 
  -3  -3  15     17.78    2.29  0. 1.0000     0. 
   3  -3 -15     21.33    2.75  0. 1.0000     0. 
   3  -3 -15     20.30    2.47  0. 1.0000     0. 
  -3  -3  15     19.62    2.27  0. 1.0000     0. 
  -3   3  15     20.63    2.76  0. 1.0000     0. 
  -3   3  15     17.69    3.07  0. 1.0000     0. 
   3   3 -15     17.04    2.91  0. 1.0000     0. 
   3   3 -15     19.96    3.76  0. 1.0000     0. 
  -2  -3  15      4.57    1.77  0. 1.0000     0. 
   2  -3 -15      2.45    1.52  0. 1.0000     0. 
   2  -3 -15      5.03    1.98  0. 1.0000     0. 
  -2  -3  15      2.99    1.61  0. 1.0000     0. 
   2   3 -15      5.37    2.52  0. 1.0000     0. 
  -2   3  15      4.36    1.84  0. 1.0000     0. 
  -2   3  15      4.40    2.15  0. 1.0000     0. 
   2   3 -15      3.35    2.36  0. 1.0000     0. 
  -1  -3  15     31.30    3.06  0. 1.0000     0. 
   1  -3 -15     34.55    3.16  0. 1.0000     0. 
   1  -3 -15     23.16    3.60  0. 1.0000     0. 
   1   3 -15     28.63    4.23  0. 1.0000     0. 
  -1   3  15     32.69    3.64  0. 1.0000     0. 
   1   3 -15     25.44    3.49  0. 1.0000     0. 
  -1   3  15     28.77    3.12  0. 1.0000     0. 
   1  -3  15     16.32    2.29  0. 1.0000     0. 
  -1  -3 -15     17.19    2.89  0. 1.0000     0. 
  -1  -3 -15     16.35    2.61  0. 1.0000     0. 
   1  -3  15     14.18    2.42  0. 1.0000     0. 
   1   3  15     19.92    2.89  0. 1.0000     0. 
   1   3  15     20.10    2.60  0. 1.0000     0. 
  -1   3 -15     15.02    2.89  0. 1.0000     0. 
  -2  -3 -15     22.07    2.78  0. 1.0000     0. 
   5  -4 -15     12.38    2.46  0. 1.0000     0. 
  -5   4  15      9.21    2.63  0. 1.0000     0. 
  -4  -4  15      5.37    2.07  0. 1.0000     0. 
   4  -4 -15      8.02    2.11  0. 1.0000     0. 
  -4   4  15      5.37    2.51  0. 1.0000     0. 
   4   4 -15      5.46    2.23  0. 1.0000     0. 
  -3  -4  15     -0.67    1.61  0. 1.0000     0. 
   3  -4 -15     -0.18    1.90  0. 1.0000     0. 
   3   4 -15      0.87    2.07  0. 1.0000     0. 
  -3   4  15      2.26    2.07  0. 1.0000     0. 
  -2  -4  15     55.77    4.84  0. 1.0000     0. 
   2  -4 -15     61.03    5.64  0. 1.0000     0. 
   2   4 -15     58.57    5.53  0. 1.0000     0. 
  -2   4  15     55.44    5.64  0. 1.0000     0. 
   1  -4 -15      0.20    1.94  0. 1.0000     0. 
  -1  -4  15     -1.08    1.81  0. 1.0000     0. 
   1   4 -15      0.20    2.12  0. 1.0000     0. 
  -1   4  15     -0.45    2.20  0. 1.0000     0. 
   0  -4 -15     -0.41    2.31  0. 1.0000     0. 
   0  -4  15      0.56    1.74  0. 1.0000     0. 
   0   4  15      2.66    2.43  0. 1.0000     0. 
   0   4 -15      0.19    2.45  0. 1.0000     0. 
  -6  -2  16     17.60    2.36  0. 1.0000     0. 
  -6   2  16     19.18    2.30  0. 1.0000     0. 
   6   2 -16     14.52    3.17  0. 1.0000     0. 
   5  -2 -16      0.69    1.37  0. 1.0000     0. 
  -5  -2  16      0.87    1.58  0. 1.0000     0. 
  -5   2  16      1.47    1.80  0. 1.0000     0. 
  -5   2  16      0.34    1.64  0. 1.0000     0. 
   5   2 -16     -0.49    1.96  0. 1.0000     0. 
   5   2 -16      0.90    2.02  0. 1.0000     0. 
   4  -2 -16      7.25    1.80  0. 1.0000     0. 
  -4  -2  16      7.00    1.84  0. 1.0000     0. 
  -4  -2  16      6.98    1.58  0. 1.0000     0. 
  -4   2  16      7.37    2.14  0. 1.0000     0. 
  -4   2  16      9.19    2.05  0. 1.0000     0. 
   4   2 -16     12.92    3.00  0. 1.0000     0. 
   4   2 -16      8.64    2.08  0. 1.0000     0. 
  -3  -2  16    669.54   38.50  0. 1.0000     0. 
   3  -2 -16    664.50   32.57  0. 1.0000     0. 
  -3  -2  16    652.44   34.20  0. 1.0000     0. 
  -3   2  16    622.80   41.90  0. 1.0000     0. 
  -3   2  16    701.12   38.18  0. 1.0000     0. 
  -2  -2  16      0.93    1.53  0. 1.0000     0. 
   2  -2 -16     -0.14    1.39  0. 1.0000     0. 
   2  -2 -16      0.19    1.68  0. 1.0000     0. 
  -2  -2  16     -0.94    1.31  0. 1.0000     0. 
   2   2 -16      1.29    1.93  0. 1.0000     0. 
   2   2 -16      1.70    2.05  0. 1.0000     0. 
  -2   2  16      0.17    1.57  0. 1.0000     0. 
  -2   2  16     -0.72    1.52  0. 1.0000     0. 
   1  -2 -16     58.16    5.39  0. 1.0000     0. 
  -1  -2  16     72.43    4.65  0. 1.0000     0. 
   1  -2 -16     71.41    4.85  0. 1.0000     0. 
  -1  -2  16     67.77    5.34  0. 1.0000     0. 
  -1   2  16     70.51    5.61  0. 1.0000     0. 
   1   2 -16     68.54    6.23  0. 1.0000     0. 
   0  -2 -16    390.81   21.26  0. 1.0000     0. 
   0  -2  16    408.25   24.86  0. 1.0000     0. 
   0  -2  16    394.33   20.54  0. 1.0000     0. 
   0   2  16    412.24   25.39  0. 1.0000     0. 
   0   2 -16    394.11   25.81  0. 1.0000     0. 
   0   2  16    409.76   24.21  0. 1.0000     0. 
   1  -2  16      6.25    1.57  0. 1.0000     0. 
  -1  -2 -16      4.79    1.64  0. 1.0000     0. 
  -1  -2 -16      0.34    1.58  0. 1.0000     0. 
  -1   2 -16      7.41    1.85  0. 1.0000     0. 
   1   2  16      7.83    2.40  0. 1.0000     0. 
   2   2  16     45.71    4.60  0. 1.0000     0. 
   7   3 -16     -0.17    1.92  0. 1.0000     0. 
  -6  -3  16     64.52    4.77  0. 1.0000     0. 
  -6   3  16     54.69    4.72  0. 1.0000     0. 
  -5  -3  16     12.23    2.29  0. 1.0000     0. 
   5  -3 -16     18.37    2.69  0. 1.0000     0. 
  -5   3  16     16.44    2.91  0. 1.0000     0. 
   5   3 -16     16.25    3.09  0. 1.0000     0. 
  -5   3  16     19.08    2.40  0. 1.0000     0. 
   5   3 -16     19.92    3.20  0. 1.0000     0. 
  -4  -3  16     50.87    4.21  0. 1.0000     0. 
  -4  -3  16     48.88    4.45  0. 1.0000     0. 
   4  -3 -16     55.13    4.56  0. 1.0000     0. 
   4   3 -16     58.67    5.46  0. 1.0000     0. 
  -4   3  16     54.74    4.28  0. 1.0000     0. 
  -4   3  16     49.90    4.78  0. 1.0000     0. 
   4   3 -16     51.81    4.99  0. 1.0000     0. 
  -3  -3  16      0.90    1.47  0. 1.0000     0. 
   3  -3 -16     -0.15    1.53  0. 1.0000     0. 
   3  -3 -16      1.26    1.66  0. 1.0000     0. 
  -3  -3  16      2.36    1.67  0. 1.0000     0. 
  -3   3  16      5.02    2.16  0. 1.0000     0. 
   3   3 -16      2.18    1.94  0. 1.0000     0. 
   3   3 -16      3.75    2.83  0. 1.0000     0. 
  -3   3  16      2.48    1.83  0. 1.0000     0. 
  -2  -3  16    173.26    9.82  0. 1.0000     0. 
   2  -3 -16    175.65   11.33  0. 1.0000     0. 
   2  -3 -16    174.21    9.89  0. 1.0000     0. 
  -2   3  16    163.85   11.69  0. 1.0000     0. 
   2   3 -16    184.45   12.48  0. 1.0000     0. 
  -2   3  16    140.85   10.87  0. 1.0000     0. 
   1  -3 -16     63.58    4.48  0. 1.0000     0. 
  -1  -3  16     57.65    4.44  0. 1.0000     0. 
   1  -3 -16     57.31    5.54  0. 1.0000     0. 
  -1   3  16     63.01    4.94  0. 1.0000     0. 
  -1   3  16     54.52    5.58  0. 1.0000     0. 
   1   3 -16     63.16    5.35  0. 1.0000     0. 
   0  -3 -16      1.42    1.70  0. 1.0000     0. 
   0  -3 -16      0.16    1.98  0. 1.0000     0. 
   0  -3  16      0.76    1.51  0. 1.0000     0. 
   0  -3  16      1.16    1.57  0. 1.0000     0. 
   0   3 -16     -1.87    2.23  0. 1.0000     0. 
   0   3  16      1.73    2.32  0. 1.0000     0. 
   0   3 -16      1.21    2.49  0. 1.0000     0. 
   0   3  16     -1.47    1.81  0. 1.0000     0. 
   1  -3  16     89.38    5.89  0. 1.0000     0. 
  -1  -3 -16     94.24    6.94  0. 1.0000     0. 
   1  -3  16     93.28    6.75  0. 1.0000     0. 
  -1  -3 -16     84.67    7.32  0. 1.0000     0. 
   1   3  16     93.47    7.39  0. 1.0000     0. 
   2   3  16     25.50    3.59  0. 1.0000     0. 
   7   2 -17     -0.16    1.43  0. 1.0000     0. 
  -6  -2  17     28.43    2.96  0. 1.0000     0. 
  -6   2  17     24.26    2.86  0. 1.0000     0. 
   6   2 -17     29.42    3.72  0. 1.0000     0. 
  -5  -2  17     44.75    3.70  0. 1.0000     0. 
  -5   2  17     43.41    4.32  0. 1.0000     0. 
  -5   2  17     44.03    3.78  0. 1.0000     0. 
   5   2 -17     41.15    4.75  0. 1.0000     0. 
   4  -2 -17     41.65    3.36  0. 1.0000     0. 
  -4  -2  17     49.18    3.84  0. 1.0000     0. 
  -4  -2  17     33.51    3.29  0. 1.0000     0. 
   4  -2 -17     40.36    3.59  0. 1.0000     0. 
  -4   2  17     43.72    3.52  0. 1.0000     0. 
  -4   2  17     30.19    3.71  0. 1.0000     0. 
  -3  -2  17     20.74    2.38  0. 1.0000     0. 
  -3  -2  17     19.62    2.38  0. 1.0000     0. 
   3  -2 -17     20.75    2.49  0. 1.0000     0. 
   3  -2 -17     16.94    2.76  0. 1.0000     0. 
  -3   2  17     17.28    2.57  0. 1.0000     0. 
   3   2 -17     20.11    3.08  0. 1.0000     0. 
  -3   2  17     24.45    3.07  0. 1.0000     0. 
   3   2 -17     18.00    2.89  0. 1.0000     0. 
   2  -2 -17      6.20    1.97  0. 1.0000     0. 
  -2  -2  17      6.10    1.61  0. 1.0000     0. 
   2  -2 -17      7.70    1.82  0. 1.0000     0. 
  -2  -2  17      9.35    2.05  0. 1.0000     0. 
  -2   2  17      7.76    2.10  0. 1.0000     0. 
   2   2 -17     11.43    2.54  0. 1.0000     0. 
   2   2 -17      8.49    2.69  0. 1.0000     0. 
  -2   2  17      6.68    1.95  0. 1.0000     0. 
  -1  -2  17     13.81    2.31  0. 1.0000     0. 
  -1  -2  17     11.33    2.10  0. 1.0000     0. 
   1  -2 -17     10.89    2.06  0. 1.0000     0. 
   1  -2 -17      9.16    2.45  0. 1.0000     0. 
   1   2 -17      6.69    2.36  0. 1.0000     0. 
  -1   2  17     11.67    2.04  0. 1.0000     0. 
  -1   2  17      7.88    2.38  0. 1.0000     0. 
   1   2 -17     15.51    2.73  0. 1.0000     0. 
   0  -2 -17    358.37   23.95  0. 1.0000     0. 
   0  -2  17    385.68   18.12  0. 1.0000     0. 
   0   2  17    340.61   21.23  0. 1.0000     0. 
   0   2  17    366.29   24.25  0. 1.0000     0. 
   7   3 -17     -0.40    2.02  0. 1.0000     0. 
  -6   3  17     68.87    5.29  0. 1.0000     0. 
  -5  -3  17     94.28    6.71  0. 1.0000     0. 
   5   3 -17    104.60    8.67  0. 1.0000     0. 
   5   3 -17     88.49    7.84  0. 1.0000     0. 
  -5   3  17     93.83    7.59  0. 1.0000     0. 
  -5   3  17    102.48    6.88  0. 1.0000     0. 
   4  -3 -17     38.44    3.89  0. 1.0000     0. 
  -4  -3  17     45.45    3.89  0. 1.0000     0. 
   4  -3 -17     41.88    3.98  0. 1.0000     0. 
  -4  -3  17     41.59    3.70  0. 1.0000     0. 
   4   3 -17     38.32    5.09  0. 1.0000     0. 
  -4   3  17     45.03    3.85  0. 1.0000     0. 
  -4   3  17     48.95    4.46  0. 1.0000     0. 
  -3  -3  17      9.25    1.99  0. 1.0000     0. 
   3  -3 -17      9.13    2.19  0. 1.0000     0. 
   3  -3 -17      6.64    1.99  0. 1.0000     0. 
  -3  -3  17      9.53    2.07  0. 1.0000     0. 
   3   3 -17      7.11    3.34  0. 1.0000     0. 
  -3   3  17      5.07    2.44  0. 1.0000     0. 
  -3   3  17      7.11    1.93  0. 1.0000     0. 
   3   3 -17      5.81    2.24  0. 1.0000     0. 
   2  -3 -17    199.47   12.93  0. 1.0000     0. 
   2  -3 -17    180.35   11.41  0. 1.0000     0. 
  -2  -3  17    204.85   13.03  0. 1.0000     0. 
  -2  -3  17    186.76   11.44  0. 1.0000     0. 
  -2   3  17    202.49   13.30  0. 1.0000     0. 
  -2   3  17    205.15   12.34  0. 1.0000     0. 
   2   3 -17    198.28   14.27  0. 1.0000     0. 
  -1  -3  17     47.53    3.74  0. 1.0000     0. 
   1  -3 -17     38.22    4.37  0. 1.0000     0. 
  -1  -3  17     41.49    3.97  0. 1.0000     0. 
   1  -3 -17     44.06    4.01  0. 1.0000     0. 
  -1   3  17     40.74    4.41  0. 1.0000     0. 
  -1   3  17     38.26    3.75  0. 1.0000     0. 
   0  -3  17     43.57    4.40  0. 1.0000     0. 
   0  -3  17     52.81    3.74  0. 1.0000     0. 
   0  -3 -17     43.93    4.55  0. 1.0000     0. 
   0  -3 -17     52.53    4.33  0. 1.0000     0. 
   0   3  17     50.95    4.85  0. 1.0000     0. 
   0   3 -17     47.80    5.20  0. 1.0000     0. 
   0   3  17     50.56    4.45  0. 1.0000     0. 
   0   3 -17     51.60    5.36  0. 1.0000     0. 
   1  -3  17      0.51    1.69  0. 1.0000     0. 
  -1  -3 -17      0.15    1.45  0. 1.0000     0. 
   1  -3  17      0.18    1.67  0. 1.0000     0. 
  -1  -3 -17      1.01    2.11  0. 1.0000     0. 
   1   3  17     -0.85    2.06  0. 1.0000     0. 
  -1   3 -17     -0.97    1.62  0. 1.0000     0. 
  -2  -3 -17     -0.69    1.46  0. 1.0000     0. 
   2   3  17      0.22    2.34  0. 1.0000     0. 
   7   2 -18    107.33    8.59  0. 1.0000     0. 
  -6  -2  18    127.99    8.79  0. 1.0000     0. 
  -6   2  18    120.60    8.42  0. 1.0000     0. 
   6   2 -18    125.10    9.45  0. 1.0000     0. 
  -5  -2  18      2.81    1.27  0. 1.0000     0. 
  -5  -2  18      5.17    1.66  0. 1.0000     0. 
   5   2 -18      6.76    2.44  0. 1.0000     0. 
  -5   2  18      5.36    2.08  0. 1.0000     0. 
   5   2 -18      2.06    2.77  0. 1.0000     0. 
  -5   2  18      3.09    2.10  0. 1.0000     0. 
   3   2 -18      0.23    2.38  0. 1.0000     0. 
  -3   2  18      1.23    1.59  0. 1.0000     0. 
   0  -2  18     13.49    2.19  0. 1.0000     0. 
   0  -2  18     15.12    2.47  0. 1.0000     0. 
   0   2  18     17.61    3.15  0. 1.0000     0. 
   0   2 -18     15.38    2.69  0. 1.0000     0. 
   1  -2  18      9.29    1.97  0. 1.0000     0. 
  -1   2 -18      5.52    1.75  0. 1.0000     0. 
   1   2  18      8.02    2.18  0. 1.0000     0. 
   6  -3 -18     27.03    3.46  0. 1.0000     0. 
  -6  -3  18     28.33    3.09  0. 1.0000     0. 
  -6   3  18     34.53    3.21  0. 1.0000     0. 
   6   3 -18     30.67    3.95  0. 1.0000     0. 
  -5  -3  18      0.80    1.67  0. 1.0000     0. 
  -5  -3  18      1.31    1.52  0. 1.0000     0. 
   5  -3 -18      2.46    1.49  0. 1.0000     0. 
   5  -3 -18      0.18    1.84  0. 1.0000     0. 
   5   3 -18      0.37    2.11  0. 1.0000     0. 
   5   3 -18     -1.03    2.41  0. 1.0000     0. 
  -5   3  18      0.84    2.14  0. 1.0000     0. 
  -5   3  18      0.60    2.14  0. 1.0000     0. 
   4  -3 -18      4.21    1.80  0. 1.0000     0. 
  -4  -3  18      1.41    1.50  0. 1.0000     0. 
  -4  -3  18      6.49    2.07  0. 1.0000     0. 
   4  -3 -18      2.48    1.91  0. 1.0000     0. 
   4   3 -18      3.45    2.49  0. 1.0000     0. 
  -4   3  18      2.95    2.05  0. 1.0000     0. 
   4   3 -18      1.97    3.19  0. 1.0000     0. 
  -4   3  18      2.55    2.30  0. 1.0000     0. 
   3  -3 -18     48.44    4.70  0. 1.0000     0. 
  -3  -3  18     57.63    4.44  0. 1.0000     0. 
  -3  -3  18     52.21    4.23  0. 1.0000     0. 
   3  -3 -18     54.94    4.76  0. 1.0000     0. 
   3   3 -18     57.07    5.22  0. 1.0000     0. 
  -3   3  18     51.11    5.10  0. 1.0000     0. 
   3   3 -18     57.14    6.21  0. 1.0000     0. 
  -3   3  18     56.18    4.39  0. 1.0000     0. 
  -2  -3  18     18.56    2.88  0. 1.0000     0. 
   2  -3 -18     18.16    3.13  0. 1.0000     0. 
  -2  -3  18     22.32    2.63  0. 1.0000     0. 
   2  -3 -18     19.87    2.76  0. 1.0000     0. 
   2   3 -18     24.28    4.34  0. 1.0000     0. 
  -2   3  18     24.16    3.00  0. 1.0000     0. 
   2   3 -18     24.58    3.78  0. 1.0000     0. 
  -2   3  18     20.64    3.21  0. 1.0000     0. 
  -1  -3  18      0.37    2.03  0. 1.0000     0. 
  -1  -3  18     -0.17    1.77  0. 1.0000     0. 
   1  -3 -18      0.56    1.83  0. 1.0000     0. 
   1  -3 -18     -0.97    1.79  0. 1.0000     0. 
   1   3 -18      0.32    2.77  0. 1.0000     0. 
   1   3 -18      0.19    2.05  0. 1.0000     0. 
  -1   3  18      0.20    2.15  0. 1.0000     0. 
  -1   3  18     -0.59    1.83  0. 1.0000     0. 
   0  -3  18     18.49    2.63  0. 1.0000     0. 
   0  -3  18     19.10    2.42  0. 1.0000     0. 
   0  -3 -18     10.50    2.56  0. 1.0000     0. 
   0  -3 -18     19.67    2.87  0. 1.0000     0. 
   0   3 -18     17.18    3.69  0. 1.0000     0. 
   0   3 -18     14.77    3.09  0. 1.0000     0. 
   0   3  18     20.84    3.41  0. 1.0000     0. 
   0   3  18     18.51    2.39  0. 1.0000     0. 
  -1  -3 -18     12.10    2.39  0. 1.0000     0. 
   1  -3  18     20.70    2.56  0. 1.0000     0. 
  -1  -3 -18      3.35    1.76  0. 1.0000     0. 
  -1   3 -18      9.58    1.97  0. 1.0000     0. 
   1   3  18     24.77    3.48  0. 1.0000     0. 
  -6  -3  19      7.59    2.07  0. 1.0000     0. 
   6  -3 -19      8.14    2.20  0. 1.0000     0. 
   6   3 -19      0.58    1.64  0. 1.0000     0. 
  -5  -3  19     13.98    2.24  0. 1.0000     0. 
  -5  -3  19     11.44    2.06  0. 1.0000     0. 
   5  -3 -19     13.13    2.37  0. 1.0000     0. 
   5  -3 -19      9.13    2.60  0. 1.0000     0. 
   5   3 -19     11.85    3.51  0. 1.0000     0. 
  -5   3  19     14.25    2.70  0. 1.0000     0. 
  -5   3  19     14.72    2.91  0. 1.0000     0. 
   5   3 -19     11.33    3.02  0. 1.0000     0. 
   4  -3 -19     32.09    3.49  0. 1.0000     0. 
   4  -3 -19     25.21    3.17  0. 1.0000     0. 
  -4  -3  19     29.22    3.08  0. 1.0000     0. 
  -4  -3  19     33.23    3.31  0. 1.0000     0. 
  -4   3  19     34.43    3.72  0. 1.0000     0. 
   4   3 -19     19.19    3.62  0. 1.0000     0. 
   4   3 -19     32.91    4.53  0. 1.0000     0. 
  -4   3  19     28.32    3.66  0. 1.0000     0. 
  -3  -3  19     45.03    3.67  0. 1.0000     0. 
  -3  -3  19     42.07    3.81  0. 1.0000     0. 
   3  -3 -19     40.95    3.85  0. 1.0000     0. 
   3   3 -19     29.98    4.30  0. 1.0000     0. 
  -3   3  19     43.94    4.00  0. 1.0000     0. 
   3   3 -19     44.53    5.40  0. 1.0000     0. 
   2  -3 -19     26.47    3.21  0. 1.0000     0. 
  -2  -3  19     30.46    3.43  0. 1.0000     0. 
  -2  -3  19     29.37    3.09  0. 1.0000     0. 
   2  -3 -19     23.36    3.60  0. 1.0000     0. 
   2   3 -19     26.40    4.06  0. 1.0000     0. 
  -2   3  19     28.52    3.46  0. 1.0000     0. 
   2   3 -19     31.44    4.46  0. 1.0000     0. 
  -2   3  19     24.43    3.65  0. 1.0000     0. 
   1  -3 -19      8.58    2.38  0. 1.0000     0. 
   1  -3 -19      9.52    2.36  0. 1.0000     0. 
  -1  -3  19      8.70    1.93  0. 1.0000     0. 
  -1  -3  19     10.86    2.19  0. 1.0000     0. 
  -1   3  19      3.28    2.55  0. 1.0000     0. 
  -1   3  19     10.47    2.47  0. 1.0000     0. 
   1   3 -19     12.08    3.05  0. 1.0000     0. 
   0  -3 -19     40.36    3.86  0. 1.0000     0. 
   0  -3  19     36.37    4.13  0. 1.0000     0. 
   0   3  19     43.46    4.50  0. 1.0000     0. 
   0   3 -19     43.04    4.52  0. 1.0000     0. 
  -1  -3 -19     36.19    3.50  0. 1.0000     0. 
   1   3  19     34.09    4.15  0. 1.0000     0. 
   5  -3 -20     53.96    4.84  0. 1.0000     0. 
  -5   3  20     44.73    5.00  0. 1.0000     0. 
  -4  -3  20     20.20    2.90  0. 1.0000     0. 
   4  -3 -20     12.83    2.73  0. 1.0000     0. 
  -4   3  20     18.16    3.30  0. 1.0000     0. 
   4   3 -20     18.69    3.21  0. 1.0000     0. 
  -3  -3  20     38.80    3.91  0. 1.0000     0. 
   3  -3 -20     41.66    4.21  0. 1.0000     0. 
  -3   3  20     40.61    4.39  0. 1.0000     0. 
   3   3 -20     40.40    4.60  0. 1.0000     0. 
  -2  -3  20      4.95    2.05  0. 1.0000     0. 
   2  -3 -20      4.42    2.38  0. 1.0000     0. 
   2   3 -20      6.18    2.97  0. 1.0000     0. 
  -2   3  20      6.86    2.68  0. 1.0000     0. 
   1  -3 -20      2.85    2.06  0. 1.0000     0. 
  -1   3  20      1.41    2.51  0. 1.0000     0. 
-512 
#   2423 reflections output 
;
loop_
_symmetry_equiv_pos_as_xyz
x,y,z
-x,-y,-z
-x,y+1/2,-z+1/2
x,-y+1/2,z+1/2
loop_
_atom_site_label
_atom_site_type_symbol
_atom_site_fract_x
_atom_site_fract_y
_atom_site_fract_z
_atom_site_U_iso_or_equiv
_atom_site_occupancy
_atom_site_adp_type
_atom_site_refinement_flags_posn
_atom_site_refinement_flags_adp
_atom_site_refinement_flags_occupancy
_atom_site_disorder_assembly
_atom_site_disorder_group
_atom_site_attached_hydrogens
S1 S 0.4360(3) 0.3127(3) 0.33929(9) 0.0404 1.0000 Uani D U . . . .
N2 N 0.3147(7) 0.1837(9) 0.2432(2) 0.0412 1.0000 Uani D U . . . .
S3 S 0.1497(3) 0.0528(3) 0.25347(7) 0.0382 1.0000 Uani D U . . . .
C4 C 0.1825(7) 0.1156(8) 0.3721(2) 0.0281 1.0000 Uani D U . . . .
C5 C 0.3263(6) 0.2475(8) 0.4151(2) 0.0282 1.0000 Uani D U . . . .
N6 N 0.3487(7) 0.3010(9) 0.5052(2) 0.0321 1.0000 Uani D U . . . .
S7 S 0.1963(3) 0.1827(2) 0.53307(7) 0.0299 1.0000 Uani D U . . . .
N8 N 0.0972(7) 0.0676(8) 0.4296(2) 0.0312 1.0000 Uani D U . . . .
loop_
_atom_site_aniso_label
_atom_site_aniso_U_11
_atom_site_aniso_U_22
_atom_site_aniso_U_33
_atom_site_aniso_U_23
_atom_site_aniso_U_13
_atom_site_aniso_U_12
S1 0.040(4) 0.0526(6) 0.0340(8) 0.0110(4) 0.0195(14) 0.0056(8)
N2 0.055(5) 0.0479(16) 0.0264(16) 0.0058(11) 0.021(2) 0.007(2)
S3 0.051(4) 0.0456(5) 0.0203(6) 0.0013(3) 0.0137(12) 0.0056(6)
C4 0.035(5) 0.0295(12) 0.0206(14) 0.0014(9) 0.009(2) 0.001(2)
C5 0.031(5) 0.0319(12) 0.0241(15) 0.0049(10) 0.011(2) 0.005(2)
N6 0.030(5) 0.0436(14) 0.0249(15) 0.0008(11) 0.011(3) -0.003(2)
S7 0.031(4) 0.0396(5) 0.0216(6) -0.0014(3) 0.0107(13) -0.0031(6)
N8 0.034(5) 0.0377(12) 0.0240(14) -0.0017(9) 0.011(2) -0.006(2)
loop_
_atom_type_symbol
_atom_type_scat_dispersion_real
_atom_type_scat_dispersion_imag
_atom_type_scat_Cromer_Mann_a1
_atom_type_scat_Cromer_Mann_b1
_atom_type_scat_Cromer_Mann_a2
_atom_type_scat_Cromer_Mann_b2
_atom_type_scat_Cromer_Mann_a3
_atom_type_scat_Cromer_Mann_b3
_atom_type_scat_Cromer_Mann_a4
_atom_type_scat_Cromer_Mann_b4
_atom_type_scat_Cromer_Mann_c
_atom_type_scat_source
C 0.0006 0.0007 2.3100 20.8439 1.0200 10.2075 1.5886 0.5687 0.8650 51.6512
0.2156 'International Tables Vol C 4.2.6.8 and 6.1.1.4'
N 0.0016 0.0014 12.2126 0.0057 3.1322 9.8933 2.0125 28.9975 1.1663 0.5826
-11.5290 'International Tables Vol C 4.2.6.8 and 6.1.1.4'
S 0.0630 0.0572 6.9053 1.4679 5.2034 22.2151 1.4379 0.2536 1.5863 56.1720
0.8669 'International Tables Vol C 4.2.6.8 and 6.1.1.4'
loop_
_geom_angle_atom_site_label_1
_geom_angle_site_symmetry_1
_geom_angle_atom_site_label_2
_geom_angle_site_symmetry_2
_geom_angle_atom_site_label_3
_geom_angle_site_symmetry_3
_geom_angle
_geom_angle_publ_flag
N2 . S1 . C5 . 97.8(3) yes
S1 . N2 . S3 . 116.9(2) yes
N2 . S3 . C4 . 97.3(3) yes
S3 . C4 . C5 . 114.2(3) yes
S3 . C4 . N8 . 131.5(4) yes
C5 . C4 . N8 . 114.3(3) yes
C4 . C5 . S1 . 113.9(3) yes
C4 . C5 . N6 . 113.5(4) yes
S1 . C5 . N6 . 132.6(4) yes
C5 . N6 . S7 . 107.0(4) yes
N6 . S7 . N8 . 98.7(2) yes
C4 . N8 . S7 . 106.5(4) yes
loop_
_geom_bond_atom_site_label_1
_geom_bond_site_symmetry_1
_geom_bond_atom_site_label_2
_geom_bond_site_symmetry_2
_geom_bond_distance
_geom_bond_publ_flag
S1 . N2 . 1.661(5) yes
S1 . C5 . 1.730(5) yes
N2 . S3 . 1.667(6) yes
S3 . C4 . 1.736(3) yes
C4 . C5 . 1.425(7) yes
C4 . N8 . 1.327(5) yes
C5 . N6 . 1.323(4) yes
N6 . S7 . 1.647(6) yes
S7 . N8 . 1.645(5) yes
loop_
_oxford_refln_omitted_index_h
_oxford_refln_omitted_index_k
_oxford_refln_omitted_index_l
_oxford_refln_omitted_flag
_oxford_refln_omitted_details
1 1 0 x .
-5 2 8 x .
-5 1 11 x .
1 1 1 x .
-3 1 6 x .
2 2 12 x .
-6 1 14 x .
-5 2 18 x .
2 3 15 x .
-5 1 10 x .
3 3 6 x .
3 4 9 x .
3 3 2 x .
-6 4 9 x .
