#------------------------------------------------------------------------------
#$Date: 2021-09-06 13:30:01 +0300 (Mon, 06 Sep 2021) $
#$Revision: 268676 $
#$URL: file:///home/coder/svn-repositories/cod/cif/7/24/25/7242594.cif $
#------------------------------------------------------------------------------
#
# This file is available in the Crystallography Open Database (COD),
# http://www.crystallography.net/
#
# All data on this site have been placed in the public domain by the
# contributors.
#
data_7242594
loop_
_publ_author_name
'Sasaki, Toshiyuki'
'Ranjan, Subham'
'Takamizawa, Satoshi'
_publ_section_title
;
 A photoluminescent organosuperelastic crystal of 7-amino-4-methylcoumarin
;
_journal_issue                   34
_journal_name_full               CrystEngComm
_journal_page_first              5801
_journal_page_last               5804
_journal_paper_doi               10.1039/D1CE00359C
_journal_volume                  23
_journal_year                    2021
_chemical_formula_sum            'C10 H9 N O2'
_chemical_formula_weight         175.18
_chemical_name_systematic        7-Amino-4-methylcoumarin
_space_group_crystal_system      triclinic
_space_group_IT_number           2
_space_group_name_Hall           '-P 1'
_space_group_name_H-M_alt        'P -1'
_atom_sites_solution_hydrogens   geom
_audit_creation_method           SHELXL-2018/3
_audit_update_record
;
2021-03-10 deposited with the CCDC.	2021-04-05 downloaded from the CCDC.
;
_cell_angle_alpha                71.817(6)
_cell_angle_beta                 84.968(8)
_cell_angle_gamma                70.026(8)
_cell_formula_units_Z            2
_cell_length_a                   6.9349(19)
_cell_length_b                   7.1467(15)
_cell_length_c                   9.558(2)
_cell_measurement_reflns_used    620
_cell_measurement_temperature    296
_cell_measurement_theta_max      21.245
_cell_measurement_theta_min      2.2435
_cell_volume                     422.89(17)
_computing_cell_refinement       'APEX3 v2019.11 (Bruker AXS)'
_computing_data_collection
'Bruker Instrument Service V6.2.14 (Bruker AXS Inc., 2016)'
_computing_data_reduction        'SAINT V8.40B (Bruker AXS Inc., 2013)'
_computing_structure_refinement  'SHELXL-2018/3 (Sheldrick, 2018)'
_computing_structure_solution    'SHELXT 2014/5 (Sheldrick, 2014)'
_diffrn_ambient_temperature      296
_diffrn_measured_fraction_theta_full 0.977
_diffrn_measured_fraction_theta_max 0.977
_diffrn_measurement_device_type  'Bruker D8 goniometer'
_diffrn_measurement_method       'phi and omega scans'
_diffrn_radiation_type           MoK\a
_diffrn_radiation_wavelength     0.71073
_diffrn_reflns_av_R_equivalents  0.0610
_diffrn_reflns_av_unetI/netI     0.0614
_diffrn_reflns_Laue_measured_fraction_full 0.977
_diffrn_reflns_Laue_measured_fraction_max 0.977
_diffrn_reflns_limit_h_max       8
_diffrn_reflns_limit_h_min       -8
_diffrn_reflns_limit_k_max       8
_diffrn_reflns_limit_k_min       -8
_diffrn_reflns_limit_l_max       11
_diffrn_reflns_limit_l_min       -11
_diffrn_reflns_number            5217
_diffrn_reflns_point_group_measured_fraction_full 0.977
_diffrn_reflns_point_group_measured_fraction_max 0.977
_diffrn_reflns_theta_full        25.019
_diffrn_reflns_theta_max         25.019
_diffrn_reflns_theta_min         2.243
_diffrn_source                   'micro focus sealed tube'
_exptl_absorpt_coefficient_mu    0.097
_exptl_absorpt_correction_T_max  0.7455
_exptl_absorpt_correction_T_min  0.6046
_exptl_absorpt_correction_type   multi-scan
_exptl_absorpt_process_details
;
 SADABS 2016/2: Krause, L., Herbst-Irmer, R., Sheldrick G.M. & Stalke D.,
 J. Appl. Cryst. 48 (2015) 3-10
;
_exptl_crystal_colour            yellow
_exptl_crystal_density_diffrn    1.376
_exptl_crystal_description       platelet
_exptl_crystal_F_000             184
_exptl_crystal_recrystallization_method
'Re-crystallisation from solvent: acetone'
_exptl_crystal_size_max          0.245
_exptl_crystal_size_mid          0.124
_exptl_crystal_size_min          0.099
_refine_diff_density_max         1.328
_refine_diff_density_min         -0.538
_refine_diff_density_rms         0.268
_refine_ls_extinction_method     none
_refine_ls_goodness_of_fit_ref   1.653
_refine_ls_hydrogen_treatment    constr
_refine_ls_matrix_type           full
_refine_ls_number_parameters     119
_refine_ls_number_reflns         1468
_refine_ls_number_restraints     0
_refine_ls_restrained_S_all      1.653
_refine_ls_R_factor_all          0.2083
_refine_ls_R_factor_gt           0.1819
_refine_ls_shift/su_max          0.000
_refine_ls_shift/su_mean         0.000
_refine_ls_structure_factor_coef Fsqd
_refine_ls_weighting_details
'w=1/[\s^2^(Fo^2^)+(0.2000P)^2^] where P=(Fo^2^+2Fc^2^)/3'
_refine_ls_weighting_scheme      calc
_refine_ls_wR_factor_gt          0.4492
_refine_ls_wR_factor_ref         0.4751
_reflns_Friedel_coverage         0.000
_reflns_number_gt                862
_reflns_number_total             1468
_reflns_threshold_expression     'I > 2\s(I)'
_cod_data_source_file            d1ce00359c5.cif
_cod_data_source_block           Mother
_cod_depositor_comments
'Adding full bibliography for 7242594--7242595.cif.'
_cod_original_cell_volume        422.89(18)
_cod_database_code               7242594
_shelx_shelxl_version_number     2018/3
_shelx_space_group_comment
;
The symmetry employed for this shelxl refinement is uniquely defined
by the following loop, which should always be used as a source of
symmetry information in preference to the above space-group names.
They are only intended as comments.
;
_shelx_estimated_absorpt_t_min   0.980
_shelx_estimated_absorpt_t_max   0.992
_shelx_res_file
;
TITL 20200925_AMC_D_0_a.res in P-1
    20200925_AMC_D_0_a.res
    created by SHELXL-2018/3 at 17:47:48 on 26-Sep-2020
CELL  0.71073   6.9349   7.1467   9.5580   71.817   84.968   70.026
ZERR    2.000   0.0019   0.0015   0.0022    0.006    0.008    0.008
LATT 1
SFAC C  H  N  O
UNIT 20  18  2  4
L.S. 10
ACTA
BOND $H
FMAP 2
PLAN 5
SIZE 0.085 0.126 0.208
TEMP 23.000
WGHT    0.200000
FVAR       1.19264
O1    4    0.144760    0.722973    0.658738    11.00000    0.08084    0.04436 =
         0.03744   -0.01969    0.00426   -0.01726
C3    1    0.301981    0.288267    0.724454    11.00000    0.06034    0.04334 =
         0.04162   -0.01334    0.00007   -0.01961
C6    1    0.203769    0.700921    0.284489    11.00000    0.05000    0.05338 =
         0.04109   -0.01897    0.00077   -0.01532
O2    4    0.111378    0.698025    0.893197    11.00000    0.12662    0.06412 =
         0.04575   -0.03074    0.01153   -0.03029
C8    1    0.195616    0.635476    0.545508    11.00000    0.05245    0.04141 =
         0.03583   -0.02114    0.00075   -0.01224
C4    1    0.313526    0.348099    0.449563    11.00000    0.06826    0.04640 =
         0.04597   -0.02442    0.00347   -0.01416
AFIX  43
H4    2    0.364491    0.205096    0.463086    11.00000   -1.20000
AFIX   0
C2    1    0.249070    0.380959    0.831615    11.00000    0.07193    0.04915 =
         0.04003   -0.00883    0.00044   -0.02277
AFIX  43
H2    2    0.267610    0.296698    0.929074    11.00000   -1.20000
AFIX   0
C9    1    0.272780    0.419708    0.573788    11.00000    0.04952    0.04013 =
         0.04287   -0.01465    0.00081   -0.01197
C7    1    0.160779    0.773269    0.406854    11.00000    0.06029    0.04072 =
         0.04098   -0.01368   -0.00013   -0.01227
AFIX  43
H7    2    0.108117    0.916023    0.394157    11.00000   -1.20000
AFIX   0
C5    1    0.280671    0.481696    0.309970    11.00000    0.06560    0.06087 =
         0.04417   -0.02925    0.00079   -0.01712
AFIX  43
H5    2    0.308989    0.428589    0.230349    11.00000   -1.20000
AFIX   0
N1    3    0.171776    0.835306    0.145045    11.00000    0.09643    0.06784 =
         0.03636   -0.01968   -0.00146   -0.02377
AFIX  93
H1A   2    0.124076    0.967827    0.131302    11.00000   -1.20000
H1B   2    0.199277    0.787631    0.070748    11.00000   -1.20000
AFIX   0
C1    1    0.166097    0.601639    0.803291    11.00000    0.07924    0.05785 =
         0.03884   -0.02084    0.00441   -0.02757
C10   1    0.387723    0.055917    0.760507    11.00000    0.09510    0.04529 =
         0.05258   -0.01150   -0.00248   -0.01854
AFIX 137
H10A  2    0.385321   -0.006338    0.865065    11.00000   -1.50000
H10B  2    0.526570    0.016028    0.727773    11.00000   -1.50000
H10C  2    0.306349    0.008825    0.711841    11.00000   -1.50000
AFIX   0
HKLF 4




REM  20200925_AMC_D_0_a.res in P-1
REM wR2 = 0.475116, GooF = S = 1.65317, Restrained GooF = 1.65317 for all data
REM R1 = 0.181923 for 862 Fo > 4sig(Fo) and 0.208309 for all 1468 data
REM 119 parameters refined using 0 restraints

END

WGHT      0.2000      0.0000

REM Highest difference peak  1.328,  deepest hole -0.538,  1-sigma level  0.268
Q1    1  -0.0105  0.7009  0.2792  11.00000  0.05    1.33
Q2    1   0.5015  0.2990  0.7208  11.00000  0.05    1.32
Q3    1   0.5121  0.3554  0.4552  11.00000  0.05    1.32
Q4    1  -0.0369  0.6427  0.5452  11.00000  0.05    1.29
Q5    1  -0.0792  0.7200  0.6573  11.00000  0.05    1.02
;
_shelx_res_checksum              12802
_shelx_hkl_file
;
  -1   0   0  503.65   28.50
   1   0   0  519.25   28.50
  -2   0   0 3775.02  221.48
   2   0   0 3624.24  228.58
  -3   0   0  314.97   20.80
   3   0   0  305.97   20.90
  -4   0   0   15.20    4.40
  -4   0   0   18.40    5.30
   4   0   0   27.30    6.20
  -5   0   0    0.70    1.20
  -5   0   0    3.30    2.70
  -6   0   0   17.10    6.30
   6   0   0   27.90    8.30
   7  -1   0    7.80    4.60
   6  -1   0    4.90    3.10
  -6   1   0    3.90    2.80
  -6   1   0   18.70    6.20
   5  -1   0  191.68   19.70
  -5   1   0  172.28   20.80
  -5   1   0  130.49   16.60
   4  -1   0  151.48   15.60
  -4   1   0  141.99   16.20
  -4   1   0   90.79   12.30
   3  -1   0  117.89   10.60
  -3   1   0  129.59   10.80
  -3   1   0  122.69   11.30
   2  -1   0  661.43   38.00
  -2   1   0  655.03   38.00
  -1   1   0  991.60   55.29
  -1   1   0 1051.59   56.09
   0  -1   0 5640.24  301.47
   0   1   0 5683.43  301.67
  -1  -1   0  232.18   13.90
  -1  -1   0  236.88   14.00
   1   1   0  233.58   14.00
  -2  -1   0 9999.00  545.05
   2   1   0 9749.62  543.45
  -3  -1   0  205.08   15.30
   3   1   0  204.48   15.20
  -4  -1   0 1211.68   74.29
   4   1   0 1288.77   72.69
  -5  -1   0   21.50    5.60
  -5  -1   0   28.40    7.00
   5   1   0   35.00    7.90
  -6  -1   0   14.00    5.20
  -6  -1   0   30.10    9.20
   6   1   0   16.00    6.20
   7   1   0    0.60    1.70
   6  -2   0   -0.40    1.20
   5  -2   0   21.00    6.10
  -5   2   0   20.20    7.50
  -5   2   0   16.20    6.80
   4  -2   0    4.10    2.50
  -4   2   0   14.40    4.70
  -4   2   0   14.50    4.90
  -4   2   0    6.10    3.70
   3  -2   0  603.24   35.40
  -3   2   0  563.54   36.40
  -3   2   0  542.95   34.50
  -3   2   0  566.44   36.40
   2  -2   0  341.97   21.80
  -2   2   0  356.16   21.80
  -2   2   0  358.86   22.90
  -2   2   0  346.97   23.10
   1  -2   0  912.11   50.59
  -1   2   0  916.51   51.09
  -1   2   0  910.51   51.89
  -1   2   0  939.51   50.39
   0  -2   0 2721.13  150.48
   0   2   0 2649.03  150.28
  -1  -2   0  272.37   16.10
  -1  -2   0  278.47   16.50
  -1  -2   0  266.37   16.10
   1   2   0  271.87   16.50
  -2  -2   0   69.09    7.80
  -2  -2   0   66.29    7.60
  -2  -2   0   81.99    8.50
   2   2   0   88.39    9.10
  -3  -2   0   15.50    3.70
   3   2   0   10.40    3.60
  -4  -2   0  520.05   34.70
  -4  -2   0  561.34   35.00
   4   2   0  541.05   35.00
  -5  -2   0   28.80    6.70
  -5  -2   0   33.60    7.30
   5   2   0   31.10    7.10
  -6  -2   0  185.88   21.10
  -6  -2   0  135.99   18.30
   6   2   0  142.99   19.40
   7   2   0   -0.50    1.10
   8   2   0   12.10    5.40
   6  -3   0    0.20    1.20
   5  -3   0   -0.50    1.20
  -5   3   0   -0.20    1.40
  -5   3   0    3.00    4.30
  -5   3   0   -0.60    1.80
   4  -3   0    3.50    2.40
  -4   3   0    3.30    3.00
  -4   3   0    6.60    3.90
  -4   3   0    3.10    2.60
   3  -3   0    4.10    2.00
  -3   3   0    1.90    2.30
  -3   3   0    6.20    2.50
   2  -3   0    1.90    1.50
  -2   3   0    6.00    3.00
  -2   3   0    5.70    2.50
   1  -3   0  334.87   23.20
   1  -3   0  377.06   21.70
  -1   3   0  377.46   21.30
  -1   3   0  350.16   21.90
  -1   3   0  350.16   23.30
   0   3   0 2685.03  144.49
  -1  -3   0  367.76   22.60
  -1  -3   0  375.36   21.60
   1   3   0  372.46   21.60
   1   3   0  358.56   22.70
  -2  -3   0  172.08   12.20
  -2  -3   0  159.48   11.70
  -2  -3   0  170.88   11.10
   2   3   0  159.78   11.90
  -3  -3   0    2.60    2.10
  -3  -3   0    3.50    2.00
  -3  -3   0    3.70    2.10
  -3  -3   0    1.40    1.50
   3   3   0    0.50    0.80
  -4  -3   0   -1.90    0.80
  -4  -3   0    1.00    1.70
  -4  -3   0    2.90    2.40
  -4  -3   0    2.70    1.60
   4   3   0   -0.70    0.70
  -5  -3   0    4.40    2.80
  -5  -3   0    1.50    1.80
  -5  -3   0    2.50    2.20
   5   3   0    0.50    1.20
  -6  -3   0   11.80    4.60
  -6  -3   0   16.20    5.70
   6   3   0   18.80    5.90
  -7  -3   0    0.40    1.50
  -7  -3   0   -0.60    1.30
   7   3   0    1.80    2.00
  -8  -3   0   10.00    7.10
   8   3   0    7.40    4.50
   5  -4   0   17.80    5.90
  -5   4   0   18.80    6.60
   4  -4   0    6.70    2.90
  -4   4   0    8.10    4.30
  -4   4   0   11.00    5.40
   3  -4   0    2.50    1.90
  -3   4   0    0.50    1.10
  -3   4   0    1.50    2.40
  -3   4   0    1.50    1.80
   2  -4   0    5.10    1.90
  -2   4   0   10.60    3.50
  -2   4   0   13.10    3.30
  -2   4   0    7.20    3.10
   1  -4   0   -0.80    0.80
   1  -4   0    2.30    1.40
  -1   4   0    5.60    1.90
  -1   4   0    0.30    0.90
  -1   4   0    1.60    1.30
   0  -4   0    3.60    1.40
   0  -4   0    6.80    2.50
   0   4   0    3.70    2.00
   0   4   0    5.60    1.70
  -1  -4   0   13.70    2.90
  -1  -4   0   13.70    2.90
  -1  -4   0   12.00    3.50
   1   4   0   13.30    3.80
   1   4   0   14.90    3.00
  -2  -4   0  250.87   16.60
  -2  -4   0  249.97   16.10
  -2  -4   0  231.58   16.60
   2   4   0  239.18   16.90
  -3  -4   0    0.50    1.00
  -3  -4   0    0.70    1.20
  -4  -4   0   33.90    7.50
  -4  -4   0   31.30    7.00
  -4  -4   0   31.70    7.10
  -4  -4   0   28.00    6.30
   4   4   0   36.70    7.50
  -5  -4   0   -0.40    0.80
  -5  -4   0   -0.30    0.80
  -5  -4   0    1.30    2.00
  -5  -4   0    1.10    1.50
   5   4   0    0.90    1.20
  -6  -4   0    0.00    1.50
  -6  -4   0   -0.50    1.20
  -6  -4   0    0.40    1.30
  -6  -4   0    0.60    1.70
  -7  -4   0   -0.60    1.20
  -7  -4   0    1.60    2.10
  -7  -4   0   -0.80    1.40
  -7  -4   0    4.20    3.60
   7   4   0   -0.10    1.10
  -8  -4   0    5.00    4.70
  -8  -4   0    2.50    4.00
   8   4   0    2.40    4.50
   4  -5   0    1.50    1.80
  -4   5   0    1.10    2.00
  -4   5   0    1.30    1.60
   3  -5   0    6.20    2.70
  -3   5   0    1.40    2.40
  -3   5   0    2.50    2.60
  -3   5   0    5.40    2.80
   2  -5   0   15.50    3.80
  -2   5   0   12.00    3.80
  -2   5   0    2.50    2.20
  -2   5   0    5.70    2.20
   1  -5   0   -0.50    0.50
  -1   5   0    2.30    1.20
  -1   5   0    1.30    1.60
   0  -5   0   24.20    5.50
   0  -5   0   14.60    2.80
   0   5   0   20.70    3.40
  -1  -5   0    9.40    2.40
  -1  -5   0   16.00    3.40
  -1  -5   0   17.10    4.80
   1   5   0   17.10    4.50
  -2  -5   0    1.80    1.50
  -2  -5   0    3.00    1.60
   2   5   0    4.80    2.50
  -3  -5   0    1.40    1.50
  -3  -5   0    1.50    1.40
  -3  -5   0    2.10    1.70
   3   5   0   -0.80    0.60
  -4  -5   0   22.80    7.00
  -4  -5   0   17.50    5.20
  -4  -5   0   26.70    5.70
  -4  -5   0   31.50    6.80
  -5  -5   0    8.60    4.20
  -5  -5   0    3.10    2.90
  -5  -5   0    7.90    4.10
  -5  -5   0    3.80    2.90
  -6  -5   0    2.80    3.10
  -6  -5   0    7.70    4.20
  -6  -5   0    3.90    3.20
  -6  -5   0    1.20    1.60
   6   5   0    0.90    1.80
  -7  -5   0   -0.80    1.50
  -7  -5   0    2.90    3.30
  -7  -5   0    3.60    3.70
  -7  -5   0    0.00    1.70
   7   5   0    1.10    1.70
   3  -6   0    0.50    1.40
  -3   6   0    3.20    2.70
  -3   6   0    3.30    2.00
  -2   6   0   22.10   10.30
  -1   6   0   -0.60    1.30
   0  -6   0    4.90    3.10
   0   6   0    2.10    2.00
  -1  -6   0    9.60    3.90
  -1  -6   0    3.40    1.50
   1   6   0    3.60    3.00
  -2  -6   0    4.00    2.60
  -2  -6   0   -0.50    0.80
  -2  -6   0    0.20    1.00
   2   6   0    1.60    1.40
  -3  -6   0    6.50    2.70
  -3  -6   0    7.50    3.60
  -3  -6   0    3.30    2.30
   3   6   0    4.00    2.40
  -4  -6   0    0.50    1.30
  -4  -6   0   -0.10    1.40
  -4  -6   0    1.30    1.50
  -4  -6   0    2.10    1.40
  -5  -6   0    0.90    3.00
  -5  -6   0    0.10    1.70
  -5  -6   0    0.70    1.60
  -5  -6   0    3.30    2.30
  -6  -6   0    0.60    1.60
  -6  -6   0    1.90    1.90
  -6  -6   0   -1.00    1.40
  -6  -6   0    1.30    2.00
  -7  -6   0    2.20    2.70
  -7  -6   0    5.50    6.80
  -7  -6   0    1.30    2.10
  -7  -6   0    0.80    2.60
  -1   7   0    4.50    3.20
   0  -7   0   -1.30    1.20
   0   7   0   -0.70    1.30
  -1  -7   0   -1.10    1.10
   1   7   0   -0.10    1.60
  -2  -7   0   -0.90    1.00
   2   7   0    0.80    2.20
  -3  -7   0    7.40    3.50
  -3  -7   0    5.30    2.40
  -3  -7   0    9.20    3.70
   3   7   0    3.90    3.00
  -4  -7   0    1.20    2.00
  -4  -7   0    0.50    1.30
  -5  -7   0    0.10    0.90
  -5  -7   0    0.60    2.10
  -5  -7   0    4.30    2.80
  -5  -7   0   -0.90    1.00
  -6  -7   0    0.20    2.30
  -6  -7   0    3.70    2.90
  -6  -7   0    0.40    1.70
  -6  -7   0   -0.10    1.40
  -2  -8   0    0.00    1.80
   2   8   0   -0.60    1.60
  -3  -8   0   -0.30    1.40
  -3  -8   0    0.60    1.40
  -3  -8   0    2.70    2.00
   3   8   0   -0.90    1.50
  -5  -7   1   -0.80    1.50
  -5  -7   1    0.40    1.60
  -4  -7   1    3.80    2.70
  -4  -7   1    9.00    4.40
  -4  -7   1    5.10    3.60
   3   7  -1   -0.50    1.30
  -3  -7   1   -0.50    1.00
  -3  -7   1    0.20    1.30
  -3  -7   1    4.30    2.60
   2   7  -1    1.40    2.40
  -2  -7   1    3.00    2.30
  -2  -7   1    0.70    1.30
  -2  -7   1    0.10    1.20
   1   7  -1    0.70    1.90
  -1  -7   1    1.70    1.60
  -1  -7   1    2.10    2.30
  -1  -7   1   -0.10    0.80
   0   7  -1    1.10    1.80
   0  -7   1    0.40    1.00
   0  -7   1    0.10    1.60
   1  -7   1    1.90    1.70
  -6  -6   1    0.20    1.90
  -6  -6   1    3.00    3.40
  -6  -6   1    3.60    2.90
  -6  -6   1    0.60    1.90
  -5  -6   1   -0.50    1.20
  -5  -6   1    1.60    1.90
  -5  -6   1    3.20    2.40
  -5  -6   1    4.50    3.30
  -5  -6   1    2.50    2.30
  -4  -6   1   -1.00    1.00
  -4  -6   1    9.30    4.00
  -4  -6   1    4.60    2.20
  -4  -6   1    2.00    2.50
   3   6  -1    6.80    3.20
  -3  -6   1    2.70    1.90
  -3  -6   1    4.80    3.70
  -3  -6   1    4.70    2.70
   2   6  -1    4.30    2.60
  -2  -6   1   10.40    3.50
  -2  -6   1   12.30    4.60
   1   6  -1   13.40    3.40
   1   6  -1    9.40    4.10
  -1  -6   1   18.30    4.10
  -1  -6   1   14.90    4.10
  -1  -6   1   15.60    5.40
   0   6  -1    4.70    2.30
   0   6  -1    1.30    2.10
   0  -6   1    5.80    3.10
   0  -6   1    2.40    1.50
  -1   6  -1   -0.60    1.10
  -1   6  -1   -0.60    1.50
   1  -6   1    3.00    2.60
   1  -6   1    1.70    1.50
  -2   6  -1    0.40    1.40
  -2   6  -1    2.60    3.60
  -2   6  -1   -0.60    0.90
   2  -6   1    3.20    2.20
  -7  -5   1    3.20    3.40
  -7  -5   1    0.90    2.40
  -7  -5   1   -0.60    1.70
  -7  -5   1   -0.20    1.80
  -6  -5   1    2.70    2.70
  -6  -5   1    0.60    1.50
  -6  -5   1   -0.90    1.30
  -6  -5   1    0.60    1.90
  -5  -5   1    0.60    2.20
  -5  -5   1   -0.60    1.10
  -5  -5   1    0.10    1.30
  -5  -5   1   -0.20    1.10
  -4  -5   1   18.00    5.50
  -4  -5   1    9.20    4.50
  -4  -5   1   21.80    5.40
  -4  -5   1    9.80    4.20
   3   5  -1   -1.00    0.70
  -3  -5   1   -1.10    0.80
  -3  -5   1   -0.20    0.80
  -3  -5   1    0.00    0.60
  -3  -5   1   -0.60    0.90
  -3  -5   1    0.60    1.50
   2   5  -1    4.90    3.00
  -2  -5   1    2.10    1.90
  -2  -5   1    2.10    1.60
  -2  -5   1    3.10    2.20
   1   5  -1   -0.20    1.00
   1   5  -1   -0.40    1.00
  -1  -5   1    1.60    1.50
  -1  -5   1    1.00    1.40
   0   5  -1   12.90    3.30
   0   5  -1   27.70    6.60
   0  -5   1   21.80    6.40
   0  -5   1    8.20    2.50
  -1   5  -1   19.40    5.90
  -1   5  -1   25.20    4.80
   1  -5   1   11.80    3.60
   1  -5   1   13.80    4.90
  -2   5  -1   -0.60    0.90
  -2   5  -1   -0.90    0.80
  -2   5  -1    0.90    2.10
   2  -5   1    1.50    1.30
  -3   5  -1   12.00    4.40
  -3   5  -1   10.50    4.40
  -3   5  -1   11.60    4.60
   3  -5   1    2.30    2.00
  -4   5  -1   -0.90    1.50
   4  -5   1    3.60    3.10
   7   4  -1   11.90    5.90
  -7  -4   1    0.70    2.10
  -7  -4   1    2.60    3.50
   6   4  -1    0.40    1.90
  -6  -4   1    3.60    2.60
  -6  -4   1    3.00    2.50
  -6  -4   1    1.00    1.50
  -6  -4   1    2.10    2.70
  -5  -4   1   -1.00    0.80
  -5  -4   1    0.40    1.90
  -5  -4   1    0.50    1.30
  -5  -4   1   -0.30    1.90
  -4  -4   1    0.00    0.70
  -4  -4   1   -0.60    0.60
  -4  -4   1   -0.50    0.70
   3   4  -1   27.30    7.20
  -3  -4   1   11.50    4.10
  -3  -4   1   14.30    4.10
  -3  -4   1    9.40    3.10
   2   4  -1    6.50    2.80
  -2  -4   1    9.50    3.30
  -2  -4   1    7.70    2.70
  -2  -4   1    9.10    3.10
   1   4  -1   29.60    5.00
   1   4  -1   41.40    7.60
  -1  -4   1   28.60    5.10
  -1  -4   1   42.20    7.60
   0   4  -1   30.70    4.90
   0   4  -1   23.60    5.30
   0  -4   1   27.80    6.10
   0  -4   1   20.10    4.00
  -1   4  -1   13.00    3.00
  -1   4  -1   14.30    3.60
  -1   4  -1   18.40    5.30
   1  -4   1   11.90    4.50
   1  -4   1    6.10    2.30
  -2   4  -1   -0.90    0.90
  -2   4  -1    2.10    2.10
  -2   4  -1    3.50    1.70
   2  -4   1   -0.60    0.50
  -3   4  -1    4.40    2.60
  -3   4  -1    2.70    3.10
  -3   4  -1    0.20    1.20
   3  -4   1    0.90    1.00
  -4   4  -1    1.90    3.20
  -4   4  -1   -0.60    1.20
  -4   4  -1    1.90    1.80
   4  -4   1    0.70    1.30
  -5   4  -1    9.50    5.70
   5  -4   1    0.00    2.00
   8   3  -1   -0.50    1.40
  -8  -3   1   -0.10    3.10
  -8  -3   1    4.60    4.40
   7   3  -1    4.00    2.60
  -7  -3   1    2.00    2.40
  -7  -3   1    6.20    4.60
   6   3  -1    4.60    3.30
  -6  -3   1    1.30    2.40
  -6  -3   1   -0.60    1.10
  -6  -3   1    2.00    2.60
  -6  -3   1    1.70    2.00
   5   3  -1   -0.50    0.70
  -5  -3   1    1.10    1.90
  -5  -3   1    5.60    3.70
  -5  -3   1    0.70    1.40
   4   3  -1   -0.20    0.80
  -4  -3   1    0.90    2.20
  -4  -3   1    4.30    2.40
  -4  -3   1    3.10    2.10
  -3  -3   1    1.30    1.80
  -3  -3   1    6.30    2.80
  -3  -3   1    4.50    2.60
   2   3  -1   16.50    4.20
   2   3  -1    6.90    2.70
  -2  -3   1   13.60    3.40
  -2  -3   1   13.80    3.90
  -2  -3   1    7.90    2.80
   1   3  -1  146.79   10.70
   1   3  -1  153.08   12.00
  -1  -3   1  155.08   10.90
  -1  -3   1  150.18   11.70
   0   3  -1  154.48   11.00
   0   3  -1  162.58   12.40
   0  -3   1  155.88    9.90
   0  -3   1  157.28   11.10
   0  -3   1  163.28   12.70
  -1   3  -1  135.79   10.20
  -1   3  -1  125.69   11.40
  -1   3  -1  151.58   10.50
   1  -3   1  143.39   12.00
   1  -3   1  132.49   10.40
  -2   3  -1    2.20    1.90
  -2   3  -1    7.80    2.70
  -2   3  -1    2.50    2.20
   2  -3   1    2.10    1.90
  -3   3  -1    2.80    2.10
  -3   3  -1    2.70    2.30
  -3   3  -1    0.50    1.30
   3  -3   1    2.90    1.90
  -4   3  -1    1.10    2.20
  -4   3  -1   -0.60    0.80
  -4   3  -1    2.30    2.40
   4  -3   1    1.40    1.50
  -5   3  -1    7.50    4.30
  -5   3  -1   -0.40    1.30
   5  -3   1    3.30    2.30
   6  -3   1    0.40    1.80
   8   2  -1    3.50    4.00
  -8  -2   1    3.00    3.20
   7   2  -1    1.80    1.90
  -7  -2   1    1.00    1.80
   6   2  -1   11.20    4.80
  -6  -2   1    5.80    3.50
  -6  -2   1   -0.80    1.30
  -6  -2   1    3.90    3.00
   5   2  -1    2.40    2.50
  -5  -2   1    9.40    4.60
  -5  -2   1    1.40    1.70
   4   2  -1   52.09    8.60
  -4  -2   1   54.69    9.40
  -4  -2   1   80.29   10.90
  -4  -2   1   60.79    9.30
   3   2  -1   14.20    4.30
  -3  -2   1   17.20    5.00
  -3  -2   1   20.80    5.50
  -3  -2   1   11.90    4.80
   2   2  -1   30.70    5.50
  -2  -2   1   36.90    5.70
  -2  -2   1   39.30    6.10
  -2  -2   1   32.80    5.20
   1   2  -1   51.29    6.60
   1   2  -1   52.49    5.80
  -1  -2   1   67.99    6.90
  -1  -2   1   52.29    6.50
  -1  -2   1   58.79    4.60
   0   2  -1  721.43   39.40
   0   2  -1  707.23   40.40
   0   2  -1  701.73   38.70
   0  -2   1  703.03   39.30
   0  -2   1  698.93   40.40
   0  -2   1  697.33   38.60
  -1   2  -1   67.19    5.90
  -1   2  -1   67.39    6.10
  -1   2  -1   96.49   10.40
   1  -2   1   81.89    9.80
   1  -2   1   60.59    6.90
   1  -2   1   59.39    6.80
  -2   2  -1  132.89   11.50
  -2   2  -1  115.89   10.00
  -2   2  -1  128.69   10.80
   2  -2   1  138.79   10.80
  -3   2  -1   24.90    6.30
  -3   2  -1   29.10    6.50
  -3   2  -1   26.70    5.90
   3  -2   1   14.20    4.10
  -4   2  -1   24.20    7.10
  -4   2  -1   25.60    7.70
  -4   2  -1   29.60    6.60
   4  -2   1   34.30    8.70
  -5   2  -1    0.00    1.20
  -5   2  -1    2.00    2.90
  -5   2  -1   -0.80    1.10
   5  -2   1    5.00    3.30
   6  -2   1   -0.50    1.60
   7   1  -1    0.80    1.60
  -7  -1   1    5.60    4.00
   6   1  -1    9.70    4.70
  -6  -1   1    7.80    5.10
   5   1  -1    9.80    4.50
  -5  -1   1   10.70    4.90
   4   1  -1    0.50    1.30
  -4  -1   1    0.20    1.00
   3   1  -1   -0.40    0.80
  -3  -1   1    1.40    1.60
  -3  -1   1    3.60    2.20
   2   1  -1  278.47   18.50
  -2  -1   1  314.67   18.70
  -2  -1   1  276.27   18.60
  -2  -1   1  289.47   18.90
   1   1  -1  270.77   16.70
   1   1  -1  266.27   16.40
  -1  -1   1  280.87   16.80
  -1  -1   1  271.27   16.40
   0   1  -1   83.29    5.90
   0   1  -1   66.49    5.00
   0   1  -1   67.59    5.20
   0  -1   1   69.09    5.00
   0  -1   1   71.49    5.30
   0  -1   1   67.89    5.60
  -1   1  -1    9.80    2.70
  -1   1  -1    8.60    2.10
  -1   1  -1   11.80    2.60
   1  -1   1    7.70    2.30
   1  -1   1   10.80    2.30
   1  -1   1    9.90    2.80
  -2   1  -1   68.99    8.50
  -2   1  -1   85.09    9.10
  -2   1  -1   93.79   10.10
   2  -1   1   65.19    7.90
  -3   1  -1    0.70    1.00
  -3   1  -1    2.60    2.30
  -3   1  -1   -0.50    0.80
   3  -1   1    0.30    1.10
  -4   1  -1   63.49   10.80
  -4   1  -1   51.29    8.40
  -4   1  -1   69.59   10.60
   4  -1   1   53.39    8.80
  -5   1  -1   13.50    5.80
  -5   1  -1   17.90    6.80
  -5   1  -1    9.80    4.30
   5  -1   1   16.10    5.70
  -6   1  -1   17.30    7.30
   6  -1   1   16.00    5.80
   7  -1   1   -0.30    1.80
   6   0  -1    1.40    2.40
   5   0  -1    6.30    3.60
  -5   0   1    6.60    3.10
   4   0  -1   55.09    9.70
  -4   0   1   38.50    7.50
  -3   0   1   81.29    9.50
   2   0  -1  405.46   24.70
  -2   0   1  403.86   24.50
   1   0  -1  138.09    9.00
   1   0  -1  132.69    9.50
  -1   0   1  144.49    9.00
  -1   0   1  133.49    9.00
   0   0  -1 2579.94  145.39
   0   0   1 2641.64  145.29
  -1   0  -1  663.03   37.40
  -1   0  -1  671.73   37.10
  -1   0  -1  674.43   37.20
   1   0   1  676.43   37.20
   1   0   1  668.93   37.50
   1   0   1  665.43   37.20
  -2   0  -1  282.77   18.30
  -2   0  -1  260.87   17.60
   2   0   1  282.77   18.10
   2   0   1  266.07   17.60
  -3   0  -1   10.90    3.40
  -3   0  -1    8.30    3.30
  -4   0  -1   -0.50    0.70
  -4   0  -1    0.00    0.90
   4   0   1   -0.80    0.60
  -5   0  -1    2.50    2.30
  -5   0  -1    5.40    3.60
   5   0   1   -0.60    1.00
  -6   0  -1   38.10   10.40
   6   0   1   20.20    6.70
   7   0   1   -0.80    2.00
   7  -1  -1    2.30    2.90
   6  -1  -1    3.20    3.50
  -6   1   1    1.30    1.90
  -6   1   1    1.70    2.50
   5  -1  -1   -1.00    0.80
  -5   1   1   -0.10    1.00
  -5   1   1   -0.60    0.80
   4  -1  -1   13.70    4.60
  -4   1   1    1.80    2.00
   3  -1  -1    7.10    2.90
  -3   1   1    0.40    1.10
   2  -1  -1    6.60    2.40
  -2   1   1    6.10    2.20
   1  -1  -1   84.29    6.20
  -1   1   1   90.59    6.20
   0  -1  -1 4568.54  241.08
   0   1   1 4492.25  240.88
  -1  -1  -1  459.05   25.10
  -1  -1  -1  445.06   24.90
   1   1   1  430.56   25.10
   1   1   1  434.46   24.80
  -2  -1  -1 5205.88  288.17
   2   1   1 4569.94  280.67
  -3  -1  -1  146.29   12.10
  -3  -1  -1  154.18   12.80
   3   1   1  161.08   12.60
  -4  -1  -1  864.11   52.29
  -4  -1  -1  796.32   50.59
   4   1   1  811.92   49.60
  -5  -1  -1   27.50    7.00
  -5  -1  -1   31.10    8.30
   5   1   1   30.50    7.40
  -6  -1  -1   11.50    7.30
  -6  -1  -1    0.40    1.60
   6   1   1    4.00    3.40
   7   1   1    5.40    4.00
   6  -2  -1    8.00    3.90
   5  -2  -1   17.00    5.70
  -5   2   1   18.00    5.80
  -5   2   1    8.50    3.70
   4  -2  -1   11.00    4.10
  -4   2   1    4.90    2.80
   3  -2  -1   96.89   11.00
   2  -2  -1    1.10    1.20
  -2   2   1    1.90    1.40
   1  -2  -1  150.68    9.50
  -1   2   1  155.28    9.50
  -1   2   1  138.79   10.40
  -1  -2  -1   16.40    2.40
  -1  -2  -1   22.70    3.00
  -1  -2  -1   16.10    2.30
   1   2   1   21.30    2.80
   1   2   1   19.60    2.80
   1   2   1   21.10    2.60
  -2  -2  -1   68.79    7.40
  -2  -2  -1   66.39    7.40
   2   2   1   51.59    6.40
   2   2   1   80.39    8.00
  -3  -2  -1  392.26   24.50
  -3  -2  -1  359.46   24.50
   3   2   1  383.66   24.40
  -4  -2  -1 1678.93   93.39
  -4  -2  -1 1634.94   92.39
   4   2   1 1603.24   92.39
  -5  -2  -1   19.00    6.00
  -5  -2  -1   15.20    5.10
   5   2   1   30.20    7.50
  -6  -2  -1  422.86   31.80
  -6  -2  -1  396.86   30.20
   6   2   1  389.26   30.50
   7   2   1    5.30    2.80
   8   2   1    4.30    3.60
   6  -3  -1    0.90    1.70
   5  -3  -1   -0.10    0.90
  -5   3   1   -0.10    1.40
  -5   3   1    0.00    1.90
  -5   3   1    2.30    2.50
   4  -3  -1    3.00    2.50
  -4   3   1    2.70    1.80
  -4   3   1    7.70    4.40
  -4   3   1    7.90    3.80
   3  -3  -1   20.60    4.90
  -3   3   1   21.40    4.70
  -3   3   1   16.60    5.20
  -3   3   1   13.80    4.50
   2  -3  -1   14.40    3.20
  -2   3   1   14.20    4.30
  -2   3   1   15.10    3.40
   1  -3  -1  668.53   38.00
  -1   3   1  686.13   39.60
   0  -3  -1    7.20    2.10
   0   3   1   15.90    3.00
  -1  -3  -1 1293.67   69.39
   1   3   1 1269.17   69.39
  -2  -3  -1  530.95   29.40
  -2  -3  -1  465.65   29.10
  -2  -3  -1  520.25   30.00
   2   3   1  518.05   29.90
  -3  -3  -1    0.00    1.50
  -3  -3  -1   -1.10    0.70
  -3  -3  -1    1.60    1.40
   3   3   1   -0.30    0.90
  -4  -3  -1   13.60    4.20
  -4  -3  -1   15.20    4.70
   4   3   1   21.70    5.50
  -5  -3  -1   75.59   12.40
  -5  -3  -1   67.89   10.70
   5   3   1   39.00    8.10
  -6  -3  -1  254.67   21.30
  -6  -3  -1  227.98   21.30
   6   3   1  246.28   21.50
  -7  -3  -1    0.00    1.50
   7   3   1    8.00    4.90
   8   3   1   98.89   17.40
   5  -4  -1    5.60    3.60
  -5   4   1    8.30    5.40
   4  -4  -1    0.70    1.40
  -4   4   1    1.20    1.80
  -4   4   1    2.60    2.40
   3  -4  -1    0.10    0.90
  -3   4   1    0.50    1.00
  -3   4   1    2.30    2.10
  -3   4   1   13.00    5.20
   2  -4  -1    1.50    1.10
  -2   4   1    0.90    1.40
  -2   4   1    3.10    2.20
  -2   4   1    2.90    1.30
  -1   4   1    7.20    2.30
  -1   4   1    5.40    2.10
   0  -4  -1    3.10    1.60
   0   4   1    2.10    1.60
  -1  -4  -1  496.85   29.60
   1   4   1  505.65   29.70
  -2  -4  -1   24.50    4.40
  -2  -4  -1   18.20    3.70
  -2  -4  -1   20.10    4.00
   2   4   1   23.20    4.30
  -3  -4  -1  724.33   41.10
  -3  -4  -1  686.43   41.70
  -3  -4  -1  662.13   41.50
  -3  -4  -1  724.73   41.20
   3   4   1  702.53   41.60
  -4  -4  -1  135.69   12.00
  -4  -4  -1  141.29   15.40
  -4  -4  -1  143.09   12.60
   4   4   1  142.29   15.30
  -5  -4  -1    9.40    3.90
  -5  -4  -1   13.10    4.60
  -5  -4  -1   26.00    6.80
   5   4   1   10.10    4.40
  -6  -4  -1    8.30    4.20
  -6  -4  -1   11.10    4.80
  -6  -4  -1    4.20    2.70
   6   4   1    6.80    3.90
  -7  -4  -1    0.10    1.60
  -7  -4  -1    0.20    1.80
  -7  -4  -1    2.80    2.50
   7   4   1    8.30    4.70
  -8  -4  -1    5.30    4.40
  -8  -4  -1    8.00    4.60
   4  -5  -1    0.30    1.30
  -4   5   1    0.60    4.10
  -4   5   1    0.60    1.50
  -4   5   1    3.60    3.00
   3  -5  -1   50.39    8.90
  -3   5   1   63.69    7.90
  -3   5   1   60.49   10.50
   2  -5  -1    8.10    2.30
  -2   5   1   13.40    4.00
  -2   5   1    8.20    3.50
  -1   5   1   10.10    3.60
  -1   5   1   13.70    3.20
  -1   5   1   10.50    2.90
   0   5   1    3.60    2.10
  -1  -5  -1   35.80    6.30
   1   5   1   36.60    6.30
  -2  -5  -1    6.50    2.20
  -2  -5  -1    6.40    2.60
  -2  -5  -1   11.80    2.80
   2   5   1    0.90    1.20
  -3  -5  -1   82.09    9.70
  -3  -5  -1   62.89    7.30
  -3  -5  -1   82.89    9.70
  -3  -5  -1   87.59   10.50
  -4  -5  -1   22.30    5.40
  -4  -5  -1   18.80    4.70
  -4  -5  -1   14.30    4.70
  -4  -5  -1   18.20    5.10
   4   5   1   19.90    5.10
  -5  -5  -1  139.09   16.90
  -5  -5  -1  124.39   16.40
  -5  -5  -1  109.49   14.70
  -5  -5  -1  134.99   15.90
   5   5   1  128.29   16.10
  -6  -5  -1   43.50    9.30
  -6  -5  -1   33.90    8.40
  -6  -5  -1   19.50    6.60
  -6  -5  -1   21.30    6.50
   6   5   1    7.90    4.00
  -7  -5  -1    2.50    4.00
  -7  -5  -1    8.60    4.70
  -7  -5  -1   10.00    6.70
  -7  -5  -1    2.20    3.60
   7   5   1   10.70    5.20
  -3   6   1   20.30    5.90
  -3   6   1    3.10    2.60
  -2   6   1    4.10    2.90
  -2   6   1    2.70    2.20
  -2   6   1   -0.40    2.20
   0   6   1  104.79   12.60
  -1  -6  -1   35.70    7.20
   1   6   1   28.30    6.00
  -2  -6  -1    2.40    1.50
  -2  -6  -1    4.70    2.90
   2   6   1    0.80    1.30
  -3  -6  -1   -0.10    0.90
  -3  -6  -1   -0.20    1.10
  -3  -6  -1    2.10    1.50
  -4  -6  -1    1.00    1.70
  -4  -6  -1    4.10    2.30
  -4  -6  -1    6.40    3.50
  -4  -6  -1   -0.70    0.90
  -5  -6  -1    1.40    1.50
  -5  -6  -1   -0.90    1.00
  -5  -6  -1    0.10    1.10
  -5  -6  -1    4.20    2.50
  -6  -6  -1    3.70    2.50
  -6  -6  -1    6.20    3.90
  -6  -6  -1    0.50    1.50
  -6  -6  -1    5.50    3.60
   6   6   1    3.60    2.70
  -7  -6  -1    3.60    3.90
  -7  -6  -1    7.90    4.50
  -7  -6  -1    0.30    2.10
  -7  -6  -1   -0.50    1.40
   7   6   1    7.00    4.40
  -1   7   1    4.60    2.90
   0   7   1   24.70    6.50
  -1  -7  -1   23.90    6.00
   1   7   1   38.60    7.70
  -2  -7  -1    9.30    3.80
   2   7   1    9.40    4.00
  -3  -7  -1   14.20    4.20
  -3  -7  -1   20.20    4.70
   3   7   1   17.70    5.20
  -4  -7  -1    1.80    2.10
  -4  -7  -1    5.40    2.70
  -4  -7  -1    1.60    1.90
  -5  -7  -1    2.40    2.30
  -5  -7  -1    1.30    1.70
  -5  -7  -1    1.10    1.80
  -5  -7  -1    3.00    2.00
  -6  -7  -1    0.50    1.50
  -6  -7  -1    2.50    2.40
  -6  -7  -1   -0.10    1.60
  -6  -7  -1    2.70    2.20
   1   8   1    6.70    3.30
  -2  -8  -1    0.60    1.60
   2   8   1    2.50    2.60
  -3  -8  -1    6.40    2.40
  -3  -8  -1    5.70    2.80
   3   8   1   11.00    4.30
  -4  -8  -1    0.30    1.30
  -4  -8  -1   -0.30    1.20
  -4  -8  -1    1.30    1.90
  -5  -7   2    4.30    4.00
  -5  -7   2    3.30    3.20
  -5  -7   2    1.80    2.90
   4   7  -2    3.50    2.90
  -4  -7   2    5.80    4.20
  -4  -7   2    0.10    1.60
   3   7  -2    2.10    2.30
  -3  -7   2    4.70    3.30
  -3  -7   2    5.80    3.50
  -3  -7   2    5.90    3.00
   2   7  -2    3.40    3.50
  -2  -7   2    4.40    2.90
  -2  -7   2    5.10    3.00
  -2  -7   2    2.50    2.90
   1   7  -2    7.60    4.20
   1   7  -2   11.10    4.50
  -1  -7   2    6.70    3.20
  -1  -7   2    6.10    3.00
  -1  -7   2   11.80    6.20
   0   7  -2   37.70    6.70
   0  -7   2   13.00    3.80
   0  -7   2   31.30    8.20
  -6  -6   2   83.09   15.60
  -6  -6   2   86.39   16.90
  -6  -6   2   69.09   12.00
  -6  -6   2   53.29   11.60
  -5  -6   2    2.60    2.50
  -5  -6   2    2.00    2.20
  -5  -6   2    1.30    2.00
  -5  -6   2    3.60    3.30
  -5  -6   2    3.30    3.20
   4   6  -2  173.88   23.40
  -4  -6   2  204.18   14.20
  -4  -6   2  171.88   19.30
  -4  -6   2  183.78   21.10
   3   6  -2    2.90    2.50
  -3  -6   2    1.80    1.60
  -3  -6   2    0.90    1.60
  -3  -6   2    5.50    3.30
   2   6  -2   49.50    8.40
   2   6  -2   37.80    8.70
  -2  -6   2   39.40    8.50
  -2  -6   2   33.30    7.10
  -2  -6   2   31.60    6.40
   1   6  -2    0.00    1.40
   1   6  -2    1.70    1.80
  -1  -6   2    1.60    1.90
  -1  -6   2    0.00    0.90
   0   6  -2    1.60    2.00
   0  -6   2    0.70    1.60
   0  -6   2    0.70    1.10
  -1   6  -2    2.20    2.60
  -1   6  -2    0.40    1.50
   1  -6   2    0.30    0.90
   1  -6   2    4.00    3.00
  -2   6  -2    5.90    2.60
  -2   6  -2    0.60    1.80
   2  -6   2    5.90    3.40
  -7  -5   2   -0.40    1.90
  -7  -5   2   -0.90    1.50
  -6  -5   2   -0.60    1.30
  -6  -5   2    0.50    2.00
  -6  -5   2    0.90    2.80
  -5  -5   2   -0.80    1.30
  -5  -5   2   -1.40    1.20
  -5  -5   2    1.60    2.20
  -4  -5   2   63.39   10.90
  -4  -5   2   84.69   13.60
  -4  -5   2   93.89   11.30
   3   5  -2   10.80    4.50
  -3  -5   2    4.30    3.10
  -3  -5   2    5.50    3.10
  -3  -5   2    1.60    2.00
  -3  -5   2    8.50    2.80
   2   5  -2  196.18   15.90
   2   5  -2  213.68   17.50
  -2  -5   2  205.98   16.20
  -2  -5   2  194.98   15.70
  -2  -5   2  202.78   17.20
   1   5  -2    4.80    2.60
   1   5  -2    2.80    2.80
  -1  -5   2    0.80    1.20
  -1  -5   2    3.00    2.80
   0   5  -2  355.06   22.40
   0   5  -2  337.27   24.70
   0  -5   2  282.97   21.70
  -1   5  -2    5.10    2.30
  -1   5  -2    8.30    3.30
  -1   5  -2    7.20    4.20
   1  -5   2    0.60    1.10
  -2   5  -2    3.30    2.10
  -2   5  -2    2.00    1.70
  -2   5  -2    4.60    3.20
   2  -5   2    2.80    2.10
  -3   5  -2    1.00    2.10
  -3   5  -2    6.70    3.50
   3  -5   2   -0.30    1.10
  -7  -4   2    8.80    4.40
  -6  -4   2   25.60    7.90
  -6  -4   2   20.50    7.20
  -6  -4   2   13.50    5.30
  -5  -4   2   -0.60    1.10
  -5  -4   2    4.00    3.20
  -5  -4   2    3.60    3.20
  -4  -4   2    3.60    3.00
  -4  -4   2    6.00    3.80
  -4  -4   2    0.20    1.40
   3   4  -2    2.70    1.90
  -3  -4   2    3.20    1.90
  -3  -4   2    2.30    2.20
  -3  -4   2    5.20    2.70
  -3  -4   2    4.30    3.00
   2   4  -2    1.80    1.30
   2   4  -2    2.80    2.40
  -2  -4   2    2.70    2.10
  -2  -4   2    2.20    2.00
  -2  -4   2    4.70    1.80
  -2  -4   2   -0.80    0.60
   1   4  -2   51.69    7.70
   1   4  -2   33.50    7.40
  -1  -4   2   45.60    5.10
  -1  -4   2   41.00    6.80
  -1  -4   2   40.90    8.30
   0   4  -2  171.68   17.50
   0   4  -2  146.89   10.00
   0   4  -2  114.59   10.90
   0  -4   2  142.19   11.70
   0  -4   2  172.88   14.20
   0  -4   2  131.09    9.90
  -1   4  -2    1.50    1.40
  -1   4  -2    1.60    2.10
  -1   4  -2    5.70    3.50
   1  -4   2    0.20    2.40
   1  -4   2   -0.20    0.90
  -2   4  -2   70.99   11.60
  -2   4  -2   54.29    8.50
  -2   4  -2   64.89    9.20
   2  -4   2   73.09   12.10
  -3   4  -2   11.10    4.40
  -3   4  -2    6.00    3.40
  -3   4  -2   14.80    4.60
   3  -4   2   14.50    4.60
  -4   4  -2    6.50    4.20
  -4   4  -2    9.80    4.40
   4  -4   2    9.00    4.20
   7   3  -2    6.00    5.00
  -7  -3   2    0.70    2.90
  -7  -3   2    1.20    2.20
   6   3  -2   12.20    5.40
  -6  -3   2   18.40    7.00
  -6  -3   2   20.60    6.90
  -6  -3   2    5.50    4.20
  -5  -3   2   12.20    5.10
  -5  -3   2   11.90    5.10
  -5  -3   2    7.10    3.90
  -4  -3   2   22.00    5.80
  -4  -3   2   20.80    5.40
  -4  -3   2   19.80    5.30
   3   3  -2    7.50    3.70
  -3  -3   2    4.90    2.80
  -3  -3   2    8.10    3.40
  -3  -3   2    4.40    2.50
   2   3  -2   13.50    3.80
   2   3  -2   14.90    4.40
  -2  -3   2   18.30    4.90
  -2  -3   2   16.90    4.30
  -2  -3   2   35.60    6.60
  -2  -3   2   14.10    3.40
   1   3  -2   18.40    4.40
   1   3  -2   20.70    4.90
  -1  -3   2   15.80    3.20
  -1  -3   2   13.50    3.50
  -1  -3   2   16.60    4.40
   0   3  -2   95.29    7.80
   0   3  -2  106.59   12.30
   0   3  -2  108.19    9.00
   0  -3   2  133.59   14.10
   0  -3   2  100.99    8.00
   0  -3   2  105.49    9.00
  -1   3  -2   19.20    4.00
  -1   3  -2   20.40    5.70
   1  -3   2   14.10    4.90
   1  -3   2   28.90    5.30
  -2   3  -2    6.80    3.10
  -2   3  -2    9.30    4.30
  -2   3  -2    7.10    3.00
   2  -3   2    9.30    3.80
   2  -3   2    8.00    3.10
  -3   3  -2   -0.10    0.80
  -3   3  -2    0.00    2.10
  -3   3  -2    0.20    0.80
   3  -3   2   -0.70    0.80
  -4   3  -2   10.60    4.10
  -4   3  -2   15.80    6.40
  -4   3  -2    5.00    3.40
   4  -3   2    5.80    3.40
  -5   3  -2    7.70    4.90
   7   2  -2    0.20    1.20
  -7  -2   2   -0.40    1.30
  -7  -2   2    4.80    3.90
   6   2  -2    0.40    1.40
  -6  -2   2    0.50    2.80
  -6  -2   2    9.20    4.60
  -6  -2   2    3.20    3.40
   5   2  -2    0.20    1.00
  -5  -2   2    2.40    2.20
  -5  -2   2    2.40    2.60
  -5  -2   2    5.20    3.90
   4   2  -2   43.60    7.80
  -4  -2   2   74.79   10.90
  -4  -2   2   56.59   10.10
  -4  -2   2   41.90    8.30
  -3  -2   2   54.39    9.20
  -3  -2   2   53.09    8.00
  -3  -2   2   42.40    7.70
   2   2  -2   35.60    6.10
   2   2  -2   41.00    7.00
  -2  -2   2   36.70    5.70
  -2  -2   2   36.50    6.00
  -2  -2   2   41.10    6.40
  -2  -2   2   43.40    6.80
   1   2  -2    7.40    3.00
   1   2  -2    6.30    2.50
  -1  -2   2    4.50    1.80
  -1  -2   2    5.80    2.70
  -1  -2   2    2.60    1.60
   0   2  -2  302.77   19.00
   0   2  -2  320.37   20.60
   0   2  -2  309.07   19.60
   0  -2   2  322.67   20.70
   0  -2   2  328.87   19.80
   0  -2   2  291.47   18.90
  -1   2  -2    2.00    1.60
  -1   2  -2    8.80    3.30
  -1   2  -2    8.20    2.60
   1  -2   2    2.40    1.50
   1  -2   2    1.90    1.70
  -2   2  -2    7.00    3.50
  -2   2  -2    6.80    2.90
  -2   2  -2    8.70    3.30
   2  -2   2   10.40    3.70
   2  -2   2    7.20    3.10
   2  -2   2   13.20    4.00
  -3   2  -2    1.20    1.80
  -3   2  -2    3.70    2.70
  -3   2  -2   10.40    4.30
   3  -2   2    0.60    1.10
  -4   2  -2    7.60    3.70
  -4   2  -2    2.80    2.30
  -4   2  -2   11.30    5.30
   4  -2   2    0.90    1.80
  -5   2  -2   -0.60    1.70
  -5   2  -2    1.10    2.10
  -5   2  -2    8.60    5.20
   5  -2   2    2.10    2.30
   6  -2   2    1.20    2.00
  -7  -1   2    4.00    3.10
   6   1  -2    8.70    4.80
  -6  -1   2    5.80    3.00
  -6  -1   2    1.60    2.00
  -5  -1   2    8.70    3.50
  -5  -1   2   14.50    5.80
   4   1  -2   13.00    4.40
  -4  -1   2   36.90    8.00
  -4  -1   2   30.40    6.90
   3   1  -2   13.70    4.30
  -3  -1   2   17.80    4.80
  -3  -1   2   16.30    4.20
  -3  -1   2   10.80    4.10
   2   1  -2    8.60    3.10
   2   1  -2    5.00    2.20
  -2  -1   2    5.60    2.70
  -2  -1   2    6.20    2.30
  -2  -1   2    4.10    2.00
   1   1  -2  455.85   27.90
   1   1  -2  472.35   27.60
  -1  -1   2  467.15   28.10
  -1  -1   2  493.15   27.70
  -1  -1   2  454.95   27.50
   0   1  -2  244.68   15.00
   0   1  -2  208.08   14.50
   0   1  -2  235.38   15.30
   0  -1   2  219.08   15.20
   0  -1   2  247.58   15.00
   0  -1   2  233.48   14.80
  -1   1  -2    2.70    1.60
  -1   1  -2    6.20    2.10
  -1   1  -2    0.90    0.90
   1  -1   2    0.30    1.10
   1  -1   2    2.60    1.60
   1  -1   2    2.10    1.40
  -2   1  -2    1.60    1.50
  -2   1  -2    3.20    2.40
  -2   1  -2    8.00    3.00
   2  -1   2    3.10    2.50
   2  -1   2    4.60    2.50
  -3   1  -2    0.60    1.30
  -3   1  -2   -0.30    0.60
  -3   1  -2   -0.40    0.50
   3  -1   2    3.00    2.10
  -4   1  -2    1.20    1.50
  -4   1  -2    1.90    2.10
  -4   1  -2    1.30    1.40
   4  -1   2    0.60    1.00
  -5   1  -2   16.00    5.90
  -5   1  -2   15.20    5.80
  -5   1  -2    7.80    3.70
   5  -1   2   11.80    4.70
  -6   1  -2    1.50    2.50
   6  -1   2    0.10    2.10
   7  -1   2    1.60    2.30
   7   0  -2    0.30    1.50
  -7   0   2    2.90    2.40
   6   0  -2   -0.30    0.70
   5   0  -2    2.50    2.40
  -5   0   2   12.90    4.90
  -5   0   2    9.80    4.10
   4   0  -2    9.30    3.60
  -4   0   2    9.30    3.70
  -4   0   2    6.20    2.70
   3   0  -2   -0.20    0.70
  -3   0   2   -0.20    0.80
  -3   0   2   -0.40    0.80
   2   0  -2  110.39    8.80
  -2   0   2  101.09    8.50
  -2   0   2  103.59    8.80
   1   0  -2   34.40    4.90
   1   0  -2   33.40    4.70
  -1   0   2   33.10    4.90
  -1   0   2   38.80    5.20
  -1   0   2   29.20    4.30
   0   0  -2 3777.62  231.58
   0   0   2 4353.16  236.28
  -1   0  -2  212.18   14.10
  -1   0  -2  226.68   14.30
  -1   0  -2  210.18   14.40
   1   0   2  225.48   14.60
   1   0   2  210.78   14.10
   1   0   2  224.88   14.20
  -2   0  -2   45.30    6.30
  -2   0  -2   31.30    5.80
  -2   0  -2   52.99    6.90
   2   0   2   44.70    7.10
   2   0   2   28.20    4.90
  -3   0  -2    9.80    3.20
  -3   0  -2   12.20    3.80
  -3   0  -2    5.40    2.50
   3   0   2    9.10    3.40
   3   0   2   14.00    4.00
  -4   0  -2   17.50    5.60
  -4   0  -2   14.60    5.00
  -4   0  -2   19.10    5.00
   4   0   2   19.10    5.10
  -5   0  -2    2.00    2.00
  -5   0  -2    1.90    1.80
  -5   0  -2   -0.40    0.90
   5   0   2    0.70    1.10
  -6   0  -2   -0.50    1.70
  -6   0  -2    1.40    1.90
   6   0   2    0.50    1.40
   7   0   2    1.20    3.10
   7  -1  -2    0.00    1.50
  -7   1   2    2.40    3.70
   6  -1  -2   -0.10    0.90
  -6   1   2   -0.60    1.10
  -6   1   2    2.90    2.90
   5  -1  -2    0.10    1.40
  -5   1   2    7.50    4.10
  -5   1   2   -0.50    0.90
   4  -1  -2    0.10    0.90
  -4   1   2    5.30    3.00
  -4   1   2    1.00    1.70
   3  -1  -2   48.60    7.80
  -3   1   2   55.19    8.40
  -3   1   2   49.00    7.80
   2  -1  -2    1.50    1.20
  -2   1   2    1.00    1.10
  -2   1   2    0.10    0.90
   1  -1  -2  323.07   19.30
  -1   1   2  336.67   19.40
  -1   1   2  323.07   19.20
   0  -1  -2    3.20    1.10
   0  -1  -2    1.30    0.90
   0  -1  -2    3.50    1.00
   0   1   2    1.10    0.70
   0   1   2   -0.50    0.60
   0   1   2    1.10    0.80
  -1  -1  -2  128.09    8.50
  -1  -1  -2  137.69    9.10
   1   1   2  114.59    7.80
   1   1   2  107.69    8.70
   1   1   2  114.39    8.30
  -2  -1  -2  589.44   37.00
  -2  -1  -2  658.83   36.40
  -2  -1  -2  637.34   36.80
   2   1   2  642.74   37.00
  -3  -1  -2    4.70    2.40
  -3  -1  -2    3.10    1.80
   3   1   2    4.60    3.00
   3   1   2   10.20    3.50
  -4  -1  -2   40.50    7.90
  -4  -1  -2   35.60    6.90
   4   1   2   40.20    7.30
  -5  -1  -2    5.00    3.50
  -5  -1  -2    2.30    2.70
   5   1   2    8.60    4.10
   6   1   2    4.50    3.40
   7   1   2   -1.00    1.40
   6  -2  -2    1.40    2.10
  -6   2   2    2.30    2.70
   5  -2  -2    3.40    2.30
  -5   2   2    7.60    3.20
  -5   2   2    3.10    2.90
   4  -2  -2   -0.50    0.60
  -4   2   2    1.00    1.10
  -4   2   2   -0.50    0.90
   3  -2  -2   41.10    7.00
  -3   2   2   44.00    7.00
  -3   2   2   35.70    7.20
   2  -2  -2    9.30    2.60
  -2   2   2    8.50    2.40
  -2   2   2    9.20    2.60
  -1   2   2   33.50    4.00
  -1   2   2   25.30    3.30
   0  -2  -2    0.70    0.90
   0   2   2   -0.50    0.50
  -1  -2  -2  507.65   29.40
  -1  -2  -2  512.25   28.50
   1   2   2  504.45   28.50
  -2  -2  -2   67.69    7.90
  -2  -2  -2   69.39    8.30
   2   2   2   75.19    8.20
   2   2   2   74.29    8.60
  -3  -2  -2   59.89    8.00
  -3  -2  -2   67.69    9.60
   3   2   2   53.89    8.30
   3   2   2   65.99    9.10
  -4  -2  -2    8.90    3.40
   4   2   2    2.90    2.30
  -5  -2  -2   17.30    5.60
  -5  -2  -2   13.50    4.70
   5   2   2   18.50    5.40
  -6  -2  -2    1.30    2.00
  -6  -2  -2   -1.10    1.60
   6   2   2   -2.00    1.90
   7   2   2    0.50    1.60
   8   2   2    0.00    1.80
   6  -3  -2    7.50    4.30
  -6   3   2    9.40    4.60
   5  -3  -2    1.60    1.60
  -5   3   2    4.60    3.90
  -5   3   2    1.60    2.80
  -5   3   2   -0.40    1.50
  -5   3   2   -0.20    1.10
   4  -3  -2   21.40    5.80
  -4   3   2   23.70    5.60
  -4   3   2   34.40    6.80
   3  -3  -2    2.00    1.50
  -3   3   2    0.10    0.80
  -3   3   2    0.40    0.80
  -2   3   2   20.40    4.00
  -2   3   2   38.50    6.80
  -2   3   2   25.30    4.10
  -1   3   2   34.90    5.60
   0   3   2    5.70    1.90
   0   3   2    9.60    2.10
  -1  -3  -2  163.58   10.40
   1   3   2  150.78   10.30
   1   3   2  147.59    9.40
  -2  -3  -2    0.00    0.80
  -2  -3  -2   -0.90    0.60
   2   3   2    1.10    1.20
   2   3   2    1.30    1.30
  -3  -3  -2   71.19    9.20
  -3  -3  -2   57.69    8.60
   3   3   2   76.69    9.00
   3   3   2   83.89    9.80
  -4  -3  -2    7.40    3.40
  -4  -3  -2   19.90    5.80
   4   3   2    9.00    3.40
  -5  -3  -2    0.30    1.00
  -5  -3  -2   -0.30    0.70
   5   3   2    0.50    1.90
  -6  -3  -2   29.60    7.80
  -6  -3  -2   37.90    9.20
   6   3   2   35.80    8.80
  -7  -3  -2    6.00    3.60
   7   3   2   -0.60    1.00
   8   3   2   16.90    7.50
   5  -4  -2    0.90    1.40
  -5   4   2    0.30    1.80
  -5   4   2   -0.20    1.50
  -5   4   2    0.30    1.60
   4  -4  -2    1.70    1.80
  -4   4   2    0.10    1.60
  -4   4   2    2.90    2.60
  -4   4   2   -0.40    1.70
  -4   4   2    0.50    1.50
   3  -4  -2    8.30    2.90
  -3   4   2    3.90    2.60
  -3   4   2    5.00    2.20
  -3   4   2    4.30    2.10
   2  -4  -2   34.50    4.90
  -2   4   2   30.90    4.40
  -2   4   2   30.20    4.20
  -2   4   2   26.80    6.00
  -1   4   2    9.90    2.90
  -1   4   2    4.00    2.80
   0   4   2  445.16   26.00
   0   4   2  447.56   26.30
  -1  -4  -2   15.70    2.70
   1   4   2   18.30    3.00
  -2  -4  -2    0.50    0.80
  -2  -4  -2    0.20    0.50
  -2  -4  -2    1.00    0.80
   2   4   2    0.40    0.80
   2   4   2   -0.20    0.50
  -3  -4  -2    1.40    1.20
  -3  -4  -2    2.40    1.60
  -3  -4  -2    1.80    2.00
   3   4   2   -2.70    0.90
  -4  -4  -2    7.30    3.30
  -4  -4  -2    7.80    3.00
  -4  -4  -2    0.70    1.40
   4   4   2   11.60    4.30
  -5  -4  -2    9.20    4.10
  -5  -4  -2   -0.60    1.40
   5   4   2    2.40    2.30
  -6  -4  -2    1.40    2.30
  -6  -4  -2   -0.10    1.00
   6   4   2   -0.10    1.00
  -7  -4  -2    2.90    3.40
   7   4   2    2.30    2.20
   4  -5  -2    1.30    1.40
  -4   5   2    1.20    2.10
  -4   5   2    3.40    4.10
  -4   5   2    0.40    1.40
  -4   5   2    0.30    1.20
   3  -5  -2    2.10    1.60
  -3   5   2    2.50    2.90
  -3   5   2    1.70    1.20
  -3   5   2    0.10    1.30
  -3   5   2    2.00    1.50
  -2   5   2    6.30    3.20
  -2   5   2    8.40    3.30
  -1   5   2    4.10    2.20
  -1   5   2    5.10    2.60
   0   5   2    6.00    2.40
  -1  -5  -2    1.80    1.10
   1   5   2    0.90    0.80
  -2  -5  -2   61.39    6.80
   2   5   2   49.90    6.30
  -3  -5  -2   38.40    6.30
  -3  -5  -2   36.90    6.20
  -3  -5  -2   27.20    4.70
   3   5   2   41.40    6.30
  -4  -5  -2    0.80    1.50
  -4  -5  -2    3.00    1.90
  -4  -5  -2    1.60    1.50
  -5  -5  -2   34.60    7.50
  -5  -5  -2   51.99    9.30
  -5  -5  -2   52.19    8.70
   5   5   2   69.49   11.10
  -6  -5  -2   12.30    5.50
  -6  -5  -2    7.10    4.00
  -6  -5  -2    5.80    3.70
   6   5   2    2.30    2.50
  -7  -5  -2    6.30    4.30
  -7  -5  -2    6.50    4.50
  -7  -5  -2    3.40    3.50
   7   5   2   11.70    5.90
  -3   6   2   10.30    4.60
  -3   6   2    5.90    3.60
  -3   6   2    1.20    2.30
  -2   6   2    4.80    2.40
  -2   6   2    2.50    1.80
  -2   6   2    3.50    2.80
  -1   6   2   10.80    3.80
   0   6   2   30.00    5.90
  -1  -6  -2    4.10    2.00
   1   6   2   13.90    3.80
  -2  -6  -2    1.00    1.00
   2   6   2    1.30    1.10
  -3  -6  -2    4.40    2.20
  -3  -6  -2    4.50    2.00
  -3  -6  -2    1.60    1.40
  -4  -6  -2   -0.10    0.90
  -4  -6  -2    2.00    1.40
  -4  -6  -2    4.30    2.50
  -4  -6  -2    0.60    1.20
  -5  -6  -2    7.90    3.60
  -5  -6  -2    4.20    3.00
  -5  -6  -2   10.30    4.40
  -5  -6  -2    8.80    3.90
   5   6   2    6.60    3.60
  -6  -6  -2    0.50    1.60
  -6  -6  -2    0.50    1.80
  -6  -6  -2    0.70    1.60
  -6  -6  -2    2.30    2.70
   6   6   2    1.70    2.20
  -7  -6  -2    5.40    4.60
  -7  -6  -2   18.00    6.20
  -7  -6  -2   12.80    5.20
  -7  -6  -2   52.99   12.60
   7   6   2   37.40   10.00
  -2   7   2    1.50    2.70
  -1   7   2    3.60    2.60
   0   7   2   16.20    4.60
   1   7   2   38.00    6.70
  -2  -7  -2    5.40    2.40
   2   7   2    2.30    1.80
  -3  -7  -2   45.20    8.70
  -4  -7  -2   -0.50    0.90
  -4  -7  -2    2.50    2.00
  -4  -7  -2    0.40    1.10
  -5  -7  -2    1.00    1.40
  -5  -7  -2    1.80    1.90
  -5  -7  -2    0.40    1.40
  -5  -7  -2    2.10    2.30
  -6  -7  -2   -0.20    1.80
  -6  -7  -2   -0.50    1.40
  -6  -7  -2    0.20    1.90
   1   8   2    1.60    1.90
   2   8   2   13.80    4.80
  -3  -8  -2   27.60    6.30
  -4  -8  -2    0.50    1.20
  -4  -8  -2    1.10    1.70
  -4  -8  -2    2.70    1.90
  -5  -8  -2   31.80    7.50
  -5  -8  -2   19.30    5.40
  -5  -8  -2   36.30    7.30
  -3  -7   3    2.50    2.50
  -3  -7   3    2.30    2.30
  -3  -7   3    2.20    2.00
  -2  -7   3    8.70    4.30
  -2  -7   3    5.30    4.00
  -5  -6   3   12.70    4.80
  -5  -6   3   24.10    6.30
  -5  -6   3   39.80   10.40
  -5  -6   3   18.90    7.10
   4   6  -3   62.19   12.40
  -4  -6   3   61.29   11.10
  -4  -6   3   87.19   14.30
  -4  -6   3   78.29   14.00
   3   6  -3   -0.70    1.40
  -3  -6   3    5.30    3.30
  -3  -6   3    1.70    2.40
  -3  -6   3   -0.50    0.90
   2   6  -3   12.90    5.30
   2   6  -3   21.10    6.10
  -2  -6   3   23.50    5.80
  -2  -6   3   17.60    5.40
  -2  -6   3   26.90    7.30
   1   6  -3   10.80    4.40
   1   6  -3   18.30    6.40
  -1  -6   3    7.70    3.70
  -1  -6   3   15.90    6.70
   0   6  -3   36.20    7.80
   0   6  -3   21.30    7.10
   0  -6   3   12.90    4.30
   0  -6   3   27.30    7.80
  -1   6  -3    7.90    4.00
   1  -6   3    3.10    2.40
   1  -6   3   13.10    6.20
  -6  -5   3    3.40    2.80
  -6  -5   3    7.30    6.00
  -6  -5   3    4.90    3.10
  -6  -5   3    0.60    2.10
  -5  -5   3   24.20    6.20
  -5  -5   3   20.20    6.50
  -5  -5   3   28.80    8.50
  -5  -5   3   40.40    9.20
  -4  -5   3  116.89   15.80
  -4  -5   3  138.99   18.60
  -4  -5   3  136.29   12.50
  -4  -5   3  147.39   18.50
   3   5  -3   62.89   12.40
   3   5  -3   74.79   13.20
  -3  -5   3   92.39   10.40
  -3  -5   3   96.99   13.80
  -3  -5   3   91.49   13.50
  -3  -5   3   96.29   12.80
   2   5  -3  400.06   29.80
   2   5  -3  413.66   28.50
  -2  -5   3  406.86   29.60
  -2  -5   3  415.76   24.70
  -2  -5   3  392.96   27.90
  -2  -5   3  417.86   28.30
   1   5  -3    2.70    2.50
   1   5  -3    5.30    3.60
  -1  -5   3    0.00    2.10
  -1  -5   3    3.00    2.20
   0   5  -3  415.46   25.40
   0   5  -3  426.36   28.60
   0  -5   3  410.76   28.40
   0  -5   3  410.36   30.90
  -1   5  -3   23.90    7.60
  -1   5  -3   28.30    5.50
  -1   5  -3   30.00    7.70
   1  -5   3   25.00    7.20
   1  -5   3   27.20    6.30
  -2   5  -3    2.60    2.10
   2  -5   3    3.80    2.90
   2  -5   3    0.50    1.60
  -3   5  -3   -0.30    1.60
  -7  -4   3    3.50    2.90
  -7  -4   3   14.40    7.00
  -6  -4   3   14.70    5.60
  -6  -4   3   17.00    6.30
  -6  -4   3    9.90    5.90
  -5  -4   3    9.60    3.90
  -5  -4   3   15.70    6.20
  -5  -4   3   17.90    6.70
  -5  -4   3    4.40    3.10
  -4  -4   3   36.80    8.90
  -4  -4   3   30.30    7.70
  -4  -4   3   47.80    8.50
  -4  -4   3   40.30    8.40
   3   4  -3   73.69   11.40
   3   4  -3   33.10    7.70
  -3  -4   3   69.69   11.50
  -3  -4   3   47.30    9.00
  -3  -4   3   48.50    8.60
  -3  -4   3   46.80    8.50
   2   4  -3  178.48   16.30
   2   4  -3  173.78   15.30
  -2  -4   3  186.28   16.00
  -2  -4   3  196.68   13.70
  -2  -4   3  194.68   15.60
   1   4  -3   99.69   14.30
   1   4  -3  136.39   15.20
  -1  -4   3  110.49    9.00
  -1  -4   3   87.89   11.30
  -1  -4   3  127.39   16.00
   0   4  -3 3449.25  185.68
   0   4  -3 3270.37  183.58
   0   4  -3 3360.26  181.38
   0  -4   3 3429.56  183.78
   0  -4   3 3400.66  186.38
  -1   4  -3    7.90    4.40
  -1   4  -3    5.60    2.50
  -1   4  -3    2.60    2.50
   1  -4   3    3.90    2.70
   1  -4   3    5.50    2.90
   1  -4   3    4.60    4.20
  -2   4  -3  183.18   17.10
  -2   4  -3  243.98   27.00
  -2   4  -3  226.48   17.90
   2  -4   3  265.07   19.00
   2  -4   3  239.18   20.70
  -3   4  -3    1.40    1.70
  -3   4  -3    5.90    4.10
  -3   4  -3    4.70    2.90
   3  -4   3    1.30    2.00
  -4   4  -3   11.40    5.20
  -7  -3   3   30.80    8.70
  -6  -3   3   -1.00    1.70
  -6  -3   3   -0.20    1.40
  -6  -3   3    1.10    1.80
  -5  -3   3  126.49   16.50
  -5  -3   3  222.58   23.60
  -5  -3   3  205.28   23.20
  -4  -3   3   36.60    9.40
  -4  -3   3   61.79   10.50
  -4  -3   3   55.19    9.80
   3   3  -3  106.79   12.90
   3   3  -3  139.79   16.90
  -3  -3   3  162.18   16.80
  -3  -3   3  117.39   14.50
  -3  -3   3  100.59   13.20
  -3  -3   3  122.09   11.00
   2   3  -3  254.57   18.10
   2   3  -3  201.88   18.10
  -2  -3   3  252.47   17.80
  -2  -3   3  221.28   18.00
  -2  -3   3  257.47   17.20
   1   3  -3   50.69    7.30
   1   3  -3   64.29   10.00
   1   3  -3   74.79   10.10
  -1  -3   3   51.49    8.60
  -1  -3   3   50.99    8.40
  -1  -3   3   63.29    9.60
   0   3  -3  160.58   12.60
   0   3  -3  138.39   11.30
   0   3  -3  142.39   13.20
   0  -3   3  160.98   17.40
   0  -3   3  153.08   13.30
   0  -3   3  150.38   12.40
  -1   3  -3   30.70    6.20
  -1   3  -3   27.80    7.10
  -1   3  -3   23.70    5.10
   1  -3   3   35.30    6.80
   1  -3   3   33.10    6.20
   1  -3   3   27.40    7.30
  -2   3  -3  390.56   29.00
  -2   3  -3  422.86   27.80
  -2   3  -3  380.86   26.90
   2  -3   3  417.76   27.90
   2  -3   3  430.36   27.90
  -3   3  -3   18.40    5.70
  -3   3  -3    0.00    1.60
  -3   3  -3   12.50    4.50
   3  -3   3    6.20    3.40
  -4   3  -3  164.68   18.20
  -4   3  -3  159.38   20.70
  -4   3  -3  192.18   21.80
   4  -3   3  156.78   18.40
  -5   3  -3    1.70    2.90
   5  -3   3    1.30    1.60
  -7  -2   3   -0.80    1.50
  -7  -2   3   -0.60    1.30
  -6  -2   3    0.80    1.80
  -6  -2   3   11.10    5.50
  -6  -2   3    0.90    1.60
  -5  -2   3   23.40    6.70
  -5  -2   3    8.80    4.00
  -5  -2   3   16.30    5.40
  -4  -2   3    2.50    2.60
  -4  -2   3    0.80    1.70
  -4  -2   3    0.10    0.90
   3   2  -3  557.14   35.60
   3   2  -3  566.44   36.20
  -3  -2   3  552.14   36.10
  -3  -2   3  542.65   35.50
  -3  -2   3  571.54   35.30
  -3  -2   3  562.64   35.30
   2   2  -3  153.98   15.30
   2   2  -3  113.69   13.50
  -2  -2   3  137.09   11.10
  -2  -2   3  119.99   13.60
  -2  -2   3  128.79   11.20
   1   2  -3  467.85   30.00
   1   2  -3  464.15   29.00
   1   2  -3  462.55   28.40
  -1  -2   3  458.45   28.80
  -1  -2   3  461.15   29.50
   0   2  -3  871.91   50.49
   0   2  -3  826.32   49.30
   0   2  -3  876.31   49.00
   0  -2   3  848.82   50.29
   0  -2   3  843.02   49.30
  -1   2  -3   -0.40    0.80
  -1   2  -3    1.40    1.30
   1  -2   3    0.70    1.00
   1  -2   3    0.30    1.00
   1  -2   3    0.70    1.10
  -2   2  -3    3.00    2.10
  -2   2  -3    1.60    1.80
  -2   2  -3    1.50    1.60
   2  -2   3    2.80    1.90
   2  -2   3    3.30    2.50
   2  -2   3    0.40    1.10
  -3   2  -3    2.10    2.20
  -3   2  -3    0.20    0.90
  -3   2  -3    0.90    1.60
   3  -2   3    0.70    1.30
   3  -2   3    2.20    2.30
  -4   2  -3   51.39   10.30
  -4   2  -3   33.80    7.90
  -4   2  -3   27.40    8.30
   4  -2   3   45.30    9.40
  -5   2  -3    5.10    3.80
   5  -2   3    4.80    3.20
   6  -2   3   50.39   11.30
   7   1  -3   22.60    7.10
  -7  -1   3   17.00    5.90
  -7  -1   3   17.80    7.00
   6   1  -3    0.40    1.20
  -6  -1   3   -0.40    1.10
  -6  -1   3    0.00    1.30
  -6  -1   3    3.80    3.80
   5   1  -3    0.50    0.90
  -5  -1   3    6.10    3.90
  -5  -1   3    0.90    1.30
  -5  -1   3    0.50    1.30
  -4  -1   3    5.90    3.20
  -4  -1   3    0.40    1.40
  -4  -1   3   -0.30    1.30
   3   1  -3    1.00    1.90
  -3  -1   3    1.90    1.80
  -3  -1   3   -0.30    0.90
  -3  -1   3    2.90    1.80
   2   1  -3   26.90    5.20
   2   1  -3   24.10    5.10
  -2  -1   3   20.80    4.40
  -2  -1   3   28.80    5.80
  -2  -1   3   29.00    5.70
   1   1  -3  444.66   26.90
   1   1  -3  437.06   27.30
   1   1  -3  408.16   26.60
  -1  -1   3  434.46   28.30
  -1  -1   3  444.26   27.20
  -1  -1   3  428.96   26.60
   0   1  -3 1054.29   57.29
   0   1  -3  959.70   56.49
   0   1  -3  972.70   56.59
   0  -1   3  978.80   56.79
   0  -1   3 1005.20   57.29
   0  -1   3 1060.99   56.79
  -1   1  -3  335.57   21.70
  -1   1  -3  350.06   22.10
  -1   1  -3  358.56   22.60
   1  -1   3  344.07   22.10
   1  -1   3  332.87   22.50
   1  -1   3  301.47   21.60
  -2   1  -3   14.90    4.90
  -2   1  -3   27.10    6.00
  -2   1  -3   25.10    5.80
   2  -1   3   22.60    5.40
   2  -1   3   19.00    5.30
  -3   1  -3   27.90    6.30
  -3   1  -3   31.70    7.60
  -3   1  -3   30.80    6.80
   3  -1   3   19.40    5.10
   3  -1   3   27.20    6.90
  -4   1  -3   10.90    4.90
  -4   1  -3    2.70    2.20
  -4   1  -3    5.20    3.50
   4  -1   3    6.10    3.60
  -5   1  -3    3.20    3.20
   5  -1   3    1.30    1.50
   7   0  -3   11.80    5.00
  -7   0   3    9.10    4.60
   6   0  -3    4.40    2.90
  -6   0   3    1.50    1.60
   5   0  -3   75.79   11.70
  -5   0   3   98.19   13.90
  -5   0   3   97.79   12.80
   4   0  -3    1.80    2.00
  -4   0   3    0.90    1.40
  -4   0   3    0.20    1.10
  -3   0   3   81.29   10.70
  -3   0   3   64.89    9.30
  -3   0   3   84.49   10.70
   2   0  -3   46.60    6.80
  -2   0   3   60.99    8.40
  -2   0   3   50.39    7.80
  -2   0   3   54.39    7.90
  -2   0   3   55.19    7.70
   1   0  -3    5.70    2.00
   1   0  -3    1.90    1.60
   1   0  -3    7.00    2.60
  -1   0   3    5.50    2.20
  -1   0   3    6.90    2.50
   0   0  -3  760.02   42.40
   0   0  -3  720.63   42.70
   0   0  -3  766.22   42.30
   0   0   3  725.73   42.10
   0   0   3  738.53   42.80
   0   0   3  740.23   42.20
  -1   0  -3   11.10    3.00
  -1   0  -3    4.60    2.10
  -1   0  -3    9.10    2.90
   1   0   3    8.40    2.80
   1   0   3   11.30    3.40
  -2   0  -3  214.98   15.60
  -2   0  -3  208.38   16.00
  -2   0  -3  216.38   15.80
   2   0   3  212.38   15.60
   2   0   3  215.58   15.50
   2   0   3  216.88   16.20
  -3   0  -3   15.30    4.70
  -3   0  -3   11.70    3.80
   3   0   3   15.30    4.80
   3   0   3   13.10    4.00
  -4   0  -3    1.60    2.10
  -4   0  -3    0.70    1.70
  -4   0  -3    7.80    3.60
   4   0   3    3.20    2.30
   4   0   3   -0.20    0.90
  -5   0  -3    3.10    2.40
  -5   0  -3   12.40    4.60
  -5   0  -3   13.80    5.80
   5   0   3    9.20    3.80
  -6   0  -3   -0.20    1.50
   6   0   3   -0.30    1.00
   7   0   3   -1.00    1.40
   7  -1  -3    1.90    2.40
  -7   1   3   -1.10    1.40
   6  -1  -3    6.90    4.40
   5  -1  -3   24.30    7.00
  -5   1   3   24.70    6.50
  -5   1   3   14.50    5.30
   4  -1  -3   -0.30    0.70
  -4   1   3    0.30    1.10
  -4   1   3    2.30    2.30
   3  -1  -3   45.20    7.20
  -3   1   3   57.09    8.40
  -3   1   3   52.29    8.20
   2  -1  -3   13.00    3.30
  -2   1   3   15.20    3.60
  -2   1   3   15.50    3.70
   1  -1  -3  312.47   19.30
  -1   1   3  302.47   19.20
  -1   1   3  310.67   20.30
  -1   1   3  316.87   19.10
   0  -1  -3  835.92   49.60
   0  -1  -3  895.11   48.10
   0  -1  -3  869.81   48.50
   0   1   3  876.21   49.60
   0   1   3  889.91   48.50
   0   1   3  863.31   48.00
  -1  -1  -3  146.09   10.30
  -1  -1  -3  129.79    9.60
  -1  -1  -3  144.29   11.10
   1   1   3  146.29    9.80
   1   1   3  145.99   10.30
   1   1   3  133.49   11.00
  -2  -1  -3    7.80    2.50
  -2  -1  -3    9.60    3.20
  -2  -1  -3    9.00    3.00
   2   1   3   12.20    3.60
   2   1   3   12.30    3.40
  -3  -1  -3   66.59   10.20
  -3  -1  -3   85.19   11.00
  -3  -1  -3  112.99   13.30
   3   1   3   78.59   10.90
   3   1   3   69.59   11.40
  -4  -1  -3   17.80    4.80
  -4  -1  -3   14.60    4.70
  -4  -1  -3   26.00    7.00
   4   1   3   12.40    4.40
   4   1   3   26.60    6.80
  -5  -1  -3    1.40    1.70
  -5  -1  -3   -0.60    0.90
  -5  -1  -3    0.30    1.30
  -6  -1  -3    3.50    3.30
  -6  -1  -3   -0.20    1.40
   6   1   3   -1.20    1.10
  -6   2   3   21.50    6.70
   5  -2  -3    0.40    1.20
  -5   2   3    1.70    1.90
  -5   2   3    0.30    1.10
   4  -2  -3    3.50    2.90
  -4   2   3    1.70    1.70
  -4   2   3   -0.50    0.60
   3  -2  -3   16.20    4.00
  -3   2   3    9.30    3.30
  -3   2   3   19.50    4.70
  -2   2   3    3.90    1.90
  -2   2   3    4.70    2.20
   1  -2  -3   51.49    5.90
  -1   2   3   65.29    8.00
  -1   2   3   65.19    6.80
  -1   2   3   52.69    5.90
   0  -2  -3  232.58   15.30
   0  -2  -3  208.48   13.50
   0   2   3  227.98   13.10
   0   2   3  211.88   15.00
  -1  -2  -3   31.00    5.20
   1   2   3   26.10    4.10
   1   2   3   20.70    4.20
  -2  -2  -3  126.79   10.40
  -2  -2  -3  117.19    8.50
  -2  -2  -3  124.09    9.70
   2   2   3  112.79    9.60
   2   2   3  115.89   10.10
  -3  -2  -3   19.70    4.40
  -3  -2  -3   23.90    5.50
  -3  -2  -3   15.90    4.00
   3   2   3   33.80    6.90
   3   2   3   18.30    4.30
  -4  -2  -3   47.70    8.50
  -4  -2  -3   24.20    6.30
   4   2   3   37.00    7.00
   4   2   3   55.19   10.20
  -5  -2  -3   29.20    8.20
  -5  -2  -3   16.70    6.30
  -6  -2  -3    4.20    4.20
  -6  -2  -3   -1.00    1.10
   6   2   3   10.50    4.80
   7   2   3    1.70    2.10
   8   2   3   -1.00    1.80
  -6   3   3    9.60    5.40
   5  -3  -3   11.70    4.50
  -5   3   3   18.40    7.80
  -5   3   3   16.20    5.90
   4  -3  -3    7.20    3.20
  -4   3   3   10.00    4.20
  -4   3   3    2.40    1.70
   3  -3  -3    9.70    3.10
  -3   3   3   12.50    3.90
  -3   3   3    6.00    2.70
  -2   3   3   52.99    6.80
  -2   3   3   44.30    5.70
  -1   3   3   66.99    5.30
  -1   3   3   74.29    5.60
  -1   3   3   94.99   10.20
   0  -3  -3   48.30    6.40
   0   3   3   65.99    7.50
  -1  -3  -3   31.60    5.10
  -1  -3  -3   32.70    4.00
   1   3   3   25.00    4.30
   1   3   3   43.30    4.70
  -2  -3  -3   10.40    2.90
  -2  -3  -3   15.60    3.70
   2   3   3   14.30    3.30
   2   3   3    7.80    2.80
  -3  -3  -3   15.10    4.30
  -3  -3  -3   30.40    5.70
   3   3   3   31.30    6.60
   3   3   3   13.00    3.90
  -4  -3  -3    0.40    1.30
  -4  -3  -3    8.40    4.10
   4   3   3    7.40    3.70
   4   3   3    7.70    4.00
  -5  -3  -3   -0.70    0.90
  -5  -3  -3    5.40    3.60
   5   3   3    1.90    2.00
  -6  -3  -3   20.50    6.60
  -6  -3  -3   23.20    7.30
   6   3   3   25.90    6.60
   7   3   3    3.20    3.30
   8   3   3    3.50    4.20
   5  -4  -3    3.90    2.60
  -5   4   3    2.00    2.10
  -5   4   3    4.90    3.90
   4  -4  -3    5.70    3.00
  -4   4   3   10.40    5.20
  -4   4   3    4.40    2.50
  -4   4   3   10.40    3.70
   3  -4  -3   15.10    3.80
  -3   4   3    9.00    3.00
  -3   4   3   15.30    5.20
  -3   4   3   12.70    3.70
  -2   4   3   18.60    5.10
  -2   4   3   37.00    7.10
  -1   4   3   11.10    3.10
  -1   4   3    8.70    2.90
   0   4   3   56.09    7.00
  -1  -4  -3   71.49    7.80
  -2  -4  -3    2.30    1.40
  -2  -4  -3    2.50    1.50
   2   4   3    3.20    1.90
   2   4   3    2.70    1.30
  -3  -4  -3   15.20    4.20
  -3  -4  -3   12.80    2.80
  -3  -4  -3   18.40    4.90
   3   4   3   17.60    4.40
   3   4   3   11.30    3.80
  -4  -4  -3   -0.10    0.80
  -4  -4  -3   -0.20    0.90
   4   4   3   -0.80    0.60
   4   4   3   -0.70    0.80
  -5  -4  -3   -0.90    0.80
  -5  -4  -3    9.60    4.20
   5   4   3    1.30    2.10
  -6  -4  -3    0.20    1.20
  -6  -4  -3    3.40    2.60
   6   4   3   -0.90    0.90
  -7  -4  -3    3.70    3.70
   7   4   3   -0.80    1.20
   8   4   3   -0.30    2.30
  -4   5   3    0.90    1.30
  -4   5   3   -0.50    1.80
  -4   5   3    1.30    2.80
  -4   5   3    0.70    1.40
  -3   5   3   -0.60    1.70
  -3   5   3    4.40    2.80
  -2   5   3   11.30    3.70
  -2   5   3   20.10    5.40
  -1   5   3    2.70    1.70
  -1   5   3    3.40    2.20
   0   5   3  318.57   18.50
   0   5   3  264.57   18.60
   1   5   3    0.30    0.80
  -2  -5  -3    7.90    2.50
   2   5   3   11.00    3.00
  -3  -5  -3    8.50    3.00
  -3  -5  -3   14.20    4.10
   3   5   3   13.50    3.70
   3   5   3    9.20    3.20
  -4  -5  -3   -0.30    0.70
  -4  -5  -3    3.90    1.90
  -4  -5  -3    1.20    1.50
  -5  -5  -3   14.90    5.50
  -5  -5  -3   23.50    6.60
  -5  -5  -3   14.60    4.40
   5   5   3   14.30    5.20
  -6  -5  -3    0.60    1.40
  -6  -5  -3    4.10    2.90
  -6  -5  -3   -0.80    1.20
   6   5   3    0.50    1.60
  -7  -5  -3    0.40    1.60
  -7  -5  -3    7.60    4.20
   7   5   3    0.10    1.80
  -3   6   3   -0.90    2.20
  -3   6   3    5.00    3.20
  -3   6   3    0.30    1.60
  -2   6   3    0.80    1.60
  -2   6   3    4.50    2.80
  -1   6   3    7.00    3.00
  -1   6   3    2.70    2.00
   0   6   3    6.60    2.70
  -3  -6  -3    3.40    1.70
  -3  -6  -3    0.80    1.30
  -3  -6  -3    0.70    0.70
  -4  -6  -3   14.90    5.40
  -4  -6  -3   18.90    4.50
  -4  -6  -3   17.60    5.10
  -4  -6  -3   16.10    3.70
   4   6   3    8.40    3.30
  -5  -6  -3    1.20    2.20
  -5  -6  -3    0.20    1.10
  -5  -6  -3    1.20    1.40
   5   6   3    3.10    2.50
  -6  -6  -3    1.20    2.30
  -6  -6  -3    5.50    4.00
  -6  -6  -3    4.80    2.90
   6   6   3    1.10    1.90
  -7  -6  -3   -0.70    2.00
  -7  -6  -3    1.90    3.10
  -7  -6  -3    0.20    2.10
   7   6   3   -0.60    1.30
  -2   7   3    1.50    1.80
  -2   7   3   -0.50    1.90
  -2   7   3    3.80    2.40
  -1   7   3    3.80    3.00
   0   7   3    0.60    1.40
  -4  -7  -3    1.50    1.60
  -4  -7  -3    0.50    1.00
  -4  -7  -3    0.00    1.10
  -4  -7  -3    1.10    1.30
  -5  -7  -3   -0.40    1.30
  -5  -7  -3    2.70    2.50
  -5  -7  -3    1.70    2.10
  -5  -7  -3    1.50    1.70
  -6  -7  -3    2.50    2.60
  -6  -7  -3    3.10    2.60
  -6  -7  -3    5.50    3.60
   6   7   3    2.40    2.60
  -4  -8  -3    1.70    1.60
  -5  -8  -3    2.40    2.50
  -5  -8  -3    1.40    2.00
  -5  -8  -3    2.60    1.80
  -4  -6   4    7.60    6.30
  -4  -6   4    9.60    3.80
  -4  -6   4    3.50    3.30
  -4  -6   4    5.30    4.00
  -3  -6   4    4.30    2.00
  -3  -6   4    3.80    3.60
  -3  -6   4    1.70    1.80
  -2  -6   4   13.10    5.50
  -2  -6   4    4.30    3.30
  -2  -6   4    1.50    2.10
  -1  -6   4    3.90    2.90
  -1  -6   4    0.30    1.60
  -6  -5   4    0.10    1.90
  -6  -5   4   -0.30    1.50
  -6  -5   4    0.00    1.90
  -5  -5   4   -0.60    1.70
  -5  -5   4   -0.40    1.60
  -5  -5   4   -1.50    1.50
  -5  -5   4    1.00    2.30
   4   5  -4    2.00    2.10
  -4  -5   4    6.40    4.10
  -4  -5   4    5.70    4.00
  -4  -5   4    5.10    3.10
  -4  -5   4    7.00    3.50
   3   5  -4   26.80    7.70
   3   5  -4    7.20    3.90
  -3  -5   4   17.80    5.90
  -3  -5   4   12.70    5.10
  -3  -5   4   31.60    6.50
  -3  -5   4    7.50    4.20
   2   5  -4    4.50    3.60
   2   5  -4    6.10    3.40
  -2  -5   4    3.60    2.80
  -2  -5   4    4.80    3.10
  -2  -5   4    7.60    2.90
   1   5  -4   12.50    4.80
   1   5  -4   11.90    5.40
  -1  -5   4    9.30    4.40
  -1  -5   4   18.40    5.40
  -1  -5   4   10.60    3.00
   0   5  -4   14.90    5.70
   0   5  -4   23.10    6.30
   0   5  -4   28.10    5.30
   0  -5   4   30.90    8.50
   0  -5   4   20.40    6.00
   0  -5   4   16.90    4.30
  -1   5  -4    0.60    1.20
  -1   5  -4   -0.50    1.20
   1  -5   4   -0.30    1.30
   1  -5   4    0.90    1.50
  -2   5  -4    2.80    2.70
   2  -5   4    0.30    1.40
  -6  -4   4    2.20    2.70
  -6  -4   4   -0.30    1.30
  -5  -4   4    5.80    4.80
  -5  -4   4    2.80    3.60
  -5  -4   4    4.70    3.20
  -5  -4   4    6.10    3.70
   4   4  -4    0.00    1.30
  -4  -4   4    3.60    2.60
  -4  -4   4   -0.10    1.10
  -4  -4   4    0.10    1.30
  -4  -4   4    1.90    2.00
   3   4  -4    1.70    1.90
   3   4  -4    2.60    3.30
  -3  -4   4   -0.60    1.00
  -3  -4   4    3.20    2.80
  -3  -4   4    3.80    2.40
  -3  -4   4    3.00    2.30
   2   4  -4    6.20    3.40
   2   4  -4    0.50    1.20
  -2  -4   4    4.90    3.10
  -2  -4   4    4.80    3.10
   1   4  -4   61.09   10.60
   1   4  -4  122.69   15.00
  -1  -4   4   73.49   11.10
  -1  -4   4   82.99    9.80
  -1  -4   4   77.89   12.30
   0   4  -4   65.49   11.40
   0   4  -4  108.49   11.70
   0   4  -4  133.79   15.00
   0  -4   4   73.99    9.70
   0  -4   4   70.09   10.90
   0  -4   4   95.29   14.40
  -1   4  -4   46.20    7.60
  -1   4  -4   22.90    6.30
   1  -4   4   38.80    8.00
   1  -4   4   60.29   12.70
   1  -4   4   43.10    7.80
  -2   4  -4   28.70    6.70
  -2   4  -4   36.60    8.10
  -2   4  -4   26.30    7.80
   2  -4   4   26.40    6.50
   2  -4   4   37.00    9.90
   2  -4   4   33.70    7.70
  -3   4  -4    5.80    3.70
   3  -4   4    3.30    2.90
  -4   4  -4   -1.00    1.60
   4  -4   4    0.60    1.60
  -7  -3   4    4.80    4.80
  -7  -3   4    0.70    1.70
  -6  -3   4    2.20    2.90
  -6  -3   4   -0.40    2.20
  -5  -3   4    0.30    1.80
  -5  -3   4    0.90    1.70
  -5  -3   4    0.30    1.70
  -5  -3   4    1.20    1.90
   4   3  -4    0.20    1.10
  -4  -3   4    2.00    3.10
  -4  -3   4    1.90    1.70
  -4  -3   4    0.20    1.00
  -4  -3   4    1.70    1.70
   3   3  -4   15.70    5.20
   3   3  -4   28.30    7.60
  -3  -3   4   13.10    8.00
  -3  -3   4   23.00    5.80
  -3  -3   4   21.20    6.10
  -3  -3   4   25.80    6.80
   2   3  -4   10.50    4.30
   2   3  -4   14.70    5.00
  -2  -3   4   21.50    5.10
  -2  -3   4   13.90    4.80
  -2  -3   4    7.70    3.30
   1   3  -4    2.40    1.60
   1   3  -4    4.50    3.10
   1   3  -4    4.00    2.80
  -1  -3   4    4.30    2.30
  -1  -3   4    5.90    3.30
  -1  -3   4    5.00    2.70
   0   3  -4   34.80    6.40
   0   3  -4   36.00    7.80
   0   3  -4   39.70    7.30
   0  -3   4   46.50    8.00
   0  -3   4   52.59    9.90
   0  -3   4   45.00    7.20
  -1   3  -4  154.58   18.00
  -1   3  -4  115.79   14.20
  -1   3  -4  126.69   11.80
   1  -3   4  147.19   12.60
  -2   3  -4  225.98   17.70
  -2   3  -4  196.08   17.10
  -2   3  -4  212.08   19.00
   2  -3   4  189.98   17.20
   2  -3   4  221.88   19.30
   2  -3   4  208.88   17.60
  -3   3  -4   67.19   12.20
  -3   3  -4   44.50    9.20
  -3   3  -4   43.00    8.80
   3  -3   4   38.10    8.50
   3  -3   4   58.29   12.80
   3  -3   4   31.90    7.80
  -4   3  -4   59.99   11.60
   4  -3   4   87.49   13.50
   5  -3   4    3.70    3.50
  -7  -2   4    1.30    3.40
  -7  -2   4   -0.40    1.90
  -6  -2   4    4.30    3.20
  -6  -2   4    2.40    2.80
  -5  -2   4    4.20    2.60
  -5  -2   4   13.80    5.10
  -5  -2   4    8.20    4.80
  -4  -2   4    6.30    3.10
  -4  -2   4   12.00    4.80
  -4  -2   4    9.70    4.40
  -4  -2   4    4.70    3.20
   3   2  -4   95.29   12.80
   3   2  -4  140.69   17.00
  -3  -2   4  135.59   15.20
  -3  -2   4   77.79   11.50
  -3  -2   4   95.19   12.10
  -3  -2   4  118.89   15.50
   2   2  -4    2.30    2.40
   2   2  -4    1.40    1.40
  -2  -2   4    0.80    1.30
  -2  -2   4    2.30    2.20
  -2  -2   4    1.10    2.10
   1   2  -4  240.38   17.80
   1   2  -4  210.18   18.40
   1   2  -4  252.77   18.40
  -1  -2   4  269.57   18.20
  -1  -2   4  255.47   18.20
  -1  -2   4  242.88   18.70
   0   2  -4  886.21   53.19
   0   2  -4  933.71   54.69
   0   2  -4  909.71   53.59
   0  -2   4  883.21   53.19
   0  -2   4  920.11   53.59
   0  -2   4  949.60   54.79
  -1   2  -4    1.80    1.90
  -1   2  -4    1.40    1.60
  -1   2  -4   -0.20    0.60
   1  -2   4    0.00    0.80
   1  -2   4    1.60    2.00
   1  -2   4    3.30    2.00
  -2   2  -4    5.50    2.70
  -2   2  -4    4.20    2.90
  -2   2  -4    1.40    1.60
   2  -2   4    4.50    2.70
   2  -2   4    1.90    1.80
   2  -2   4    5.20    3.10
  -3   2  -4   90.59   12.70
  -3   2  -4   98.19   14.10
  -3   2  -4   90.49   13.50
   3  -2   4   95.09   13.90
   3  -2   4  116.99   15.20
   3  -2   4   98.89   15.00
  -4   2  -4  212.78   22.30
  -4   2  -4  197.78   22.60
   4  -2   4  155.48   19.00
  -5   2  -4   29.00    8.20
  -7  -1   4   -0.80    1.40
  -7  -1   4    2.80    3.30
  -6  -1   4   -0.20    1.60
  -6  -1   4   -0.70    1.30
  -5  -1   4    1.00    1.50
  -5  -1   4    0.30    1.30
  -5  -1   4   -0.10    1.20
  -4  -1   4    3.50    2.40
  -4  -1   4    0.30    1.70
  -4  -1   4    5.40    3.10
   3   1  -4    2.60    2.00
  -3  -1   4    3.30    2.20
  -3  -1   4   -0.20    0.50
  -3  -1   4    1.30    1.40
  -3  -1   4    0.90    1.60
   2   1  -4   68.49   10.60
   2   1  -4   86.79   10.20
  -2  -1   4   75.99    9.90
  -2  -1   4   62.49    9.50
  -2  -1   4   91.59   11.30
   1   1  -4  807.62   46.60
   1   1  -4  757.22   46.30
  -1  -1   4  750.02   45.90
  -1  -1   4  766.52   46.40
  -1  -1   4  830.02   46.90
   0   1  -4   53.39    8.00
   0   1  -4   41.80    7.40
   0   1  -4   46.00    7.20
   0  -1   4   57.19    8.50
   0  -1   4   52.39    8.00
   0  -1   4   49.70    8.10
  -1   1  -4 1001.60   57.79
  -1   1  -4  974.70   57.19
  -1   1  -4  981.60   57.79
   1  -1   4  964.70   58.09
   1  -1   4 1021.60   57.79
  -2   1  -4  306.67   20.90
  -2   1  -4  285.37   21.20
  -2   1  -4  277.77   21.10
   2  -1   4  306.97   21.80
   2  -1   4  294.07   21.20
   2  -1   4  274.57   21.30
  -3   1  -4   15.70    5.00
  -3   1  -4    9.80    3.80
  -3   1  -4    5.60    3.30
   3  -1   4   14.90    5.00
   3  -1   4   17.30    5.50
   3  -1   4   25.90    7.40
  -4   1  -4   19.00    6.50
  -4   1  -4   25.00    6.50
  -4   1  -4   13.50    5.30
   4  -1   4   27.40    7.00
   4  -1   4   16.00    5.70
  -5   1  -4   11.20    5.40
   5  -1   4   15.60    5.60
   6  -1   4   32.70    8.40
  -7   0   4   10.00    5.10
  -7   0   4   21.20    8.00
  -6   0   4   12.60    6.20
  -6   0   4   11.90    5.70
  -5   0   4   61.49   11.30
  -5   0   4  101.89   15.10
  -5   0   4   70.89   11.50
  -4   0   4    1.60    2.10
  -4   0   4    1.50    2.10
  -4   0   4    2.40    2.00
   3   0  -4    3.50    2.40
  -3   0   4   -0.10    1.30
  -3   0   4    0.70    1.40
  -3   0   4    0.20    0.80
  -3   0   4    0.00    0.90
   2   0  -4   20.40    5.30
   2   0  -4   16.30    4.70
  -2   0   4   31.00    6.00
  -2   0   4   17.30    4.60
  -2   0   4   24.70    5.50
  -2   0   4   17.20    4.10
   1   0  -4  185.58   13.70
   1   0  -4  167.38   14.00
   1   0  -4  183.38   13.80
  -1   0   4  172.38   14.00
  -1   0   4  189.18   13.60
  -1   0   4  182.98   13.80
   0   0  -4  505.05   32.40
   0   0  -4  533.15   32.00
   0   0  -4  545.55   31.90
   0   0   4  518.45   31.60
   0   0   4  492.35   32.20
   0   0   4  529.05   31.60
  -1   0  -4  745.53   43.00
  -1   0  -4  702.33   41.90
  -1   0  -4  674.83   41.60
   1   0   4  711.03   42.20
   1   0   4  715.53   42.30
   1   0   4  715.13   43.00
  -2   0  -4    6.70    3.10
  -2   0  -4    9.30    3.70
  -2   0  -4    8.10    3.60
   2   0   4    7.80    3.30
   2   0   4    5.10    2.40
   2   0   4   12.00    4.20
  -3   0  -4  645.94   41.00
  -3   0  -4  655.63   40.30
  -3   0  -4  641.04   40.50
   3   0   4  618.34   41.10
   3   0   4  622.24   40.20
  -4   0  -4   96.69   13.60
  -4   0  -4   72.19   10.90
  -4   0  -4   58.09   10.90
   4   0   4   86.99   13.80
   4   0   4   59.69   11.00
  -5   0  -4   34.70    8.60
  -5   0  -4   32.90    8.90
   5   0   4   27.00    7.00
   6   0   4   16.90    6.40
   7   0   4    3.30    3.80
  -6   1   4   12.40    6.90
  -5   1   4   45.30    9.60
  -5   1   4   31.60    7.70
  -4   1   4   33.80    8.10
  -4   1   4   54.39    9.70
  -4   1   4   55.79   10.10
  -3   1   4  691.83   41.80
  -3   1   4  649.04   40.50
  -3   1   4  670.83   41.90
   2  -1  -4   12.50    3.50
  -2   1   4    5.30    2.50
  -2   1   4   12.10    4.10
  -2   1   4   12.80    4.30
  -2   1   4   11.20    3.80
   1  -1  -4  201.48   14.50
   1  -1  -4  220.08   16.10
   1  -1  -4  202.28   14.40
  -1   1   4  224.68   15.90
  -1   1   4  195.18   14.40
  -1   1   4  206.78   14.40
   0  -1  -4   74.99    6.90
   0  -1  -4   90.59    9.50
   0  -1  -4   91.49   11.00
   0   1   4   85.09    7.10
   0   1   4   75.09    8.50
   0   1   4   77.99    9.80
  -1  -1  -4  164.78   11.90
  -1  -1  -4  190.98   13.70
  -1  -1  -4  156.38   12.10
   1   1   4  158.18   13.10
   1   1   4  161.18   11.90
  -2  -1  -4    7.00    2.80
  -2  -1  -4   11.80    3.30
  -2  -1  -4   14.10    4.10
   2   1   4   18.20    4.90
   2   1   4    8.40    3.00
   2   1   4   15.90    3.90
  -3  -1  -4   87.59   12.30
  -3  -1  -4   78.69   10.40
  -3  -1  -4   79.59   10.70
   3   1   4   88.29   12.40
   3   1   4   92.99   12.50
  -4  -1  -4    0.10    1.30
  -4  -1  -4    5.70    2.90
  -4  -1  -4    7.20    3.70
   4   1   4    1.20    1.80
   4   1   4    2.40    1.70
  -5  -1  -4  105.99   14.40
  -5  -1  -4  119.29   16.30
  -5  -1  -4   98.99   15.60
   5   1   4  122.89   16.20
   5   1   4  110.19   15.90
  -6  -1  -4   15.70    6.90
   6   1   4    3.50    3.40
   7   1   4   26.20    8.50
  -6   2   4   35.70    8.90
  -5   2   4    9.50    4.40
  -5   2   4   28.10    7.30
  -4   2   4   45.90    8.30
  -4   2   4   30.70    7.10
  -3   2   4   37.40    6.80
   2  -2  -4  127.89   10.40
  -2   2   4  144.59   15.30
  -2   2   4  115.49   10.60
  -2   2   4  117.19    9.80
  -2   2   4  118.79   10.30
   1  -2  -4 1294.77   70.99
  -1   2   4 1252.57   70.79
  -1   2   4 1309.07   70.99
   0  -2  -4  116.09   10.00
   0  -2  -4   92.19    7.50
   0  -2  -4  108.69    8.40
   0   2   4  100.09    9.40
   0   2   4  113.39    7.80
   0   2   4  107.99    8.30
  -1  -2  -4  793.32   44.50
  -1  -2  -4  749.03   42.70
  -1  -2  -4  721.33   41.40
   1   2   4  739.33   42.80
   1   2   4  774.92   44.50
   1   2   4  727.53   41.50
  -2  -2  -4    1.30    1.30
  -2  -2  -4   -0.60    0.80
  -2  -2  -4    0.90    1.30
   2   2   4    3.40    1.90
  -3  -2  -4    5.90    3.30
  -3  -2  -4    7.40    3.10
  -3  -2  -4    6.10    2.70
   3   2   4    4.90    2.70
   3   2   4    2.30    1.70
  -4  -2  -4   -0.20    0.90
  -4  -2  -4    0.00    0.70
  -4  -2  -4   -0.20    0.60
   4   2   4    1.20    1.40
   4   2   4   -0.80    0.80
  -5  -2  -4    3.00    2.70
  -5  -2  -4    4.60    2.70
  -5  -2  -4    1.30    1.60
   5   2   4    2.70    2.80
   5   2   4    0.20    1.20
  -6  -2  -4    0.60    1.50
   6   2   4    8.70    4.20
   7   2   4    7.10    4.30
  -6   3   4  135.39   18.10
  -5   3   4   40.80    9.10
  -5   3   4   21.00    5.70
  -4   3   4  180.68   15.30
  -4   3   4  206.28   16.40
  -3   3   4   76.39   11.90
  -3   3   4   77.29   10.40
  -3   3   4   79.59    9.90
  -2   3   4   22.60    4.30
  -2   3   4   35.70    7.30
  -2   3   4   24.70    4.90
   1  -3  -4   38.80    5.20
  -1   3   4   36.30    6.50
  -1   3   4   46.10    5.70
  -1   3   4   27.20    4.30
   0  -3  -4  313.27   17.60
   0  -3  -4  276.17   19.50
   0   3   4  247.48   17.10
   0   3   4  314.17   20.10
  -1  -3  -4  390.26   24.50
  -1  -3  -4  349.17   22.20
   1   3   4  390.16   24.40
   1   3   4  367.06   22.30
  -2  -3  -4    2.80    1.40
  -2  -3  -4    0.40    0.80
  -2  -3  -4   -0.70    0.90
   2   3   4    3.50    1.60
   2   3   4    3.90    2.20
  -3  -3  -4  216.38   17.10
  -3  -3  -4  251.47   18.60
  -3  -3  -4  250.57   16.00
   3   3   4  226.78   17.30
   3   3   4  248.88   18.70
  -4  -3  -4   26.20    6.50
  -4  -3  -4   16.30    5.40
  -4  -3  -4   13.40    4.20
   4   3   4   10.00    4.40
   4   3   4   20.60    5.50
  -5  -3  -4   38.60    7.80
  -5  -3  -4   19.80    5.70
  -5  -3  -4   35.60    8.70
   5   3   4   31.20    8.70
   5   3   4   36.20    7.70
  -6  -3  -4    3.00    2.60
  -6  -3  -4    3.10    3.30
  -6  -3  -4    0.60    1.30
   6   3   4    3.10    2.60
   7   3   4    4.20    4.40
  -5   4   4    1.00    1.90
  -4   4   4  190.28   15.20
  -4   4   4  195.38   15.90
  -3   4   4  107.19   11.50
  -3   4   4  103.89   10.80
  -3   4   4   71.79   12.40
  -2   4   4  318.17   22.90
  -2   4   4  299.77   19.10
  -2   4   4  321.87   19.50
  -1   4   4  104.39   12.20
   0   4   4   81.49    9.90
  -1  -4  -4   28.70    5.60
   1   4   4   28.00    5.20
   1   4   4   31.20    4.00
  -2  -4  -4    0.20    1.00
  -2  -4  -4   -0.30    0.90
   2   4   4   -0.10    0.70
   2   4   4    1.10    1.10
  -3  -4  -4   14.40    4.30
  -3  -4  -4   11.20    3.50
   3   4   4    4.00    2.30
   3   4   4   12.50    4.30
  -4  -4  -4   -0.90    0.70
  -4  -4  -4    1.10    1.30
  -4  -4  -4    1.30    1.30
   4   4   4   -0.20    1.10
   4   4   4   -0.30    0.60
  -5  -4  -4   14.70    5.00
  -5  -4  -4   14.20    5.20
   5   4   4   16.50    5.40
   5   4   4   16.20    5.70
  -6  -4  -4    8.40    5.70
  -6  -4  -4    4.00    2.90
  -7  -4  -4    1.90    2.20
   7   4   4   17.30    6.30
  -4   5   4    6.00    2.70
  -4   5   4    0.30    2.50
  -4   5   4    1.60    2.30
  -4   5   4   11.00    3.60
  -3   5   4    2.50    2.80
  -3   5   4    4.30    3.50
  -2   5   4  115.89   14.40
  -1   5   4  121.49   10.30
  -1   5   4  130.79   11.90
   0   5   4  366.76   24.20
  -1  -5  -4   64.59    8.20
  -2  -5  -4   42.90    6.70
   2   5   4   55.89    6.50
   2   5   4   65.99    8.60
  -3  -5  -4   19.30    4.80
  -3  -5  -4   25.40    4.90
   3   5   4   18.00    5.10
   3   5   4   23.60    5.00
  -4  -5  -4   11.60    4.00
  -4  -5  -4   10.10    3.90
   4   5   4   10.80    4.10
   4   5   4    7.20    3.30
  -5  -5  -4    0.50    1.30
  -5  -5  -4    3.90    2.80
  -5  -5  -4    3.20    2.30
   5   5   4    2.50    2.10
  -6  -5  -4    2.60    2.70
  -6  -5  -4   -0.40    1.10
   6   5   4   -0.10    1.50
  -7  -5  -4    5.20    4.30
   7   5   4   -0.60    1.60
  -3   6   4    3.70    3.10
  -3   6   4    0.30    2.10
  -2   6   4   16.70    5.40
  -1   6   4    7.30    3.00
  -1   6   4    4.30    2.80
   0   6   4   52.49    7.40
  -2  -6  -4    1.20    1.10
   2   6   4   -0.30    1.00
  -3  -6  -4   22.20    4.80
  -3  -6  -4   16.40    3.70
   3   6   4   12.30    3.90
   3   6   4   28.90    5.10
  -4  -6  -4    8.20    3.40
  -4  -6  -4    7.40    2.80
   4   6   4   14.20    4.30
   4   6   4    8.50    4.30
  -5  -6  -4    1.30    1.70
  -5  -6  -4    1.80    2.20
   5   6   4    2.80    2.20
  -6  -6  -4    0.60    1.40
  -6  -6  -4    4.30    2.80
  -6  -6  -4    5.60    4.00
   6   6   4    4.40    4.00
  -7  -6  -4    3.10    2.90
  -7  -6  -4    3.70    3.00
   7   6   4   -0.80    1.60
  -2   7   4    8.30    3.70
  -2   7   4   19.50    6.00
  -2   7   4   12.00    4.30
  -1   7   4   -1.10    1.30
  -3  -7  -4    7.10    2.50
  -4  -7  -4    7.30    2.90
  -4  -7  -4   14.90    4.30
  -4  -7  -4   21.10    5.80
   4   7   4    9.40    3.70
  -5  -7  -4    1.60    1.80
  -5  -7  -4    2.10    1.70
  -5  -7  -4    0.70    1.40
  -5  -7  -4    6.80    3.90
  -6  -7  -4   -0.30    1.50
  -6  -7  -4    5.50    3.00
  -6  -7  -4    1.50    2.40
   6   7   4    1.30    2.30
  -4  -8  -4   -0.40    0.80
  -4  -8  -4   -0.10    0.90
  -5  -8  -4    0.50    1.60
  -5  -8  -4   -0.60    1.00
  -5  -8  -4   -1.10    1.10
  -3  -6   5    7.80    4.10
  -3  -6   5    2.10    1.80
  -3  -6   5   -0.90    1.90
  -3  -6   5    1.70    2.40
  -2  -6   5   -0.10    1.80
  -2  -6   5    6.10    3.80
  -1  -6   5    8.70    5.10
  -1  -6   5    3.70    3.70
  -5  -5   5    2.40    2.30
  -5  -5   5    2.40    2.30
  -5  -5   5   -0.40    2.20
  -4  -5   5   12.20    4.30
  -4  -5   5    1.30    2.10
  -4  -5   5    3.50    2.70
  -3  -5   5    4.20    2.40
  -3  -5   5    9.20    5.10
  -3  -5   5    8.40    5.10
  -3  -5   5   14.20    6.40
  -2  -5   5   12.50    3.80
  -2  -5   5    9.90    4.50
  -2  -5   5    2.70    2.60
  -1  -5   5    1.10    1.70
  -1  -5   5    7.00    3.90
  -1  -5   5    2.90    1.80
   0   5  -5   -0.40    1.10
   0  -5   5    0.20    1.20
   0  -5   5    3.30    2.90
   0  -5   5   -0.10    1.20
  -1   5  -5   -0.20    1.30
   1  -5   5   13.60    6.60
   1  -5   5    3.10    2.70
  -6  -4   5    1.20    2.70
  -6  -4   5    2.20    2.40
  -6  -4   5   -1.30    1.60
  -5  -4   5    0.90    2.00
  -5  -4   5   -0.40    1.60
   4   4  -5    0.00    1.60
  -4  -4   5   -0.40    1.20
  -4  -4   5   -0.30    2.00
  -4  -4   5   -0.90    1.20
  -4  -4   5    2.00    2.30
   3   4  -5    3.60    3.10
  -3  -4   5   -0.80    1.10
  -3  -4   5    2.80    2.70
  -3  -4   5    2.40    2.00
  -3  -4   5    1.20    1.70
   2   4  -5   13.10    6.10
   2   4  -5   19.70    5.90
  -2  -4   5   17.10    6.30
  -2  -4   5   22.40    6.60
  -2  -4   5   22.30    5.90
   1   4  -5    3.30    3.60
   1   4  -5    9.60    4.80
  -1  -4   5    5.90    3.80
  -1  -4   5    9.50    3.50
  -1  -4   5    4.90    3.10
   0   4  -5  276.87   21.70
   0   4  -5  243.48   22.30
   0  -4   5  242.08   22.50
   0  -4   5  324.27   23.00
   0  -4   5  239.28   19.20
  -1   4  -5    4.00    2.80
  -1   4  -5    0.90    1.80
  -1   4  -5   -0.30    1.50
   1  -4   5    3.90    2.80
   1  -4   5    0.90    1.60
   1  -4   5   -1.10    1.30
  -2   4  -5    1.60    2.00
   2  -4   5    2.40    2.40
   2  -4   5    5.40    3.50
   2  -4   5    0.00    1.30
  -3   4  -5    2.70    3.20
   3  -4   5    0.40    2.40
   3  -4   5    0.50    1.70
  -6  -3   5   -1.00    1.50
  -6  -3   5    0.10    1.80
  -5  -3   5    2.10    2.80
  -5  -3   5    2.10    2.00
  -5  -3   5   20.90    6.90
  -5  -3   5   11.90    5.50
   4   3  -5    1.10    1.60
  -4  -3   5    1.30    1.90
  -4  -3   5   -0.20    1.20
  -4  -3   5   -0.10    1.40
  -4  -3   5    3.90    4.80
   3   3  -5    0.30    1.30
   3   3  -5    2.40    2.00
  -3  -3   5    3.30    2.30
  -3  -3   5   -0.90    1.00
  -3  -3   5    2.70    2.20
  -3  -3   5    0.70    1.20
   2   3  -5    6.30    3.50
   2   3  -5   17.00    6.40
  -2  -3   5   29.50    6.70
  -2  -3   5   15.70    5.10
  -2  -3   5   10.40    4.90
   1   3  -5   27.60    7.20
   1   3  -5   24.60    6.40
   1   3  -5   27.40    6.40
  -1  -3   5   24.90    6.10
  -1  -3   5   24.00    7.00
  -1  -3   5   24.60    6.00
   0   3  -5   25.10    6.10
   0   3  -5    7.90    3.60
   0  -3   5   22.30    6.60
   0  -3   5   20.00    5.40
   0  -3   5   11.90    4.20
  -1   3  -5    3.30    2.50
  -1   3  -5    0.30    1.60
  -1   3  -5    0.80    1.90
   1  -3   5    2.70    1.80
   1  -3   5   -1.00    0.90
   1  -3   5    7.70    3.80
  -2   3  -5   45.20    9.10
  -2   3  -5   75.59   11.60
   2  -3   5   86.49   15.50
   2  -3   5   72.79   11.60
   2  -3   5   70.29   12.10
  -3   3  -5    0.60    1.70
   3  -3   5    3.30    2.40
   3  -3   5    5.00    3.70
   3  -3   5   -0.40    1.00
  -4   3  -5    1.30    2.30
   4  -3   5    2.50    2.10
  -7  -2   5    0.40    2.00
  -7  -2   5    2.60    3.80
  -6  -2   5    0.20    1.60
  -6  -2   5    0.70    1.60
  -5  -2   5    3.60    2.60
  -5  -2   5   13.90    5.90
  -5  -2   5    6.30    4.10
  -5  -2   5    3.40    2.40
   4   2  -5    3.80    2.40
  -4  -2   5    2.10    2.40
  -4  -2   5   -0.30    0.90
  -4  -2   5    0.10    0.90
  -4  -2   5    0.30    1.30
   3   2  -5   62.29   12.20
   3   2  -5   70.19   11.20
  -3  -2   5   99.79   14.40
  -3  -2   5   77.19   11.70
  -3  -2   5   67.49   11.50
   2   2  -5    0.80    2.20
   2   2  -5   -0.10    0.90
  -2  -2   5   -0.10    0.70
  -2  -2   5   -0.30    1.00
  -2  -2   5    3.90    2.70
   1   2  -5   27.50    7.00
   1   2  -5   25.20    5.90
   1   2  -5   16.50    5.10
  -1  -2   5   26.10    6.00
  -1  -2   5   20.50    5.80
  -1  -2   5   35.50    7.90
   0   2  -5  148.99   13.00
   0   2  -5  149.29   13.10
   0   2  -5  115.89   14.80
   0  -2   5  149.99   15.40
   0  -2   5  120.59   14.90
   0  -2   5  143.99   12.90
  -1   2  -5   68.99   11.10
  -1   2  -5   58.59    9.60
  -1   2  -5   68.69   10.30
   1  -2   5   66.89   11.30
   1  -2   5   54.19    9.50
   1  -2   5   69.39   11.60
  -2   2  -5    2.00    2.30
  -2   2  -5    0.10    1.40
  -2   2  -5    1.10    1.40
   2  -2   5    2.60    2.60
   2  -2   5   -0.10    1.40
   2  -2   5    3.20    2.70
  -3   2  -5    0.70    1.50
  -3   2  -5    2.30    2.30
   3  -2   5    2.10    2.00
   3  -2   5    2.90    3.50
   3  -2   5    1.60    3.10
   4  -2   5    3.00    2.70
   4  -2   5   -0.40    1.10
   5  -2   5    4.40    3.00
  -6  -1   5   15.70    6.90
  -6  -1   5   10.00    6.10
  -5  -1   5   -0.30    1.00
  -5  -1   5   -0.10    1.80
  -5  -1   5    6.70    4.70
  -5  -1   5    1.10    2.00
   4   1  -5   16.30    5.60
  -4  -1   5   13.80    5.70
  -4  -1   5    9.70    3.90
  -4  -1   5   14.90    5.80
  -4  -1   5   10.40    4.70
   3   1  -5    6.40    3.80
  -3  -1   5   -0.30    0.80
  -3  -1   5   -0.60    0.60
  -3  -1   5    9.40    3.80
  -3  -1   5    1.90    2.50
   2   1  -5   35.70    7.00
   2   1  -5   30.10    7.10
  -2  -1   5   35.80    7.60
  -2  -1   5   32.90    6.70
  -2  -1   5   30.00    7.20
   1   1  -5   90.79   12.70
   1   1  -5  134.49   15.40
   1   1  -5   97.49   12.30
  -1  -1   5  124.59   14.10
  -1  -1   5   99.09   12.70
  -1  -1   5   85.29   11.50
   0   1  -5   12.90    4.40
   0   1  -5   14.20    4.50
   0   1  -5   20.20    5.40
   0  -1   5   15.70    4.80
   0  -1   5   10.00    3.80
   0  -1   5   31.20    6.50
  -1   1  -5   19.50    5.00
  -1   1  -5   47.30    8.50
   1  -1   5   22.90    6.20
   1  -1   5   40.00    8.00
   1  -1   5   27.30    6.70
  -2   1  -5    2.20    2.50
  -2   1  -5    5.40    2.70
  -2   1  -5    6.00    3.40
   2  -1   5    7.80    3.50
   2  -1   5    3.40    2.40
   2  -1   5   10.40    4.20
  -3   1  -5   18.40    5.70
  -3   1  -5   33.70    7.90
  -3   1  -5   34.80    8.50
   3  -1   5   23.30    6.00
   3  -1   5   10.50    4.60
   3  -1   5   18.60    5.90
  -4   1  -5    0.30    1.50
  -4   1  -5   -0.80    1.30
   4  -1   5    0.30    1.30
   4  -1   5    0.00    1.20
  -5   1  -5    3.30    3.60
   5  -1   5    6.40    4.50
   5  -1   5    6.60    3.50
   6  -1   5    3.10    4.10
  -6   0   5   -0.80    1.80
  -6   0   5    1.30    1.90
  -5   0   5    1.80    2.60
  -5   0   5    3.70    3.80
  -5   0   5    8.50    6.50
  -4   0   5    0.20    1.40
  -4   0   5    1.50    1.80
  -4   0   5   -1.00    0.80
  -4   0   5    3.10    2.20
   3   0  -5    1.90    1.60
  -3   0   5   -0.40    0.60
  -3   0   5    0.30    1.60
  -3   0   5    0.00    0.90
  -3   0   5   -0.30    0.70
   2   0  -5   40.50    8.30
   2   0  -5   30.10    6.50
  -2   0   5   33.00    7.20
  -2   0   5   52.09    8.10
  -2   0   5   55.79    9.30
   1   0  -5   21.60    5.10
   1   0  -5   10.00    3.50
   1   0  -5   19.10    5.40
  -1   0   5    6.10    2.80
  -1   0   5   14.50    4.10
  -1   0   5   15.00    4.60
   0   0  -5  213.88   17.30
   0   0  -5  246.28   17.40
   0   0  -5  231.78   16.80
   0   0   5  213.68   16.40
   0   0   5  210.78   16.40
   0   0   5  227.68   17.70
  -1   0  -5   -0.80    0.70
  -1   0  -5    0.50    0.90
  -1   0  -5   -0.70    0.70
   1   0   5   -0.10    1.20
   1   0   5    1.80    1.80
   1   0   5   -0.40    0.70
  -2   0  -5   17.00    5.20
  -2   0  -5   11.60    4.10
  -2   0  -5   17.10    4.70
   2   0   5   18.40    5.30
   2   0   5    9.10    3.80
   2   0   5   16.60    5.10
  -3   0  -5   13.00    5.00
  -3   0  -5   13.90    4.60
  -3   0  -5   16.50    5.10
   3   0   5    8.60    3.60
   3   0   5   13.30    5.00
   3   0   5   23.90    6.80
  -4   0  -5   10.60    5.20
  -4   0  -5    5.20    3.20
  -4   0  -5    7.50    4.10
   4   0   5    2.10    1.90
   4   0   5    2.30    2.60
  -5   0  -5    7.70    4.90
  -5   0  -5   17.90    6.60
  -5   0  -5   14.40    6.00
   5   0   5   23.40    8.10
   5   0   5   19.60    7.30
  -6   1   5    0.80    1.60
  -5   1   5    5.30    2.80
  -5   1   5    5.60    4.50
  -5   1   5    2.90    2.70
  -4   1   5    6.50    3.20
  -4   1   5   20.00    5.80
  -4   1   5   16.80    6.10
  -4   1   5    9.50    4.00
   3  -1  -5    3.70    2.80
  -3   1   5    5.80    2.70
  -3   1   5    7.10    3.60
  -3   1   5    4.20    2.80
  -3   1   5    6.60    3.00
   2  -1  -5   68.99    9.40
  -2   1   5   49.40    7.80
  -2   1   5   55.49    8.40
  -2   1   5   74.49   11.00
  -2   1   5   70.39    9.80
   1  -1  -5   14.50    4.00
   1  -1  -5   12.20    3.70
   1  -1  -5   22.80    5.30
  -1   1   5   14.90    4.20
  -1   1   5   12.60    4.10
  -1   1   5   18.90    4.30
   0  -1  -5  129.19   10.70
   0  -1  -5  129.39   10.50
   0  -1  -5  131.79   11.90
   0   1   5  125.59   10.50
   0   1   5  115.69   13.90
   0   1   5  109.69    9.80
  -1  -1  -5    6.50    3.00
  -1  -1  -5    9.40    3.30
  -1  -1  -5    6.90    2.70
   1   1   5   11.40    3.50
   1   1   5    8.40    3.40
   1   1   5    6.40    3.40
  -2  -1  -5    5.30    2.70
  -2  -1  -5    8.50    3.20
  -2  -1  -5    9.90    4.00
   2   1   5    5.00    2.60
   2   1   5    9.20    3.40
   2   1   5    5.20    2.70
  -3  -1  -5   13.80    4.40
  -3  -1  -5   12.00    4.20
  -3  -1  -5   12.80    4.40
   3   1   5   24.40    6.40
   3   1   5    8.60    3.70
   3   1   5   14.10    4.50
  -4  -1  -5   22.00    5.90
  -4  -1  -5    8.90    4.00
  -4  -1  -5   10.30    4.00
   4   1   5   12.40    6.10
   4   1   5   12.10    4.40
  -5  -1  -5   58.79   12.20
  -5  -1  -5   66.29   19.00
  -5  -1  -5   59.29   11.40
   5   1   5   57.69   11.80
   5   1   5   58.39   11.60
   6   1   5    4.60    3.60
   7   1   5    5.40    3.80
  -6   2   5    5.80    3.90
  -6   2   5    1.20    2.60
  -5   2   5   -1.00    1.20
  -5   2   5    5.50    3.30
  -5   2   5    5.20    3.50
  -4   2   5    1.40    2.00
  -4   2   5   -0.70    0.90
  -4   2   5    1.50    2.20
  -4   2   5   -0.10    0.70
  -3   2   5   -1.10    0.90
  -3   2   5    3.20    2.40
  -3   2   5    0.60    1.50
  -3   2   5    0.60    1.20
   2  -2  -5   98.99   11.90
  -2   2   5  106.89   14.10
  -2   2   5   95.59   11.00
  -2   2   5  105.29   12.20
  -2   2   5  110.19   12.20
   1  -2  -5  232.88   16.40
  -1   2   5  209.08   15.90
  -1   2   5  237.18   16.20
  -1   2   5  252.87   18.50
   0  -2  -5  463.85   31.60
   0  -2  -5  514.05   28.80
   0  -2  -5  506.95   29.90
   0   2   5  476.85   31.50
   0   2   5  471.45   28.70
   0   2   5  476.35   29.60
  -1  -2  -5  188.78   16.10
  -1  -2  -5  219.48   15.20
  -1  -2  -5  204.08   14.00
   1   2   5  208.48   14.00
   1   2   5  205.98   16.40
   1   2   5  217.38   15.50
  -2  -2  -5   33.30    5.60
  -2  -2  -5   32.70    6.30
   2   2   5   32.80    7.30
   2   2   5   35.00    6.20
   2   2   5   31.60    5.60
  -3  -2  -5   19.40    5.20
  -3  -2  -5   20.20    5.60
  -3  -2  -5   29.00    5.90
   3   2   5   11.20    4.50
   3   2   5   13.00    4.20
  -4  -2  -5    0.20    1.20
  -4  -2  -5    4.40    2.80
  -4  -2  -5    4.70    2.90
   4   2   5    3.00    2.00
   4   2   5    1.70    2.10
  -5  -2  -5    6.80    4.10
  -5  -2  -5    9.30    4.50
  -5  -2  -5    9.40    4.60
   5   2   5    7.80    4.00
   5   2   5   11.60    5.10
  -6  -2  -5   -0.60    1.40
  -6  -2  -5    9.50    5.70
   6   2   5   -0.80    1.00
   6   2   5    0.40    1.50
  -5   3   5    0.80    1.80
  -5   3   5   -0.40    1.20
  -4   3   5   34.00    7.60
  -4   3   5   19.90    5.30
  -4   3   5   24.80    7.40
  -3   3   5   13.90    4.20
  -3   3   5   21.70    5.20
  -3   3   5   22.60    6.70
  -2   3   5    0.00    0.80
  -2   3   5    2.80    1.60
  -2   3   5    4.50    2.40
  -2   3   5    1.60    1.50
   1  -3  -5   14.70    3.60
  -1   3   5   10.30    2.90
  -1   3   5   13.10    3.40
  -1   3   5    8.90    2.80
  -1   3   5   12.50    4.50
   0  -3  -5 1172.98   69.39
   0  -3  -5 1193.18   66.79
   0   3   5 1211.58   69.49
   0   3   5 1224.68   65.59
  -1  -3  -5  618.64   36.90
  -1  -3  -5  628.94   39.30
   1   3   5  648.74   37.10
   1   3   5  608.54   38.90
  -2  -3  -5   75.69   10.50
  -2  -3  -5   83.89    6.90
  -2  -3  -5   98.39   10.70
   2   3   5  104.69   12.80
   2   3   5  105.39   11.40
  -3  -3  -5  352.66   24.70
  -3  -3  -5  359.36   22.90
  -3  -3  -5  359.56   25.90
   3   3   5  388.86   26.70
   3   3   5  354.26   25.00
  -4  -3  -5    1.00    1.80
  -4  -3  -5   -0.30    0.70
   4   3   5    2.40    2.90
   4   3   5   -0.40    0.80
  -5  -3  -5    0.70    1.60
  -5  -3  -5    0.00    1.10
  -5  -3  -5    3.80    2.90
   5   3   5    0.70    1.60
   5   3   5    0.70    1.30
  -6  -3  -5    1.00    1.50
  -6  -3  -5    0.40    1.60
   6   3   5   -0.90    1.20
   6   3   5    7.30    4.80
   7   3   5   -0.30    1.30
  -5   4   5   -0.50    1.50
  -4   4   5  141.69   15.50
  -4   4   5  156.08   19.80
  -3   4   5    3.30    2.10
  -3   4   5   -0.10    0.70
  -3   4   5   -0.60    1.00
  -2   4   5  419.26   28.60
  -2   4   5  371.46   24.30
  -1   4   5   93.79    7.60
  -1   4   5   89.79    7.70
  -1   4   5  124.89   14.20
  -1   4   5  103.89   10.90
   0  -4  -5    6.70    3.00
   0  -4  -5    7.90    2.30
   0   4   5    5.00    1.60
   0   4   5    6.10    3.00
  -1  -4  -5   68.09    9.50
  -1  -4  -5   69.39    7.80
   1   4   5   70.59    9.50
   1   4   5   68.09    7.60
  -2  -4  -5  240.08   16.60
  -2  -4  -5  255.67   18.80
   2   4   5  244.98   17.00
   2   4   5  237.38   18.60
  -3  -4  -5  253.87   19.50
  -3  -4  -5  234.68   17.70
   3   4   5  215.28   18.70
   3   4   5  267.97   19.90
  -4  -4  -5   39.00    8.20
  -4  -4  -5   42.70    7.00
  -4  -4  -5   36.60    8.00
   4   4   5   55.09   10.00
   4   4   5   41.90    9.20
  -5  -4  -5  194.58   22.50
  -5  -4  -5  182.78   20.00
  -5  -4  -5  162.78   14.40
   5   4   5  189.38   21.90
   5   4   5  180.48   20.10
  -6  -4  -5    0.90    2.20
  -6  -4  -5    4.20    3.60
  -6  -4  -5   -0.10    1.40
   6   4   5    2.70    2.70
   6   4   5    2.80    2.40
  -7  -4  -5   16.50    6.90
   7   4   5   11.70    5.90
  -4   5   5    6.40    4.70
  -4   5   5   12.40    6.10
  -4   5   5    0.40    1.40
  -4   5   5    4.90    2.40
  -3   5   5    9.10    4.90
  -3   5   5    9.50    4.30
  -2   5   5  345.47   24.70
  -2   5   5  375.76   27.10
  -1   5   5    4.20    1.90
  -1   5   5    1.90    2.30
   0   5   5 3718.53  201.68
  -1  -5  -5  128.89   11.70
   1   5   5  145.29   12.50
  -2  -5  -5   72.79   10.30
  -2  -5  -5   76.09    7.00
   2   5   5  122.69   13.10
   2   5   5   85.69    9.20
  -3  -5  -5   58.59    8.40
  -3  -5  -5   55.19    9.00
   3   5   5   65.99   10.30
   3   5   5   56.89    8.40
  -4  -5  -5   41.60    5.70
  -4  -5  -5   42.70    8.60
  -4  -5  -5   33.20    7.20
   4   5   5   35.40    8.20
   4   5   5   26.90    6.40
  -5  -5  -5   13.30    5.10
  -5  -5  -5   20.60    5.10
   5   5   5    8.90    4.30
   5   5   5   17.70    6.40
  -6  -5  -5    8.70    5.10
  -6  -5  -5   10.70    4.20
  -6  -5  -5    4.60    3.10
   6   5   5    2.50    2.30
  -7  -5  -5   17.80    5.60
  -7  -5  -5   50.69   11.80
   7   5   5   40.80   10.80
  -3   6   5    2.20    2.60
  -3   6   5    1.00    2.80
  -2   6   5    2.00    2.30
  -2   6   5    3.80    2.40
  -1   6   5   22.80    6.00
   0   6   5 1012.20   59.79
   1   6   5   -0.80    1.10
  -2  -6  -5  615.14   38.60
   2   6   5  658.23   39.20
  -3  -6  -5   90.59   11.40
  -3  -6  -5   84.29   10.10
   3   6   5  114.79   13.30
   3   6   5   90.99   10.30
  -4  -6  -5  135.99   15.30
  -4  -6  -5  147.99   16.70
   4   6   5  175.28   18.80
   4   6   5  131.19   14.90
  -5  -6  -5   11.40    3.20
  -5  -6  -5   17.00    3.70
  -5  -6  -5   27.30    7.30
  -5  -6  -5   23.90    6.30
   5   6   5   17.10    6.50
  -6  -6  -5   -0.80    2.10
  -6  -6  -5    3.60    2.90
  -6  -6  -5    0.20    1.50
  -6  -6  -5    0.30    1.70
   6   6   5    2.50    3.10
  -7  -6  -5    4.50    4.30
  -7  -6  -5    1.70    2.40
  -7  -6  -5    3.90    3.00
   7   6   5   -0.70    1.70
  -1   7   5    0.70    1.60
   0   7   5   36.30    6.60
   1   7   5   22.40    5.00
   2   7   5   81.79   10.20
  -3  -7  -5   10.90    3.40
   3   7   5    9.20    3.50
  -4  -7  -5  163.38   14.00
  -4  -7  -5  161.88   13.30
   4   7   5  151.78   13.00
   4   7   5  156.58   14.00
  -5  -7  -5   38.00    8.40
  -5  -7  -5   45.10    8.90
  -6  -7  -5   46.50    9.70
  -6  -7  -5   38.00    9.20
  -6  -7  -5   48.60    7.50
  -6  -7  -5   59.89    8.20
   6   7   5   73.99   12.50
  -4  -8  -5    5.90    2.60
  -4  -8  -5   10.50    3.50
  -4  -8  -5    9.20    2.80
  -4  -5   6   -0.50    1.60
  -4  -5   6    9.10    4.50
  -3  -5   6   -1.00    1.30
  -3  -5   6   -0.70    1.60
  -3  -5   6    0.00    1.80
  -2  -5   6    5.10    3.10
  -2  -5   6    0.70    1.40
  -2  -5   6    9.40    5.50
  -1  -5   6   -0.30    1.10
  -1  -5   6    1.10    2.20
  -1  -5   6    3.50    3.00
   0   5  -6    1.40    2.20
   0  -5   6    2.10    2.10
   0  -5   6    0.60    1.70
   0  -5   6    1.10    2.20
  -5  -4   6    6.50    4.60
  -5  -4   6   30.10    8.80
  -5  -4   6    3.90    3.30
  -4  -4   6    6.50    4.10
  -4  -4   6    7.90    4.40
  -4  -4   6    2.50    2.60
  -3  -4   6   12.00    6.50
  -3  -4   6   19.10    7.20
  -3  -4   6    7.50    4.30
  -2  -4   6   -0.70    1.10
  -2  -4   6    0.20    1.50
  -2  -4   6    2.40    2.60
  -1  -4   6    0.00    1.30
  -1  -4   6    1.00    1.40
  -1  -4   6    2.60    3.10
   0   4  -6   29.20    7.00
   0  -4   6   16.10    4.60
   0  -4   6   31.10    9.30
   0  -4   6   29.40    7.70
  -1   4  -6    1.60    1.70
   1  -4   6    0.50    1.50
  -2   4  -6    5.60    4.00
   2  -4   6    5.00    4.30
   2  -4   6    1.90    2.60
   2  -4   6    1.30    2.70
  -6  -3   6   -0.30    2.20
  -6  -3   6   -0.20    1.50
  -5  -3   6    1.00    1.90
  -5  -3   6   -1.10    1.70
  -4  -3   6   -0.10    1.50
  -4  -3   6    0.10    1.50
  -4  -3   6   -0.50    1.30
  -4  -3   6    0.00    1.40
  -3  -3   6    7.60    4.00
  -3  -3   6    5.80    5.10
  -3  -3   6    1.70    2.60
  -3  -3   6   10.40    4.50
  -2  -3   6    3.90    3.30
  -2  -3   6    7.50    3.70
  -2  -3   6    9.10    4.30
   1   3  -6   34.80    8.10
  -1  -3   6   39.10    9.00
  -1  -3   6   36.00    9.20
  -1  -3   6   24.50    6.40
   0   3  -6   56.79   10.30
   0  -3   6   42.10    8.40
   0  -3   6   77.49   12.20
   0  -3   6   43.60   10.60
  -1   3  -6    0.10    1.30
  -1   3  -6    0.00    1.10
   1  -3   6    1.00    1.50
   1  -3   6    1.50    2.10
   1  -3   6    0.30    1.60
  -2   3  -6    0.10    1.30
   2  -3   6    0.70    1.70
   2  -3   6    4.30    3.50
   2  -3   6    1.00    1.40
  -3   3  -6   10.10    5.90
   3  -3   6   17.80    6.70
   3  -3   6    7.80    5.10
   3  -3   6   10.30    5.80
  -6  -2   6   37.60   10.60
  -6  -2   6   27.90    9.30
  -5  -2   6    1.90    2.90
  -5  -2   6    0.60    2.40
  -5  -2   6    1.90    2.20
   4   2  -6    9.20    4.70
  -4  -2   6   14.00    6.30
  -4  -2   6   14.00    5.50
  -4  -2   6   32.50    8.70
   3   2  -6    0.50    1.30
   3   2  -6   -0.50    1.30
  -3  -2   6    1.10    1.80
  -3  -2   6   -0.40    0.90
  -3  -2   6    2.00    1.60
  -3  -2   6   -0.30    1.20
   2   2  -6    2.80    2.40
   2   2  -6    1.30    2.20
  -2  -2   6    0.60    1.30
  -2  -2   6   -0.10    1.10
  -2  -2   6    3.00    2.30
   1   2  -6   -0.10    0.80
   1   2  -6    3.90    2.60
   1   2  -6   -0.50    0.80
  -1  -2   6    2.10    2.40
  -1  -2   6    6.60    3.20
  -1  -2   6    2.70    2.30
   0   2  -6   12.10    4.50
   0   2  -6   17.10    5.50
   0   2  -6   13.10    4.50
   0  -2   6    9.20    3.90
   0  -2   6   26.10    6.30
   0  -2   6   14.00    5.50
  -1   2  -6    0.20    1.10
  -1   2  -6    4.50    3.00
  -1   2  -6    8.40    4.50
   1  -2   6    5.80    3.60
   1  -2   6    9.20    4.50
   1  -2   6    4.50    2.90
  -2   2  -6   13.00    5.00
   2  -2   6    7.30    5.00
   2  -2   6    6.80    3.40
  -3   2  -6    0.30    1.80
   3  -2   6    1.60    2.50
   3  -2   6    4.40    3.50
   3  -2   6    2.60    2.70
  -4   2  -6   26.00    8.20
   4  -2   6   22.90    9.90
   4  -2   6   12.10    5.70
  -6  -1   6    5.70    4.20
  -6  -1   6   -1.00    1.60
  -6  -1   6    2.00    2.40
  -5  -1   6    2.70    2.90
  -5  -1   6    2.70    3.00
  -5  -1   6    6.20    4.40
   4   1  -6   27.70    7.50
  -4  -1   6   25.20    7.70
  -4  -1   6   22.30    7.10
  -4  -1   6   19.30    7.20
   3   1  -6   11.40    4.90
   3   1  -6    5.90    3.20
  -3  -1   6    7.50    4.00
  -3  -1   6    2.30    1.90
  -3  -1   6    2.40    3.00
  -3  -1   6    9.90    4.50
   2   1  -6   33.00    7.30
   2   1  -6   16.20    5.50
  -2  -1   6   33.30    7.70
  -2  -1   6   42.40    8.80
  -2  -1   6   23.70    6.30
   1   1  -6   27.10    7.30
   1   1  -6   28.50    7.30
   1   1  -6   35.30    7.20
  -1  -1   6   30.70    7.40
  -1  -1   6   33.20    7.60
  -1  -1   6   29.60    6.50
   0   1  -6    2.40    1.80
   0   1  -6    3.00    2.10
   0   1  -6    8.20    3.80
   0  -1   6    7.40    3.90
   0  -1   6    3.70    2.50
   0  -1   6    7.90    3.50
  -1   1  -6    7.60    3.40
  -1   1  -6    8.30    3.60
  -1   1  -6    0.80    1.20
   1  -1   6    2.40    2.20
   1  -1   6    6.10    3.90
   1  -1   6    1.00    1.60
  -2   1  -6   -0.80    0.80
  -2   1  -6    1.50    1.70
  -2   1  -6   -0.60    0.80
   2  -1   6    0.90    1.80
   2  -1   6    1.20    1.50
   2  -1   6    0.00    0.80
  -3   1  -6    1.50    2.20
  -3   1  -6    0.90    1.60
   3  -1   6   -0.20    0.80
   3  -1   6    0.20    1.30
   3  -1   6   -0.70    0.80
  -4   1  -6   -0.60    1.30
   4  -1   6    0.10    1.10
   4  -1   6    0.00    1.60
   5  -1   6    2.50    3.00
   5  -1   6    0.50    1.50
  -6   0   6    0.20    1.50
  -6   0   6    1.60    2.60
  -6   0   6    1.40    2.20
  -5   0   6    3.70    3.00
  -5   0   6   13.30    6.00
  -5   0   6    1.80    2.90
   4   0  -6    6.70    3.90
  -4   0   6    3.90    2.90
  -4   0   6   10.20    4.50
  -4   0   6    3.70    3.00
   3   0  -6    6.80    3.60
  -3   0   6    1.10    2.10
  -3   0   6    5.80    2.90
  -3   0   6   10.40    5.30
  -3   0   6    3.10    2.00
   2   0  -6   -0.30    1.10
   2   0  -6    3.30    2.50
  -2   0   6   -0.90    0.80
  -2   0   6    1.30    2.00
  -2   0   6    3.50    2.90
   1   0  -6    5.10    3.20
   1   0  -6    2.10    2.20
   1   0  -6    2.70    2.30
  -1   0   6    2.20    1.70
  -1   0   6    0.30    1.30
  -1   0   6    3.80    2.50
   0   0  -6   27.50    6.50
   0   0  -6   27.10    6.20
   0   0  -6   30.50    7.10
   0   0   6   22.90    5.80
   0   0   6   18.50    5.90
   0   0   6   20.50    5.40
  -1   0  -6  111.19   14.30
  -1   0  -6   78.49   12.10
  -1   0  -6  118.59   14.60
   1   0   6  154.58   17.20
   1   0   6   91.39   13.00
   1   0   6  100.49   14.50
  -2   0  -6    1.30    1.50
  -2   0  -6    4.60    2.60
  -2   0  -6    2.10    1.80
   2   0   6    6.10    3.80
   2   0   6    2.20    2.40
   2   0   6    6.90    3.60
  -3   0  -6   40.90    8.60
  -3   0  -6   32.10    7.10
  -3   0  -6   46.00    9.20
   3   0   6   37.30    8.80
   3   0   6   36.30    9.20
   3   0   6   62.69   11.60
  -4   0  -6    0.10    1.30
  -4   0  -6    4.00    3.90
  -4   0  -6    0.40    1.50
   4   0   6    6.20    3.90
   4   0   6   -0.60    0.90
   5   0   6    0.20    1.50
   5   0   6   -0.80    1.10
   6   0   6    2.30    2.20
  -6   1   6    0.10    1.80
  -6   1   6    0.10    1.60
  -6   1   6    0.50    2.50
  -5   1   6    9.10    5.00
  -5   1   6    0.30    1.40
  -4   1   6   -0.80    0.90
  -4   1   6    0.60    1.30
  -4   1   6   -1.00    1.20
  -4   1   6   -0.40    1.00
   3  -1  -6    2.90    2.50
  -3   1   6    1.80    2.20
  -3   1   6    3.00    2.70
  -3   1   6    1.60    2.30
  -3   1   6   -0.20    1.10
   2  -1  -6   11.80    4.30
  -2   1   6    7.00    3.20
  -2   1   6   13.40    4.20
  -2   1   6   21.70    6.40
   1  -1  -6   -0.30    0.70
   1  -1  -6    3.00    2.00
   1  -1  -6   -0.10    1.00
  -1   1   6    0.40    1.50
  -1   1   6    2.00    2.40
  -1   1   6    1.70    1.50
   0  -1  -6   45.30    8.70
   0  -1  -6   53.59    8.80
   0  -1  -6   66.89    9.70
   0   1   6   53.09    9.20
   0   1   6   67.09    9.70
   0   1   6   57.09    8.50
  -1  -1  -6   13.10    4.40
  -1  -1  -6   12.50    4.40
  -1  -1  -6   15.70    4.40
   1   1   6   16.80    4.70
   1   1   6   16.50    4.70
   1   1   6   33.70    7.30
  -2  -1  -6   16.20    4.50
  -2  -1  -6   16.20    5.20
  -2  -1  -6   13.10    4.90
   2   1   6   14.60    5.10
   2   1   6   13.30    4.20
   2   1   6   20.00    5.40
  -3  -1  -6   26.40    6.90
  -3  -1  -6   37.80    8.00
  -3  -1  -6   26.50    7.20
   3   1   6   22.60    6.00
   3   1   6   20.80    5.60
   3   1   6   23.40    7.10
  -4  -1  -6    1.10    1.40
  -4  -1  -6    1.70    2.00
  -4  -1  -6   -0.20    1.20
   4   1   6    2.10    2.60
   4   1   6    3.20    2.90
  -5  -1  -6   17.60    7.20
  -5  -1  -6    9.00    4.70
   5   1   6   17.60    6.80
   5   1   6   18.00    6.30
  -5   2   6    8.00    5.40
  -5   2   6    4.40    2.80
  -5   2   6    6.20    4.40
  -4   2   6    0.80    2.20
  -4   2   6   -0.50    0.90
  -4   2   6    0.30    1.60
  -4   2   6   -0.70    1.00
  -3   2   6   -0.70    0.90
  -3   2   6    3.50    2.70
  -3   2   6    0.00    0.90
  -3   2   6   -0.20    1.20
   2  -2  -6    6.10    2.80
  -2   2   6    5.90    3.40
  -2   2   6    2.50    2.10
  -2   2   6    2.90    2.40
  -2   2   6    2.20    2.00
   1  -2  -6   17.50    4.60
   1  -2  -6   19.30    6.00
  -1   2   6   13.50    3.80
  -1   2   6   11.70    4.20
  -1   2   6   23.20    5.60
   0  -2  -6   25.10    5.20
   0  -2  -6    7.70    3.20
   0  -2  -6   15.40    4.00
   0   2   6   26.50    5.20
   0   2   6   20.60    4.80
   0   2   6   24.60    6.50
  -1  -2  -6   11.70    3.90
  -1  -2  -6    9.10    2.90
  -1  -2  -6    9.30    3.60
   1   2   6    8.00    2.70
   1   2   6   18.80    5.00
   1   2   6    3.90    2.80
  -2  -2  -6    1.70    1.90
  -2  -2  -6   -0.20    0.70
  -2  -2  -6   -0.60    0.60
   2   2   6    1.50    1.60
   2   2   6    2.70    2.50
   2   2   6    1.60    1.40
  -3  -2  -6   21.10    5.30
  -3  -2  -6   10.20    4.00
  -3  -2  -6   17.70    5.80
   3   2   6   24.90    7.40
   3   2   6   10.20    3.90
  -4  -2  -6   12.50    5.20
  -4  -2  -6   14.60    5.60
  -4  -2  -6   23.90    6.70
   4   2   6   18.80    6.30
   4   2   6   19.40    6.40
  -5  -2  -6    1.80    2.10
  -5  -2  -6    0.80    1.50
   5   2   6   -0.20    1.00
   5   2   6    6.30    4.50
  -6  -2  -6    0.10    1.50
   6   2   6   -0.70    1.10
   6   2   6    1.90    2.30
   7   2   6    4.00    3.80
  -5   3   6    2.50    2.50
  -5   3   6   11.50    5.40
  -5   3   6   11.90    6.10
  -4   3   6   10.20    4.60
  -4   3   6    5.10    3.10
  -4   3   6    3.40    3.00
  -4   3   6   -0.80    1.10
  -3   3   6   10.00    3.80
  -3   3   6    0.80    1.10
  -3   3   6    2.70    2.30
  -3   3   6    7.40    3.20
   2  -3  -6    9.00    3.30
  -2   3   6    3.70    3.00
  -2   3   6    8.40    3.30
  -2   3   6    9.40    2.80
  -2   3   6    3.40    2.30
   1  -3  -6    0.40    0.80
  -1   3   6    0.00    0.90
  -1   3   6   -0.20    0.90
   0  -3  -6   61.69    8.30
   0  -3  -6   70.69   10.90
   0   3   6   58.29    8.00
   0   3   6   65.29   10.30
   0   3   6   74.59    6.50
  -1  -3  -6   19.60    3.60
  -1  -3  -6   28.50    5.70
   1   3   6   25.40    6.00
   1   3   6   25.10    4.20
   1   3   6   18.40    4.80
  -2  -3  -6   35.90    7.40
  -2  -3  -6   28.80    4.60
  -2  -3  -6   30.80    6.00
   2   3   6   47.20    9.00
   2   3   6   40.90    7.30
  -3  -3  -6    6.30    2.70
  -3  -3  -6    7.10    3.50
  -3  -3  -6   12.20    4.60
   3   3   6    7.90    3.70
   3   3   6    6.60    3.50
  -4  -3  -6    2.20    2.50
  -4  -3  -6   -0.50    0.90
   4   3   6    1.70    2.20
   4   3   6    4.70    3.40
  -5  -3  -6   -0.70    0.90
  -5  -3  -6    1.00    1.80
  -5  -3  -6    1.00    1.70
   5   3   6    5.50    3.80
  -6  -3  -6    3.70    3.00
  -6  -3  -6    3.00    2.50
   6   3   6    2.80    2.90
   6   3   6    5.50    3.60
  -4   4   6   -1.20    1.30
  -4   4   6    0.00    2.30
  -4   4   6    3.80    2.30
  -4   4   6   -0.80    1.50
  -3   4   6    1.40    2.00
  -3   4   6   -0.30    1.50
  -3   4   6    2.40    1.70
  -3   4   6    3.80    2.30
  -2   4   6    6.00    2.30
  -2   4   6    9.90    4.70
  -2   4   6   14.10    4.10
  -2   4   6   20.80    5.00
  -1   4   6   -0.40    1.30
  -1   4   6    0.30    1.10
  -1   4   6    0.10    0.60
  -1   4   6    0.70    1.20
   0  -4  -6   29.00    7.00
   0   4   6   44.20    8.30
   0   4   6   38.60    5.50
  -1  -4  -6    6.30    3.30
  -1  -4  -6    3.90    1.80
   1   4   6    5.80    2.40
   1   4   6   14.60    4.90
  -2  -4  -6    2.30    1.60
  -2  -4  -6    7.70    2.90
   2   4   6    0.70    1.60
   2   4   6   -1.10    0.70
  -3  -4  -6    1.90    1.90
  -3  -4  -6    1.40    1.60
  -3  -4  -6    1.40    1.20
   3   4   6    2.50    2.30
   3   4   6    0.20    1.30
  -4  -4  -6   51.09    7.50
  -4  -4  -6   42.30    8.90
  -4  -4  -6   44.20    8.30
   4   4   6   28.10    8.10
   4   4   6   27.30    6.90
  -5  -4  -6    8.40    3.60
  -5  -4  -6    5.60    2.90
  -5  -4  -6    1.20    1.80
   5   4   6    1.90    2.10
   5   4   6    1.70    3.30
  -6  -4  -6    9.90    5.40
  -6  -4  -6    1.60    2.60
   6   4   6    5.50    4.10
   6   4   6    0.00    1.80
  -7  -4  -6    1.30    2.30
   7   4   6    1.80    2.60
  -4   5   6    4.20    2.60
  -4   5   6    2.70    3.10
  -4   5   6    3.50    2.70
  -3   5   6   14.00    5.40
  -3   5   6   14.50    4.00
  -3   5   6   10.50    3.10
  -3   5   6    3.10    3.00
  -2   5   6    9.10    2.70
  -2   5   6   11.00    4.60
  -2   5   6    9.20    3.60
  -1   5   6   -0.60    1.60
  -1   5   6    2.80    1.60
   0  -5  -6   30.90    4.70
   0   5   6   33.00    7.10
  -1  -5  -6    2.60    1.90
  -1  -5  -6    2.40    2.20
   1   5   6    2.00    2.00
   1   5   6    4.20    1.80
  -2  -5  -6   16.70    4.10
  -2  -5  -6   13.20    4.50
   2   5   6   12.70    3.50
   2   5   6   13.90    4.70
  -3  -5  -6   22.10    5.90
  -3  -5  -6   19.90    5.00
   3   5   6   16.80    5.10
   3   5   6   20.90    5.40
  -4  -5  -6    5.20    2.80
  -4  -5  -6    6.60    3.90
   4   5   6    6.40    3.70
  -5  -5  -6    0.30    1.80
  -5  -5  -6    2.50    2.20
  -5  -5  -6    1.00    1.40
   5   5   6    4.20    3.10
   5   5   6    0.70    1.60
  -6  -5  -6   15.40    4.90
  -6  -5  -6   13.90    6.10
   6   5   6    4.30    3.10
  -7  -5  -6   17.70    7.60
  -7  -5  -6    3.00    2.60
   7   5   6    5.40    4.20
  -2   6   6    0.80    2.00
  -2   6   6    3.30    2.50
  -2   6   6   -0.30    2.60
  -1   6   6    2.70    2.40
   0   6   6  139.59   16.30
   1   6   6    7.40    3.50
  -2  -6  -6  148.69   16.20
   2   6   6  161.28   14.40
  -3  -6  -6    1.90    1.20
  -3  -6  -6    8.70    3.60
   3   6   6    0.90    1.80
   3   6   6    2.60    1.90
  -4  -6  -6   60.59   10.50
  -4  -6  -6   52.49    9.40
   4   6   6   70.09   12.00
   4   6   6   42.20    7.70
  -5  -6  -6   23.50    6.90
  -5  -6  -6   14.40    5.00
   5   6   6   18.30    5.50
   5   6   6   20.40    7.00
  -6  -6  -6    2.30    2.00
  -6  -6  -6    5.20    3.00
  -6  -6  -6    3.20    3.10
   6   6   6    0.10    1.40
   6   6   6    2.30    2.40
  -1   7   6    1.30    2.20
   0   7   6   41.00    8.20
   1   7   6    4.40    2.70
   2   7   6   35.60    7.10
  -3  -7  -6   17.60    4.80
   3   7   6   21.80    5.90
  -4  -7  -6  213.28   16.70
  -4  -7  -6  201.58   17.90
   4   7   6  253.67   19.50
   4   7   6  196.68   16.50
  -5  -7  -6    1.60    1.90
  -5  -7  -6    2.60    2.70
   5   7   6   -0.20    1.30
   5   7   6    0.70    1.90
  -6  -7  -6   54.09   10.80
  -6  -7  -6   50.19   11.20
   6   7   6   61.29   11.90
   1   8   6   20.00    4.80
   2   8   6   16.10    4.70
   3   8   6    4.30    2.60
  -4  -8  -6    2.10    2.10
  -4  -8  -6    5.20    3.40
  -4  -8  -6    5.00    2.50
   4   8   6    3.10    2.30
  -4  -4   7    2.70    3.30
  -4  -4   7   -1.30    1.70
  -4  -4   7    4.20    4.10
  -3  -4   7    1.00    1.90
  -3  -4   7    3.60    3.70
  -3  -4   7    0.40    1.60
  -2  -4   7    1.00    2.30
  -2  -4   7    1.70    2.20
  -2  -4   7    3.10    2.90
  -1  -4   7   -0.70    1.20
  -1  -4   7    0.70    1.90
  -1  -4   7   -0.10    1.10
   0   4  -7    0.80    2.10
   0  -4   7    0.80    2.00
   0  -4   7   -0.50    1.40
   0  -4   7   -0.30    1.20
  -1   4  -7    5.40    3.50
   1  -4   7   17.00    6.20
   1  -4   7   10.00    5.30
   1  -4   7    8.60    5.80
  -5  -3   7    8.50    5.10
  -5  -3   7    1.40    2.30
  -5  -3   7   12.50    6.70
  -4  -3   7    8.20    4.50
  -4  -3   7   18.40    7.50
  -3  -3   7   80.39   13.30
  -3  -3   7   87.09   15.60
  -3  -3   7   84.99   14.10
  -3  -3   7   80.29   13.50
  -2  -3   7    6.40    4.40
  -2  -3   7    5.00    3.20
  -2  -3   7    3.70    3.20
   1   3  -7   19.30    6.00
  -1  -3   7   18.90    6.20
  -1  -3   7    9.80    4.80
  -1  -3   7   19.30    6.30
   0   3  -7   -0.40    1.50
   0  -3   7   -0.60    1.10
   0  -3   7   -0.80    1.00
   0  -3   7   -0.20    1.10
  -1   3  -7    0.00    1.50
   1  -3   7    2.60    2.30
   1  -3   7    2.40    3.40
   1  -3   7   -0.70    1.10
  -2   3  -7    2.40    2.40
   2  -3   7    1.10    1.80
   2  -3   7    8.40    5.00
   2  -3   7   -0.50    1.30
  -3   3  -7    4.60    5.10
   3  -3   7    4.90    3.30
  -5  -2   7   14.30    5.70
  -5  -2   7    5.40    5.60
  -4  -2   7   -0.90    1.30
  -4  -2   7   -0.20    1.30
  -4  -2   7   -0.80    1.20
   3   2  -7    0.30    1.40
  -3  -2   7    2.80    2.90
  -3  -2   7   -0.10    1.30
  -3  -2   7   -1.10    1.20
  -3  -2   7    0.30    1.30
   2   2  -7   13.70    5.40
   2   2  -7   19.10    6.50
  -2  -2   7   22.20    7.00
  -2  -2   7   14.60    5.60
  -2  -2   7   16.40    6.40
   1   2  -7   49.30   11.20
   1   2  -7   73.19   12.90
   1   2  -7   64.39   12.20
  -1  -2   7   58.79   11.10
  -1  -2   7   82.59   14.20
  -1  -2   7   71.59   12.10
   0   2  -7   24.60    7.10
   0   2  -7   24.40    6.80
   0   2  -7   26.10    7.50
   0  -2   7   30.70    8.60
   0  -2   7   27.30    7.30
   0  -2   7   25.50    7.70
  -1   2  -7   57.19   11.00
  -1   2  -7   46.40   10.50
   1  -2   7   86.39   15.30
   1  -2   7   70.49   12.50
   1  -2   7   59.99   10.90
  -2   2  -7   14.30    5.20
   2  -2   7    3.90    3.30
   2  -2   7    1.90    2.40
   2  -2   7    0.50    1.60
  -3   2  -7   21.40    7.50
   3  -2   7   11.20    7.80
   4  -2   7    0.90    1.90
   4  -2   7    0.20    1.60
  -6  -1   7  110.79   26.30
  -6  -1   7   97.79   17.10
  -5  -1   7    3.70    2.90
   4   1  -7  168.98   21.20
  -4  -1   7  186.28   22.60
  -4  -1   7  194.98   23.80
  -4  -1   7  191.08   21.60
   3   1  -7   27.60    9.60
   3   1  -7   25.70    7.40
  -3  -1   7   23.10    8.50
  -3  -1   7   40.40    9.40
  -3  -1   7   28.50    7.60
  -3  -1   7   44.50   10.10
   2   1  -7    7.80    3.80
   2   1  -7   10.00    4.00
  -2  -1   7   15.70    5.90
  -2  -1   7   12.90    5.10
  -2  -1   7   18.00    6.30
   1   1  -7    9.00    4.50
   1   1  -7    4.60    3.80
   1   1  -7   10.40    4.60
  -1  -1   7   11.50    4.90
  -1  -1   7    8.70    4.40
   0   1  -7   14.20    5.40
   0   1  -7   19.40    6.80
   0   1  -7   23.90    7.00
   0  -1   7   36.50    8.40
   0  -1   7   41.70   10.40
   0  -1   7   29.40    7.90
  -1   1  -7   -0.30    1.10
  -1   1  -7    0.00    0.90
  -1   1  -7    0.50    1.40
   1  -1   7    4.90    3.40
   1  -1   7    4.00    2.80
   1  -1   7   15.00    5.70
  -2   1  -7   28.40    8.40
  -2   1  -7    7.90    4.00
   2  -1   7   19.40    6.80
   2  -1   7   22.40    7.30
   2  -1   7   17.50    5.50
  -3   1  -7   26.30    7.60
   3  -1   7   22.40    7.60
   3  -1   7   36.80    9.90
   3  -1   7   34.30    9.10
   4  -1   7    4.20    2.60
   4  -1   7    3.40    3.60
   5  -1   7    1.10    2.30
   5  -1   7    8.00    5.10
  -6   0   7    1.40    2.60
  -6   0   7    3.80    4.00
  -5   0   7   -1.10    1.50
  -5   0   7    0.20    2.60
  -5   0   7    3.30    3.40
   4   0  -7  147.39   19.40
  -4   0   7  209.48   24.20
  -4   0   7  171.98   19.80
  -4   0   7  163.98   20.40
   3   0  -7   14.60    5.20
  -3   0   7   17.10    6.20
  -3   0   7   11.80    4.90
  -3   0   7   19.10    7.30
   2   0  -7  324.67   25.30
   2   0  -7  336.07   25.70
  -2   0   7  349.37   26.50
  -2   0   7  341.57   24.90
   1   0  -7    3.40    2.30
   1   0  -7    6.90    3.80
   1   0  -7   19.10    6.40
  -1   0   7    3.20    2.40
  -1   0   7    5.60    2.90
   0   0  -7  517.45   35.50
   0   0  -7  611.54   37.10
   0   0  -7  491.55   36.40
   0   0   7  529.05   37.30
   0   0   7  570.14   36.10
   0   0   7  511.35   35.30
  -1   0  -7    3.80    3.40
  -1   0  -7   -1.00    1.00
  -1   0  -7   -0.70    0.90
   1   0   7   -1.30    0.90
   1   0   7   -0.30    1.10
   1   0   7   -1.00    0.80
  -2   0  -7    9.30    4.20
  -2   0  -7    1.80    2.10
  -2   0  -7    1.10    1.60
   2   0   7    2.00    2.10
   2   0   7    4.50    3.40
   2   0   7    1.90    2.30
  -3   0  -7    0.90    1.80
  -3   0  -7    3.20    3.00
  -3   0  -7    3.30    3.30
   3   0   7   -0.20    1.10
   3   0   7   -0.10    1.40
   3   0   7    4.40    3.40
  -4   0  -7    6.20    3.80
   4   0   7    7.90    5.10
   4   0   7    3.10    3.30
   5   0   7    7.10    6.00
   5   0   7    5.60    4.70
  -5   1   7   -0.70    1.30
  -5   1   7    3.90    3.50
  -5   1   7    0.10    1.40
  -4   1   7   -0.60    1.30
  -4   1   7    1.50    2.10
  -4   1   7   -0.40    1.10
  -4   1   7    0.60    1.30
   3  -1  -7    5.60    2.90
  -3   1   7    1.30    2.00
  -3   1   7    1.90    1.90
  -3   1   7   10.30    4.70
   2  -1  -7   71.59   11.70
  -2   1   7   44.10    8.10
  -2   1   7   35.70    7.90
  -2   1   7   48.90   10.60
   1  -1  -7   60.79   11.00
   1  -1  -7   42.10    7.80
   1  -1  -7   70.99   11.10
  -1   1   7   54.19    8.80
  -1   1   7   52.89   15.30
  -1   1   7   46.50    8.30
   0  -1  -7  474.45   30.60
   0  -1  -7  481.85   31.00
   0  -1  -7  443.36   32.40
   0   1   7  417.86   29.80
   0   1   7  457.15   32.60
  -1  -1  -7    1.00    1.20
  -1  -1  -7    0.70    1.40
  -1  -1  -7   -0.40    1.00
   1   1   7    0.90    2.00
   1   1   7   -0.50    0.70
  -2  -1  -7  143.59   18.10
  -2  -1  -7  165.38   18.80
   2   1   7  174.08   19.70
   2   1   7  121.69   17.60
   2   1   7  151.88   17.20
  -3  -1  -7    6.00    4.10
  -3  -1  -7    3.60    2.70
  -3  -1  -7    0.20    1.10
   3   1   7    6.50    3.40
   3   1   7    4.60    3.10
   3   1   7   13.20    5.70
  -4  -1  -7   15.00    6.00
  -4  -1  -7    7.50    4.30
   4   1   7    4.60    3.20
   4   1   7    4.50    3.70
   5   1   7    1.40    2.00
   5   1   7   -0.10    1.10
   6   1   7    2.10    2.60
   6   1   7   -0.80    1.70
  -5   2   7    4.40    3.80
  -5   2   7    2.00    2.60
  -5   2   7    1.70    3.00
  -4   2   7    6.30    3.90
  -4   2   7    5.20    3.20
  -4   2   7    5.90    3.80
  -4   2   7   14.30    6.20
   3  -2  -7    1.20    2.00
  -3   2   7   -0.20    1.10
  -3   2   7   -0.70    0.90
   2  -2  -7   12.90    5.10
  -2   2   7    3.80    2.90
  -2   2   7    2.80    1.80
  -2   2   7    2.50    2.80
  -2   2   7   12.20    4.20
   1  -2  -7   30.20    6.60
   1  -2  -7   24.40    6.90
  -1   2   7   30.80    6.00
  -1   2   7   36.70    6.70
   0  -2  -7    4.20    2.30
   0  -2  -7    3.40    2.80
   0  -2  -7   -0.20    1.00
   0   2   7    0.30    0.80
   0   2   7    3.20    2.30
   0   2   7   -0.80    0.70
  -1  -2  -7   31.40    8.20
  -1  -2  -7   45.00    7.30
  -1  -2  -7   51.09    8.60
   1   2   7   57.19   10.60
   1   2   7   98.89   13.00
   1   2   7   68.49    9.30
  -2  -2  -7    0.20    1.10
  -2  -2  -7    1.20    1.90
  -2  -2  -7    3.10    2.50
   2   2   7    1.50    1.50
   2   2   7    0.00    1.00
  -3  -2  -7    2.20    1.80
  -3  -2  -7   -1.00    0.90
  -3  -2  -7    0.80    1.80
   3   2   7   -0.60    0.70
   3   2   7    4.90    3.30
   3   2   7   -0.40    2.10
  -4  -2  -7   32.30    8.30
  -4  -2  -7   26.80    7.40
   4   2   7   26.50    7.50
   4   2   7   11.60    5.60
  -5  -2  -7    6.10    4.40
  -5  -2  -7    4.80    3.80
   5   2   7    5.60    3.70
   5   2   7    5.10    4.90
   6   2   7    8.50    5.60
   6   2   7   10.60    5.90
  -5   3   7    3.80    2.80
  -5   3   7    3.10    3.70
  -5   3   7    4.80    4.70
  -4   3   7   25.40    6.70
  -4   3   7   23.50    8.00
  -4   3   7   17.70    5.40
  -3   3   7    8.00    4.90
  -3   3   7    1.60    2.50
  -3   3   7    9.70    3.90
  -3   3   7    5.60    3.60
   2  -3  -7    6.80    3.30
  -2   3   7    7.70    3.80
  -2   3   7    8.20    4.40
  -2   3   7   10.30    4.30
  -2   3   7    7.40    3.00
   1  -3  -7   -0.30    0.90
  -1   3   7    2.90    2.70
  -1   3   7    0.60    0.90
  -1   3   7    7.80    3.60
   0  -3  -7   24.20    5.50
   0  -3  -7   31.30    7.60
   0   3   7   22.60    6.30
   0   3   7   38.10    5.90
   0   3   7   19.60    4.90
  -1  -3  -7   11.60    4.00
  -1  -3  -7   16.40    3.80
  -1  -3  -7    8.70    3.70
   1   3   7   13.20    4.30
   1   3   7    9.10    4.20
   1   3   7   18.50    4.10
  -2  -3  -7    0.70    1.10
  -2  -3  -7    7.10    3.80
  -2  -3  -7    1.20    1.50
   2   3   7    4.60    2.90
   2   3   7    4.30    2.40
   2   3   7    5.10    3.10
  -3  -3  -7    5.20    2.90
  -3  -3  -7   15.80    6.00
  -3  -3  -7    8.00    3.10
   3   3   7    6.60    4.00
   3   3   7    8.90    4.30
  -4  -3  -7    3.50    2.80
  -4  -3  -7    1.70    3.30
  -4  -3  -7   13.50    4.80
   4   3   7    3.90    3.20
   4   3   7    4.80    3.90
  -5  -3  -7   -0.90    1.20
  -5  -3  -7   -0.80    1.10
   5   3   7   -0.10    1.10
   5   3   7    0.90    2.10
  -6  -3  -7    3.20    2.80
   6   3   7    4.30    3.50
  -4   4   7    0.20    1.90
  -4   4   7    1.40    1.70
  -3   4   7    5.30    3.30
  -3   4   7    2.70    2.80
  -3   4   7    2.70    2.10
  -3   4   7    0.60    1.60
  -2   4   7    6.10    3.60
  -2   4   7   10.10    3.40
  -2   4   7   15.90    4.80
  -2   4   7    8.90    3.30
   1  -4  -7   39.70    7.10
  -1   4   7   35.10    6.20
  -1   4   7   49.10    7.70
  -1   4   7   35.80    6.70
  -1   4   7   43.00    9.70
   0  -4  -7   20.90    4.90
   0   4   7   17.40    5.80
   0   4   7   15.80    4.10
   0   4   7    7.30    2.20
  -1  -4  -7    2.00    1.50
  -1  -4  -7    1.80    1.70
   1   4   7    0.50    1.70
   1   4   7    1.70    1.50
  -2  -4  -7    1.80    1.60
  -2  -4  -7    3.00    2.80
   2   4   7   -0.70    0.80
   2   4   7   -0.30    0.70
  -3  -4  -7    5.00    3.50
  -3  -4  -7    1.70    1.20
  -3  -4  -7    0.10    0.80
   3   4   7   -0.60    0.80
   3   4   7   -0.30    0.70
  -4  -4  -7   -0.60    1.00
  -4  -4  -7    2.80    2.10
  -4  -4  -7   -0.30    1.00
   4   4   7    1.40    1.70
   4   4   7    0.50    1.40
  -5  -4  -7    2.80    2.50
  -5  -4  -7   -0.30    1.30
   5   4   7   -0.90    1.10
   5   4   7   -0.40    1.10
  -6  -4  -7   -0.90    1.50
  -6  -4  -7    0.30    1.60
   6   4   7    1.10    2.30
  -3   5   7    1.80    1.80
  -3   5   7    0.40    2.00
  -2   5   7    6.50    2.80
  -2   5   7    0.80    2.40
  -2   5   7    0.40    1.30
  -2   5   7    2.30    2.10
  -1   5   7   13.30    3.50
  -1   5   7    8.70    3.00
  -1   5   7    9.20    2.90
  -1   5   7   13.10    4.80
   0  -5  -7   15.40    3.50
   0   5   7   34.00    8.90
   0   5   7   14.00    3.30
  -1  -5  -7   26.70    6.00
  -1  -5  -7   32.20    7.10
   1   5   7   32.70    5.70
   1   5   7   24.50    6.50
  -2  -5  -7    0.60    1.00
  -2  -5  -7    4.10    3.30
   2   5   7   -1.20    0.90
   2   5   7   -0.30    0.70
  -3  -5  -7   -0.50    0.90
  -3  -5  -7    2.20    2.00
   3   5   7    1.20    1.60
   3   5   7    2.50    2.40
  -4  -5  -7    2.60    2.30
  -4  -5  -7   10.50    4.40
   4   5   7    0.50    1.40
   4   5   7    8.80    3.80
  -5  -5  -7    0.80    2.50
  -5  -5  -7    1.20    2.10
  -5  -5  -7    2.10    1.70
   5   5   7    0.50    1.40
   5   5   7    1.20    2.00
  -6  -5  -7   -0.20    1.90
  -6  -5  -7    6.30    3.80
   6   5   7    1.50    2.00
   6   5   7   -0.60    1.40
  -2   6   7    2.90    2.00
  -2   6   7   -1.20    1.70
  -2   6   7    1.80    2.30
  -1   6   7    7.90    4.00
  -1  -6  -7   20.70    6.40
   1   6   7   17.00    5.80
  -2  -6  -7   23.60    4.70
  -2  -6  -7   26.60    6.90
   2   6   7   25.40    6.70
   2   6   7   27.40    5.10
  -3  -6  -7    6.90    4.00
   3   6   7    5.50    2.90
   3   6   7    1.30    2.20
  -4  -6  -7    3.50    2.50
  -4  -6  -7    1.70    2.20
   4   6   7    8.20    4.40
   4   6   7    4.90    2.70
  -5  -6  -7    0.20    2.10
  -5  -6  -7    0.30    1.80
   5   6   7    4.50    3.40
   5   6   7    2.60    2.80
  -6  -6  -7    6.50    3.90
   6   6   7    0.70    2.10
   6   6   7    0.00    2.10
  -1   7   7    2.50    2.80
   1   7   7    7.20    3.70
  -2  -7  -7    0.70    1.40
   2   7   7    0.80    1.70
  -3  -7  -7    7.30    3.10
  -3  -7  -7    0.30    1.70
   3   7   7    5.70    3.70
  -4  -7  -7    1.80    2.40
  -4  -7  -7    2.70    2.10
   4   7   7    3.80    2.70
   4   7   7    3.60    2.90
  -5  -7  -7    3.30    3.30
  -5  -7  -7    0.90    2.10
   5   7   7    1.30    2.40
   5   7   7    0.10    1.60
  -4  -3   8    5.80    4.50
  -4  -3   8   10.90    6.90
  -3  -3   8   -1.40    1.50
  -3  -3   8    0.00    1.60
  -3  -3   8    5.60    4.50
  -2  -3   8    2.50    2.70
  -2  -3   8    4.00    3.00
  -2  -3   8   16.90    6.60
   1   3  -8   -0.10    1.60
  -1  -3   8   -0.30    1.60
  -1  -3   8    0.40    1.90
  -1  -3   8    3.60    3.60
   0   3  -8    3.40    3.40
   0  -3   8    7.90    4.60
   0  -3   8   11.20    6.10
   0  -3   8    6.40    4.20
  -1   3  -8   -0.50    1.70
   1  -3   8    1.00    2.40
   1  -3   8    0.40    1.70
   1  -3   8   -0.30    1.30
  -4  -2   8   -1.20    1.60
  -4  -2   8    0.70    2.40
  -4  -2   8   -0.10    1.70
  -3  -2   8   -1.30    1.20
  -3  -2   8    1.10    1.90
  -2  -2   8   24.90    8.00
  -2  -2   8   10.80    4.50
  -2  -2   8   12.90    5.70
  -1  -2   8   17.10    6.10
  -1  -2   8   27.90    8.30
  -1  -2   8   24.70    7.80
   0  -2   8   61.69   11.90
   0  -2   8   54.79   12.00
   0  -2   8   70.99   13.90
  -1   2  -8    5.40    3.30
   1  -2   8   15.50    6.30
   1  -2   8   12.70    5.90
   1  -2   8    3.80    3.50
  -2   2  -8    0.10    2.00
   2  -2   8    1.10    1.90
   2  -2   8   -0.40    1.30
   2  -2   8    7.70    5.90
   3  -2   8    1.10    2.30
   3  -2   8    0.20    1.80
   3  -2   8    0.60    1.60
  -5  -1   8    9.20    5.30
  -5  -1   8   -0.80    1.70
  -4  -1   8   31.00    9.00
  -4  -1   8   41.60   10.40
   3   1  -8   10.30    6.10
  -3  -1   8   18.60    6.60
  -3  -1   8   13.70    5.80
  -3  -1   8   46.70   11.00
   2   1  -8    1.70    2.10
   2   1  -8    4.10    3.00
  -2  -1   8    0.40    1.60
  -2  -1   8    0.30    1.60
  -2  -1   8    0.70    1.50
   1   1  -8   10.50    5.10
   1   1  -8    2.20    2.80
   1   1  -8    3.30    2.70
  -1  -1   8    6.90    4.50
  -1  -1   8   10.50    5.10
  -1  -1   8    7.10    4.40
   0   1  -8  174.18   19.90
   0   1  -8  151.08   19.70
   0   1  -8  154.78   19.80
   0  -1   8  147.89   18.80
   0  -1   8  176.98   21.20
   0  -1   8  164.58   20.30
  -1   1  -8   66.19   11.60
  -1   1  -8   53.59   11.40
   1  -1   8   74.29   14.10
   1  -1   8   70.69   14.10
   1  -1   8   67.19   13.00
  -2   1  -8   16.20    6.50
   2  -1   8   20.00    6.90
   2  -1   8   20.70    7.10
   2  -1   8   17.40    6.60
   3  -1   8   33.70    9.80
   3  -1   8   36.90   13.30
   3  -1   8   39.40   14.20
   4  -1   8    6.90    4.90
   4  -1   8   -0.10    1.40
   4  -1   8    1.80    2.40
  -5   0   8    9.00    5.10
  -5   0   8   17.80    6.40
  -5   0   8   18.60    8.10
   4   0  -8  138.09   19.50
  -4   0   8  109.29   20.10
  -4   0   8  116.99   18.40
  -4   0   8  178.28   21.20
   3   0  -8   29.50    9.20
  -3   0   8   18.60    7.20
  -3   0   8   35.20    8.00
  -3   0   8   20.50    7.20
   2   0  -8  358.96   27.70
   2   0  -8  373.56   27.80
  -2   0   8  340.17   26.70
  -2   0   8  348.67   28.20
  -2   0   8  336.97   26.50
   1   0  -8   63.49   12.80
   1   0  -8   47.70   10.50
   1   0  -8   51.79   11.20
  -1   0   8   57.99   11.50
  -1   0   8   52.99   10.50
  -1   0   8   65.89   11.70
   0   0  -8  129.89   17.10
   0   0  -8  127.39   16.80
   0   0  -8  122.29   18.50
   0   0   8  130.09   18.00
   0   0   8  122.49   16.20
   0   0   8  122.59   16.10
  -1   0  -8   35.90    9.00
  -1   0  -8   36.30    8.70
  -1   0  -8   47.70    9.90
   1   0   8   44.40    9.80
   1   0   8   52.19   10.20
   1   0   8   44.70   10.30
  -2   0  -8   21.40    6.70
  -2   0  -8   43.60   11.20
  -2   0  -8   14.90    5.90
   2   0   8   37.80    9.70
   2   0   8   29.20    7.80
   2   0   8   38.40   10.10
  -3   0  -8   10.30    5.40
  -3   0  -8   13.60    6.50
   3   0   8    9.90    4.90
   3   0   8   12.50    6.00
   3   0   8   11.10    5.10
   4   0   8   17.30    7.10
   5   0   8   11.60    6.30
   5   0   8   13.00    6.50
  -5   1   8    2.50    2.90
  -5   1   8    0.10    1.60
  -5   1   8    3.10    3.00
   4  -1  -8    2.80    3.00
  -4   1   8    6.80    3.70
  -4   1   8    6.70    3.50
   3  -1  -8   39.00    9.50
  -3   1   8   81.89   14.70
  -3   1   8   70.39   12.70
   2  -1  -8  330.17   25.10
  -2   1   8  335.87   24.50
  -2   1   8  287.87   25.30
  -2   1   8  287.57   23.50
   1  -1  -8   20.20    6.80
   1  -1  -8   24.10    6.50
   1  -1  -8   67.29   12.30
  -1   1   8   22.40    6.50
  -1   1   8   23.20    7.00
  -1   1   8   38.00    8.80
   0  -1  -8 3895.61  203.78
   0  -1  -8 3757.72  204.38
   0  -1  -8 3643.74  206.48
   0   1   8 3666.73  203.08
   0   1   8 3728.73  203.88
   0   1   8 3622.64  206.48
  -1  -1  -8   45.40    9.90
  -1  -1  -8   58.49   11.90
  -1  -1  -8   31.30    7.40
   1   1   8   15.30    6.80
   1   1   8   25.00    7.00
   1   1   8   32.70    7.70
  -2  -1  -8  168.98   25.50
  -2  -1  -8  162.78   18.70
  -2  -1  -8  141.29   16.90
   2   1   8  168.88   21.30
   2   1   8  204.18   23.90
   2   1   8  172.48   21.80
  -3  -1  -8   28.60    7.80
  -3  -1  -8   45.70   10.40
  -3  -1  -8   49.30    9.90
   3   1   8   49.40   10.20
   3   1   8   29.80    8.00
   3   1   8   45.00   11.40
  -4  -1  -8    0.30    1.40
   4   1   8    3.20    2.50
   4   1   8   -0.80    1.30
   5   1   8    7.10    4.50
  -4   2   8   51.19   13.20
  -4   2   8   17.70    6.00
  -4   2   8   25.10    6.70
   3  -2  -8    0.30    1.80
  -3   2   8    4.50    2.90
  -3   2   8    1.90    2.40
  -3   2   8    4.60    3.90
  -3   2   8    3.30    3.00
   2  -2  -8   25.20    7.00
  -2   2   8   27.80    6.60
  -2   2   8   25.50    6.20
  -2   2   8   54.59   11.30
   1  -2  -8   46.60    8.70
   1  -2  -8   72.19   10.70
   1  -2  -8   50.99   11.20
  -1   2   8   33.10    6.90
  -1   2   8   74.69   11.50
  -1   2   8   53.09   11.00
   0  -2  -8  791.92   47.60
   0  -2  -8  803.62   49.00
   0  -2  -8  741.93   51.09
   0   2   8  781.52   48.70
   0   2   8  777.72   51.29
   0   2   8  767.62   47.40
  -1  -2  -8    5.90    2.80
  -1  -2  -8    5.60    3.50
  -1  -2  -8    6.60    3.80
   1   2   8   14.30    6.10
   1   2   8    2.10    2.50
   1   2   8   10.70    4.30
  -2  -2  -8  603.14   42.20
  -2  -2  -8  582.44   40.00
   2   2   8  592.54   38.80
   2   2   8  691.73   43.80
   2   2   8  565.64   39.90
  -3  -2  -8    5.90    3.40
  -3  -2  -8    2.60    2.30
   3   2   8    5.60    4.70
   3   2   8   11.90    5.10
   3   2   8   10.90    5.50
  -4  -2  -8  222.78   19.70
   4   2   8  266.97   28.50
   4   2   8  221.38   27.90
  -5  -2  -8    5.30    4.10
   5   2   8    6.10    3.90
   6   2   8    4.30    3.50
  -4   3   8    3.60    3.70
  -4   3   8   11.30    5.30
  -4   3   8    1.30    2.10
  -3   3   8   78.49   14.40
  -3   3   8   64.69   11.40
  -3   3   8   95.69   13.80
  -3   3   8   76.69   12.30
   2  -3  -8   78.29   12.00
  -2   3   8   37.50    9.30
  -2   3   8   35.30    7.50
  -2   3   8   41.40    8.40
  -2   3   8   48.10    9.10
   1  -3  -8   11.10    4.00
  -1   3   8    6.10    4.00
  -1   3   8   12.30    3.70
   0  -3  -8  108.99   14.30
   0  -3  -8  127.79   10.70
   0  -3  -8  102.29   15.40
   0   3   8  121.29   16.50
   0   3   8  117.69   12.90
   0   3   8   90.89   12.40
  -1  -3  -8    8.10    3.80
  -1  -3  -8   11.10    4.80
  -1  -3  -8    7.40    2.80
   1   3   8    8.20    3.20
   1   3   8    5.50    3.20
   1   3   8    8.20    3.90
  -2  -3  -8   29.70    8.10
  -2  -3  -8   28.10    7.10
  -2  -3  -8   20.00    4.80
   2   3   8   21.80    5.80
   2   3   8   39.70    7.40
   2   3   8   25.90    7.70
  -3  -3  -8    8.20    4.00
  -3  -3  -8    1.80    2.60
  -3  -3  -8    0.30    1.10
   3   3   8    1.70    1.60
   3   3   8    7.90    4.40
  -4  -3  -8  116.39   15.80
  -4  -3  -8  113.69   14.80
   4   3   8  165.68   20.60
   4   3   8   93.29   16.50
  -5  -3  -8    1.50    2.20
  -5  -3  -8    1.20    2.40
   5   3   8   -1.30    1.60
   5   3   8    3.70    3.70
   6   3   8   51.99   12.60
   6   3   8   68.29   13.20
  -3   4   8    5.40    3.70
  -3   4   8    7.30    3.00
  -3   4   8    9.30    5.40
  -3   4   8    9.10    4.50
   2  -4  -8   21.40    6.20
  -2   4   8   10.70    5.10
  -2   4   8    7.80    3.10
  -2   4   8   12.60    4.80
  -2   4   8   13.50    4.80
   1  -4  -8   66.29   10.10
  -1   4   8   37.30    7.30
  -1   4   8   79.09   13.50
  -1   4   8   67.09    8.80
  -1   4   8   55.19   12.60
   0  -4  -8  182.38   22.60
   0   4   8  216.88   20.50
   0   4   8  250.67   16.30
  -1  -4  -8   14.30    5.60
  -1  -4  -8    7.00    3.80
   1   4   8    0.00    1.20
   1   4   8    3.60    2.20
   1   4   8    2.80    1.70
  -2  -4  -8    6.60    3.20
  -2  -4  -8    7.10    4.50
  -2  -4  -8    4.20    1.90
   2   4   8    7.80    4.40
   2   4   8    5.10    2.10
  -3  -4  -8    4.30    2.90
  -3  -4  -8    0.70    1.20
   3   4   8    0.00    1.20
   3   4   8   -0.70    0.80
  -4  -4  -8    1.00    1.60
  -4  -4  -8   -0.20    1.20
   4   4   8    1.20    1.60
   4   4   8   -0.60    1.20
  -5  -4  -8    9.30    4.80
  -5  -4  -8    5.30    3.40
   5   4   8    3.20    3.40
   5   4   8    2.70    2.70
  -6  -4  -8    8.40    4.40
   6   4   8   -1.50    1.60
   6   4   8    5.30    4.20
  -3   5   8   -0.10    1.40
  -3   5   8    3.60    2.50
  -3   5   8    7.10    3.80
  -2   5   8    0.70    1.40
  -2   5   8   -0.30    1.00
  -2   5   8    5.60    4.20
   1  -5  -8    3.30    2.50
  -1   5   8    2.00    1.50
  -1   5   8    2.30    1.50
  -1   5   8    5.90    3.60
  -1   5   8    5.90    2.80
   0   5   8   66.19    9.10
   0   5   8  104.39   15.20
  -1  -5  -8    1.60    2.20
  -1  -5  -8    1.80    1.60
   1   5   8    4.60    3.10
   1   5   8   -0.50    1.00
  -2  -5  -8   34.40    6.70
  -2  -5  -8   35.00    8.40
   2   5   8   65.49   14.70
   2   5   8   26.00    7.40
  -3  -5  -8   -0.20    1.10
  -3  -5  -8   -0.80    1.40
   3   5   8    4.10    3.40
   3   5   8    4.40    3.40
  -4  -5  -8    1.90    2.40
  -4  -5  -8    2.30    1.60
  -4  -5  -8   -0.70    1.40
   4   5   8    2.70    2.10
   4   5   8    3.80    2.70
  -5  -5  -8    1.90    2.40
  -5  -5  -8    8.40    4.10
   5   5   8    9.00    5.90
   5   5   8    1.70    1.90
  -6  -5  -8   -1.00    1.90
  -6  -5  -8    0.70    1.80
   6   5   8    0.00    1.80
   6   5   8    1.30    2.70
  -1   6   8   12.70    5.50
   0   6   8    3.10    2.90
  -1  -6  -8    4.40    2.20
  -1  -6  -8    0.40    1.60
   1   6   8    8.10    3.00
   1   6   8    3.90    3.20
  -2  -6  -8   16.40    5.50
  -2  -6  -8    6.20    2.80
   2   6   8    3.10    2.60
   2   6   8   14.90    4.00
  -3  -6  -8    4.70    3.90
  -3  -6  -8    6.70    3.70
   3   6   8    6.00    3.80
   3   6   8    9.20    4.20
  -4  -6  -8    8.50    4.40
  -4  -6  -8   33.30    8.00
   4   6   8   35.60    9.60
   4   6   8   25.50    8.20
  -5  -6  -8    2.80    2.70
   5   6   8   -1.20    1.40
   5   6   8    2.10    3.00
   0   7   8    1.60    2.70
   1   7   8   18.00    6.10
  -2  -7  -8    1.20    1.50
   2   7   8    3.90    3.30
  -3  -7  -8    2.90    2.70
   3   7   8   -0.10    2.00
   3   7   8    0.40    1.30
  -4  -7  -8   -0.40    1.60
  -4  -7  -8    4.30    3.20
   4   7   8    4.60    3.90
   4   7   8    0.20    1.40
  -3  -2   9   -0.90    1.60
  -3  -2   9    8.10    5.10
  -2  -2   9   -0.20    1.40
  -2  -2   9    0.60    1.70
  -2  -2   9    0.00    1.70
  -1  -2   9    7.10    4.80
  -1  -2   9    8.50    5.40
  -1  -2   9    9.70    4.40
   0  -2   9   -0.60    1.30
   0  -2   9    8.10    4.20
   0  -2   9    2.30    3.20
   1  -2   9    4.20    4.10
   1  -2   9    2.70    2.70
   1  -2   9    3.60    4.10
  -4  -1   9    6.80    4.50
  -4  -1   9    7.40    5.30
  -4  -1   9   -0.60    1.70
  -3  -1   9   -0.60    1.30
  -3  -1   9   -0.10    1.50
  -3  -1   9    6.20    5.20
  -2  -1   9    6.40    4.20
  -2  -1   9    2.20    2.90
  -2  -1   9    6.20    4.50
   1   1  -9    7.00    5.00
  -1  -1   9    0.20    2.10
  -1  -1   9    1.10    2.80
  -1  -1   9    2.70    2.10
   0   1  -9    3.50    3.80
   0  -1   9    1.90    3.00
   0  -1   9    0.10    1.30
   0  -1   9    0.20    1.50
   1  -1   9    9.00    5.10
   1  -1   9   14.70    7.20
   1  -1   9    1.60    3.20
   2  -1   9    0.00    1.60
   2  -1   9    8.50    5.60
   2  -1   9   -0.30    1.40
   3  -1   9    5.50    3.80
   3  -1   9    1.00    2.40
   3  -1   9    1.60    2.80
  -4   0   9   11.00    5.80
  -4   0   9    6.60    4.70
  -4   0   9    0.50    2.00
  -3   0   9   -0.50    1.10
  -3   0   9    1.50    3.10
  -3   0   9   -0.50    2.10
   2   0  -9   10.20    5.30
  -2   0   9    2.20    1.90
  -2   0   9    0.60    1.80
  -2   0   9   10.10    5.20
   1   0  -9   -0.40    1.40
   1   0  -9    2.50    2.80
   1   0  -9    4.90    3.60
  -1   0   9    1.30    2.10
  -1   0   9    1.70    2.10
  -1   0   9   -0.40    1.10
   0   0  -9   37.90   10.00
   0   0  -9   44.10   10.20
   0   0  -9   35.70    9.30
   0   0   9   16.60    5.90
   0   0   9   40.70    9.80
   0   0   9   35.40    9.60
  -1   0  -9    3.10    3.30
  -1   0  -9    1.30    1.90
  -1   0  -9   13.20    6.90
   1   0   9    7.00    4.40
   1   0   9   -1.00    1.20
   1   0   9    3.30    3.10
   2   0   9   -0.30    1.30
   2   0   9    3.50    3.10
   2   0   9    0.60    2.10
   3   0   9    3.10    3.10
   4   0   9    4.60    4.40
   4   0   9   13.70    7.20
   4   0   9    6.10    5.20
   4  -1  -9   -0.40    1.90
  -4   1   9    0.10    1.70
  -4   1   9   -0.10    1.90
   3  -1  -9    0.00    1.60
  -3   1   9   -0.80    1.20
  -3   1   9   -0.10    1.70
  -3   1   9    0.50    1.30
   2  -1  -9    0.70    1.90
   2  -1  -9   -0.30    1.40
  -2   1   9    0.40    1.60
  -2   1   9    1.10    1.70
  -2   1   9   -0.80    1.40
   1  -1  -9   17.60    6.00
   1  -1  -9   20.20    7.60
  -1   1   9   23.70    6.40
  -1   1   9   19.20    6.50
  -1   1   9   27.60    8.50
   0  -1  -9   41.10    8.90
   0  -1  -9   72.19   12.40
   0  -1  -9   16.60    6.90
   0   1   9   36.10    8.20
   0   1   9   40.70    9.80
   0   1   9   60.49   11.20
  -1  -1  -9    0.90    1.70
  -1  -1  -9    1.10    2.20
  -1  -1  -9    4.60    3.50
   1   1   9    2.10    2.90
   1   1   9    1.50    2.40
   1   1   9    0.00    1.30
  -2  -1  -9   17.90    6.30
  -2  -1  -9   16.70    6.00
  -2  -1  -9   11.40    5.10
   2   1   9   17.60    6.30
   2   1   9   16.70    6.10
   2   1   9   16.30    6.50
  -3  -1  -9   16.10    6.30
   3   1   9    4.70    3.40
   3   1   9   15.20    7.10
   3   1   9    7.90    4.40
   4   1   9    6.80    5.50
  -4   2   9    0.10    1.50
  -4   2   9   -0.40    1.40
  -4   2   9   -0.30    1.70
   3  -2  -9    7.20    4.90
  -3   2   9    1.90    3.00
  -3   2   9    5.10    3.40
   2  -2  -9    4.90    3.50
  -2   2   9   11.10    4.70
  -2   2   9    7.30    4.50
  -2   2   9    5.90    3.30
   1  -2  -9    1.50    2.50
   1  -2  -9    1.00    2.30
  -1   2   9   -0.90    1.00
  -1   2   9    2.90    2.60
  -1   2   9    5.50    3.80
   0  -2  -9   57.89   10.90
   0  -2  -9   67.89   12.10
   0   2   9   48.80    9.60
   0   2   9   49.50    9.10
   0   2   9   39.80   10.10
  -1  -2  -9   53.19    9.90
  -1  -2  -9   98.49   14.90
   1   2   9   46.10   11.10
   1   2   9   80.69   12.40
   1   2   9   54.79   10.30
  -2  -2  -9  110.79   14.50
  -2  -2  -9  155.18   18.10
   2   2   9  211.38   22.90
   2   2   9  163.48   22.30
  -3  -2  -9    3.40    2.80
   3   2   9    4.00    3.70
   3   2   9    5.60    3.30
   3   2   9    7.80    4.40
  -4  -2  -9   43.10    9.90
   4   2   9   68.89   14.00
   5   2   9   17.50    7.40
   3  -3  -9    1.70    2.10
  -3   3   9    6.20    4.90
  -3   3   9   11.10    4.90
  -3   3   9    8.20    3.70
   2  -3  -9    8.60    5.00
  -2   3   9    7.80    4.60
  -2   3   9    2.40    2.40
  -2   3   9    2.30    2.00
   1  -3  -9   27.00    8.20
  -1   3   9   22.30    5.60
  -1   3   9   22.30    7.30
  -1   3   9   32.30    7.80
   0  -3  -9  210.58   19.10
   0  -3  -9  258.77   18.40
   0  -3  -9  205.08   24.20
   0   3   9  222.18   17.70
   0   3   9  249.88   22.40
   0   3   9  223.88   19.70
  -1  -3  -9    3.90    3.10
  -1  -3  -9   11.50    3.90
  -1  -3  -9   14.50    5.50
   1   3   9    7.20    4.20
   1   3   9   11.10    4.20
   1   3   9   10.80    5.20
  -2  -3  -9   11.10    3.90
  -2  -3  -9    9.40    4.20
   2   3   9    7.30    4.30
   2   3   9    9.40    4.10
   2   3   9    5.10    3.80
  -3  -3  -9   49.10    8.80
  -3  -3  -9   50.19   10.60
   3   3   9   75.29   14.70
   3   3   9  101.39   13.40
   3   3   9   70.49   12.20
  -4  -3  -9  213.68   18.60
   4   3   9  234.98   27.40
  -5  -3  -9    5.90    3.70
   5   3   9   -0.90    1.60
   5   3   9    5.70    3.60
  -3   4   9   -0.40    1.30
  -3   4   9    2.40    3.50
  -3   4   9    1.00    1.60
   2  -4  -9    8.40    3.90
  -2   4   9    0.90    1.80
  -2   4   9    0.00    1.60
  -2   4   9    2.10    2.80
   1  -4  -9   43.70    9.60
  -1   4   9   72.69   13.60
  -1   4   9   46.10    7.30
  -1   4   9   58.99    9.60
   0  -4  -9   21.20    5.80
   0   4   9   12.60    5.60
   0   4   9    8.00    3.40
   0   4   9   13.00    6.00
  -1  -4  -9  101.29   17.10
  -1  -4  -9  123.49   15.80
   1   4   9   90.49   15.60
   1   4   9  113.29   15.10
  -2  -4  -9   95.09   14.30
  -2  -4  -9   82.29   15.50
  -2  -4  -9   77.79    9.80
   2   4   9  126.09   16.10
   2   4   9  109.09   16.70
  -3  -4  -9    0.90    1.90
  -3  -4  -9    1.90    3.30
   3   4   9    0.50    1.50
   3   4   9   13.80    6.30
  -4  -4  -9    2.00    3.00
  -4  -4  -9    0.10    1.40
   4   4   9    4.40    4.20
   4   4   9    7.60    5.40
  -5  -4  -9   21.70    6.20
  -5  -4  -9   16.10    6.50
   5   4   9   19.90    7.70
   5   4   9   22.90    7.50
  -2   5   9   -0.20    1.30
  -2   5   9    3.60    3.10
  -2   5   9    2.00    2.50
   1  -5  -9    1.40    1.60
  -1   5   9    0.90    1.80
  -1   5   9    1.50    2.20
  -1   5   9    0.80    1.30
  -1   5   9    0.20    1.10
   0  -5  -9   19.00    5.00
   0   5   9   32.70    9.20
   0   5   9   26.90    5.80
  -1  -5  -9   89.39   12.40
  -1  -5  -9  121.99   18.10
   1   5   9   95.99   15.70
   1   5   9  110.99   14.10
  -2  -5  -9    0.10    1.60
  -2  -5  -9    5.60    4.20
   2   5   9   10.90    6.10
   2   5   9    0.10    1.30
  -3  -5  -9   64.29   13.20
   3   5   9   99.89   16.80
   3   5   9   87.99   13.70
  -4  -5  -9   40.00    8.90
  -4  -5  -9   30.00    5.70
   4   5   9   85.99   16.00
   4   5   9   45.60   10.30
  -5  -5  -9    0.30    1.80
  -5  -5  -9    2.90    2.30
   5   5   9    4.40    4.10
   5   5   9   -0.80    1.60
  -1   6   9    2.30    2.60
   0  -6  -9    0.00    1.00
   0   6   9    0.70    1.20
   0   6   9    7.60    4.90
   0   6   9   -0.10    1.00
  -1  -6  -9   -0.40    1.00
   1   6   9    0.20    1.70
   1   6   9    1.70    1.80
  -2  -6  -9   -0.30    1.20
   2   6   9   -0.30    1.60
   2   6   9    0.50    1.30
  -3  -6  -9   47.50    9.50
   3   6   9   40.50    9.00
   3   6   9   42.70   10.70
  -4  -6  -9    6.10    3.60
   4   6   9    2.20    3.00
   4   6   9   11.60    4.50
  -2  -7  -9    0.40    1.10
   2   7   9    1.70    2.50
  -2  -1  10   -0.80    1.80
  -2  -1  10   -0.40    1.40
  -2  -1  10    0.10    2.00
  -1  -1  10    2.40    3.30
  -1  -1  10   -0.40    1.40
  -1  -1  10    3.10    2.60
   0  -1  10    8.10    5.20
   0  -1  10    6.20    4.40
   0  -1  10    7.80    4.80
   1  -1  10   -0.90    1.40
   1  -1  10   -0.20    1.80
   1  -1  10    0.30    1.80
  -3   0  10    9.70    5.00
  -3   0  10   11.90    6.40
  -2   0  10   -0.90    1.40
  -2   0  10    1.90    3.10
  -1   0  10    6.50    4.00
  -1   0  10    2.20    2.30
   0   0  10    7.60    4.50
   0   0  10    6.30    4.50
   0   0  10    7.40    6.40
   1   0  10   -1.00    1.40
   1   0  10    5.40    5.50
   2   0  10    7.20    6.60
   2   0  10    1.30    2.10
   2   0  10   -0.10    1.60
  -3   1  10    0.00    1.60
  -3   1  10   -0.30    1.50
   2  -1 -10    8.10    5.20
  -2   1  10   14.20    5.20
  -2   1  10   11.20    5.40
   1  -1 -10   14.60    6.60
  -1   1  10   12.90    7.30
  -1   1  10   13.80    5.80
  -1   1  10   22.50    7.20
   0  -1 -10  103.69   15.90
   0  -1 -10  112.99   17.20
   0   1  10  104.39   15.30
   0   1  10  104.59   15.70
   0   1  10  140.29   25.30
  -1  -1 -10    2.20    3.00
   1   1  10    3.80    3.40
   1   1  10    2.00    2.80
   2   1  10    3.90    3.10
   2   1  10    2.00    1.90
   2   1  10    0.00    1.80
   3   1  10    3.80    3.90
   3   1  10    0.00    2.20
  -3   2  10    1.90    3.10
  -3   2  10    0.70    1.80
  -3   2  10    2.60    3.60
   2  -2 -10    0.40    1.80
  -2   2  10    3.50    3.30
  -2   2  10   -0.90    1.20
  -2   2  10    1.70    2.30
   1  -2 -10    9.70    5.10
   1  -2 -10   14.60    5.80
  -1   2  10   16.80    6.00
  -1   2  10    5.70    3.30
   0  -2 -10   55.29   10.50
   0  -2 -10   43.90    9.90
   0   2  10   58.39   11.50
   0   2  10   76.69   15.40
   0   2  10   55.09   10.40
  -1  -2 -10   17.80    6.10
  -1  -2 -10   18.30    6.20
   1   2  10   10.90    6.00
   1   2  10   18.70    6.00
   1   2  10   10.00    4.70
  -2  -2 -10   54.69   11.10
  -2  -2 -10   25.90    6.70
   2   2  10   64.99   18.00
   2   2  10   61.49   12.60
   2   2  10   71.79   12.60
  -3  -2 -10   -1.00    1.50
   3   2  10    2.90    3.30
   3   2  10   -0.70    1.20
   3   2  10    3.70    2.80
   4   2  10    3.50    3.90
   2  -3 -10    0.00    1.70
  -2   3  10   -1.30    1.30
  -2   3  10    1.70    2.90
  -2   3  10    4.50    4.10
   1  -3 -10   -0.50    1.50
  -1   3  10    1.80    2.20
  -1   3  10    2.70    3.20
   0  -3 -10   34.10    8.70
   0  -3 -10   23.80    6.80
   0   3  10   22.00    8.20
   0   3  10   30.20    7.00
   0   3  10   26.20    7.40
  -1  -3 -10   14.10    4.90
  -1  -3 -10   32.00    8.70
   1   3  10   37.70   10.50
   1   3  10   27.00    7.80
   1   3  10   22.90    6.40
  -2  -3 -10    0.40    1.60
  -2  -3 -10    4.30    3.00
   2   3  10    1.80    2.30
   2   3  10    5.20    3.70
  -3  -3 -10   -0.20    1.50
  -3  -3 -10    2.40    3.00
   3   3  10   -1.50    1.30
   3   3  10    0.00    1.30
   3   3  10    2.70    4.10
  -4  -3 -10    9.80    6.50
   4   3  10   14.20    6.40
   2  -4 -10    2.50    2.50
  -2   4  10    0.10    1.60
  -2   4  10    1.70    2.70
  -2   4  10    6.00    4.00
   1  -4 -10   24.40    7.20
  -1   4  10   18.70    7.00
  -1   4  10   16.10    4.50
  -1   4  10   37.10    8.60
   0  -4 -10    4.30    3.00
   0   4  10    2.00    2.00
   0   4  10    0.30    1.60
  -1  -4 -10    0.80    1.50
  -1  -4 -10    3.50    3.10
   1   4  10    6.90    5.10
   1   4  10   -0.10    1.10
   1   4  10    0.60    1.50
  -2  -4 -10    3.00    2.80
  -2  -4 -10    0.20    1.30
   2   4  10    0.10    1.40
   2   4  10   -1.00    1.30
  -3  -4 -10    3.50    2.90
  -3  -4 -10    6.50    4.10
   3   4  10   13.40    6.10
   3   4  10   11.30    6.00
  -4  -4 -10    1.00    2.40
  -4  -4 -10    4.40    3.00
   4   4  10    3.60    4.40
   4   4  10   -0.30    1.60
   1  -5 -10    1.90    2.40
  -1   5  10    0.70    1.60
  -1   5  10    0.40    1.30
  -1   5  10   -1.50    1.70
   0  -5 -10    4.10    2.90
   0   5  10    7.80    4.00
  -1  -5 -10    3.10    2.80
   1   5  10   11.30    6.70
  -2  -5 -10    2.70    2.90
   2   5  10   -0.30    1.30
  -3  -5 -10   -0.50    1.60
   3   5  10    1.20    2.10
   3   5  10    4.60    5.10
  -4  -5 -10    2.90    2.90
   4   5  10    2.30    3.30
   4   5  10   18.00    7.10
   1   6  10   15.30    4.20
  -2  -6 -10    1.30    1.90
   2   6  10   -0.40    2.10
   2   6  10    1.80    2.10
  -3  -6 -10    0.00    1.80
   3   6  10    2.70    2.50
   3   6  10    6.60    5.10
  -1   1  11    1.20    2.50
   0   1  11   64.99   12.80
   0   1  11   91.49   16.70
   0   1  11   63.59   13.80
   1   1  11    3.00    3.00
   1  -2 -11   42.80   14.50
  -1   2  11   25.50   11.10
  -1   2  11   37.90    9.00
  -1   2  11   17.20    6.90
   0   2  11    0.60    1.90
   0   2  11    7.40    4.80
   0   2  11    5.60    5.00
   1   2  11   -0.90    1.50
   1   2  11    4.20    3.40
   1   2  11    1.80    3.60
   2   2  11   -0.80    1.80
   2   2  11    2.30    3.50
   2   2  11    1.50    2.40
   1  -3 -11    9.70    5.90
  -1   3  11    5.00    3.30
  -1   3  11    7.10    3.90
   0  -3 -11   15.10    5.30
   0  -3 -11   11.80    5.30
   0   3  11   21.80    8.00
   0   3  11   29.40    8.50
   0   3  11   12.40    4.70
  -1  -3 -11    7.10    7.70
   1   3  11   25.80    9.10
   1   3  11   16.50    5.70
   1   3  11    3.80    3.10
  -2  -3 -11    3.80    3.10
  -2  -3 -11   12.90    7.00
   2   3  11   -0.60    1.60
   2   3  11    9.40    5.60
   2   3  11    7.20    4.10
   0  -4 -11    0.20    2.00
   0   4  11    2.70    2.60
   0   4  11   -0.30    1.80
   0   4  11    0.80    2.10
  -1  -4 -11    0.00    1.60
  -1  -4 -11    0.50    2.50
   1   4  11   -0.10    1.70
   1   4  11   -0.30    1.70
   1   4  11    4.60    3.50
  -2  -4 -11    1.20    2.10
  -2  -4 -11   -1.10    1.70
   2   4  11    3.00    2.50
   2   4  11    3.00    3.00
   2   4  11    0.40    2.10
   0   0   0    0.00    0.00

_computing_structure_solution     'SHELXT 2014/5 (Sheldrick, 2014)'
;
_shelx_hkl_checksum              82200
loop_
_space_group_symop_operation_xyz
'x, y, z'
'-x, -y, -z'
loop_
_atom_site_label
_atom_site_type_symbol
_atom_site_fract_x
_atom_site_fract_y
_atom_site_fract_z
_atom_site_U_iso_or_equiv
_atom_site_adp_type
_atom_site_occupancy
_atom_site_site_symmetry_order
_atom_site_calc_flag
_atom_site_refinement_flags_posn
_atom_site_refinement_flags_adp
_atom_site_refinement_flags_occupancy
_atom_site_disorder_assembly
_atom_site_disorder_group
O1 O 0.1448(6) 0.7230(6) 0.6587(4) 0.0536(14) Uani 1 1 d . . . . .
C3 C 0.3020(9) 0.2883(8) 0.7245(6) 0.0476(16) Uani 1 1 d . . . . .
C6 C 0.2038(9) 0.7009(9) 0.2845(6) 0.0475(16) Uani 1 1 d . . . . .
O2 O 0.1114(8) 0.6980(7) 0.8932(4) 0.0764(18) Uani 1 1 d . . . . .
C8 C 0.1956(8) 0.6355(8) 0.5455(5) 0.0418(15) Uani 1 1 d . . . . .
C4 C 0.3135(10) 0.3481(9) 0.4496(6) 0.0524(17) Uani 1 1 d . . . . .
H4 H 0.364491 0.205096 0.463086 0.063 Uiso 1 1 calc R U . . .
C2 C 0.2491(10) 0.3810(9) 0.8316(6) 0.0541(17) Uani 1 1 d . . . . .
H2 H 0.267610 0.296698 0.929074 0.065 Uiso 1 1 calc R U . . .
C9 C 0.2728(9) 0.4197(8) 0.5738(6) 0.0444(16) Uani 1 1 d . . . . .
C7 C 0.1608(9) 0.7733(8) 0.4069(6) 0.0481(16) Uani 1 1 d . . . . .
H7 H 0.108117 0.916023 0.394157 0.058 Uiso 1 1 calc R U . . .
C5 C 0.2807(10) 0.4817(9) 0.3100(6) 0.0546(18) Uani 1 1 d . . . . .
H5 H 0.308989 0.428589 0.230349 0.066 Uiso 1 1 calc R U . . .
N1 N 0.1718(9) 0.8353(9) 0.1450(5) 0.0667(18) Uani 1 1 d . . . . .
H1A H 0.124076 0.967827 0.131302 0.080 Uiso 1 1 calc R U . . .
H1B H 0.199277 0.787631 0.070748 0.080 Uiso 1 1 calc R U . . .
C1 C 0.1661(11) 0.6016(10) 0.8033(6) 0.0560(18) Uani 1 1 d . . . . .
C10 C 0.3877(12) 0.0559(9) 0.7605(7) 0.066(2) Uani 1 1 d . . . . .
H10A H 0.385321 -0.006338 0.865065 0.099 Uiso 1 1 calc R U . . .
H10B H 0.526570 0.016028 0.727773 0.099 Uiso 1 1 calc R U . . .
H10C H 0.306349 0.008825 0.711841 0.099 Uiso 1 1 calc R U . . .
loop_
_atom_site_aniso_label
_atom_site_aniso_U_11
_atom_site_aniso_U_22
_atom_site_aniso_U_33
_atom_site_aniso_U_23
_atom_site_aniso_U_13
_atom_site_aniso_U_12
O1 0.081(3) 0.044(2) 0.037(2) -0.0197(18) 0.0043(19) -0.017(2)
C3 0.060(4) 0.043(3) 0.042(3) -0.013(2) 0.000(2) -0.020(3)
C6 0.050(4) 0.053(3) 0.041(3) -0.019(2) 0.001(2) -0.015(3)
O2 0.127(5) 0.064(3) 0.046(3) -0.031(2) 0.012(2) -0.030(3)
C8 0.052(4) 0.041(3) 0.036(3) -0.021(2) 0.001(2) -0.012(2)
C4 0.068(4) 0.046(3) 0.046(3) -0.024(3) 0.003(3) -0.014(3)
C2 0.072(4) 0.049(4) 0.040(3) -0.009(3) 0.000(3) -0.023(3)
C9 0.050(4) 0.040(3) 0.043(3) -0.015(2) 0.001(2) -0.012(2)
C7 0.060(4) 0.041(3) 0.041(3) -0.014(2) 0.000(3) -0.012(3)
C5 0.066(4) 0.061(4) 0.044(3) -0.029(3) 0.001(3) -0.017(3)
N1 0.096(5) 0.068(4) 0.036(3) -0.020(2) -0.001(2) -0.024(3)
C1 0.079(5) 0.058(4) 0.039(3) -0.021(3) 0.004(3) -0.028(3)
C10 0.095(6) 0.045(4) 0.053(4) -0.011(3) -0.002(3) -0.019(3)
loop_
_atom_type_symbol
_atom_type_description
_atom_type_scat_dispersion_real
_atom_type_scat_dispersion_imag
_atom_type_scat_source
C C 0.0033 0.0016 'International Tables Vol C Tables 4.2.6.8 and 6.1.1.4'
H H 0.0000 0.0000 'International Tables Vol C Tables 4.2.6.8 and 6.1.1.4'
N N 0.0061 0.0033 'International Tables Vol C Tables 4.2.6.8 and 6.1.1.4'
O O 0.0106 0.0060 'International Tables Vol C Tables 4.2.6.8 and 6.1.1.4'
loop_
_geom_angle_atom_site_label_1
_geom_angle_atom_site_label_2
_geom_angle_atom_site_label_3
_geom_angle
_geom_angle_site_symmetry_1
_geom_angle_site_symmetry_3
_geom_angle_publ_flag
C1 O1 C8 121.5(4) . . ?
C2 C3 C9 118.0(5) . . ?
C2 C3 C10 121.1(5) . . ?
C9 C3 C10 120.9(5) . . ?
N1 C6 C7 121.3(5) . . ?
N1 C6 C5 121.0(5) . . ?
C7 C6 C5 117.6(5) . . ?
C7 C8 O1 115.6(5) . . ?
C7 C8 C9 123.4(5) . . ?
O1 C8 C9 121.0(5) . . ?
C5 C4 C9 122.0(5) . . ?
C5 C4 H4 119.0 . . ?
C9 C4 H4 119.0 . . ?
C3 C2 C1 123.4(5) . . ?
C3 C2 H2 118.3 . . ?
C1 C2 H2 118.3 . . ?
C8 C9 C4 116.0(5) . . ?
C8 C9 C3 118.9(5) . . ?
C4 C9 C3 125.2(5) . . ?
C8 C7 C6 120.2(5) . . ?
C8 C7 H7 119.9 . . ?
C6 C7 H7 119.9 . . ?
C4 C5 C6 120.8(5) . . ?
C4 C5 H5 119.6 . . ?
C6 C5 H5 119.6 . . ?
C6 N1 H1A 120.0 . . ?
C6 N1 H1B 120.0 . . ?
H1A N1 H1B 120.0 . . ?
O2 C1 O1 115.1(5) . . ?
O2 C1 C2 127.6(6) . . ?
O1 C1 C2 117.3(5) . . ?
C3 C10 H10A 109.5 . . ?
C3 C10 H10B 109.5 . . ?
H10A C10 H10B 109.5 . . ?
C3 C10 H10C 109.5 . . ?
H10A C10 H10C 109.5 . . ?
H10B C10 H10C 109.5 . . ?
loop_
_geom_bond_atom_site_label_1
_geom_bond_atom_site_label_2
_geom_bond_distance
_geom_bond_site_symmetry_2
_geom_bond_publ_flag
O1 C1 1.372(7) . ?
O1 C8 1.375(6) . ?
C3 C2 1.347(8) . ?
C3 C9 1.440(7) . ?
C3 C10 1.495(8) . ?
C6 N1 1.362(7) . ?
C6 C7 1.391(8) . ?
C6 C5 1.419(8) . ?
O2 C1 1.221(7) . ?
C8 C7 1.365(7) . ?
C8 C9 1.392(8) . ?
C4 C5 1.361(8) . ?
C4 C9 1.405(8) . ?
C4 H4 0.9300 . ?
C2 C1 1.426(9) . ?
C2 H2 0.9300 . ?
C7 H7 0.9300 . ?
C5 H5 0.9300 . ?
N1 H1A 0.8600 . ?
N1 H1B 0.8600 . ?
C10 H10A 0.9600 . ?
C10 H10B 0.9600 . ?
C10 H10C 0.9600 . ?
