#------------------------------------------------------------------------------
#$Date: 2021-06-05 21:06:51 +0300 (Sat, 05 Jun 2021) $
#$Revision: 265938 $
#$URL: file:///home/coder/svn-repositories/cod/cif/7/24/25/7242585.cif $
#------------------------------------------------------------------------------
#
# This file is available in the Crystallography Open Database (COD),
# http://www.crystallography.net/
#
# All data on this site have been placed in the public domain by the
# contributors.
#
data_7242585
loop_
_publ_author_name
'Huang, Xing'
'Zhao, Zhiying'
'Zhang, Mengsi'
'He, Zhangzhen'
_publ_section_title
;
 Crystal-to-crystal transformation of a new selenite compound
 CaNi2(SeO3)3&#x00B7;2H2O induced by dehydration
;
_journal_issue                   17
_journal_name_full               CrystEngComm
_journal_page_first              3126
_journal_page_last               3132
_journal_paper_doi               10.1039/D1CE00190F
_journal_volume                  23
_journal_year                    2021
_chemical_formula_moiety         '0.25(Ca4 Ni8 O36 Se12)'
_chemical_formula_sum            'Ca Ni2 O9 Se3'
_chemical_formula_weight         538.38
_chemical_name_systematic        CaNi2(SeO3)3
_space_group_crystal_system      orthorhombic
_space_group_IT_number           63
_space_group_name_Hall           '-C 2c 2'
_space_group_name_H-M_alt        'C m c m'
_atom_sites_solution_primary     dual
_audit_creation_date             2020-07-17
_audit_creation_method
;
Olex2 1.2
(compiled 2018.05.29 svn.r3508 for OlexSys, GUI svn.r5506)
;
_audit_update_record
;
2021-01-17 deposited with the CCDC.	2021-03-11 downloaded from the CCDC.
;
_cell_angle_alpha                90
_cell_angle_beta                 90
_cell_angle_gamma                90
_cell_formula_units_Z            4
_cell_length_a                   7.3759(3)
_cell_length_b                   10.9715(5)
_cell_length_c                   10.2189(3)
_cell_measurement_reflns_used    3405
_cell_measurement_temperature    297(2)
_cell_measurement_theta_max      32.9380
_cell_measurement_theta_min      3.2750
_cell_volume                     826.96(6)
_computing_cell_refinement       'CrysAlisPro 1.171.39.46c (Rigaku OD, 2018)'
_computing_data_collection       'CrysAlisPro 1.171.39.46c (Rigaku OD, 2018)'
_computing_data_reduction        'CrysAlisPro 1.171.39.46c (Rigaku OD, 2018)'
_computing_molecular_graphics    'Olex2 (Dolomanov et al., 2009)'
_computing_publication_material  'Olex2 (Dolomanov et al., 2009)'
_computing_structure_refinement  'ShelXL (Sheldrick, 2015)'
_computing_structure_solution    'ShelXT (Sheldrick, 2015)'
_diffrn_ambient_temperature      297
_diffrn_detector                 'CCD plate'
_diffrn_measured_fraction_theta_full 1.000
_diffrn_measured_fraction_theta_max 0.955
_diffrn_measurement_details
;
List of Runs (angles in degrees, time in seconds):

  # Type    Start    End  Width  t~exp~   \w     \q     \k     \f   Frames
#--------------------------------------------------------------------------
  1  \w   -118.00  62.00   0.50    5.00    --  -28.00  45.00 180.00  360
  2  \w   -118.00  22.00   0.50    5.00    --  -28.00  45.00  90.00  280
  3  \w   -118.00 -38.00   0.50    5.00    --  -28.00  45.00   0.00  160
;
_diffrn_measurement_device       'abstract diffractometer'
_diffrn_measurement_device_type
'dtrek-CrysAlisPro-abstract goniometer imported rigaku-d*trek images'
_diffrn_measurement_method       '\w scans'
_diffrn_orient_matrix_type
'CrysAlisPro convention (1999,Acta A55,543-557)'
_diffrn_orient_matrix_UB_11      -0.0778513000
_diffrn_orient_matrix_UB_12      0.0052965000
_diffrn_orient_matrix_UB_13      0.0402877000
_diffrn_orient_matrix_UB_21      -0.0563328000
_diffrn_orient_matrix_UB_22      -0.0017990000
_diffrn_orient_matrix_UB_23      -0.0562528000
_diffrn_orient_matrix_UB_31      -0.0049731000
_diffrn_orient_matrix_UB_32      -0.0644173000
_diffrn_orient_matrix_UB_33      0.0047946000
_diffrn_radiation_monochromator  graphite
_diffrn_radiation_probe          x-ray
_diffrn_radiation_type           MoK\a
_diffrn_radiation_wavelength     0.71073
_diffrn_reflns_av_R_equivalents  0.0398
_diffrn_reflns_av_unetI/netI     0.0236
_diffrn_reflns_Laue_measured_fraction_full 1.000
_diffrn_reflns_Laue_measured_fraction_max 0.955
_diffrn_reflns_limit_h_max       11
_diffrn_reflns_limit_h_min       -11
_diffrn_reflns_limit_k_max       16
_diffrn_reflns_limit_k_min       -15
_diffrn_reflns_limit_l_max       15
_diffrn_reflns_limit_l_min       -15
_diffrn_reflns_number            4259
_diffrn_reflns_point_group_measured_fraction_full 1.000
_diffrn_reflns_point_group_measured_fraction_max 0.955
_diffrn_reflns_theta_full        25.242
_diffrn_reflns_theta_max         33.207
_diffrn_reflns_theta_min         3.328
_diffrn_source                   'fine-focus sealed X-ray tube'
_diffrn_source_type              'Enhance (Mo) X-ray Source'
_exptl_absorpt_coefficient_mu    18.406
_exptl_absorpt_correction_T_max  1.00000
_exptl_absorpt_correction_T_min  0.58348
_exptl_absorpt_correction_type   multi-scan
_exptl_absorpt_process_details
;
CrysAlisPro 1.171.39.46c (Rigaku Oxford Diffraction, 2018)
Empirical absorption correction using spherical harmonics,
 implemented in SCALE3 ABSPACK scaling algorithm.
;
_exptl_crystal_colour            green
_exptl_crystal_colour_primary    green
_exptl_crystal_density_diffrn    4.324
_exptl_crystal_description       block
_exptl_crystal_F_000             1000
_exptl_crystal_preparation       'Magnetic properties'
_refine_diff_density_max         1.277
_refine_diff_density_min         -0.836
_refine_diff_density_rms         0.204
_refine_ls_extinction_coef       0.0014(2)
_refine_ls_extinction_expression Fc^*^=kFc[1+0.001xFc^2^\l^3^/sin(2\q)]^-1/4^
_refine_ls_extinction_method     'SHELXL-2016/6 (Sheldrick 2016)'
_refine_ls_goodness_of_fit_ref   1.147
_refine_ls_hydrogen_treatment    undef
_refine_ls_matrix_type           full
_refine_ls_number_parameters     49
_refine_ls_number_reflns         845
_refine_ls_number_restraints     0
_refine_ls_restrained_S_all      1.147
_refine_ls_R_factor_all          0.0287
_refine_ls_R_factor_gt           0.0261
_refine_ls_shift/su_max          0.000
_refine_ls_shift/su_mean         0.000
_refine_ls_structure_factor_coef Fsqd
_refine_ls_weighting_details
'w=1/[\s^2^(Fo^2^)+(0.0329P)^2^+3.9566P] where P=(Fo^2^+2Fc^2^)/3'
_refine_ls_weighting_scheme      calc
_refine_ls_wR_factor_gt          0.0687
_refine_ls_wR_factor_ref         0.0697
_reflns_Friedel_coverage         0.000
_reflns_number_gt                792
_reflns_number_total             845
_reflns_threshold_expression     'I > 2\s(I)'
_cod_data_source_file            d1ce00190f2.cif
_cod_data_source_block           cani2(seo3)3
_cod_depositor_comments
'Adding full bibliography for 7242583--7242585.cif.'
_cod_database_code               7242585
_shelx_shelxl_version_number     2016/6
_shelx_space_group_comment
;
The symmetry employed for this shelxl refinement is uniquely defined
by the following loop, which should always be used as a source of
symmetry information in preference to the above space-group names.
They are only intended as comments.
;
_reflns_odcompleteness_completeness 95.36
_reflns_odcompleteness_iscentric 1
_reflns_odcompleteness_theta     33.13
_olex2_refinement_description
;
1. Others
 Fixed Sof: Se2(0.25)
;
_shelx_res_file
;
TITL cani2(seo3)3_a.res in Cmcm
    cani2(seo3)3.res
    created by SHELXL-2016/6 at 10:43:19 on 17-Jul-2020
REM Old TITL CaNi2(SeO3)3 in Cmcm
REM SHELXT solution in Cmcm
REM R1 0.040, Rweak 0.006, Alpha 0.018, Orientation as input
REM Formula found by SHELXT: Ca3 Ni2 Se2 O9
CELL 0.71073 7.3759 10.9715 10.2189 90 90 90
ZERR 4 0.0003 0.0005 0.0003 0 0 0
LATT 7
SYMM -X,-Y,0.5+Z
SYMM -X,+Y,0.5-Z
SYMM +X,-Y,-Z
SFAC Ca Ni O Se
UNIT 4 8 36 12

L.S. 4 0 0
PLAN  20
TEMP 23.85
CONN 6 1.25 Ni1
list 4
fmap 2 53
acta
REM <olex2.extras>
REM <HklSrc "%.\\CaNi2(SeO3)3.hkl">
REM </olex2.extras>

WGHT    0.032900    3.956600
EXTI    0.001408
FVAR       0.24288
SE1   4    0.500000    0.236949    0.529968    10.50000    0.01013    0.01112 =
         0.00660   -0.00014    0.00000    0.00000
NI1   2    0.190864    0.254184    0.750000    10.50000    0.00690    0.00656 =
         0.00849    0.00000    0.00000   -0.00014
SE2   4    0.500000    0.486170    0.817319    10.25000    0.00946    0.00551 =
         0.01062    0.00044    0.00000    0.00000
CA1   1    0.500000   -0.019308    0.250000    10.25000    0.01357    0.00666 =
         0.01627    0.00000    0.00000    0.00000
O1    3    0.500000    0.164685    0.380241    10.50000    0.01170    0.00929 =
         0.00746   -0.00155    0.00000    0.00000
O2    3    0.328111    0.163375    0.607351    11.00000    0.01169    0.01348 =
         0.01216    0.00000    0.00371   -0.00053
O3    3    0.318049    0.418522    0.750000    10.50000    0.01286    0.00880 =
         0.02518    0.00000    0.00000   -0.00431
O4    3    0.500000    0.620839    0.750000    10.25000    0.01003    0.00535 =
         0.04560    0.00000    0.00000    0.00000
HKLF 4




REM  cani2(seo3)3_a.res in Cmcm
REM R1 =  0.0261 for     792 Fo > 4sig(Fo)  and  0.0287 for all     845 data
REM     49 parameters refined using      0 restraints

END

WGHT      0.0329      3.9565

REM Highest difference peak  1.277,  deepest hole -0.836,  1-sigma level  0.204
Q1    1   0.3915  0.2390  0.5355  11.00000  0.05    1.28
Q2    1   0.5000  0.2398  0.4393  10.50000  0.05    1.23
Q3    1   0.3024  0.2480  0.7500  10.50000  0.05    1.10
Q4    1   0.0922  0.2583  0.7500  10.50000  0.05    1.08
Q5    1   0.4140  0.2807  0.4799  11.00000  0.05    0.87
Q6    1   0.5000  0.2392  0.6229  10.50000  0.05    0.85
Q7    1   0.3962  0.5210  0.7500  10.50000  0.05    0.81
Q8    1   0.4058  0.4391  0.7500  10.50000  0.05    0.70
Q9    1   0.5941  0.1849  0.4777  11.00000  0.05    0.63
Q10   1   0.5993  0.4851  0.8255  11.00000  0.05    0.62
Q11   1   0.5000  0.4767  0.7500  10.25000  0.05    0.62
Q12   1   0.1867  0.2455  0.8397  11.00000  0.05    0.61
Q13   1   0.4006 -0.0195  0.2500  10.50000  0.05    0.60
Q14   1   0.2533  0.2254  0.6468  11.00000  0.05    0.59
Q15   1   0.2649  0.3425  0.7819  11.00000  0.05    0.56
Q16   1   0.3862  0.1230  0.4247  11.00000  0.05    0.54
Q17   1   0.4145  0.1981  0.6206  11.00000  0.05    0.54
Q18   1   0.4175  0.1649  0.5646  11.00000  0.05    0.54
Q19   1   0.3900  0.2803  0.7500  10.50000  0.05    0.53
Q20   1   0.5609 -0.1188  0.2500  10.50000  0.05    0.48
;
_shelx_res_checksum              30747
_shelx_hkl_file
;
   0   0  -1    0.06    0.18
   0   0  -1    0.02    0.11
   0   0   1   -0.09    0.14
   0   0   1   -0.08    0.17
   0   0  -2 2044.13   14.84
   0   0   2 1998.61   14.80
   0   0   2 2066.56   14.71
   0   0  -2 2001.29   14.93
   0   0  -3    1.70    0.81
   0   0   3    1.36    0.67
   0   0   4 5018.17   34.14
   0   0  -4 5206.89   34.09
   0   0   5    1.03    0.92
   0   0  -5    2.29    1.07
   0   0  -5   -0.23    1.07
   0   0   6  934.86   18.31
   0   0  -6  923.33   18.02
   0   0  -7    0.01    1.72
   0   0   7    1.41    1.06
   0   0  -7    0.62    1.28
   0   0   8 1538.09   27.53
   0   0  -8 1599.17   27.90
   0   0  -9    0.04    1.55
   0   0   9    4.02    2.26
   0   0  -9    4.59    2.98
   0   0 -10  797.87   22.84
   0   0 -10  839.60   28.22
   0   0  10  815.76   23.65
   0   0  11    0.86    1.97
   0   0 -11    8.02    4.19
   0   0 -11    2.65    2.45
   0   0  12   78.29    8.24
   0   0 -12   60.18    8.79
   0   0 -12   87.80    8.84
   0   0 -13    7.99    4.47
   0   0 -13   -1.18    3.34
   0   0  14 2783.40   53.07
   0   0 -14 2193.65   55.82
   0   0 -15    0.41    5.13
   0  -2   0 5247.62   19.99
   0  -2   0 5814.66   21.45
   0   2   0 5505.21   22.03
   0   2   0 5456.48   20.97
   0   2   0 5767.96   21.49
   0  -2   0 5675.51   20.85
   0   2  -1    2.85    0.41
   0  -2  -1    1.33    0.38
   0  -2   1    2.88    0.68
   0  -2  -1    1.51    0.53
   0   2   1    1.07    0.40
   0   2  -1    3.23    0.43
   0  -2  -2 2314.33   16.13
   0  -2  -2 2301.10   20.85
   0   2  -2 2358.11   11.62
   0  -2   2 2348.31   19.97
   0  -2   2 2288.83   11.65
   0  -2  -3  399.89    9.98
   0  -2   3  419.68    9.85
   0   2  -3  420.46    6.44
   0  -2  -3  403.15    8.60
   0  -2   4 2275.82   26.11
   0  -2  -4 2251.06   26.47
   0   2   4 2347.16   20.47
   0   2  -4 2429.54   19.13
   0  -2  -4 2363.22   25.16
   0  -2  -5   47.54    4.16
   0  -2  -5   46.44    4.21
   0   2   5   42.03    3.24
   0   2  -5   52.27    3.41
   0  -2   5   49.40    4.27
   0  -2  -6  582.50   15.79
   0   2  -6  617.94   13.07
   0   2   6  604.11   13.49
   0  -2   6  581.77   15.86
   0  -2  -6  604.31   16.06
   0  -2   7    0.26    1.02
   0  -2  -7    1.84    1.49
   0  -2  -7    0.39    1.50
   0   2   7    0.56    1.11
   0   2  -7    3.81    1.65
   0  -2   8 1703.15   31.18
   0   2   8 1836.94   28.71
   0   2  -8 1812.43   40.96
   0   2  -8 1803.55   27.13
   0  -2  -8 1802.45   32.16
   0   2  -9    8.17    3.84
   0   2  -9    9.46    2.68
   0  -2   9    6.68    2.46
   0  -2  -9    5.76    2.57
   0  -2  -9    6.24    2.53
   0   2   9   14.92    3.04
   0   2 -10  679.09   19.33
   0   2 -10  690.12   27.31
   0   2  10  771.11   21.58
   0  -2 -10  672.09   23.07
   0  -2  10  767.87   23.76
   0  -2 -10  799.60   23.92
   0   2 -11   36.12    8.01
   0  -2 -11   50.15    6.89
   0   2  11   53.69    6.52
   0  -2  11   58.77    7.02
   0  -2 -11   42.00    7.07
   0   2 -11   61.63    6.52
   0  -2  12  104.84    9.88
   0  -2 -12  103.66    9.90
   0   2  12  103.14    9.04
   0  -2 -12   83.25    9.65
   0   2 -12   84.77   11.07
   0  -2 -13   13.88    5.34
   0   2 -13    8.97    6.43
   0  -2  13   11.67    4.38
   0  -2 -13   24.11    5.60
   0   2 -14  415.57   25.55
   0  -2 -14  397.24   22.43
   0  -2 -15   11.99    6.30
   0  -2  15    8.19    5.28
   0   2 -15    9.08    6.48
   0  -4   0 9784.62   39.53
   0  -4   0 9819.31   39.96
   0  -4   1  227.79    6.59
   0  -4  -1  216.91    6.70
   0  -4  -1  213.38    5.38
   0  -4   1  211.21    4.67
   0  -4  -2  321.01    6.45
   0   4  -2  355.14    5.95
   0  -4   2  366.61    9.29
   0  -4  -2  330.21    9.38
   0  -4  -3  252.16    9.37
   0  -4  -3  227.46    6.05
   0   4  -3  294.56    5.34
   0   4  -3  271.79    5.27
   0  -4   3  258.20    8.76
   0  -4  -4 6161.33   48.78
   0  -4   4 6213.40   46.46
   0   4  -5   29.63    2.30
   0  -4   5   22.94    3.16
   0  -4  -5   28.27    3.64
   0   4   6    9.67    1.80
   0  -4  -6    8.97    2.10
   0  -4  -6    6.65    2.13
   0  -4   6   10.95    2.54
   0   4  -6    5.72    1.35
   0   4   7  268.11    9.41
   0  -4  -7  256.14   12.24
   0   4  -7  249.91    8.31
   0  -4   7  239.41   11.44
   0  -4  -7  237.22   10.06
   0  -4  -8  100.70    8.38
   0   4   8  121.11    7.11
   0  -4  -8  102.79    7.36
   0  -4   8   98.60    7.86
   0   4  -8   98.03    5.71
   0  -4  -9    2.88    2.38
   0  -4  -9    1.44    1.86
   0   4  -9   -1.24    1.68
   0   4   9    0.95    1.77
   0  -4   9    3.38    2.13
   0  -4  10  951.11   27.43
   0  -4 -10  988.45   28.46
   0   4  10 1008.64   23.56
   0   4 -10  886.00   35.02
   0  -4 -10  914.06   24.74
   0  -4 -11  160.54   11.03
   0  -4 -11  170.48   12.55
   0  -4  11  145.80   11.37
   0  -4 -12  109.13   10.43
   0  -4  12  123.89   11.11
   0   4 -12   90.31   13.74
   0  -4 -13   48.26    7.84
   0   4 -13   42.62    9.95
   0  -4  13   60.97    8.26
   0  -4 -13   58.28    8.18
   0  -4 -14 1512.58   41.44
   0  -4  14 1388.90   40.11
   0  -4 -15    6.89    4.96
   0  -6   0 1018.14   15.32
   0  -6   0 1052.11   15.40
   0  -6  -1  103.45    4.78
   0  -6  -1  112.58    5.68
   0  -6   1   96.80    5.14
   0  -6   1   87.00    3.87
   0  -6  -2   69.36    4.84
   0   6  -2   78.64    3.69
   0  -6   2   76.31    4.97
   0  -6  -2   73.99    3.86
   0  -6  -3  236.28    9.67
   0  -6   3  236.19    9.04
   0  -6  -3  221.45    6.54
   0   6  -3  217.81    5.75
   0  -6  -4 5905.38   51.95
   0  -6   4 5696.50   48.28
   0  -6  -4 5725.94   35.63
   0   6  -4 5850.14   29.09
   0  -6  -5  293.61    8.67
   0  -6  -5  294.84   12.40
   0   6  -5  321.70    6.93
   0  -6   5  321.99   12.34
   0  -6  -6  365.25   14.76
   0  -6  -6  314.06    9.86
   0   6  -6  377.62    8.31
   0  -6   6  332.16   13.36
   0   6   7   89.10    5.45
   0  -6  -7   82.35    5.52
   0  -6  -7   77.43    7.28
   0  -6   8  719.39   22.12
   0  -6  -8  760.63   17.86
   0  -6  -9  355.76   13.36
   0  -6   9  338.87   16.16
   0  -6  -9  356.46   16.94
   0  -6  10 1304.29   33.09
   0  -6 -10 1251.49   27.05
   0  -6 -11  109.66   10.36
   0  -6  11  107.89   10.01
   0   6 -12    7.68    6.24
   0  -6  12   11.11    4.35
   0  -6 -12    5.95    3.90
   0  -6 -13   11.71    4.96
   0  -6  13    9.92    4.65
   0   6 -13   -2.90    6.16
   0  -6 -14  199.93   15.74
   0  -6  14  173.88   15.04
   0  -8   0 5426.84   41.26
   0  -8   0 6079.93   46.90
   0  -8   1   33.65    3.63
   0  -8  -1   36.66    3.71
   0  -8   1   37.44    3.14
   0  -8  -1   35.12    3.35
   0  -8  -2  325.21   12.11
   0  -8   2  350.03   11.94
   0  -8  -2  323.89    9.37
   0   8  -2  344.75    9.48
   0   8  -3  403.11    9.53
   0  -8   3  407.71   13.42
   0  -8  -3  380.32   13.14
   0  -8  -3  373.04    9.95
   0  -8  -4 2861.71   38.85
   0   8  -4 2817.93   24.05
   0  -8  -4 2816.49   27.60
   0  -8  -5   32.04    3.13
   0  -8   5   37.05    4.66
   0  -8  -5   29.21    4.39
   0  -8   6   30.15    4.56
   0  -8  -6   20.86    2.62
   0  -8  -6   22.04    4.12
   0  -8   7 1667.28   33.27
   0  -8  -7 1727.41   24.80
   0  -8   8  138.66   10.24
   0  -8  -8  154.55   11.47
   0  -8  -9    1.42    2.65
   0  -8   9   10.78    3.54
   0  -8  10  492.55   21.21
   0  -8 -10  558.72   23.35
   0  -8 -11  345.03   19.07
   0  -8  11  347.76   18.89
   0  -8 -12  126.60   12.32
   0  -8  12  118.36   12.13
   0   8 -13   -2.69    6.72
   0  -8  13    0.73    4.30
   0 -10   0 1334.34   22.06
   0 -10  -1    5.27    2.00
   0 -10  -1    8.68    2.37
   0 -10   1    6.11    1.97
   0 -10  -2   73.92    6.19
   0 -10  -2   70.52    5.46
   0 -10   2   74.31    6.20
   0  10  -2   72.69    5.18
   0 -10  -3   42.69    4.12
   0 -10  -3   45.13    5.30
   0  10  -3   41.40    3.77
   0 -10  -4  779.94   22.87
   0 -10   4  691.68   20.51
   0 -10  -5  708.79   22.70
   0 -10   5  728.21   21.94
   0 -10   6  351.71   16.14
   0 -10  -6  375.24   16.94
   0 -10   7   41.00    6.09
   0 -10  -7   52.41    6.80
   0 -10   8  683.08   24.97
   0 -10  -8  784.71   26.13
   0 -10   9  785.81   28.16
   0 -10  -9  750.64   26.89
   0 -10 -10  276.89   17.45
   0 -10  10  296.88   18.26
   0 -10  11   73.10    9.85
   0 -10 -11   72.64    9.38
   0  10 -12    2.42    7.22
   0 -12   0 2656.07   35.36
   0 -12  -1    7.46    2.79
   0  12  -1   13.87    2.91
   0 -12  -2  134.81    8.85
   0 -12  -3  463.71   17.86
   0 -12   3  495.68   18.05
   0 -12   4  491.09   18.84
   0 -12  -4  442.27   18.17
   0 -12   5    8.39    3.41
   0 -12  -5   15.02    3.90
   0 -12   6  171.47   12.55
   0 -12  -6  119.98   10.52
   0 -12  -7 1436.48   36.81
   0 -12   7 1278.24   35.41
   0 -12   8  301.47   17.83
   0 -12  -8  320.19   18.55
   0 -12  -9    3.60    4.07
   0 -12   9    7.09    4.26
   0 -12  10  110.77   12.41
   0 -12 -10  134.75   13.41
   0 -14  -2   22.89    4.42
   0 -14  -4  352.39   17.07
   0 -14   5  249.03   15.20
   0 -14  -5  244.06   15.49
   0 -14   6  199.10   14.46
   0 -14  -6  239.12   16.10
   0 -14  -7   54.52    8.67
   0 -14   7   51.17    7.91
   0 -14   8  285.29   18.37
   0 -14  -8  274.66   18.21
   1   1   0   14.00    1.11
  -1  -1   0   15.71    1.22
  -1   1   0   16.93    0.98
   1  -1   0   16.86    1.05
  -1   1   0   18.43    1.13
   1  -1   0   13.56    0.92
   1   1   0   14.98    1.34
  -1  -1   0   16.12    1.27
  -1   1  -1   39.94    1.29
  -1  -1  -1   30.59    1.99
  -1  -1  -1   29.80    1.78
   1  -1   1   45.27    2.41
   1  -1   1   35.62    2.44
   1  -1   1   37.06    1.21
   1   1  -1   35.08    1.88
  -1  -1   1   37.52    2.17
  -1   1  -1   41.43    2.40
   1  -1  -1   33.71    1.93
  -1  -1  -2  381.07    7.62
   1  -1   2  377.24    4.77
  -1   1  -2  383.93    9.55
  -1  -1  -2  365.61    7.94
   1   1  -2  356.41    6.67
   1   1   2  370.61    5.24
  -1  -1  -2  376.86    5.02
   1  -1   2  380.63    7.72
   1  -1  -3 1901.34   19.91
  -1   1  -3 1969.48   14.14
   1  -1   3 1943.82   19.60
   1   1   3 1888.90   15.45
   1  -1   3 1963.61   14.46
  -1  -1  -3 1936.09   21.65
   1   1  -3 1960.96   18.15
  -1  -1  -4   22.11    2.82
  -1  -1   4   14.62    2.08
   1  -1   4   19.59    2.27
   1   1  -4   18.95    2.17
  -1   1  -4   16.12    1.72
   1  -1  -4   17.34    2.34
  -1  -1  -4   18.87    2.29
   1   1   4   24.91    2.20
  -1   1  -4   22.74    3.31
   1   1  -5  649.66   13.19
   1  -1   5  591.57   13.78
  -1   1  -5  686.29   19.15
  -1  -1  -5  623.35   13.96
   1  -1  -5  677.16   15.25
  -1   1   5  663.13   13.88
   1   1   5  609.36   12.50
  -1   1  -5  584.98   11.82
  -1  -1   5  624.76   14.44
  -1  -1  -5  687.82   17.02
  -1  -1  -6  569.82   14.69
  -1   1   6  590.70   14.49
   1  -1  -6  602.35   17.65
   1  -1  -6  586.71   15.01
  -1  -1  -6  631.71   17.58
  -1   1  -6  569.45   13.11
  -1   1  -6  636.32   20.01
   1   1  -6  645.00   14.65
   1   1   6  524.42   12.79
   1  -1   6  545.10   14.46
  -1  -1   6  578.87   15.25
  -1   1   7 2511.13   32.37
   1   1   7 2263.36   29.75
  -1   1  -7 2521.81   42.24
  -1  -1  -7 2370.07   32.44
   1   1  -7 2601.54   32.48
  -1  -1   7 2491.14   34.39
   1  -1   7 2303.17   32.21
  -1   1  -7 2316.54   29.31
  -1  -1  -7 2603.43   38.85
   1  -1  -7 2544.39   38.29
   1  -1  -7 2525.21   34.21
  -1   1  -8  737.97   24.31
   1  -1   8  580.77   17.69
   1   1  -8  718.43   18.02
  -1   1   8  694.14   18.40
  -1  -1  -8  677.29   18.71
  -1   1  -8  640.63   16.50
   1  -1  -8  704.88   19.21
  -1  -1   8  690.44   19.20
   1   1   8  662.23   17.52
  -1  -1  -8  732.97   22.53
   1  -1  -8  725.24   22.60
   1   1  -9  477.15   16.21
   1   1   9  429.49   15.08
  -1   1   9  456.79   16.20
   1  -1  -9  425.80   16.22
   1   1  -9  330.75   19.40
  -1   1  -9  457.97   14.88
  -1  -1  -9  479.19   19.22
  -1  -1  -9  411.87   15.48
  -1  -1   9  473.59   17.31
   1  -1  -9  384.88   17.04
  -1   1  -9  515.05   21.99
  -1   1 -10   81.38    9.51
  -1   1  10   98.98    8.07
   1   1 -10   96.89    7.87
  -1  -1 -10   95.38    8.07
  -1  -1  10   93.62    8.19
  -1   1 -10   88.08    7.05
   1   1 -10   71.10    8.50
   1   1  10   94.54    7.83
  -1  -1 -10   97.61    9.82
   1  -1 -10   56.66    8.89
   1  -1  10  102.05    8.42
   1  -1 -10  115.88    9.32
   1  -1  11  961.99   27.03
  -1  -1 -11  949.83   30.05
  -1  -1  11  968.97   27.62
  -1   1 -11  856.53   22.75
  -1   1  11 1052.00   28.24
   1   1 -11  990.82   26.54
   1  -1 -11  886.31   29.85
   1   1 -11  850.13   32.64
   1   1  11  957.30   25.86
   1  -1 -11 1060.53   28.73
  -1   1 -11  909.40   31.18
  -1  -1 -11  956.19   26.27
   1   1 -12    9.64    3.47
  -1  -1 -12    6.69    4.38
   1   1 -12    3.56    5.38
  -1  -1  12   12.10    4.25
   1   1  12   10.50    3.41
  -1  -1 -12   16.12    4.37
  -1   1  12   13.18    3.86
  -1   1 -12   16.06    5.15
   1  -1 -12   15.84    5.16
   1  -1  12   10.65    4.15
   1  -1 -12   11.46    3.84
   1  -1  13  154.47   12.24
   1  -1 -13   99.67   11.58
  -1  -1 -13  143.41   11.25
  -1   1 -13  115.62   14.30
  -1  -1  13  141.61   11.89
   1   1 -13  128.28   14.35
  -1  -1 -13  130.88   13.15
   1  -1 -14    4.41    4.48
  -1  -1  14    6.10    4.51
   1  -1 -14    3.33    5.00
  -1  -1 -14   13.85    5.42
  -1   1  14    7.39    3.92
  -1   1 -14    8.89    5.54
   1   1 -14    1.30    4.37
   1   1 -15   37.02   10.57
  -1  -1 -15   73.77   12.54
  -1   1 -15   56.99   10.94
   1  -1 -15   49.83    9.98
   1   3   0 2182.55   16.56
  -1   3   0 2365.91   14.85
  -1  -3   0 2327.41   14.94
   1  -3   0 2265.32   16.69
  -1  -3   0 2260.77   19.65
  -1  -3   0 2273.72   18.70
   1  -3  -1  377.34    8.22
   1  -3   1  362.54    5.09
  -1   3  -1  396.91    5.72
  -1  -3  -1  424.21    4.26
  -1  -3  -1  414.83    8.59
  -1  -3   1  353.68    7.34
  -1  -3  -1  367.91    7.77
   1   3  -1  340.16    6.93
  -1  -3   1  388.94    8.96
   1  -3   1  385.83    8.70
   1   3  -2  176.47    5.15
  -1  -3  -2  229.25    7.49
  -1  -3   2  177.41    6.09
   1  -3  -2  187.31    6.58
   1  -3  -2  201.11    3.08
  -1  -3   2  238.92    8.79
   1  -3   2  215.70    7.11
  -1  -3  -2  185.93    5.86
  -1  -3   3 2151.60   23.54
   1   3  -3 2172.11   18.72
   1  -3  -3 2325.53   26.07
  -1  -3  -3 2126.31   21.55
   1  -3  -3 2199.38   16.02
  -1  -3  -3 2140.88   24.14
   1  -3   3 2272.82   25.12
   1  -3  -4  612.03   14.55
   1   3   4  557.98    8.11
  -1  -3   4  594.03   13.73
   1  -3  -4  624.70   11.10
   1   3  -4  635.03   10.87
   1  -3   4  558.97    5.26
  -1  -3  -4  573.88   12.52
   1  -3   4  608.10   13.94
  -1  -3  -4  594.70   14.25
  -1   3  -4  599.30    5.86
  -1  -3  -5  359.65   11.98
   1  -3  -5  350.19   10.00
  -1   3  -5  490.23   18.33
   1  -3   5  371.58    6.20
  -1  -3   5  405.69   12.44
   1  -3   5  404.88   12.39
  -1  -3  -5  380.18   11.56
   1  -3  -5  363.90   12.15
   1   3   5  340.86    7.95
   1   3  -5  441.52   10.02
  -1   3  -5  416.04    7.42
  -1   3  -6  544.50   10.41
  -1   3  -6  651.25   22.06
   1  -3   6  532.34   15.48
   1   3  -6  651.21   13.77
   1  -3  -6  597.75   16.86
  -1  -3  -6  559.87   16.12
   1  -3  -6  592.31   14.65
   1   3   6  552.30   11.80
  -1  -3   6  619.98   17.14
  -1  -3  -6  586.71   15.78
   1   3  -7 2104.14   26.52
  -1   3  -7 1816.59   21.91
   1  -3  -7 2122.61   33.80
   1  -3  -7 1998.46   29.90
  -1   3   7 2075.93   28.07
  -1   3  -7 2191.60   42.87
   1  -3   7 1877.16   31.26
  -1  -3   7 2007.35   32.85
   1   3   7 1867.48   24.67
  -1  -3  -7 2104.85   32.06
  -1  -3  -7 1744.06   30.18
   1  -3  -8  229.61   10.94
  -1   3  -8  218.10    8.32
   1   3   8  202.93    8.90
   1  -3  -8  206.35   11.44
   1   3  -8  241.38   10.20
  -1   3  -8  180.25   13.71
  -1   3   8  236.10   10.50
  -1  -3  -8  204.73   11.06
  -1  -3  -8  213.08   11.45
   1  -3   8  197.06   10.81
  -1  -3   8  209.04   11.15
  -1   3   9  561.02   17.26
  -1   3  -9  471.66   13.13
   1  -3  -9  490.35   17.57
   1   3   9  495.39   15.10
  -1  -3  -9  497.84   18.24
   1   3  -9  550.64   15.99
  -1  -3   9  519.58   18.75
   1  -3  -9  515.61   19.09
   1  -3   9  454.42   17.34
  -1  -3  -9  537.19   18.89
  -1   3  -9  588.51   24.65
   1  -3 -10  138.34   10.48
   1   3 -10  170.58    9.89
  -1  -3  10  200.75   12.51
   1   3  10  177.16    9.83
  -1  -3 -10  168.59   11.22
   1  -3  10  170.53   11.28
   1  -3 -10  167.32   11.41
  -1   3 -10  173.84   15.44
  -1  -3 -10  199.85   12.46
  -1   3  10  204.03   11.29
  -1   3 -11 1024.93   36.50
  -1  -3 -11 1022.38   29.47
   1   3 -11  889.86   35.76
   1  -3 -11 1094.28   30.58
   1  -3  11 1064.65   29.67
  -1  -3  11 1027.28   29.12
  -1  -3 -11 1090.30   29.92
   1   3 -11 1042.95   25.53
   1  -3 -11  953.12   27.77
  -1   3  11 1063.21   27.19
  -1  -3 -12   59.95    7.62
   1  -3 -12   75.89    8.60
  -1  -3 -12   65.79    8.60
   1  -3 -12   35.35    6.44
   1  -3  12   67.51    8.18
  -1  -3  12   71.73    8.57
   1   3 -12   34.36    9.36
  -1   3  12   51.57    6.70
  -1   3 -12   64.26    9.51
   1  -3  13   21.98    5.44
   1   3 -13    7.92    5.98
   1  -3 -13   10.36    4.84
  -1  -3  13   30.73    6.30
  -1   3 -13   13.84    6.45
  -1  -3 -13   18.40    5.22
  -1  -3 -13   20.24    5.44
   1  -3 -13   15.41    4.95
   1   3 -14   97.32   14.01
  -1   3 -14  131.84   16.16
  -1  -3  14  145.58   13.17
  -1  -3 -14  136.53   13.42
   1  -3 -14  155.05   13.54
   1  -3  14  144.19   13.00
   1  -3 -15  153.20   13.85
  -1  -3 -15  129.83   14.03
   1  -3  15  166.80   15.25
   1  -5   0  554.32   10.53
  -1  -5   0  611.37   12.43
  -1  -5   0  542.12   10.38
  -1  -5   0  611.64    9.53
  -1  -5  -1  225.38    7.24
  -1  -5  -1  263.45    8.35
  -1   5   1  227.91    4.82
   1  -5  -1  244.27    7.83
   1   5  -1  231.79    7.20
  -1  -5   1  262.07    8.78
  -1  -5  -1  254.72    5.51
   1  -5   1  240.64    5.49
  -1  -5   1  288.73    7.71
   1  -5  -1  243.84    7.01
   1  -5   1  257.53    8.56
   1  -5   2  166.86    3.45
  -1   5   2  147.22    3.90
   1   5  -2  165.14    5.65
   1  -5  -2  148.89    3.78
  -1  -5   2  209.71    9.26
  -1   5  -2  153.18    4.33
  -1  -5  -2  160.51    6.04
   1   5   2  146.37    3.68
  -1  -5  -2  169.87    7.27
   1  -5  -2  168.73    7.27
  -1  -5   2  185.18    6.98
   1  -5   2  189.43    7.78
  -1  -5  -3  387.49    9.90
   1  -5   3  473.50   13.09
   1   5  -3  466.63    9.49
   1  -5  -3  405.92    6.29
   1  -5  -3  431.51   12.57
  -1  -5  -3  433.58   12.71
  -1  -5   3  451.64   11.97
  -1  -5   4  574.16   14.88
   1   5  -4  586.52   11.02
   1  -5  -4  568.20    8.86
  -1  -5  -4  567.16   15.10
  -1  -5  -4  567.57   12.57
   1  -5   4  614.23   16.08
   1  -5  -4  574.87   15.63
   1   5  -5  398.30    9.56
   1  -5   5  361.81   12.85
  -1  -5  -5  368.43   10.89
  -1  -5  -5  398.18   13.66
   1  -5  -5  388.96    8.83
   1  -5  -5  406.02   14.05
   1   5   5  353.87    6.15
  -1  -5   5  405.46   13.70
   1  -5  -6  442.91   10.87
  -1  -5  -6  445.18   15.51
   1   5  -6  496.86   11.49
   1  -5   6  430.72   14.76
   1   5   6  391.54    8.16
  -1  -5  -6  454.98   12.98
  -1  -5   6  446.40   15.20
   1  -5  -6  465.96   16.07
  -1  -5   7 1718.51   31.65
   1  -5   7 1607.36   30.45
   1  -5  -7 1713.43   32.56
  -1  -5  -7 1714.70   32.52
  -1  -5  -7 1626.56   26.26
   1  -5  -7 1638.23   23.64
  -1   5  -8  726.88   28.31
  -1  -5   8  669.65   20.85
  -1   5   8  736.49   17.73
  -1  -5  -8  709.52   22.18
   1  -5  -8  698.63   16.83
   1  -5   8  646.23   20.60
   1   5  -8  749.75   16.39
  -1  -5  -8  704.76   19.08
   1  -5  -8  721.05   22.49
  -1  -5  -9  470.80   18.70
   1  -5  -9  461.98   18.91
  -1   5   9  501.60   15.88
  -1  -5   9  450.89   18.31
   1  -5  -9  436.93   14.62
  -1  -5  -9  433.38   15.99
   1   5  -9  476.11   14.43
   1  -5   9  454.26   18.20
  -1   5  -9  453.08   24.15
  -1  -5 -10  218.46   11.92
   1  -5 -10  183.73   10.82
  -1  -5 -10  200.01   12.84
  -1  -5  10  214.57   13.36
  -1   5  10  215.63   11.36
   1  -5  10  211.72   13.10
  -1   5 -10  179.99   17.27
   1  -5 -10  200.48   13.21
  -1  -5 -11  590.77   20.80
  -1  -5 -11  601.44   23.09
   1  -5 -11  604.75   24.03
   1  -5  11  545.31   21.95
  -1  -5  11  565.19   22.47
  -1  -5 -12   33.88    6.29
  -1  -5 -12   13.21    4.03
   1  -5 -12   36.56    7.04
   1   5 -12   14.54    7.09
  -1   5 -12   21.82    8.22
  -1  -5  12   32.60    6.08
   1  -5  12   23.46    5.51
   1  -5 -13  121.67   11.95
  -1   5 -13   94.91   14.22
  -1  -5 -13   90.12    9.78
  -1  -5  13  138.32   12.58
  -1  -5 -13  115.43   11.23
   1  -5  13  125.59   12.22
  -1  -5  14   25.07    6.52
   1  -5  14   24.75    6.80
   1   5 -14    7.34    7.26
  -1  -5 -14   22.84    6.00
  -1   5 -14   21.07    8.36
  -1  -7   0  700.35   12.74
   1  -7   0  631.00   12.40
  -1  -7   0  679.43   15.18
  -1  -7   0  615.32   13.32
   1  -7  -1  617.12   13.86
  -1  -7  -1  635.81   13.97
  -1  -7  -1  618.02   14.16
   1  -7   1  636.25   11.33
   1   7  -1  590.11   13.26
   1  -7   1  619.68   14.81
  -1  -7   1  644.40   16.42
  -1  -7   1  645.18   13.18
   1   7  -2  151.40    6.35
   1  -7   2  159.25    8.03
   1  -7   2  165.08    4.76
   1  -7  -2  155.06    5.47
  -1  -7  -2  157.83    7.01
  -1  -7   2  170.28    9.90
  -1  -7   2  155.55    7.10
   1  -7  -2  159.62    7.87
  -1  -7  -2  165.21    8.20
   1  -7  -3 1614.76   27.12
  -1  -7  -3 1493.45   21.53
  -1  -7  -3 1598.83   26.30
   1  -7   3 1652.69   27.36
   1   7   3 1311.75   13.64
   1  -7  -3 1299.01   14.59
  -1  -7   3 1581.61   24.23
   1   7  -3 1533.99   19.48
  -1  -7  -4  165.10    7.41
  -1  -7  -4  197.77   10.42
   1   7  -4  201.50    7.19
   1  -7  -4  196.27   10.36
   1  -7  -4  189.44    5.43
   1  -7   4  187.62    9.71
  -1  -7   4  177.77    8.88
   1  -7  -5   85.09    4.02
  -1  -7   5  121.51    7.93
   1   7  -5  126.02    5.68
  -1  -7  -5  101.92    6.00
   1  -7  -5   86.00    7.23
  -1  -7  -5  106.99    8.04
   1  -7   5  107.58    7.88
   1  -7  -6  633.78   20.43
  -1  -7  -6  599.85   18.95
   1  -7  -6  580.00   11.51
   1   7  -6  617.47   13.19
   1  -7   6  614.87   19.62
  -1  -7  -6  578.82   14.73
  -1  -7   6  588.68   18.38
  -1  -7   7  915.45   24.57
   1  -7  -7  986.58   26.68
  -1  -7  -7  932.81   24.85
   1  -7  -7  881.84   15.72
   1  -7   7  969.36   26.00
  -1  -7   8  335.53   15.60
  -1  -7  -8  268.94   11.50
   1  -7  -8  343.00   17.03
   1  -7   8  298.81   15.36
  -1  -7  -8  277.31   14.41
  -1  -7  -9  325.76   13.40
   1  -7   9  329.75   16.89
  -1   7  -9  310.95   21.50
  -1  -7   9  313.67   15.91
  -1  -7  -9  345.16   16.77
  -1   7 -10    0.01    3.97
   1  -7  10    1.56    2.63
  -1  -7  10    3.20    3.22
  -1  -7 -10    4.12    2.87
  -1  -7 -10    5.07    3.28
   1  -7 -10    1.10    2.76
   1  -7 -11  730.71   27.42
  -1   7 -11  701.35   34.82
   1  -7  11  733.99   27.98
  -1  -7 -11  787.78   28.00
  -1  -7  11  680.34   25.98
   1  -7  12   15.04    5.50
   1  -7 -12   26.19    6.24
  -1   7 -12   14.37    6.45
  -1  -7  12   36.55    6.58
   1   7 -12   19.84    7.78
  -1  -7 -12   26.51    6.14
   1   7 -13    8.48    7.12
   1  -7  13    8.87    4.09
   1  -7 -13    7.34    5.07
  -1   7 -13   13.23    6.92
  -1  -7 -13    8.23    5.06
  -1  -7  13    3.64    3.77
  -1  -9   0   28.88    3.44
  -1  -9   0   25.96    3.03
  -1  -9   0   32.66    4.15
   1  -9   0   22.93    2.96
   1  -9   1  130.73    5.85
   1  -9  -1  113.56    6.82
  -1  -9  -1  116.51    7.01
  -1  -9   1  124.83    8.23
  -1  -9  -1  101.76    6.61
   1   9  -1  121.53    6.92
  -1  -9   1  126.16    6.79
  -1  -9   2  563.70   15.07
   1  -9  -2  511.44   15.01
   1   9  -2  525.97   13.89
   1  -9   2  549.07   16.41
  -1  -9  -2  511.57   16.14
  -1  -9  -2  572.18   15.21
  -1  -9  -3  189.69   10.12
   1   9  -3  232.98    8.71
  -1  -9   3  227.19   10.40
  -1  -9  -3  192.20    8.65
   1  -9   3  218.63   10.83
  -1   9  -3  211.01    6.26
   1  -9  -3  195.58   10.08
   1   9  -4  726.65   15.21
  -1  -9   4  766.41   19.63
  -1  -9  -4  740.84   16.85
  -1  -9  -4  811.63   21.92
   1  -9  -4  805.62   21.66
   1  -9   4  825.15   22.52
   1  -9  -5   65.39    6.73
  -1  -9   5   55.98    5.77
  -1  -9  -5   49.33    5.79
  -1  -9  -5   58.59    5.02
   1  -9   5   51.17    6.11
   1  -9  -6    9.40    2.95
  -1  -9   6    2.56    1.77
   1  -9   6    6.85    2.99
  -1  -9  -6    5.57    2.18
  -1  -9  -6    4.73    2.59
   1  -9   7 1023.83   28.46
  -1  -9  -7 1157.53   31.71
   1  -9  -7 1075.93   29.27
  -1  -9  -7  935.72   20.84
  -1  -9   7  981.07   26.46
  -1  -9   8   60.41    7.18
   1  -9  -8   96.53    9.24
  -1  -9  -8   86.18    9.39
   1  -9   8   63.52    7.77
   1  -9   9   62.66    8.03
  -1  -9  -9   66.19    8.64
  -1   9  -9   39.05    9.08
   1  -9  -9   53.08    7.45
  -1  -9   9   49.15    6.93
  -1  -9  10  214.12   14.50
  -1  -9 -10  202.73   15.50
  -1   9 -10  160.88   19.32
   1  -9  10  191.60   14.56
   1  -9 -10  195.48   14.54
   1  -9 -11  300.47   18.23
  -1  -9 -11  287.94   18.57
   1  -9  11  253.31   17.56
  -1  -9  11  258.71   16.81
  -1   9 -12   12.72    8.10
  -1  -9  12   17.91    5.49
   1  -9 -12   25.36    6.80
   1  -9  12   26.70    6.98
  -1  -9 -12   21.89    6.67
   1 -11   0  805.98   17.78
   1  11   0  853.05   21.48
   1 -11  -1  463.15   14.63
   1 -11   1  424.02   11.80
   1  11  -1  403.16   14.25
  -1 -11   1  458.11   14.20
  -1 -11  -1  428.91   14.85
   1  11  -2  141.24    8.04
  -1 -11  -2  167.70    9.71
   1 -11  -2  163.01    9.48
  -1 -11   2  171.05    9.30
  -1 -11  -3  550.48   16.00
   1 -11   3  587.11   19.33
  -1 -11   3  601.34   18.83
  -1 -11  -3  559.38   18.47
   1 -11  -4  260.54   13.24
  -1 -11   4  292.80   13.44
  -1 -11  -4  264.93   13.98
   1 -11   4  269.05   14.04
  -1 -11   5   67.88    7.20
   1 -11   5   79.27    8.04
   1 -11  -5   69.19    7.33
  -1 -11  -5   61.40    7.23
  -1 -11   6  204.41   12.86
  -1 -11  -6  191.53   12.78
   1 -11   6  180.17   12.74
   1 -11  -6  201.44   13.06
   1 -11   7  195.56   13.89
  -1 -11  -7  208.48   14.03
  -1 -11   7  179.46   12.60
   1 -11  -7  200.83   13.30
   1 -11   8   45.36    7.47
  -1 -11  -8   33.09    6.48
  -1 -11   8   31.87    6.32
   1 -11  -8   37.57    6.43
   1 -11   9   69.29    9.21
   1 -11  -9   82.11    9.58
  -1 -11  -9   70.04    9.31
  -1 -11   9   62.39    8.82
  -1  11  -9   62.89   13.17
  -1 -11 -10   18.85    5.48
  -1 -11  10   18.00    5.75
  -1  11 -10    7.17    6.68
   1 -11 -10   23.18    6.11
   1 -11  10    2.96    4.27
   1 -11 -11  254.95   17.52
  -1  11 -11  193.75   22.07
  -1 -11 -11  259.28   18.57
  -1 -11  11  265.88   18.37
   1 -11  11  252.63   18.55
   1  13   0  357.89   15.53
   1  13   1  163.27   10.88
   1 -13  -2  397.67   15.93
  -1 -13  -2  354.97   15.84
   1 -13  -3    5.05    2.74
  -1 -13  -3    5.41    2.85
  -1 -13   3    5.40    3.16
  -1 -13   4  162.57   11.31
   1 -13  -4  167.19   11.58
  -1 -13  -4  186.18   12.45
   1 -13   5   19.05    4.69
   1 -13  -5   14.38    4.36
  -1 -13  -5   10.35    3.88
  -1 -13   5   21.80    4.87
  -1 -13  -6    4.05    2.82
  -1 -13   6    1.02    3.24
   1 -13   6    2.24    3.24
   1 -13  -6    1.32    3.00
   1 -13  -7  317.66   18.37
   1 -13   7  307.73   18.31
  -1 -13   7  292.31   17.05
   1 -13   8   78.43    9.88
  -1  13  -8   61.61   12.79
   1 -13  -8   85.16   10.70
  -1 -13  -8   84.77   10.47
  -1 -13   8   82.35    9.72
  -1 -13  -9    3.06    4.45
   1 -13   9    2.66    4.68
  -1  13  -9    8.78    8.63
  -1 -13   9    1.35    3.67
   1 -13  -9   13.00    5.76
  -1 -15  -3  308.39   16.90
  -1 -15  -4  116.36   10.78
   1 -15  -5    6.60    4.31
  -1 -15  -5    6.47    4.41
   1 -15  -6   16.41    5.26
   2   0   0 3251.22   21.00
  -2   0   0 3302.27   21.54
   2   0   1    0.73    0.37
   2   0  -1    1.23    0.66
  -2   0  -1    1.36    0.72
  -2   0   1    0.53    0.50
  -2   0  -2 2502.02   23.97
   2   0  -2 2459.26   21.79
   2   0   2 2474.36   18.23
  -2   0   3    0.17    1.12
   2   0  -3    3.00    1.13
  -2   0  -3    1.91    0.65
  -2   0  -3    2.09    1.19
   2   0   3    2.70    0.90
   2   0  -4  176.00    7.00
  -2   0  -4  195.87    6.35
   2   0   4  197.74    7.05
   2   0  -5    0.27    0.79
  -2   0  -5    1.90    0.89
  -2   0  -5    1.32    1.25
   2   0   5    1.27    0.73
  -2   0  -6 2750.19   39.26
  -2   0  -6 2729.52   29.23
   2   0  -6 2840.92   32.69
  -2   0   7   -0.36    1.19
   2   0  -7    2.12    1.66
   2   0   7    0.44    1.04
  -2   0  -7   -0.18    1.53
  -2   0  -7   -0.30    1.08
   2   0   8  589.42   16.94
  -2   0  -8  611.79   16.26
  -2   0   8  693.35   19.30
  -2   0  -8  701.30   22.76
   2   0  -8  695.74   19.36
   2   0   9    3.36    2.32
  -2   0   9    2.41    2.21
   2   0  -9    1.72    1.32
  -2   0  -9    3.14    1.94
  -2   0  -9   -0.04    2.09
  -2   0 -10   42.16    6.60
  -2   0 -10   30.27    4.70
  -2   0  10   39.75    5.72
   2   0 -10   18.93    5.08
   2   0 -10   38.13    5.63
   2   0  10   29.81    4.57
  -2   0  11    4.70    2.75
   2   0 -11    1.25    3.07
  -2   0 -11   -0.13    2.33
   2   0  11    2.43    2.10
   2   0 -11    5.32    3.07
  -2   0 -11    0.46    2.96
  -2   0 -12  542.50   24.85
   2   0  12  508.04   20.91
   2   0 -12  516.90   21.08
  -2   0  13    2.14    3.58
   2   0 -13    3.73    3.22
   2   0 -13    0.87    4.05
   2   0 -14  294.16   17.48
  -2   0  14  330.87   19.21
   2   0 -15    7.06    6.73
  -2   0 -15    2.40    5.01
  -2   0  15    0.31    4.51
  -2   2   0  333.30    5.84
   2   2   0  325.64    7.58
   2  -2   0  318.06    6.35
   2   2   1    2.67    0.81
   2   2  -1    1.13    0.63
  -2   2   1    3.82    0.60
  -2  -2  -1    3.33    1.07
   2  -2   1    2.69    0.58
  -2  -2   1    1.87    0.74
  -2   2  -1    2.28    0.91
   2  -2  -1    1.85    0.47
   2  -2  -1    2.36    0.78
   2  -2   2 9999.00   27.54
   2  -2  -2 9711.10   45.02
  -2   2  -2 9919.51   28.39
  -2  -2  -2 8817.22   28.23
  -2   2  -2 9434.93   51.22
   2   2  -2 9593.45   44.11
  -2  -2  -2 9683.16   47.91
   2  -2  -2 9117.51   28.59
  -2  -2   2 9663.60   49.72
  -2  -2  -2 9799.79   43.15
  -2  -2  -3  755.34   13.79
  -2   2  -3  744.46   16.75
  -2  -2  -3  621.94   13.26
   2  -2   3  702.81    7.49
   2   2  -3  676.97   12.10
   2  -2   3  705.52    7.21
   2  -2  -3  664.66   13.46
  -2  -2   3  651.34   12.92
   2  -2   3  748.98   14.83
  -2  -2  -3  702.62    8.09
   2   2   4   15.31    1.70
  -2  -2  -4   11.99    2.08
  -2   2  -4   15.15    3.00
   2  -2   4   15.54    2.40
  -2  -2  -4   16.98    2.50
   2   2  -4   12.26    1.92
   2  -2  -4   12.57    2.15
  -2  -2   4   13.39    2.17
  -2   2  -5  622.19   18.53
  -2  -2   5  455.42   13.30
  -2  -2  -5  524.37   13.56
  -2  -2  -5  567.25   15.32
  -2   2  -5  636.50    9.38
   2  -2  -5  567.37   14.89
   2   2   5  542.97   10.62
   2  -2   5  542.13   14.49
   2   2  -5  592.37   13.25
  -2  -2   6 1123.44   22.25
   2   2   6 1099.68   17.30
  -2   2  -6 1231.61   15.46
   2  -2   6 1045.08   21.82
  -2  -2  -6 1074.40   21.79
  -2  -2  -6 1102.16   23.31
   2  -2  -6 1087.15   22.27
   2   2  -6 1158.94   19.84
  -2   2  -6 1238.72   28.19
   2   2  -7   30.57    3.82
   2  -2   7   18.33    3.31
   2  -2  -7   24.83    3.68
  -2  -2   7   26.35    3.80
   2   2   7   19.93    2.65
  -2  -2  -7   27.00    4.17
  -2   2  -7   21.87    2.47
  -2  -2  -7   18.99    3.19
  -2   2  -7   22.83    4.24
   2  -2  -7   24.19    3.96
   2   2   8   38.55    4.00
  -2  -2   8   36.01    4.74
   2  -2  -8   46.63    5.40
   2  -2  -8   29.55    4.96
  -2  -2  -8   43.04    5.61
  -2   2  -8   39.59    5.83
  -2   2  -8   45.24    3.85
  -2  -2  -8   34.33    4.47
   2  -2   8   32.95    4.55
   2   2  -8   43.26    4.62
  -2   2   8   46.30    4.99
   2   2  -9  141.39    8.94
   2  -2   9  110.06    8.57
   2  -2  -9  120.78    9.96
  -2   2  -9  147.41   12.28
  -2  -2   9  140.96    9.64
  -2  -2  -9  126.48    8.90
  -2   2  -9  131.29    6.94
  -2  -2  -9  156.09   10.92
  -2   2   9  168.29   10.08
   2   2   9  134.97    8.00
   2  -2  -9  139.95    9.71
   2  -2  10   12.93    3.56
   2   2  10   23.20    3.97
  -2   2 -10   26.16    5.89
   2   2 -10   27.06    4.42
  -2   2  10   18.36    3.72
   2  -2 -10   29.53    5.09
  -2  -2 -10   19.62    4.06
  -2  -2 -10   26.73    5.12
   2  -2 -10   15.10    4.55
  -2  -2  10   28.10    4.92
   2  -2 -11   44.83    6.66
   2  -2 -11   26.69    5.67
  -2  -2  11   32.95    5.86
   2   2 -11   36.05    5.42
   2  -2  11   28.56    5.15
  -2  -2 -11   37.79    5.86
  -2   2 -11   25.19    6.22
  -2   2  11   38.45    5.71
  -2  -2 -11   41.38    6.82
  -2   2 -12 1297.01   41.93
  -2   2  12 1372.02   33.50
  -2  -2 -12 1428.85   38.76
   2  -2 -12  956.65   32.36
   2   2 -12 1384.09   32.61
  -2  -2 -12 1351.54   34.44
   2  -2 -12 1408.51   35.83
   2   2 -12 1050.11   38.58
   2  -2  12 1361.37   36.05
  -2  -2  12 1366.56   34.89
   2  -2 -13   12.74    4.32
  -2  -2 -13   11.56    4.21
  -2  -2  13   10.59    4.62
   2   2 -13    7.55    5.17
   2  -2 -13    5.94    4.90
  -2   2 -13    7.44    5.04
  -2  -2 -13    9.85    5.00
   2  -2  13    9.09    4.50
  -2   2  13   19.79    5.14
   2  -2  14   13.24    4.88
  -2   2  14   20.28    5.58
   2   2 -14   20.66    7.08
  -2  -2  14   28.79    6.55
   2  -2 -14   25.82    6.13
  -2   2 -14   14.76    6.89
  -2  -2 -14   23.87    6.96
  -2  -2 -15   -0.53    4.76
   2   2 -15    6.41    6.58
   2  -2 -15   14.29    5.90
  -2  -4   0 2323.02   25.00
   2   4   0 2271.50   24.10
   2  -4   0 2276.28   20.19
  -2  -4   0 2275.80   18.16
   2   4  -1  104.82    4.89
   2  -4   1  102.95    3.60
  -2  -4  -1  110.06    5.41
  -2  -4  -1  109.95    3.07
  -2  -4   1  106.44    5.68
  -2  -4   1  103.23    4.50
   2  -4  -1  101.19    4.83
  -2  -4   2 2098.82   22.85
   2  -4   2 2176.26   26.45
  -2   4  -2 2167.24   12.60
  -2  -4  -2 2153.07   24.91
  -2  -4   2 2114.47   27.20
   2   4  -2 2089.46   22.14
  -2  -4  -2 2167.86   24.72
   2  -4  -2 2099.95   24.37
   2  -4   2 2181.23   12.34
  -2  -4   3    3.78    1.65
   2   4  -3    6.55    1.45
  -2  -4   3    3.60    1.22
   2  -4   3    4.90    1.53
  -2  -4  -3    2.84    1.14
  -2  -4  -3    2.43    1.27
  -2   4  -3    3.96    1.88
   2  -4  -3    3.25    1.36
   2  -4   4   96.10    6.46
   2  -4  -4   85.52    3.39
  -2  -4   4   64.85    9.80
  -2  -4  -4   80.04    5.29
   2   4  -4   93.91    5.14
  -2   4  -4   94.52    7.70
  -2  -4  -4   93.55    6.12
  -2  -4   4   85.59    5.63
   2  -4  -4   77.64    5.57
  -2   4  -5   25.63    4.58
   2  -4  -5   30.29    2.78
   2  -4   5   30.45    3.90
  -2  -4  -5   30.97    3.64
  -2  -4  -5   26.99    3.60
   2   4  -5   26.35    2.94
   2  -4  -5   26.41    3.57
  -2  -4   5   28.60    3.57
  -2  -4  -6 1830.65   30.83
  -2  -4  -6 1827.12   28.25
   2  -4   6 1773.37   30.99
   2   4   6 1738.75   16.17
   2   4  -6 1841.84   24.69
   2  -4  -6 1797.63   22.93
   2  -4   7  819.45   22.40
   2   4  -7  925.69   18.81
  -2   4  -7  873.58   28.88
   2  -4  -7  807.39   17.32
  -2  -4  -7  812.39   20.59
  -2  -4  -7  887.06   23.42
   2  -4  -7  786.86   21.18
   2   4   7  816.50   13.34
  -2  -4   7  819.36   21.36
  -2  -4  -8  645.46   20.82
  -2   4  -8  682.37   26.96
   2  -4  -8  608.51   16.24
  -2  -4  -8  631.59   19.39
   2  -4   8  645.04   21.02
   2  -4  -8  599.19   19.83
   2   4   8  613.80   13.40
   2   4  -8  707.92   17.91
  -2  -4   8  689.88   21.49
  -2  -4   9    0.65    1.79
   2  -4  -9    3.54    2.15
  -2   4   9    4.58    2.34
   2  -4  -9    5.66    2.55
   2  -4   9    7.17    3.31
   2   4  -9    8.40    2.59
  -2  -4  -9    6.48    2.62
  -2   4  -9    9.36    3.99
  -2  -4  -9    6.86    3.27
  -2  -4 -10   82.35    8.01
   2  -4 -10   78.41    6.99
  -2  -4 -10   81.97    8.38
   2  -4 -10   86.08    8.63
   2   4 -10   77.30    6.99
  -2   4 -10   97.33   11.53
  -2  -4  10   82.51    8.22
  -2   4  10   93.52    7.93
   2  -4  10   92.74    8.98
  -2   4  11   26.37    4.72
   2  -4  11   20.42    4.96
   2  -4 -11   35.69    5.98
  -2   4 -11   24.34    7.06
  -2  -4  11   19.06    4.65
  -2  -4 -11   28.97    5.84
  -2  -4 -11   23.07    5.07
  -2   4  12  316.87   16.20
  -2  -4 -12  289.49   16.71
  -2  -4  12  296.38   17.37
   2  -4  12  299.00   17.79
  -2  -4 -12  315.70   17.57
   2  -4 -12  295.70   17.28
  -2   4 -12  247.17   19.91
  -2  -4 -13   22.30    5.83
   2  -4  13   11.70    4.69
  -2   4 -13   19.36    7.09
  -2  -4  13   26.21    6.09
   2   4 -13    1.08    5.51
   2  -4 -13   13.95    4.71
  -2  -4 -13   16.35    5.51
  -2  -4 -14  294.88   18.15
  -2  -4  14  301.06   19.02
  -2   4 -14  247.33   23.38
  -2  -4 -14  266.29   17.95
   2  -4 -14  306.78   19.52
  -2  -4 -15    3.49    5.71
  -2  -6   0  340.76   10.85
  -2   6   0  336.96    9.16
   2   6   0  343.01   10.59
   2  -6   0  372.73    9.49
  -2  -6   0  390.81    8.44
  -2  -6  -1    2.92    1.40
  -2   6   1    5.83    0.81
   2  -6   1   10.36    1.47
  -2  -6  -1    8.75    1.11
  -2  -6   1   12.08    2.40
  -2  -6  -1    5.93    1.64
  -2   6  -1   14.60    2.47
   2  -6  -1    6.52    1.77
  -2  -6   1   10.05    1.61
  -2   6   1    4.68    0.61
   2   6  -1   10.47    1.90
   2  -6  -2 6364.49   47.86
  -2  -6   2 6559.74   44.32
   2   6  -2 6375.09   43.02
  -2  -6  -2 6283.83   46.95
   2  -6   2 6541.75   25.57
  -2   6  -2 6233.19   57.23
  -2  -6  -2 6338.09   48.42
   2   6  -3   43.06    3.66
   2  -6  -3   49.71    4.70
  -2  -6  -3   37.41    3.73
  -2  -6   3   46.24    5.14
  -2  -6  -3   46.95    4.54
  -2  -6   3   43.46    4.02
  -2   6  -3   37.49    5.09
   2  -6   3   45.13    4.64
   2  -6  -4   31.67    4.02
  -2   6  -4   35.13    5.38
  -2  -6  -4   33.05    3.65
   2   6  -4   50.59    4.04
  -2  -6   4   36.16    9.18
   2  -6   4   43.90    4.88
  -2  -6   4   41.83    4.26
  -2  -6  -4   36.22    4.41
   2  -6  -5  606.71   18.24
  -2   6  -5  628.67   23.28
   2   6  -5  627.42   14.07
   2  -6  -5  549.22    7.41
  -2  -6  -5  538.12   14.74
   2  -6   5  614.15   18.84
  -2  -6  -5  539.72   17.17
  -2  -6   5  596.03   16.89
  -2  -6  -6  641.38   19.47
   2  -6   6  700.91   21.11
   2  -6  -6  663.04   20.12
   2   6  -6  672.60   15.27
   2  -6  -6  614.86   10.16
  -2  -6  -6  630.34   16.85
  -2  -6   6  632.59   18.76
  -2   6  -6  665.38   25.88
  -2  -6  -7   -0.16    1.70
  -2  -6   7    1.02    1.82
  -2   6  -7   -1.06    2.54
   2   6  -7    1.29    1.49
   2  -6  -7    0.77    1.68
  -2  -6  -7    2.26    1.49
   2  -6   7    1.12    1.73
  -2   6  -8  119.53   12.08
   2   6  -8  116.62    7.10
   2  -6   8  118.51    9.59
   2  -6  -8   96.11    8.42
  -2  -6  -8  104.46    8.93
  -2  -6  -8  105.24    7.85
  -2  -6   8  116.67    9.12
   2  -6   9  529.19   21.28
  -2   6  -9  553.73   27.06
  -2  -6  -9  550.31   21.69
   2  -6  -9  545.77   21.13
  -2  -6  -9  541.61   18.48
  -2  -6   9  524.30   20.33
   2  -6 -10   90.76    9.57
  -2  -6  10   67.67    7.59
  -2   6 -10  103.17   13.11
  -2  -6 -10   88.98    8.14
  -2   6  10   98.78    8.12
  -2  -6 -10   83.88    8.97
   2  -6  10   82.12    9.05
   2  -6  11   41.76    7.14
  -2  -6 -11   37.46    6.62
  -2  -6  11   33.95    6.25
  -2   6 -11   44.67    9.00
  -2  -6 -11   25.28    5.14
   2  -6 -11   21.45    5.34
   2  -6  12  785.46   29.95
   2  -6 -12  836.18   30.25
  -2   6 -12  830.37   36.45
  -2  -6 -12  802.20   26.61
  -2  -6 -12  831.13   29.61
  -2  -6  12  815.73   29.11
   2  -6  13   44.28    8.48
   2  -6 -13   63.90    9.75
  -2  -6 -13   45.76    7.55
  -2  -6 -13   46.33    7.90
   2   6 -13    8.13    8.22
  -2   6 -13   19.82    7.87
  -2  -6  13   41.07    7.62
   2  -6  14   24.34    6.88
  -2  -6 -14   18.66    6.36
   2  -6 -14   21.08    6.43
   2  -8   0  975.43   16.91
  -2  -8   0  927.67   20.14
   2   8   0  933.71   19.75
  -2  -8  -1  454.91   13.98
   2  -8  -1  493.88   13.38
   2  -8   1  490.02   10.38
  -2  -8   1  470.89   11.53
  -2  -8   1  449.27   14.82
   2   8  -1  465.45   13.73
  -2  -8  -1  454.20    9.60
  -2  -8  -1  449.21   13.65
   2   8  -2  730.93   16.34
  -2  -8  -2  710.56   17.69
   2  -8   2  757.09   10.94
  -2  -8  -2  748.64   17.69
  -2  -8   2  762.75   16.20
   2  -8  -3  247.45   10.98
   2   8  -3  254.26    9.59
  -2  -8   3  231.82    9.81
  -2  -8  -3  211.70    9.54
  -2  -8   3  274.18   15.08
  -2  -8  -3  186.46    9.81
   2  -8   3  241.39   11.45
  -2  -8  -4   56.62    5.92
   2   8  -4   60.27    4.92
   2  -8  -4   49.52    5.45
  -2  -8  -4   48.49    4.66
   2  -8   4   55.12    5.86
  -2  -8   4   52.49    5.14
   2   8  -5   47.51    4.33
  -2   8  -5   53.91    7.53
   2  -8   5   46.85    5.73
   2  -8  -5   46.37    5.59
  -2  -8  -5   55.54    5.19
  -2  -8  -5   54.68    6.14
  -2  -8   5   48.99    5.27
   2  -8  -6  830.10   23.92
  -2   8  -6  832.07   30.74
  -2  -8   6  808.75   22.25
   2   8  -6  820.61   17.92
   2  -8   6  904.44   25.89
  -2  -8  -6  887.78   25.02
  -2  -8  -6  812.97   19.76
   2  -8  -7  389.04   17.22
  -2  -8   7  359.48   15.63
  -2   8  -7  335.67   20.53
  -2  -8  -7  373.93   14.24
  -2  -8  -7  359.98   16.81
   2  -8   7  381.99   17.56
   2  -8  -8  301.42   15.93
  -2   8  -8  335.12   22.15
  -2  -8  -8  301.01   13.29
  -2  -8   8  325.71   15.61
  -2  -8  -8  299.28   16.02
  -2   8  -9   67.61   11.04
   2  -8   9   73.57    8.92
  -2  -8  -9   70.97    7.04
   2  -8  -9   62.74    7.94
  -2  -8  -9   87.86    9.32
  -2  -8   9   79.30    8.56
  -2  -8 -10   63.61    6.95
   2  -8 -10   52.37    7.87
  -2  -8 -10   52.56    7.81
  -2   8 -10   38.20    9.21
   2  -8  10   39.71    6.87
  -2  -8  10   56.57    7.81
   2  -8  11  258.36   17.88
  -2  -8 -11  287.82   17.97
  -2   8 -11  237.33   21.56
  -2  -8  11  259.57   16.65
  -2   8 -12  187.92   20.36
   2  -8 -12  165.33   14.27
  -2  -8 -12  179.31   15.06
   2  -8  12  165.28   15.30
  -2  -8  12  158.23   13.70
  -2  -8 -13  133.76   13.58
  -2 -10   0   96.65    5.67
   2 -10   0  101.51    6.29
  -2 -10   0  100.28    7.56
   2  10   0   88.76    7.14
   2  10   1   57.73    6.20
  -2 -10   1   84.05    5.59
   2 -10  -1   57.70    4.94
   2  10  -1   70.83    6.23
  -2 -10  -1   74.16    6.38
   2 -10   1   72.07    4.62
  -2 -10   1   90.26    7.92
  -2 -10   2 1975.14   29.15
   2 -10  -2 1884.02   30.62
   2  10  -2 1836.93   29.12
  -2 -10  -2 1803.42   31.21
  -2 -10  -2 1942.86   31.99
  -2 -10   2 2044.47   37.73
   2  10  -3   78.09    5.92
   2 -10  -3   85.04    7.08
  -2 -10  -3   78.94    6.56
  -2 -10   3   79.40    6.16
  -2 -10  -3   69.96    6.62
  -2 -10   4   15.73    3.27
   2 -10   4   13.23    3.39
   2  10  -4   17.11    3.23
   2 -10  -4   11.57    3.32
  -2 -10  -4   12.27    3.02
  -2 -10  -4    3.75    2.39
   2 -10   5  796.08   24.96
  -2  10  -5  783.94   30.25
   2 -10  -5  833.83   24.25
  -2 -10   5  804.98   22.08
  -2 -10  -5  756.45   20.46
  -2 -10  -5  847.48   25.81
  -2  10  -6  255.34   18.40
   2 -10  -6  275.42   14.95
  -2 -10  -6  270.91   12.26
  -2 -10  -6  301.39   15.82
   2 -10   6  302.75   16.10
  -2 -10   6  293.77   14.09
   2 -10   7   24.49    5.46
   2 -10  -7   32.79    5.60
  -2 -10  -7   32.70    6.10
  -2  10  -7   16.63    6.41
  -2 -10   7   23.36    4.81
  -2 -10  -7   26.47    4.23
  -2 -10   8   24.73    5.04
   2 -10   8   32.77    6.03
  -2 -10  -8   29.63    5.88
   2 -10  -8   22.84    5.18
  -2  10  -8   14.81    6.78
   2 -10   9  885.56   31.28
   2 -10  -9  874.40   29.89
  -2 -10  -9  886.13   30.73
  -2 -10   9  855.06   27.84
  -2 -10  10   23.61    5.74
  -2 -10 -10   23.83    6.12
   2 -10 -10   29.07    6.45
   2 -10  10   22.33    5.87
  -2  10 -10    9.98    6.53
  -2  10 -11   66.96   13.96
   2 -10 -11   69.29    9.43
  -2 -10 -11   93.53   11.06
   2 -10  11   75.50   10.78
  -2 -10  11   66.05    9.16
  -2  10 -12  278.41   26.85
  -2 -12   0   21.12    4.58
   2  12   0   14.94    3.71
   2  12   1  116.69    9.30
  -2 -12  -1  138.91    9.65
   2 -12  -1  144.35    8.52
   2  12  -1  134.51    9.05
   2 -12  -2  633.46   19.71
  -2 -12  -2  608.01   19.47
  -2 -12   3   59.37    6.26
  -2 -12  -3   57.93    6.04
   2 -12  -3   55.15    6.27
  -2 -12  -3   44.09    6.44
  -2 -12   4   65.38    6.76
   2 -12  -4   65.08    6.93
  -2 -12  -4   53.78    6.60
   2 -12  -5   77.59    8.07
  -2 -12   5   62.27    6.98
  -2 -12  -5   61.14    7.89
   2 -12  -6  661.28   23.62
   2 -12   6  584.76   23.89
  -2 -12  -6  596.37   23.12
  -2 -12   6  660.74   23.17
  -2 -12   7  807.86   26.93
  -2  12  -7  672.01   32.48
   2 -12  -7  786.49   26.93
  -2 -12  -7  773.84   27.67
   2 -12   7  710.68   27.26
  -2  12  -8  200.50   19.67
   2 -12   8  231.66   16.82
   2 -12  -8  258.91   16.18
  -2 -12  -8  248.71   16.70
  -2 -12   8  225.61   14.69
   2 -12   9   49.58    8.69
  -2 -12   9   38.19    7.01
  -2 -12  -9   40.37    7.88
  -2  12  -9   40.54   10.62
  -2 -12  10   49.37    8.40
   2  14   0   15.35    4.22
   2  14   1    1.88    2.91
   2  14   2  310.74   16.73
   2  14   3   12.69    4.49
  -2 -14  -4   10.58    5.13
   2 -14  -4    9.12    3.74
   2 -14  -5  798.37   26.70
  -2 -14  -5  753.34   27.68
  -2 -14   6   80.76    9.39
   2 -14  -6   65.62    9.07
  -2 -14  -6   66.36    8.91
  -2 -14   7    4.69    4.22
   2 -14  -7    1.78    3.93
  -2 -14  -7    6.27    4.01
  -2 -14   8   16.59    5.71
   2  16   3   19.24    6.24
   2  16   4   48.21    8.76
   3   1   0   84.83    4.41
   3  -1   0   83.41    3.99
  -3   1   0   92.49    4.18
  -3  -1   0   85.79    4.63
   3   1   1  582.79   11.21
   3  -1   1  518.85    9.54
  -3   1  -1  561.56   11.28
   3  -1  -1  558.09   11.06
  -3   1   1  598.63   10.18
  -3  -1   1  553.23   11.69
  -3  -1  -1  550.70   12.17
   3   1  -1  538.21   11.26
  -3  -1  -2    9.48    2.10
   3  -1   2   12.67    1.54
  -3   1  -2   13.10    2.15
   3   1  -2    9.92    1.77
   3  -1  -2    9.31    1.68
  -3  -1   2    8.62    1.97
  -3   1   2    7.96    1.44
   3   1   2    8.34    1.51
   3   1   3  630.34   12.44
  -3  -1  -3  614.96   14.43
   3   1  -3  554.66   12.56
   3  -1   3  538.69    9.37
   3  -1  -3  614.12   13.23
  -3   1  -3  533.97   14.16
  -3   1   3  510.11   13.13
   3  -1   4  503.68    9.71
   3   1  -4  472.62   12.22
   3  -1  -4  510.72   13.02
  -3   1  -4  508.68   15.13
  -3  -1   4  483.92   16.84
  -3  -1  -4  527.37   12.71
  -3  -1  -4  457.95   13.72
   3  -1   5 3809.76   39.61
  -3   1  -5 3973.31   46.47
  -3  -1  -5 3858.93   43.50
  -3  -1  -5 4081.13   34.25
   3  -1   5 3940.19   28.58
   3   1  -5 3806.19   36.84
   3  -1  -5 3847.10   38.15
   3  -1   6  423.15   13.89
   3   1   6  485.99   13.23
  -3   1  -6  471.87   17.14
  -3  -1  -6  438.87   15.86
  -3  -1   6  448.06   14.23
   3   1  -6  504.21   14.32
   3  -1  -6  473.74   14.68
  -3  -1  -6  471.19   12.90
  -3   1  -6  524.51   11.77
   3  -1   7  637.91   18.36
   3   1   7  658.65   16.68
  -3   1  -7  666.88   21.72
  -3  -1   7  607.33   17.60
  -3  -1  -7  688.16   21.09
   3   1  -7  686.58   17.99
  -3  -1  -7  682.25   17.09
   3  -1  -7  642.25   17.84
  -3   1  -7  697.33   13.97
   3   1   8  554.56   16.47
  -3  -1  -8  560.91   20.43
  -3  -1   8  538.20   18.25
  -3   1  -8  534.09   20.93
   3  -1   8  502.19   17.37
  -3  -1  -8  504.63   15.59
   3   1  -8  540.57   16.87
   3  -1  -8  550.53   17.98
  -3   1  -8  530.79   13.29
  -3   1   8  561.76   17.74
   3   1   9 2183.45   34.91
  -3  -1   9 2204.11   38.38
   3  -1   9 2077.75   37.81
  -3  -1  -9 2323.63   44.24
  -3  -1  -9 2194.80   34.75
   3   1  -9 2287.09   36.42
  -3   1  -9 2292.52   29.79
  -3   1  -9 2493.05   47.25
   3  -1  -9 2375.58   39.52
  -3   1   9 2338.56   38.98
   3  -1  10  212.67   12.77
   3   1  10  222.21   11.96
  -3   1 -10  248.31   15.84
  -3  -1 -10  243.54   15.15
   3  -1 -10  234.30   12.99
  -3  -1 -10  236.82   12.23
   3   1 -10  262.48   13.61
  -3   1  10  261.86   13.72
  -3  -1  10  265.26   14.20
  -3  -1  11    9.64    3.08
   3   1 -11    3.02    2.75
  -3  -1 -11    4.77    2.52
   3  -1 -11    3.87    2.67
   3  -1  11    2.98    2.50
   3  -1 -11    0.38    3.08
  -3   1 -11    7.53    4.51
  -3  -1 -11    5.03    3.61
  -3  -1  12   -2.17    3.01
   3  -1  12    0.28    2.85
   3   1 -12    0.58    2.78
   3  -1 -12    8.30    4.07
   3   1 -12    3.95    4.17
   3  -1 -12    0.10    3.45
  -3   1 -12   -2.77    3.66
  -3  -1 -12   -0.47    3.39
  -3   1  12   -0.82    2.83
  -3   1 -13  708.58   32.00
   3   1 -13  390.39   24.27
  -3  -1 -13  696.27   29.76
   3  -1 -13  340.09   23.46
  -3   1  13  717.57   26.40
  -3  -1  13  712.16   27.86
   3   1 -13  648.80   24.44
   3  -1 -13  674.75   25.94
  -3  -1  14   11.98    4.84
  -3   1  14   12.53    5.27
   3   1 -14    7.47    6.47
  -3   1 -14    7.05    5.94
  -3  -1 -14   12.29    6.11
   3  -1 -14    4.33    3.83
   3   1 -15   14.41    7.57
   3  -1 -15    5.52    4.79
   3   3   0   62.25    4.16
  -3   3   0   58.96    3.06
  -3  -3   0   50.38    3.90
   3  -3   0   58.40    3.31
   3   3   1 2057.01   24.52
   3   3  -1 2122.50   23.85
  -3  -3  -1 2011.25   25.05
  -3   3   1 2182.43   15.75
   3  -3   1 2105.05   18.02
  -3   3  -1 2144.35   22.28
  -3  -3   1 2178.11   26.12
   3  -3  -1 2037.62   21.59
   3   3   2   75.30    4.84
   3   3  -2   81.00    4.90
  -3   3  -2   92.17    5.51
   3  -3  -2   76.24    2.82
  -3  -3  -2   86.43    5.51
   3  -3   2   83.74    3.30
  -3  -3   2   90.58    5.66
   3  -3  -2   89.98    5.00
  -3   3  -3  175.61    8.57
   3   3  -3  195.86    7.65
   3  -3   3  184.24    4.53
  -3  -3  -3  170.63    7.92
   3  -3  -3  166.04    7.58
  -3  -3  -3  170.31    7.48
   3  -3   4   17.69    1.47
  -3  -3  -4   24.55    3.36
  -3  -3   4   17.80    2.69
  -3   3  -4   22.06    3.77
   3  -3   4   17.89    3.10
   3   3  -4   20.06    2.69
  -3  -3   4   19.05    3.44
   3  -3  -4   21.33    2.95
  -3  -3  -4   26.02    3.03
   3  -3   5 4171.11   45.22
   3  -3   5 4071.56   20.85
  -3   3  -5 4240.48   51.57
  -3  -3  -5 3963.69   42.90
  -3  -3   5 4148.35   42.99
   3   3  -5 4024.64   37.97
   3  -3  -5 3880.74   41.35
  -3  -3  -5 3999.65   39.76
  -3   3  -6 1231.11   30.38
  -3  -3  -6 1178.62   24.54
  -3  -3  -6 1073.38   22.77
   3  -3   6 1117.44   11.90
   3  -3  -6 1193.53   24.61
   3   3  -6 1155.42   21.33
   3  -3   6 1152.71   25.33
  -3  -3   6 1153.06   23.88
   3  -3  -7    2.61    2.01
   3  -3   7    2.48    1.83
  -3  -3  -7    4.53    1.96
  -3  -3   7    1.57    1.49
   3  -3  -7    2.08    1.78
  -3   3  -7    6.94    3.66
  -3  -3  -7    4.44    2.32
   3   3  -7    4.27    1.87
   3   3   8  543.66   14.03
   3  -3  -8  527.47   16.77
  -3   3  -8  607.62   23.86
  -3  -3  -8  541.30   19.06
   3   3  -8  592.53   17.10
  -3  -3  -8  494.61   17.17
  -3  -3   8  542.41   18.57
   3  -3   8  543.05   19.46
   3  -3  -8  547.32   18.50
   3  -3   9 2466.39   44.08
   3  -3  -9 2311.75   37.95
  -3   3  -9 2818.69   54.62
  -3  -3  -9 2720.20   44.97
  -3  -3   9 2760.76   44.26
  -3  -3  -9 2430.59   40.16
   3  -3  -9 2600.95   42.81
   3   3  -9 2844.70   40.06
  -3   3   9 2733.58   40.91
   3  -3  10   50.94    7.07
   3  -3 -10   18.55    5.35
  -3   3 -10   39.28    7.25
  -3  -3 -10   43.18    6.23
   3  -3 -10   36.17    5.66
  -3  -3 -10   47.05    6.21
   3   3 -10   44.25    5.43
  -3   3  10   37.93    5.35
  -3  -3  10   36.94    5.54
  -3  -3 -11   20.20    4.87
   3  -3  11   18.41    4.80
  -3   3  11   25.57    4.97
   3  -3 -11   17.51    4.31
  -3   3 -11   28.76    6.62
  -3  -3 -11   27.01    5.80
   3   3 -11   28.56    5.08
  -3  -3  11   21.18    4.85
   3  -3 -12   48.79    7.14
   3  -3  12   44.93    7.72
  -3  -3  12   57.40    8.02
  -3  -3 -12   60.35    8.34
  -3   3  12   55.30    7.37
  -3  -3 -12   40.13    6.68
  -3   3 -12   32.29    8.03
   3   3 -12   58.84    7.14
   3  -3 -13  607.96   25.84
   3  -3  13  614.38   26.99
  -3   3 -13  599.91   30.74
  -3  -3 -13  627.44   26.77
  -3   3  13  630.65   24.76
  -3  -3 -13  531.12   23.00
  -3  -3  13  638.32   26.22
  -3  -3  14   24.48    6.10
   3  -3  14   10.43    5.24
   3  -3 -14   17.64    6.18
   3   3 -14   10.25    7.37
  -3   3 -14   15.88    8.07
  -3  -3 -14   14.68    6.18
  -3   5   0   14.55    1.52
  -3  -5   0   19.02    2.81
   3   5   0   18.85    2.70
   3  -5   0   15.98    2.01
  -3  -5   0   17.75    1.87
   3   5   1 3748.82   37.73
   3   5  -1 3690.64   35.08
  -3  -5   1 3741.06   29.89
  -3   5  -1 3805.94   31.71
  -3  -5  -1 3715.99   37.40
  -3  -5   1 3630.50   37.88
   3  -5   1 3851.55   27.24
   3  -5  -1 3706.03   32.88
  -3  -5  -1 3840.28   22.60
   3   5   2  546.57   14.95
   3   5  -2  570.83   14.13
  -3   5  -2  590.07   15.10
  -3  -5  -2  567.31   14.66
  -3  -5   2  618.61   16.33
   3  -5  -2  564.54   13.92
   3  -5   2  605.12    9.07
  -3  -5   2  567.15   12.81
  -3  -5  -2  610.11    6.79
   3   5  -3    4.04    1.45
  -3  -5  -3    9.37    2.53
  -3  -5   3    6.29    1.71
  -3   5  -3    9.98    2.78
  -3  -5  -3    9.54    2.36
   3  -5   3    8.67    0.89
  -3  -5   3    3.67    2.03
  -3   5  -4  280.56   13.29
   3   5  -4  250.86    9.60
  -3  -5  -4  264.30   10.72
   3  -5  -4  253.31   10.58
  -3  -5   4  250.42   10.23
  -3  -5  -4  240.55   10.71
   3  -5   4  266.15   11.77
  -3  -5  -5 1997.22   30.63
   3  -5  -5 1943.00   13.77
  -3   5  -5 2124.16   38.91
   3   5  -5 2027.91   27.33
   3  -5   5 2204.68   36.02
   3  -5  -5 2071.79   31.96
  -3  -5  -5 2035.46   31.48
  -3  -5   5 2099.72   31.34
   3  -5   6   41.38    5.24
  -3   5  -6   37.64    5.91
   3  -5  -6   33.29    2.57
  -3  -5  -6   35.25    4.43
   3   5  -6   42.21    4.27
  -3  -5   6   41.08    4.80
   3  -5  -6   38.18    4.92
   3  -5   7    6.83    2.65
  -3  -5  -7    5.62    2.43
   3  -5  -7   16.33    3.68
  -3   5  -7    4.94    3.23
  -3  -5   7    6.81    2.55
  -3  -5  -7    7.66    2.52
   3   5  -7    4.74    1.90
  -3   5  -8  233.16   15.92
   3  -5   8  201.09   12.83
  -3  -5  -8  201.52   11.52
   3   5  -8  213.78   10.28
  -3  -5  -8  207.01   12.28
  -3  -5   8  197.19   11.63
   3  -5  -8  206.84   12.03
  -3  -5   9 1725.62   37.22
  -3  -5  -9 1723.29   35.20
  -3  -5  -9 1668.55   36.39
   3   5  -9 1754.08   31.12
   3  -5   9 1668.56   38.49
   3  -5  -9 1639.68   35.90
   3  -5  10  103.65   10.38
  -3   5 -10  112.23   13.15
  -3  -5 -10  116.21    9.79
   3  -5 -10  100.83    9.63
  -3  -5 -10  100.32    9.52
  -3  -5  10  114.60   10.23
   3   5 -10  116.64    8.52
   3  -5 -11   79.89    9.45
  -3   5 -11   73.33   11.17
  -3  -5 -11   78.36    8.76
  -3   5  11   96.00    9.22
   3  -5  11   71.06    9.24
  -3  -5 -11   69.17    8.66
  -3  -5  11   64.52    8.14
   3  -5  12   73.83    9.82
   3  -5 -12   79.54    9.59
  -3   5 -12   70.11   11.30
  -3  -5 -12   73.02    9.01
  -3  -5 -12   85.44    9.68
  -3  -5  12   70.58    9.12
   3  -5  13  797.72   32.39
  -3   5 -13  840.74   38.05
  -3  -5 -13  918.53   31.48
   3  -5 -13  862.20   31.95
  -3  -5  13  881.30   32.02
   3  -5  14    5.17    4.97
  -3  -5 -14    6.13    5.74
   3   5 -14    0.79    5.65
  -3  -5 -14    3.35    4.91
   3  -7   0 1121.15   18.26
  -3  -7   0 1081.30   22.24
   3   7   0 1097.04   22.16
   3   7   1  311.07   12.13
   3   7  -1  361.20   12.06
  -3   7  -1  333.47   10.44
   3  -7   1  358.37    9.17
  -3  -7  -1  348.62   12.73
  -3  -7   1  366.53   13.35
  -3  -7  -1  356.30    7.41
  -3  -7   1  376.55   10.26
   3  -7  -1  332.75   10.77
   3   7   2  177.65    9.65
   3   7  -2  171.59    8.33
  -3   7  -2  154.08    8.44
   3  -7   2  181.23    5.41
  -3  -7  -2  180.26    9.09
  -3  -7   2  179.19   10.00
  -3  -7   2  175.61    7.57
   3  -7  -2  178.02    8.52
   3   7  -3  192.69    9.04
  -3  -7  -3  180.78    9.87
  -3  -7  -3  189.51    9.47
  -3  -7   3  200.79   12.30
  -3   7  -3  190.85   10.89
  -3  -7   3  194.12    8.74
   3  -7  -3  195.00    9.54
  -3   7  -4   26.53    4.75
   3   7  -4   21.56    3.16
  -3  -7   4   17.68    3.08
  -3  -7  -4   19.30    3.31
  -3  -7   4   25.55    4.70
  -3  -7  -4   19.47    3.33
   3  -7  -4   21.78    3.45
   3  -7   5 1275.81   29.46
  -3   7  -5 1324.03   34.15
   3   7  -5 1275.12   23.38
  -3  -7   5 1283.90   25.63
  -3  -7  -5 1113.34   24.07
  -3  -7  -5 1163.52   26.69
   3  -7  -5 1194.90   26.42
   3  -7  -6  370.82   15.69
  -3   7  -6  356.23   18.85
   3   7  -6  346.95   12.46
  -3  -7  -6  366.01   14.37
   3  -7   6  402.28   17.58
  -3  -7  -6  376.87   15.78
  -3  -7   6  362.08   14.54
  -3  -7  -7   19.75    3.84
  -3  -7  -7   31.18    5.27
   3  -7  -7   29.38    4.90
   3  -7   7   33.00    5.49
  -3   7  -7   33.91    7.05
   3   7  -7   22.17    3.50
  -3  -7   7   24.72    4.35
   3  -7  -8  162.85   11.69
   3  -7   8  179.86   12.93
  -3  -7   8  185.28   11.98
  -3   7  -8  150.75   14.51
  -3  -7  -8  189.33   10.96
   3   7  -8  177.16    9.72
  -3  -7  -8  164.83   11.95
   3  -7   9 1368.01   36.82
  -3   7  -9 1356.88   41.96
   3  -7  -9 1349.16   34.69
  -3  -7  -9 1367.35   31.47
  -3  -7  -9 1361.08   35.25
  -3  -7   9 1357.13   33.87
   3  -7  10   44.09    7.36
   3  -7 -10   35.90    6.41
  -3  -7  10   30.72    5.91
  -3  -7 -10   52.43    6.86
  -3  -7 -10   42.01    6.53
  -3   7 -10   28.71    7.61
   3  -7  11  109.46   11.94
  -3   7 -11  117.23   14.64
  -3  -7 -11  118.95   10.41
   3  -7 -11  143.97   12.61
  -3  -7 -11  124.08   11.98
  -3  -7  11  117.39   11.23
   3  -7  12   47.46    8.49
   3  -7 -12   48.51    8.44
  -3  -7 -12   43.32    7.44
  -3  -7 -12   52.42    8.50
  -3   7 -12   33.19    8.76
  -3  -7  12   56.67    8.72
   3  -7  13  222.99   18.13
   3  -7 -13  264.80   18.94
  -3  -7 -13  239.95   17.68
  -3  -9   0   71.02    4.32
   3   9   0   64.32    6.15
   3  -9   0   78.85    5.32
  -3  -9   0   59.85    5.92
   3   9   1 1985.03   33.81
   3   9  -1 1893.11   30.84
   3  -9  -1 2052.99   29.81
   3  -9   1 1976.86   22.77
  -3  -9  -1 1911.16   32.18
  -3  -9   1 2021.25   34.57
  -3  -9   1 2103.11   25.49
   3   9   2  992.42   24.85
  -3   9  -2  883.47   22.51
   3  -9  -2  990.24   21.76
  -3  -9  -2  916.44   22.20
  -3  -9   2 1024.26   26.21
   3   9  -2  959.13   21.52
  -3  -9   2 1028.54   19.82
   3  -9  -3  556.22   17.47
   3   9  -3  494.57   15.68
  -3  -9  -3  540.72   17.10
  -3  -9   3  596.41   21.74
  -3  -9   3  560.76   15.85
  -3  -9  -3  528.08   18.60
  -3   9  -4   71.80    8.05
  -3  -9   4   79.74    6.56
  -3  -9  -4   99.82    7.53
   3  -9  -4  102.57    8.09
  -3  -9   4  114.53   13.06
  -3  -9  -4   80.10    7.51
   3   9  -4   81.04    6.41
   3  -9  -5 1479.07   31.97
  -3   9  -5 1365.80   36.39
   3   9  -5 1454.23   26.60
  -3  -9  -5 1435.28   29.26
  -3  -9  -5 1317.29   30.06
  -3  -9   5 1472.29   29.30
  -3  -9   6    3.47    2.05
   3  -9   6    5.20    2.73
  -3  -9  -6    3.96    2.61
   3   9  -6    3.27    2.24
  -3   9  -6    4.67    3.91
  -3  -9  -6    1.12    2.60
   3  -9  -6    1.04    2.20
   3  -9  -7   19.42    4.31
   3  -9   7   22.95    5.16
  -3  -9  -7   14.44    4.26
  -3  -9  -7   18.77    4.03
  -3   9  -7    6.05    4.00
  -3  -9   7   26.07    4.73
   3  -9   8   73.08    9.21
   3  -9  -8   38.82    6.30
  -3   9  -8   50.95    9.29
  -3  -9  -8   39.90    5.62
  -3  -9  -8   58.73    7.92
  -3  -9   8   59.53    7.26
   3  -9   9  961.77   32.69
   3  -9  -9  909.34   30.10
  -3  -9   9  898.50   28.41
  -3   9  -9  903.80   36.88
  -3  -9  -9  816.74   25.24
  -3  -9  -9  920.67   30.43
  -3  -9  10    7.04    3.41
   3  -9  10   12.37    5.11
  -3  -9 -10    7.15    4.12
  -3   9 -10    8.33    6.48
   3  -9 -10   11.82    5.04
   3  -9  11   36.67    8.07
   3  -9 -11   43.22    8.15
  -3   9 -11   20.11    7.78
  -3  -9 -11   21.88    6.19
  -3  -9  11   45.27    7.65
  -3   9 -12   64.13   12.80
  -3  -9 -12  101.77   11.89
   3  11   0  352.59   15.39
  -3 -11   0  388.97   16.26
   3  11   1   13.25    3.51
   3  11  -1   16.42    3.74
   3 -11  -1    8.51    2.47
  -3 -11  -1   10.36    3.34
  -3 -11   1    8.29    3.21
  -3 -11   2  548.95   15.84
   3  11   2  502.73   19.49
   3  11  -2  475.54   16.74
   3 -11  -2  559.86   17.42
  -3 -11  -2  585.90   20.06
  -3 -11   2  573.40   22.32
   3  11   3   43.05    6.66
   3  11  -3   49.78    5.82
  -3 -11  -3   34.25    5.21
  -3 -11   3   54.33    8.32
  -3 -11   3   39.77    4.77
  -3 -11   4    8.25    2.55
   3  11  -4    7.31    2.74
  -3 -11  -4   10.78    3.43
  -3 -11  -4    7.25    3.43
   3 -11  -5  862.86   25.84
  -3 -11  -5  772.08   22.89
  -3 -11   5  832.55   23.21
  -3 -11  -5  826.78   27.16
  -3  11  -6  343.47   20.73
   3 -11  -6  487.08   20.46
  -3 -11  -6  409.44   18.75
  -3 -11  -6  443.24   17.59
  -3 -11   6  403.63   17.15
  -3 -11  -7    1.13    2.76
   3 -11  -7    2.65    3.29
  -3 -11   7    2.21    2.87
  -3  11  -7   -3.46    5.00
   3 -11   8  161.83   13.80
  -3  11  -8  141.04   15.57
   3 -11  -8  134.45   11.94
  -3 -11  -8  129.73   11.92
  -3 -11   8  152.49   11.84
  -3  11  -9  560.82   31.35
   3 -11  -9  651.57   26.52
   3 -11   9  689.29   29.03
  -3 -11  -9  594.96   26.13
  -3 -11   9  603.65   24.44
  -3 -11  10   24.54    6.14
   3 -11 -10   15.64    5.37
   3 -11  10    7.82    4.16
  -3  11 -10    8.38    6.15
  -3 -11 -10   25.32    6.73
  -3  11 -11   11.42    7.60
   3  13   0   84.21    8.34
  -3 -13   0  113.84   10.70
   3  13   1  819.22   26.13
  -3 -13  -1  874.76   26.76
   3  13   2  395.88   18.92
   3  13  -2  389.06   16.38
  -3 -13  -2  441.73   18.38
   3  13   3  474.21   21.10
   3  13   4  165.86   13.14
   3 -13  -4  165.99   11.29
   3 -13  -5  475.56   19.83
  -3 -13  -5  442.29   22.35
  -3 -13   6   33.10    5.82
   3 -13  -6   43.15    6.79
  -3 -13  -6   32.31    7.16
  -3 -13   7   16.63    5.12
  -3 -13  -7   16.06    5.50
   3 -13  -7   22.38    5.51
  -3 -13   8    3.46    3.75
  -3 -13  -8    1.58    3.59
   3 -13  -8    4.27    4.10
   3  15   1    4.42    3.62
   3  15   2  214.67   15.63
   3  15   4   43.95    8.62
   3  15   5  193.11   16.02
   4   0   0 6182.88   41.43
  -4   0   0 6219.96   42.68
   4   0   1    0.70    0.85
  -4   0   1    1.86    1.17
   4   0  -1    0.36    0.86
  -4   0  -1    0.87    0.71
   4   0   2   87.20    4.74
  -4   0  -2   89.51    5.69
   4   0  -2   72.44    4.66
  -4   0   2   89.77    5.32
   4   0   3    1.02    0.72
   4   0  -3    1.18    1.16
  -4   0  -3    3.86    1.66
  -4   0   3    0.56    1.01
   4   0  -4 1456.84   23.73
   4   0   4 1460.56   19.87
  -4   0  -4 1449.69   26.13
   4   0   5    2.30    1.30
  -4   0  -5   -0.14    1.30
   4   0  -5    0.14    1.20
   4   0   6  364.38   11.13
  -4   0  -6  344.98   14.92
   4   0  -6  360.77   13.02
   4   0   7    1.38    1.43
   4   0  -7    1.77    1.91
  -4   0  -7    1.68    2.07
  -4   0   8    3.66    2.26
   4   0  -8    5.24    2.31
  -4   0  -8    0.46    2.44
  -4   0  -9    2.44    2.03
  -4   0   9    2.61    2.10
   4   0   9    0.83    1.72
   4   0  -9    5.71    2.49
  -4   0  -9   -2.41    2.33
   4   0  10  108.53    9.22
  -4   0 -10  103.58   10.72
   4   0 -10  133.19   10.20
  -4   0  10  110.52    9.62
   4   0 -11    3.11    3.08
  -4   0  11    1.41    2.61
  -4   0 -11    5.04    4.46
  -4   0  12   62.44    8.00
  -4   0 -12   41.64    8.11
   4   0 -12   48.53    7.38
   4   0 -13    3.17    3.57
   4   0 -13    8.37    5.45
  -4   0 -13    6.13    5.36
  -4   0  13   -1.02    3.13
  -4   0 -14  734.54   33.32
  -4   0  14  727.12   29.10
   4   2   0  210.26    8.31
  -4   2   0  221.74    7.43
   4  -2   0  232.77    7.64
  -4  -2   0  215.43    8.81
   4   2   1   11.78    2.08
   4   2  -1    7.29    1.67
  -4   2   1    9.04    1.52
   4  -2   1    5.22    1.19
  -4  -2   1    9.83    1.93
   4  -2  -1    7.38    1.49
  -4   2  -1    5.90    1.41
  -4  -2  -1    7.22    1.81
   4  -2   2 3240.20   25.91
  -4   2  -2 3304.28   33.43
   4   2  -2 3279.00   33.34
  -4  -2  -2 3228.43   35.23
   4  -2  -2 3235.09   31.74
  -4  -2   2 3318.52   34.70
   4   2   2 3268.56   32.35
   4   2   3  109.69    6.25
   4  -2   3  132.50    5.25
  -4   2  -3  128.39    7.42
   4   2  -3  106.31    6.30
  -4  -2  -3  112.10    6.96
   4  -2  -3  104.82    6.07
  -4  -2   3  126.65    7.39
   4   2   4  575.56   14.77
   4  -2   4  529.86   10.48
  -4   2  -4  545.74   16.77
  -4  -2  -4  525.08   15.75
   4   2  -4  521.67   14.44
   4  -2  -4  513.95   14.23
   4   2   5  221.29    9.45
   4  -2   5  248.79    7.13
  -4   2  -5  250.46   12.40
  -4  -2  -5  217.60   10.95
   4   2  -5  250.38   10.17
   4  -2  -5  218.63   10.01
  -4  -2   5  264.61   14.86
   4  -2   6   44.00    3.22
  -4   2  -6   40.05    5.49
  -4  -2  -6   43.94    5.18
  -4  -2   6   40.42    4.70
   4   2  -6   44.49    4.72
   4  -2  -6   32.74    4.29
   4  -2   7   22.84    2.60
  -4   2  -7   33.86    5.46
  -4  -2  -7   21.41    4.42
  -4  -2   7   24.29    3.99
   4   2  -7   18.40    3.19
   4  -2  -7   21.64    3.51
  -4  -2  -7   19.01    3.82
   4  -2   8  151.11   10.51
  -4   2  -8  161.02   12.17
  -4  -2  -8  191.75   12.10
   4   2  -8  150.96    9.32
  -4  -2  -8  147.16    9.04
   4  -2  -8  151.95   10.02
  -4  -2   8  157.07   10.36
   4  -2   9   54.17    6.98
  -4   2  -9   59.53    8.02
  -4  -2  -9   62.11    7.46
  -4  -2   9   57.62    6.58
  -4  -2  -9   54.69    5.94
   4   2  -9   65.12    6.89
   4  -2  10  101.26    9.73
  -4   2 -10  127.63   12.28
  -4  -2 -10  112.02   10.38
  -4   2  10  122.22    9.72
  -4  -2 -10   97.22    8.21
   4   2 -10  121.14    9.45
   4  -2 -10  102.97    9.42
  -4  -2  10  103.53    9.23
  -4  -2  11    5.07    2.98
   4  -2  11    5.09    3.70
   4   2 -11   11.07    3.98
  -4  -2 -11    3.84    2.65
   4  -2 -11   10.85    4.26
  -4   2 -11    7.93    4.81
  -4  -2 -11   14.97    5.02
  -4   2  11   14.28    4.37
  -4  -2 -12  444.82   22.66
  -4   2 -12  483.24   25.85
   4   2 -12  413.61   19.07
  -4   2  12  450.72   20.57
  -4  -2  12  475.68   21.57
   4  -2 -12  437.19   20.79
  -4   2  13   12.77    4.72
  -4  -2  13    5.14    4.42
   4  -2 -13    7.24    4.29
  -4   2 -13    5.73    5.07
  -4  -2 -13    8.21    5.41
  -4  -2  14   31.00    6.66
   4   2 -14   11.00    7.10
   4  -2 -14   35.87    7.82
  -4  -2 -14   29.44    7.73
   4   4   0 4128.09   39.41
  -4   4   0 4126.93   28.28
  -4  -4   0 3959.37   41.15
   4  -4   0 3942.75   31.58
   4   4   1   19.11    2.83
   4   4  -1   22.99    3.11
  -4   4  -1   21.40    2.53
  -4  -4  -1   15.19    2.69
  -4   4   1   20.69    1.88
  -4  -4   1   20.20    3.09
   4  -4   1   16.61    2.00
   4  -4  -1   14.45    2.13
   4   4   2  183.08    8.85
   4   4  -2  199.85    8.84
  -4   4  -2  178.91    8.08
  -4  -4  -2  172.45    8.74
   4  -4   2  177.28    5.74
  -4  -4   2  177.39    9.40
   4  -4  -2  188.19    8.11
   4   4   3    4.08    1.77
   4  -4  -3    7.27    2.09
   4   4  -3   16.71    2.80
   4  -4   3   13.75    1.58
  -4  -4  -3   10.65    2.46
  -4  -4   3   15.45    2.67
  -4   4  -3    9.21    2.70
  -4  -4   3    6.90    2.63
   4   4   4  977.29   21.42
  -4   4  -4  947.22   23.73
   4   4  -4  950.81   19.85
  -4  -4   4  981.95   20.28
  -4  -4  -4  910.37   21.15
   4  -4   4  969.61   11.23
   4  -4  -4  923.09   20.13
  -4  -4  -5   29.86    4.24
   4  -4   5   18.24    1.53
   4   4  -5   20.79    3.30
  -4  -4   5   14.45    4.42
   4  -4  -5   24.01    3.62
  -4   4  -5   15.64    3.70
  -4  -4   5   22.83    3.61
  -4  -4  -5   10.69    4.03
  -4  -4  -6  333.11   14.23
  -4   4  -6  316.31   15.60
   4   4  -6  306.20   11.92
   4  -4  -6  321.06   13.66
  -4  -4  -6  330.52   13.56
  -4  -4   6  312.05   13.10
   4  -4   7  515.39   19.28
  -4   4  -7  522.13   21.44
  -4  -4  -7  508.58   18.39
  -4  -4  -7  482.30   16.81
   4   4  -7  569.50   17.04
   4  -4  -7  528.70   18.46
  -4  -4   7  547.05   18.31
  -4   4  -8   33.56    6.03
  -4  -4  -8   37.50    5.41
   4   4  -8   28.76    4.13
  -4  -4  -8   25.49    4.18
   4  -4  -8   33.22    5.05
  -4  -4   8   29.45    4.66
   4  -4   8   33.59    5.51
   4   4  -9    4.98    2.33
  -4  -4   9    0.23    1.93
  -4  -4  -9    3.39    2.64
   4  -4  -9   -0.08    2.07
  -4   4  -9   -1.53    3.21
  -4  -4  -9    2.52    3.17
   4  -4  10   54.09    7.86
  -4   4 -10   58.59    9.19
  -4  -4 -10   58.11    7.61
  -4  -4  10   43.48    6.33
   4   4 -10   62.85    6.85
  -4  -4 -10   44.95    6.54
   4  -4 -10   47.10    7.18
  -4  -4 -11   25.93    5.38
   4  -4  11   18.14    5.56
   4   4 -11   21.69    4.80
  -4  -4  11   30.07    5.76
   4  -4 -11   30.05    5.77
  -4   4 -11   20.79    6.08
  -4  -4 -11   32.22    6.27
  -4   4  11   33.94    5.70
  -4  -4 -12   12.29    4.15
   4  -4  12   30.62    7.13
   4   4 -12   12.70    4.11
  -4   4  12    9.26    4.15
  -4  -4  12   17.76    4.99
   4  -4 -12   13.57    5.05
  -4   4 -12   12.78    6.21
  -4  -4 -12   17.46    5.38
  -4   4  13   23.62    5.93
  -4  -4  13   20.37    5.73
   4  -4  13   18.55    6.81
  -4  -4 -13   10.43    4.97
   4  -4 -13   22.27    6.28
  -4   4 -13   17.47    6.65
  -4  -4 -13   13.84    5.99
   4  -4  14  512.39   27.64
  -4   6   0   88.98    3.90
  -4  -6   0   92.38    6.84
   4   6   0   83.15    6.21
  -4  -6   0   94.58    4.84
   4  -6   0   96.84    5.49
  -4  -6  -1    7.60    1.35
   4   6   1   11.74    2.75
   4   6  -1    3.41    1.62
   4  -6   1    5.69    1.39
   4  -6  -1    5.19    1.77
  -4  -6   1    4.71    1.53
  -4   6  -1    4.00    1.43
  -4  -6  -1    8.79    2.40
  -4  -6   1    6.67    2.28
   4   6   2 1818.09   30.67
   4   6  -2 1786.10   28.57
  -4   6  -2 1812.29   27.45
  -4  -6  -2 1898.34   31.21
  -4  -6   2 1861.06   31.50
  -4  -6   2 1839.23   25.05
   4  -6  -2 1764.50   26.77
   4  -6   2 1832.86   19.00
  -4  -6  -2 1880.17   14.94
   4   6   3   86.16    6.91
   4   6  -3   79.93    6.11
  -4   6  -3   93.86    7.15
  -4  -6  -3   88.92    6.81
  -4  -6   3   79.59    6.91
   4  -6  -3   84.36    6.31
   4  -6   3   81.16    3.30
  -4  -6   3   75.26    5.51
   4  -6  -4  415.39   14.64
   4   6   4  416.44   15.78
  -4   6  -4  387.42   15.73
   4   6  -4  366.74   13.15
  -4  -6  -4  440.26   15.39
  -4  -6   4  476.05   19.45
  -4  -6   4  386.63   13.51
  -4   6  -5  313.76   15.41
   4   6  -5  315.03   12.49
  -4  -6  -5  301.81   13.43
  -4  -6   5  293.90   12.47
   4  -6  -5  307.65   13.04
  -4  -6  -5  271.34   14.35
  -4  -6  -6    7.08    3.19
  -4  -6   6    9.27    2.93
   4  -6  -6   10.61    3.26
   4   6  -6    6.44    2.30
  -4   6  -6   13.68    4.02
  -4  -6  -6   13.35    3.41
  -4  -6   7    8.71    2.84
  -4  -6  -7    9.08    3.11
   4  -6  -7    9.91    3.28
   4   6  -7    6.10    2.13
  -4   6  -7   11.09    4.03
  -4  -6  -7    2.26    2.03
   4  -6   8   59.79    7.59
   4  -6  -8   65.00    7.30
  -4   6  -8   79.84    9.89
  -4  -6  -8   86.35    8.13
   4   6  -8   77.60    6.86
  -4  -6  -8   59.21    6.97
  -4  -6   8   58.02    6.80
   4  -6   9  344.82   18.71
  -4   6  -9  392.21   22.37
  -4  -6  -9  356.32   17.08
   4   6  -9  359.76   15.18
  -4  -6   9  347.03   17.42
   4  -6  -9  336.45   16.93
   4  -6  10   60.96    8.84
  -4   6 -10   63.27   10.02
  -4  -6 -10   60.07    7.69
   4   6 -10   66.20    7.18
  -4  -6 -10   41.47    6.85
  -4  -6  10   53.58    7.59
   4  -6 -10   55.32    7.89
   4  -6  11   45.89    8.22
  -4   6 -11   46.78    9.54
  -4  -6 -11   39.10    7.01
   4  -6 -11   34.55    6.58
  -4  -6 -11   46.44    7.28
  -4  -6  11   39.18    6.86
   4  -6 -12  177.11   14.53
   4  -6  12  166.13   15.40
  -4   6 -12  199.72   18.35
  -4  -6 -12  213.51   15.28
  -4  -6 -12  154.40   13.15
  -4  -6  12  200.46   15.38
   4  -6  13   21.13    7.37
  -4  -6 -13   15.01    4.99
  -4   6 -13   12.15    7.12
  -4  -6 -13   23.77    6.63
   4  -6 -13   30.63    6.84
   4  -8   0 1971.30   26.48
   4   8   0 1927.83   32.49
  -4  -8   0 2001.61   34.09
   4  -8   1  147.27    6.51
   4   8   1  136.50    9.07
   4   8  -1  137.56    8.77
  -4  -8  -1  147.50    9.30
   4  -8  -1  141.27    7.65
  -4  -8   1  147.88    9.51
  -4  -8   1  145.36    6.98
   4   8   2   39.41    5.14
   4   8  -2   33.80    4.29
  -4   8  -2   37.15    4.19
  -4  -8  -2   33.74    4.60
  -4  -8   2   30.38    4.66
  -4  -8   2   37.36    3.89
   4  -8  -2   37.36    4.43
   4   8   3  228.77   12.26
   4   8  -3  272.99   11.95
  -4   8  -3  269.10   12.50
  -4  -8  -3  266.79   12.67
  -4  -8   3  298.96   11.52
  -4  -8   3  312.92   15.20
   4  -8  -3  255.38   11.67
   4   8   4  510.31   19.28
  -4   8  -4  483.03   18.66
   4   8  -4  526.90   16.81
  -4  -8  -4  499.54   17.95
  -4  -8   4  548.87   16.63
   4  -8  -4  485.91   16.94
  -4  -8   5    7.49    2.56
   4   8  -5    2.76    1.98
  -4  -8  -5    6.33    3.12
   4  -8  -5    5.15    2.32
  -4   8  -5    9.08    4.01
  -4  -8  -5    7.12    2.87
  -4  -8   5   -1.11    3.09
   4  -8  -6  110.90    9.26
  -4   8  -6   99.56   10.64
   4   8  -6  108.90    7.83
  -4  -8  -6  112.57    8.78
  -4  -8   6  113.34    8.65
  -4  -8  -6   96.41   10.01
   4  -8  -7  457.51   19.21
  -4   8  -7  472.20   23.19
  -4  -8  -7  463.19   18.55
   4   8  -7  487.99   17.03
  -4  -8  -7  422.22   18.99
  -4  -8   7  495.34   18.99
  -4  -8   8   10.06    3.87
  -4   8  -8    9.90    4.91
   4  -8  -8    7.96    3.26
  -4  -8  -8   10.53    3.49
   4   8  -8    6.61    2.78
  -4  -8  -8   13.21    4.09
  -4  -8   9   25.15    5.35
   4  -8   9   22.68    5.75
  -4  -8  -9   29.03    5.62
  -4  -8  -9   15.15    4.48
   4  -8  -9   22.67    5.58
  -4   8  -9   25.21    7.15
   4  -8  10   33.22    7.15
   4  -8 -10   32.61    6.65
  -4  -8  10   45.69    7.10
  -4  -8 -10   35.07    6.82
  -4   8 -10   30.09    8.08
  -4  -8 -10   29.74    5.75
   4  -8  11  231.93   17.91
   4  -8 -11  279.94   18.01
  -4   8 -11  269.19   21.55
  -4  -8 -11  259.26   17.35
  -4  -8 -11  289.81   16.84
  -4  -8  11  286.92   17.76
   4  -8  12    1.85    4.28
  -4  -8 -12    7.61    4.82
  -4  -8 -12    1.51    4.35
   4  10   0   63.48    6.62
  -4 -10   0   78.55    7.47
   4  10   1   17.52    3.99
   4  10  -1   20.71    4.12
   4 -10  -1   11.76    2.83
  -4 -10  -1   13.62    3.54
  -4 -10   1   20.44    4.50
   4  10   2  447.54   18.60
   4 -10  -2  487.14   16.38
   4  10  -2  514.47   17.68
  -4 -10  -2  459.24   17.62
  -4 -10   2  585.88   21.64
  -4 -10   2  547.99   15.23
   4  10   3  101.46    9.37
   4 -10  -3   92.29    7.72
   4  10  -3   86.49    7.65
  -4 -10  -3  105.91    8.74
  -4 -10   3   95.71    6.95
   4  10   4  139.93   10.92
   4  10  -4  128.53    9.07
   4 -10  -4  141.76   10.11
  -4 -10  -4  159.15   10.67
  -4 -10   4  171.23   14.21
  -4 -10   4  159.08    9.58
   4 -10  -5  497.53   19.58
  -4 -10   5  551.03   18.80
   4  10  -5  526.18   18.01
  -4 -10  -5  499.08   19.26
  -4 -10   6    2.08    2.21
   4  10  -6    5.98    2.57
  -4 -10  -6    0.36    2.59
  -4 -10  -6   -1.16    2.92
  -4  10  -6   -0.32    3.26
   4 -10  -6    7.55    3.56
   4 -10  -7    7.36    3.65
  -4 -10   7    3.83    2.99
  -4 -10  -7    4.73    3.17
  -4 -10  -7    4.93    3.68
  -4  10  -7   11.31    5.00
   4 -10  -8   75.51    9.05
  -4 -10  -8   54.34    7.18
  -4  10  -8   47.19    8.71
  -4 -10  -8   62.35    8.68
  -4 -10   8   58.66    7.64
   4 -10  -9  627.31   25.80
  -4  10  -9  513.21   28.73
  -4 -10  -9  537.80   22.19
  -4 -10  -9  581.36   25.53
  -4 -10   9  589.09   23.80
  -4 -10 -10   31.73    7.10
  -4 -10  10   37.68    7.17
   4 -10 -10   30.21    6.94
  -4  10 -10   39.44    9.67
  -4  10 -11   55.88   12.00
   4  12   0  333.76   16.01
  -4 -12   0  368.07   17.73
   4  12   1   29.56    5.68
   4  12  -1   28.18    4.92
  -4 -12   1   48.17    7.09
  -4 -12  -1   31.38    5.56
   4  12  -2   33.30    5.47
  -4 -12  -2   41.79    6.33
  -4 -12   2   42.53    7.78
   4  12   3  110.31   10.82
   4  12  -3  144.59   10.44
   4 -12  -3  140.21    9.93
  -4 -12  -3  112.73   10.54
   4  12   4   47.95    7.33
   4 -12  -4   39.30    5.99
   4  12  -4   46.32    6.09
  -4 -12  -4   32.22    5.83
   4  12   5    6.82    3.96
  -4 -12   5    9.52    3.69
   4 -12  -5   10.10    4.15
  -4 -12  -5    9.51    3.90
   4  12   6   67.85    9.51
   4 -12  -6   70.28    8.62
  -4 -12  -6   65.48    8.01
  -4 -12   6   70.16    7.73
   4 -12  -7  809.49   28.48
  -4 -12   7  723.39   24.91
  -4 -12   8    8.97    4.47
   4 -12  -8    9.82    5.08
  -4 -12  -8    7.53    5.11
  -4 -12   9    6.06    4.17
   4 -12  -9   10.40    5.54
   4  14   0   46.08    7.17
  -4 -14   0   43.62    8.14
   4  14   1   35.44    6.24
  -4 -14  -1   22.12    5.72
  -4 -14   1   28.54    6.67
   4  14   2   35.98    6.52
  -4 -14   2   47.86    9.38
   4  14   3   21.49    5.65
   4  14   4   45.60    8.05
   4  14   5  361.85   21.62
   5   1   0   37.50    3.81
   5  -1   0   35.65    3.48
  -5   1   0   37.62    3.72
  -5  -1   0   39.75    4.04
   5   1   1  369.08   11.59
   5   1  -1  376.14   12.04
   5  -1   1  378.31   10.89
   5  -1  -1  334.50   10.61
  -5   1  -1  407.01   12.44
  -5  -1  -1  400.27   12.88
  -5   1   1  402.55   11.75
  -5  -1   1  416.16   12.78
   5   1   2  187.21    8.32
   5  -1   2  163.58    7.08
   5   1  -2  170.59    8.30
  -5   1  -2  171.00    8.60
  -5  -1  -2  186.34    9.27
   5  -1  -2  172.70    8.15
  -5   1   2  182.01    7.86
  -5  -1   2  187.09    8.64
   5   1   3 2225.43   28.28
   5  -1   3 2254.99   25.90
  -5   1  -3 2234.21   33.19
  -5  -1  -3 2187.32   32.67
   5   1  -3 2097.02   29.61
   5  -1  -3 2105.44   29.71
  -5  -1   3 2170.31   31.13
  -5   1   3 2053.08   28.78
   5   1   4   10.80    2.42
   5  -1   4   17.33    2.58
  -5  -1   4   14.48    3.27
   5   1  -4   10.02    2.56
  -5   1  -4   11.71    2.83
  -5  -1  -4   11.15    2.88
   5  -1  -4    9.15    2.39
  -5   1   4    8.68    2.47
  -5   1   5    5.57    3.28
   5   1   5   18.92    2.95
   5  -1   5   14.83    2.32
   5   1  -5   21.27    3.48
  -5   1  -5   15.28    3.28
  -5  -1  -5   15.53    3.46
   5  -1  -5   12.35    2.66
  -5  -1   5   11.14    3.09
   5   1   6  326.22   12.22
   5  -1   6  311.32   10.20
  -5   1  -6  311.32   15.04
  -5  -1  -6  281.43   14.04
   5   1  -6  288.76   12.45
   5  -1  -6  300.50   12.66
   5   1   7 2497.45   34.67
   5  -1   7 2513.36   29.69
  -5   1  -7 2344.06   43.48
  -5  -1  -7 2391.96   42.48
   5   1  -7 2401.17   37.02
   5  -1  -7 2228.13   36.80
   5   1   8  418.90   14.97
   5  -1   8  372.70   11.92
  -5   1  -8  398.60   18.72
  -5  -1  -8  409.02   18.50
   5   1  -8  368.89   15.38
   5  -1  -8  362.17   15.55
  -5  -1   8  357.56   15.70
   5   1   9   22.27    4.39
  -5   1  -9   30.38    6.20
  -5  -1   9   26.46    4.95
   5   1  -9   33.34    5.46
   5  -1  -9   24.12    4.54
  -5  -1  -9   25.75    5.51
  -5   1 -10   57.95    8.51
  -5  -1 -10   39.32    6.92
  -5  -1  10   46.81    6.73
  -5   1  10   42.14    6.09
   5   1 -10   42.31    5.91
   5  -1 -10   48.74    6.75
  -5   1 -11 1294.68   40.02
  -5  -1 -11 1255.37   38.14
   5   1 -11 1162.73   31.87
   5  -1 -11 1153.17   32.50
  -5   1  11 1290.30   35.04
  -5  -1  11 1097.15   32.11
  -5  -1  12   14.44    4.97
   5   1 -12    4.92    3.47
   5  -1 -12   13.00    4.53
  -5   1 -12    4.16    4.30
  -5  -1 -12   13.55    6.19
  -5   1  12   16.79    5.18
  -5   1  13   11.11    4.61
  -5  -1  13   11.19    5.00
   5   1 -13    0.70    3.38
   5  -1 -13    9.93    4.86
  -5   1 -13   12.99    6.67
  -5  -1 -13   11.89    6.38
   5   1 -14    7.29    5.70
   5   3   0  927.11   20.15
   5  -3   0  960.79   17.34
   5   3   1 1001.63   20.43
   5   3  -1  905.24   19.94
  -5   3  -1 1024.90   18.66
   5  -3   1  967.76   16.67
  -5  -3  -1 1031.78   21.89
  -5   3   1 1114.77   16.91
   5  -3  -1  952.65   18.01
  -5  -3   1 1062.31   22.35
   5   3   2   35.12    4.13
   5   3  -2   37.41    4.12
  -5   3  -2   36.84    4.04
   5  -3   2   37.36    3.15
  -5  -3  -2   46.02    4.78
   5  -3  -2   34.13    3.68
  -5   3   2   34.68    3.26
  -5  -3   2   35.13    4.22
   5   3   3 2612.38   34.27
  -5   3  -3 2524.69   34.78
   5   3  -3 2467.94   33.59
   5  -3   3 2537.36   25.09
  -5  -3  -3 2655.75   37.71
   5  -3  -3 2457.89   32.11
  -5  -3   3 2652.84   36.64
   5   3   4  164.90    9.13
  -5   3  -4  147.83    9.51
   5  -3   4  149.83    5.98
   5   3  -4  148.82    8.43
  -5  -3  -4  160.54    9.44
   5  -3  -4  148.55    8.43
  -5  -3   4  167.23    9.66
   5   3   5   10.52    2.78
   5  -3  -5    8.88    2.62
   5  -3   5    4.94    1.26
   5   3  -5    5.75    2.28
  -5   3  -5    6.63    2.79
  -5  -3  -5    7.78    2.62
  -5  -3   5    2.75    2.80
   5   3   6  274.21   12.48
  -5   3  -6  271.81   14.48
  -5  -3  -6  278.22   13.90
   5   3  -6  257.07   11.89
   5  -3  -6  252.77   12.15
  -5  -3   6  234.98   11.67
   5   3   7 2349.14   37.45
  -5   3  -7 2416.69   45.87
  -5  -3  -7 2342.97   42.09
   5   3  -7 2189.77   35.69
   5  -3  -7 2117.01   36.18
  -5  -3   7 2261.10   37.99
   5   3   8   94.12    8.10
  -5   3  -8  114.18   10.72
  -5  -3  -8  104.29    9.40
   5   3  -8  103.62    8.05
   5  -3  -8  110.99    9.03
  -5  -3   8  120.76    9.63
   5   3   9   32.16    5.28
  -5   3  -9   48.23    7.72
  -5  -3  -9   37.52    6.33
   5   3  -9   34.81    5.14
  -5  -3   9   35.04    5.57
   5  -3  -9   29.66    5.06
  -5   3 -10  121.33   12.36
  -5  -3 -10  126.43   11.33
   5   3 -10  133.43   10.52
   5  -3 -10  135.30   11.11
  -5  -3  10  128.48   10.76
  -5   3 -11 1359.37   42.66
  -5  -3 -11 1344.10   38.68
   5  -3 -11 1265.52   34.40
  -5  -3  11 1262.53   34.99
   5   3 -11 1198.46   31.03
  -5   3  11 1310.22   34.00
  -5   3  12   29.16    6.46
  -5  -3  12   22.18    5.42
   5   3 -12   31.02    6.40
   5  -3 -12   31.46    6.50
  -5   3 -12   39.48    8.87
  -5  -3 -12   35.72    7.30
  -5   3  13   13.81    5.03
  -5  -3  13   33.11    7.18
   5  -3 -13   16.99    5.99
  -5   3 -13   35.59    8.95
  -5  -3 -13   22.53    6.85
  -5   5   0  315.21    8.93
  -5  -5   0  311.45   12.92
   5  -5   0  313.83   10.07
   5   5   1   31.75    4.19
   5   5  -1   36.43    4.47
  -5   5  -1   37.45    3.61
  -5  -5  -1   41.97    4.83
  -5   5   1   29.01    2.50
  -5  -5   1   28.99    4.03
   5  -5   1   28.39    2.96
   5  -5  -1   36.29    3.91
   5   5   2   62.42    5.82
   5   5  -2   75.35    6.29
  -5   5  -2   72.98    5.55
  -5  -5  -2   74.35    6.53
  -5  -5   2   81.37    6.98
   5  -5   2   77.51    4.40
  -5  -5   2   73.88    5.41
   5  -5  -2   58.80    5.11
   5   5   3  801.47   21.39
   5   5  -3  830.80   20.72
  -5   5  -3  878.34   21.26
  -5  -5  -3  820.12   21.96
   5  -5   3  918.03   13.86
  -5  -5   3  916.78   23.95
   5  -5  -3  716.48   18.19
  -5  -5   3  819.74   18.59
  -5   5  -4  384.36   15.29
   5   5  -4  388.58   14.29
  -5  -5  -4  404.84   16.02
  -5  -5   4  403.63   17.25
   5  -5  -4  394.57   14.08
  -5  -5   4  374.16   13.78
  -5  -5   5    2.85    1.98
   5  -5  -5    5.97    2.34
   5   5  -5    3.21    2.11
  -5   5  -5    2.75    2.58
  -5  -5  -5    5.84    2.72
  -5  -5   5   -0.96    1.93
   5   5   6  333.84   15.07
  -5   5  -6  326.24   16.68
  -5  -5  -6  359.58   15.95
   5   5  -6  323.83   13.68
   5  -5  -6  355.40   15.26
  -5  -5   6  341.90   14.45
   5   5   7 1820.23   37.01
  -5   5  -7 1923.53   42.61
  -5  -5  -7 1886.08   37.33
   5   5  -7 2022.94   34.87
   5  -5  -7 1780.84   35.60
  -5  -5   7 1911.24   36.27
  -5   5  -8  527.52   23.78
  -5  -5  -8  553.62   21.53
   5   5  -8  541.22   18.63
  -5  -5   8  518.20   19.99
   5  -5  -8  468.48   19.01
  -5   5  -9   55.17    8.83
  -5  -5  -9   64.41    8.01
   5   5  -9   57.04    6.60
  -5  -5   9   52.96    7.07
   5  -5  -9   50.14    7.09
  -5   5 -10  195.64   16.29
  -5  -5 -10  182.05   13.71
   5   5 -10  161.10   11.34
  -5  -5  10  164.14   12.41
   5  -5 -10  160.29   12.59
  -5   5 -11  753.44   33.21
  -5  -5 -11  805.09   29.51
   5   5 -11  713.70   24.60
  -5  -5  11  764.44   28.08
   5  -5 -11  706.74   26.69
  -5  -5  12   10.32    5.51
   5  -5 -12   11.13    5.18
  -5   5 -12    1.90    4.84
  -5  -5 -12    6.75    4.49
  -5  -5 -12    0.68    3.43
  -5   5  13    6.18    4.50
   5   7   0  431.89   15.69
  -5  -7   0  429.02   16.44
   5  -7   0  445.94   12.83
  -5  -7   0  446.32   11.50
   5   7   1  987.16   24.30
   5   7  -1 1026.00   24.30
  -5  -7  -1 1016.08   25.29
  -5  -7   1 1040.23   25.93
   5  -7  -1 1015.85   20.60
   5  -7   1 1035.60   18.06
  -5  -7   1 1066.20   19.44
   5   7   2   66.32    6.56
   5   7  -2   67.00    6.41
  -5   7  -2   56.41    5.04
  -5  -7  -2   62.37    6.52
  -5  -7   2   54.00    6.24
   5  -7  -2   66.03    5.86
  -5  -7   2   60.36    5.06
   5   7   3 1727.34   34.45
   5   7  -3 1720.94   32.12
  -5   7  -3 1637.73   29.55
  -5  -7  -3 1685.46   33.83
  -5  -7   3 1810.75   36.47
  -5  -7   3 1736.59   28.52
   5  -7  -3 1686.48   29.92
   5   7   4  151.66   10.54
  -5   7  -4  140.85    9.78
   5   7  -4  140.57    9.33
  -5  -7  -4  127.09    9.31
  -5  -7   4  151.35   11.24
   5  -7  -4  142.26    9.11
  -5  -7   4  140.72    8.72
   5   7   5   12.95    3.64
   5   7  -5   18.45    3.69
   5  -7  -5   17.46    3.73
  -5  -7  -5   26.89    4.84
  -5   7  -5   19.69    4.59
  -5  -7   5   23.68    4.18
  -5  -7   5   21.74    4.70
   5   7   6  342.63   16.64
  -5   7  -6  305.46   17.06
   5   7  -6  331.02   14.18
  -5  -7  -6  324.44   15.64
  -5  -7   6  351.70   25.39
  -5  -7   6  354.67   15.19
   5  -7  -6  313.60   15.26
   5   7   7 1129.84   31.86
  -5   7  -7 1115.52   34.46
  -5  -7  -7 1175.06   30.99
   5   7  -7 1164.31   27.40
  -5  -7   7 1236.31   30.14
   5  -7  -7 1222.75   30.77
  -5   7  -8  148.25   13.42
  -5  -7  -8  159.97   12.14
   5   7  -8  164.00   10.88
  -5  -7   8  170.14   11.98
   5  -7  -8  137.19   11.24
  -5  -7  -9   13.01    6.76
  -5  -7  -9   43.22    6.86
   5   7  -9   35.52    5.62
  -5   7  -9   21.02    6.40
  -5  -7   9   36.71    6.46
   5  -7  -9   38.66    6.70
  -5  -7  10   -1.29    3.05
   5  -7 -10   -0.21    3.07
  -5   7 -10    5.27    5.00
  -5  -7 -10    2.59    3.59
  -5  -7 -10    2.67    3.73
   5  -7 -11  803.10   30.19
  -5   7 -11  803.36   36.31
  -5  -7 -11  758.24   28.93
  -5  -7  11  847.51   29.87
  -5   7 -12    2.06    5.62
  -5  -7 -12   10.80    5.55
   5   9   0   48.57    6.00
  -5  -9   0   55.78    6.71
   5  -9  -1   20.96    3.82
   5   9   1   24.11    4.32
   5   9  -1   20.79    4.13
  -5  -9  -1   19.03    4.07
  -5  -9   1   19.89    4.31
   5   9   2  224.57   13.12
   5   9  -2  207.27   11.95
  -5  -9  -2  214.53   12.58
  -5  -9   2  216.26   13.10
  -5  -9   2  241.89   10.30
   5  -9  -2  192.36   10.31
   5   9   3  560.01   21.39
   5   9  -3  594.11   20.06
  -5  -9  -3  577.92   20.60
  -5  -9   3  587.95   23.06
  -5  -9   3  587.38   16.98
   5  -9  -3  522.84   17.90
   5   9   4  672.70   24.08
   5   9  -4  607.16   20.51
  -5  -9  -4  667.98   22.63
  -5  -9   4  694.99   27.52
  -5  -9   4  653.89   19.13
   5  -9  -4  624.98   20.48
   5   9   5   23.80    5.13
   5   9  -5   33.59    5.03
  -5  -9  -5   29.25    5.19
  -5  -9   5   44.40    8.00
  -5  -9   5   31.74    4.92
   5  -9  -5   31.01    5.03
   5   9   6   15.78    4.49
  -5  -9   6   11.83    3.47
   5   9  -6   10.11    3.45
   5  -9  -6   14.54    4.03
  -5   9  -6    7.61    4.28
  -5  -9  -6    9.92    3.37
   5   9   7 1233.97   35.61
   5  -9  -7 1272.33   33.42
   5   9  -7 1207.38   29.57
  -5  -9  -7 1179.77   31.49
   5   9   8   66.75    9.19
   5  -9  -8   81.30    9.23
  -5   9  -8   54.50    9.13
  -5  -9  -8   82.87    9.38
  -5  -9   8   83.13    8.83
  -5  -9   9   14.75    5.17
  -5  -9  -9   11.01    4.36
  -5   9  -9   16.82    6.43
   5  -9  -9   13.64    4.90
   5  -9 -10  189.49   15.38
  -5   9 -10  155.12   16.10
  -5  -9 -10  201.91   14.56
  -5  -9  10  198.01   14.78
  -5   9 -11  328.05   24.82
  -5  -9 -11  413.55   21.55
   5  11   0  713.16   24.15
  -5 -11   0  730.66   25.15
   5  11   1  646.15   23.13
  -5 -11  -1  709.80   24.64
  -5 -11   1  648.70   23.88
   5  11   2   34.96    5.67
   5  11  -2   37.72    5.71
  -5 -11  -2   58.66    7.28
  -5 -11   2   53.45    7.48
   5  11   3  840.65   28.80
   5 -11  -3  804.04   23.39
   5  11  -3  790.92   24.75
  -5 -11  -3  802.46   25.90
   5  11   4  280.22   16.76
   5 -11  -4  263.43   14.36
  -5 -11  -4  263.58   15.08
  -5 -11   4  312.85   19.54
  -5 -11   5    9.28    7.40
   5 -11  -5   13.47    4.41
   5  11  -5    8.52    3.63
  -5 -11   5    3.53    2.92
  -5 -11  -5    7.13    3.17
   5  11   6   73.88   10.15
   5 -11  -6   52.78    7.64
  -5 -11  -6   81.45    9.16
  -5 -11   6   60.82    7.20
   5  11   7  293.16   19.04
   5 -11  -7  304.20   17.51
  -5 -11  -7  298.89   17.40
  -5 -11   7  309.82   16.43
   5  11   8   -2.34    3.85
  -5 -11   8    9.06    4.31
  -5 -11  -8    1.84    3.60
   5 -11  -8    1.05    3.78
   5 -11  -9    4.10    3.65
  -5 -11   9   -0.28    4.23
  -5 -11  -9   -6.52    5.13
   5  13   0  326.50   17.76
  -5 -13   0  394.82   20.60
   5  13   1   10.48    4.36
   5  13  -1   10.23    4.47
  -5 -13  -1    8.91    4.55
  -5 -13   1    9.19    4.96
   5  13   2  182.45   13.90
   5  13  -2  165.97   12.78
  -5 -13  -2  182.36   13.57
  -5 -13   2  204.51   16.47
   5  13   3   80.99    9.84
  -5 -13  -3   83.86    9.73
  -5 -13   3  107.06   13.39
   5  13   4  151.33   14.21
  -5 -13  -4  166.22   12.86
  -5 -13   4  198.69   23.93
   5  13   5   21.14    6.43
  -5 -13  -5   19.42    5.49
   5 -13  -6    6.36    4.42
   5 -13  -7  388.71   20.42
   5  15   0  545.44   24.41
  -5 -15   0  820.37   33.81
   5  15   1  570.85   25.56
  -5 -15   1  684.60   31.46
   6   0   0 8077.82   58.34
  -6   0   0 7694.67   59.90
   6   0   1    1.14    1.28
   6   0  -1    0.76    1.33
  -6   0  -1   -0.57    1.39
  -6   0   1    0.64    1.17
   6   0   2   69.17    5.50
   6   0  -2   50.71    5.00
  -6   0  -2   68.01    6.22
  -6   0   2   71.19    5.97
   6   0   3    2.49    1.51
  -6   0  -3    1.76    1.68
   6   0  -3    0.81    1.44
  -6   0   3    1.04    1.46
   6   0   4 1381.26   24.40
  -6   0  -4 1335.04   29.35
   6   0  -4 1300.34   26.42
   6   0   5    1.63    1.70
  -6   0  -5   -2.17    2.30
   6   0  -5    1.38    1.65
  -6   0   5    3.09    2.15
  -6   0  -6   24.64    4.75
   6   0  -6   24.17    4.08
   6   0  -7   -1.60    2.31
   6   0   7    0.45    1.59
  -6   0  -7    1.38    2.55
   6   0   8  270.56   11.80
  -6   0  -8  258.44   15.79
   6   0  -8  263.06   13.83
   6   0  -9   -2.10    2.73
  -6   0  -9    3.60    3.44
  -6   0 -10  153.49   13.34
   6   0 -10  166.44   12.00
  -6   0  10  175.85   12.76
  -6   0  11    3.64    3.84
   6   0 -11    5.89    3.50
  -6   0 -11    1.34    3.77
  -6   0  12    2.33    3.93
   6   0 -12    2.40    3.32
  -6   0 -12    4.18    4.34
   6   0 -13   -0.13    4.02
   6   2   0  875.56   20.85
   6  -2   0  831.67   18.26
  -6   2   0  903.38   19.49
  -6  -2   0  892.22   21.40
   6   2   1    1.94    1.67
   6   2  -1    0.29    1.41
   6  -2   1    2.07    1.47
   6  -2  -1    2.59    1.17
  -6   2  -1    1.43    1.60
  -6  -2  -1    0.21    1.27
  -6   2   1    1.17    1.39
  -6  -2   1    3.68    1.86
   6   2   2 1247.34   24.91
   6   2  -2 1187.16   24.37
   6  -2   2 1195.12   20.69
  -6   2  -2 1208.24   24.52
  -6  -2  -2 1166.74   25.72
   6  -2  -2 1108.45   22.38
  -6   2   2 1258.86   21.51
  -6  -2   2 1172.54   25.29
   6   2   3   54.82    5.17
   6  -2   3   55.28    4.55
  -6   2  -3   48.91    5.51
   6   2  -3   46.97    5.05
  -6  -2  -3   56.63    5.96
   6  -2  -3   51.05    5.04
  -6  -2   3   50.11    5.36
  -6   2   3   52.92    5.06
   6   2   4  641.91   17.91
   6  -2   4  651.05   15.06
  -6   2  -4  629.48   20.09
  -6  -2  -4  599.38   19.94
   6   2  -4  615.35   18.43
   6  -2  -4  619.22   17.70
  -6  -2   4  574.56   19.56
   6   2   5   31.12    4.19
   6  -2   5   38.17    3.84
  -6   2  -5   27.47    4.66
  -6  -2  -5   26.07    4.41
   6   2  -5   31.31    4.48
   6  -2  -5   28.27    4.21
  -6  -2   5   32.57    5.57
   6   2   6   61.99    6.06
   6  -2   6   63.73    4.92
  -6   2  -6   63.09    7.30
  -6  -2  -6   71.63    7.64
   6   2  -6   53.50    5.96
   6  -2  -6   60.59    6.28
   6  -2  -7    2.00    2.09
   6   2   7    0.40    2.16
  -6   2  -7    2.75    2.76
  -6  -2  -7    1.34    2.23
   6   2  -7   -0.64    1.62
   6   2   8  487.90   18.14
  -6   2  -8  469.60   21.84
  -6  -2  -8  483.70   21.09
   6   2  -8  534.54   19.27
   6  -2  -8  437.58   17.87
  -6  -2   8  432.96   18.30
   6   2  -9   10.56    3.80
   6   2   9   19.73    4.38
  -6  -2   9    1.27    2.47
   6  -2  -9    8.88    3.28
  -6   2  -9   10.69    4.39
  -6  -2  -9   17.34    5.03
  -6   2 -10  204.31   16.14
  -6  -2 -10  194.90   15.02
   6  -2 -10  187.64   13.29
  -6  -2  10  204.58   14.12
  -6   2  11   22.80    5.55
  -6  -2  11   30.80    6.21
   6   2 -11   24.89    5.55
   6  -2 -11   21.03    5.49
  -6   2 -11   28.58    6.86
  -6  -2 -11   24.99    6.34
  -6   2 -12  152.99   15.59
  -6  -2 -12  145.79   14.35
  -6   2  12  133.76   12.84
   6  -2 -12  131.62   12.29
  -6  -2  12  127.03   12.28
   6   2 -13    3.76    4.30
   6   4   0 2887.52   40.13
  -6   4   0 3202.40   32.67
  -6  -4   0 3092.19   42.60
   6  -4   0 2857.50   33.13
   6   4   1   33.24    4.47
   6   4  -1   29.86    4.41
  -6   4  -1   38.69    4.15
  -6  -4  -1   55.43    5.96
   6  -4   1   44.23    3.99
  -6   4   1   49.62    4.02
  -6  -4   1   33.90    4.53
   6  -4  -1   37.55    4.03
   6   4   2    4.23    1.96
   6   4  -2    5.63    2.01
   6  -4   2    4.40    1.47
  -6   4  -2    5.30    2.27
  -6  -4  -2    7.07    2.71
  -6  -4   2    6.89    2.20
  -6   4   2    3.91    1.60
   6  -4  -2    9.63    2.40
   6   4   3   69.62    6.54
   6   4  -3   78.79    6.85
  -6   4  -3   79.00    6.85
  -6  -4  -3   65.46    6.70
   6  -4   3   83.06    5.01
  -6  -4   3   75.20    7.11
   6  -4  -3   64.35    5.74
   6   4   4 1584.91   30.73
  -6   4  -4 1654.18   32.55
   6   4  -4 1592.75   30.54
   6  -4   4 1632.15   21.43
  -6  -4   4 1666.08   35.56
   6  -4  -4 1605.63   29.91
  -6  -4   5   20.71    3.74
   6   4   5    8.66    2.90
   6  -4  -5   15.64    3.42
   6   4  -5    7.05    2.64
  -6   4  -5   11.89    3.39
  -6  -4  -5   15.18    3.66
  -6  -4   5   10.81    4.32
  -6   4  -6   58.53    7.38
  -6  -4  -6   74.56    7.74
   6   4  -6   70.02    6.86
  -6  -4   6   56.64    9.56
   6  -4  -6   67.18    6.90
  -6  -4   6   73.51    7.04
   6   4   7  121.40    9.78
  -6   4  -7  141.75   11.69
  -6  -4  -7  143.83   11.03
   6   4  -7  145.93   10.19
   6  -4  -7  123.77    9.45
  -6  -4   7  136.66   10.20
   6   4   8   -1.43    2.84
  -6  -4   8   -0.27    2.18
   6  -4  -8    6.89    3.58
   6   4  -8   -0.28    1.92
  -6  -4  -8   -0.04    2.40
  -6   4  -8   -1.62    2.80
   6   4   9    1.37    3.92
  -6  -4   9    0.99    3.00
   6  -4  -9    0.38    3.00
  -6  -4  -9    0.13    2.95
  -6   4  -9   -1.87    3.93
   6   4  -9    2.54    2.78
   6   4  10  252.91   15.92
  -6   4 -10  274.65   19.00
  -6  -4 -10  276.76   17.70
   6   4 -10  247.12   14.51
   6  -4 -10  260.53   15.87
  -6  -4  10  243.21   15.50
   6   4  11   87.11   10.12
  -6   4 -11   85.21   11.73
  -6  -4 -11   84.38   10.58
   6   4 -11   58.94    7.78
   6  -4 -11   74.35    9.22
  -6  -4  11   62.06    8.52
  -6   4  12   27.98    6.35
  -6  -4  12    6.33    4.31
   6   4 -12   21.43    5.75
   6  -4 -12    5.17    3.59
  -6   4 -12   19.58    7.87
  -6  -4 -12   23.21    7.08
   6   6   0  194.55   11.20
  -6  -6   0  179.81    8.15
   6  -6   0  201.12    9.02
   6   6   1   19.99    3.77
   6   6  -1   12.59    3.15
   6  -6   1   17.63    2.78
   6  -6  -1   20.41    3.27
  -6  -6  -1   21.98    2.86
  -6  -6   1   15.06    2.81
  -6  -6  -1   19.50    3.93
  -6  -6   1   18.31    3.88
   6   6   2  298.96   14.14
   6   6  -2  308.57   14.09
  -6   6  -2  340.03   12.41
  -6  -6  -2  314.13   14.63
  -6  -6   2  338.70   15.58
   6  -6   2  318.68   10.33
   6  -6  -2  300.39   12.12
  -6  -6   2  318.16   12.08
   6   6   3   68.07    6.95
   6   6  -3   62.16    6.48
  -6   6  -3   78.88    6.70
  -6  -6  -3   64.18    7.02
  -6  -6   3   71.17    7.48
   6  -6  -3   67.34    6.14
  -6  -6   3   69.37    6.19
   6   6   4 1501.43   32.73
  -6   6  -4 1456.47   30.84
   6   6  -4 1449.78   30.61
  -6  -6  -4 1438.19   32.33
  -6  -6   4 1536.92   30.21
  -6  -6   4 1479.48   35.19
   6  -6  -4 1439.34   29.90
   6   6   5  164.90   11.60
  -6   6  -5  158.09   11.22
   6   6  -5  169.86   10.67
  -6  -6  -5  173.66   11.67
  -6  -6   5  201.18   15.47
   6  -6  -5  149.62   10.41
  -6  -6   5  189.49   10.95
   6   6   6   22.78    4.61
   6   6  -6   28.32    4.73
  -6  -6   6   31.66    8.32
  -6   6  -6   24.26    5.25
   6  -6  -6   37.81    5.71
  -6  -6  -6   22.50    4.83
  -6  -6   6   32.85    5.03
   6   6   7   20.98    4.72
  -6  -6   7   22.22    4.39
   6  -6  -7   23.68    4.69
   6   6  -7   24.24    4.67
  -6   6  -7   10.87    3.71
  -6  -6  -7   29.77    5.71
   6   6   8  194.97   14.16
  -6   6  -8  138.33   13.01
  -6  -6  -8  157.77   12.89
   6   6  -8  157.39   11.21
  -6  -6   8  157.40   11.93
   6  -6  -8  144.04   11.39
   6   6   9  200.27   14.80
  -6   6  -9  171.82   14.92
  -6  -6  -9  211.02   14.97
   6   6  -9  181.28   12.32
   6  -6  -9  182.40   13.52
  -6  -6   9  188.15   13.41
   6   6  10  492.57   23.36
  -6  -6 -10  429.96   22.28
   6   6 -10  417.28   18.78
  -6  -6  10  418.48   20.66
   6  -6 -10  422.72   21.10
   6   6  11   28.50    7.26
   6   6 -11   40.04    6.71
   6  -6 -11   20.30    6.08
  -6   6 -11   47.35    9.75
  -6  -6 -11   27.91    6.65
  -6  -6  11   48.98    8.24
   6   8   0 1746.18   35.36
  -6  -8   0 1862.53   37.62
   6   8   1    2.39    2.34
   6   8  -1    7.02    3.03
   6  -8  -1    2.47    1.86
  -6  -8  -1    1.25    1.97
  -6  -8   1    2.32    2.58
   6   8   2   21.96    4.41
   6   8  -2   17.47    3.78
  -6  -8   2   26.50    3.97
  -6  -8  -2   14.07    3.78
  -6  -8   2   27.23    5.05
   6   8  -3  151.95   10.62
  -6  -8  -3  154.60   11.31
  -6  -8   3  137.72   10.81
  -6  -8   3  156.05    9.20
   6  -8  -3  132.25    9.11
   6   8   4  891.51   27.92
   6   8  -4  981.11   26.55
  -6  -8  -4  816.03   26.18
  -6  -8   4 1036.21   31.94
   6  -8  -4  791.69   23.16
  -6  -8   4  912.96   23.39
   6   8   5    1.63    3.26
  -6  -8   5    5.68    2.76
   6  -8  -5    7.24    3.07
   6   8  -5    7.04    2.89
  -6  -8  -5    4.27    2.61
  -6  -8   5    6.63    3.75
   6   8   6   16.16    4.75
  -6  -8   6    8.37    3.37
   6  -8  -6   14.60    4.27
   6   8  -6   12.48    3.46
  -6   8  -6   10.71    4.54
  -6  -8  -6   18.72    4.80
  -6  -8   6    0.88    5.04
   6   8   7  780.37   29.03
   6   8  -7  792.81   24.93
  -6  -8  -7  826.02   28.72
  -6  -8   7  884.84   27.12
   6  -8  -7  775.42   25.83
   6   8   8   11.19    5.13
  -6  -8   8   13.84    4.67
   6  -8  -8   10.83    3.76
   6   8  -8   11.31    3.98
  -6   8  -8    4.55    4.28
  -6  -8  -8   11.58    4.70
   6   8   9   -1.82    4.03
  -6  -8   9    6.14    4.19
  -6  -8  -9    5.54    4.45
   6  -8  -9    4.02    4.12
  -6   8  -9    8.26    5.56
   6   8  -9   -0.98    3.08
   6  -8 -10  131.18   12.96
   6   8  10  143.95   14.07
  -6   8 -10  120.06   14.33
  -6  -8 -10  148.26   13.67
  -6  -8  10  158.05   13.47
  -6   8 -11  136.45   16.34
   6  10   0  360.97   17.49
  -6 -10   0  383.85   18.76
   6  10   1    1.94    2.91
   6  10  -1   -0.96    2.39
  -6 -10  -1   -0.70    2.71
  -6 -10   1    5.76    3.28
   6  10   2  145.56   11.54
   6  10  -2  172.77   11.84
  -6 -10  -2  139.86   11.51
  -6 -10   2  161.40   12.71
   6  10   3   14.55    4.46
   6  10  -3   19.59    4.41
   6 -10  -3   19.32    4.30
  -6 -10  -3   10.88    3.87
  -6 -10   3   20.35    5.58
   6 -10  -4  165.28   11.41
   6  10  -4  158.71   11.55
  -6 -10  -4  191.43   13.53
  -6 -10   4  165.41   14.65
   6 -10  -5  346.66   17.20
   6  10  -5  403.32   18.25
  -6 -10  -5  393.95   19.57
  -6 -10   5  399.59   26.04
  -6 -10   5  429.85   18.14
   6 -10  -6   63.72    8.48
   6  10   6   62.27    8.95
   6  10  -6   55.05    7.02
  -6 -10  -6   65.62    8.82
  -6 -10   6   72.33    8.04
   6  10   7   10.02    5.18
  -6 -10   7    7.75    3.72
   6  10  -7    1.72    3.14
   6 -10  -7    6.53    4.09
  -6 -10  -7    6.20    4.17
   6 -10  -8  214.32   15.64
   6  10   8  225.83   17.81
  -6 -10  -8  210.62   16.20
  -6 -10   8  219.66   15.03
  -6 -10  -9  368.02   20.37
  -6 -10   9  400.68   20.45
   6  12   0  979.70   30.97
  -6 -12   0 1031.01   33.03
   6  12   1    9.35    4.87
   6  12  -1   10.29    3.98
  -6 -12  -1   15.52    5.99
  -6 -12   1   14.69    5.06
   6  12   2   10.06    4.40
   6  12  -2   14.90    4.14
  -6 -12  -2   16.38    5.58
  -6 -12   2   13.64    5.71
   6  12   3  156.58   13.33
   6  12  -3  179.93   13.31
  -6 -12  -3  167.39   13.53
  -6 -12   3  187.43   16.30
   6  12   4   97.76   11.00
  -6 -12   4  109.34   14.34
  -6 -12   5   -0.30    7.08
   6  12   5    7.80    5.08
   6  12  -5    5.18    4.06
  -6 -12  -5    0.11    3.86
   6 -12  -6   11.71    4.48
  -6 -12  -6   19.18    6.17
   6 -12  -7  534.00   23.96
  -6 -12  -7  503.20   24.18
   6  14   0  118.52   12.14
  -6 -14   0  143.10   13.98
   6  14  -1   12.61    5.41
  -6 -14  -1   21.83    6.74
   6  14  -2    4.09    4.18
   7   1   0   19.60    3.46
   7  -1   0   16.97    2.96
  -7   1   0   12.53    2.89
  -7  -1   0   20.43    3.58
   7   1   1  286.54   12.49
   7   1  -1  253.81   11.84
   7  -1   1  268.63   11.47
   7  -1  -1  284.78   12.27
  -7   1  -1  315.27   13.23
  -7  -1  -1  294.64   13.40
  -7   1   1  318.75   12.77
  -7  -1   1  311.76   13.58
   7   1   2   48.67    5.30
   7  -1   2   48.88    4.90
   7   1  -2   43.89    5.06
  -7   1  -2   56.83    5.93
  -7  -1  -2   51.54    5.89
   7  -1  -2   49.55    5.33
  -7  -1   2   56.96    5.96
   7   1   3    9.65    2.82
   7  -1   3   14.17    2.90
   7   1  -3   11.90    2.94
   7  -1  -3    6.14    2.50
  -7  -1  -3   11.11    3.46
  -7   1  -3   10.76    3.14
  -7  -1   3   10.02    3.19
  -7   1   3    6.43    2.66
   7   1   4   40.11    4.97
   7  -1   4   44.61    4.82
  -7   1  -4   37.76    5.57
  -7  -1  -4   29.41    4.91
   7   1  -4   28.68    4.50
   7  -1  -4   36.15    5.01
  -7  -1   4   25.96    4.61
  -7   1   4   34.08    4.58
   7   1   5 1093.93   25.48
   7  -1   5 1021.88   22.39
  -7   1  -5  955.10   27.63
  -7  -1  -5 1002.25   28.49
   7   1  -5  985.60   25.50
   7  -1  -5  903.53   24.08
  -7  -1   5  972.40   29.66
   7   1   6  216.02   11.28
   7  -1   6  204.68   10.25
  -7   1  -6  204.85   13.57
  -7  -1  -6  197.20   13.12
   7   1  -6  190.17   11.59
   7  -1  -6  192.00   11.65
  -7  -1   6  213.33   15.77
   7   1   7  246.86   12.44
  -7   1  -7  222.01   15.01
  -7  -1  -7  249.74   15.82
   7   1  -7  249.77   13.43
   7  -1  -7  237.06   13.60
   7   1   8  285.21   13.71
  -7   1  -8  293.46   18.01
  -7  -1  -8  258.55   16.83
   7   1  -8  301.24   15.52
   7  -1  -8  286.68   15.50
  -7   1  -9  724.59   29.69
  -7  -1  -9  751.07   29.55
   7   1  -9  723.16   25.26
   7  -1  -9  711.98   25.17
  -7  -1   9  736.62   26.05
  -7   1 -10   75.56   10.03
  -7  -1 -10   65.41    9.75
   7   1 -10   51.55    7.77
   7  -1 -10   58.55    7.91
  -7  -1  10   53.34    7.84
  -7   1 -11   71.45   11.13
  -7  -1 -11   80.83   11.04
   7   1 -11   62.51    8.56
   7  -1 -11   63.84    8.82
  -7   1  11   51.55    7.85
  -7  -1  11   59.69    8.62
   7   3   0  324.84   14.25
   7  -3   0  329.00   12.57
  -7   3   0  350.70   13.13
  -7  -3   0  363.37   15.44
   7   3   1  182.01   10.72
   7   3  -1  176.18   10.45
   7  -3   1  162.35    8.41
  -7  -3  -1  183.26   11.14
   7  -3  -1  166.32    9.03
  -7   3   1  170.14    8.90
  -7  -3   1  189.19   11.24
   7   3   2   38.96    5.15
   7   3  -2   46.64    5.54
  -7   3  -2   42.93    5.25
   7  -3   2   36.72    4.11
  -7  -3  -2   40.56    5.48
   7  -3  -2   34.22    4.42
  -7   3   2   33.43    4.21
  -7  -3   2   30.83    5.08
   7   3   3   28.94    4.59
  -7   3  -3   21.87    3.99
   7  -3   3   18.56    3.05
  -7  -3  -3   27.37    4.72
   7   3  -3   18.61    3.71
   7  -3  -3   14.80    3.12
   7   3   4   87.28    7.70
  -7   3  -4   91.34    8.29
   7  -3   4   82.65    5.61
   7   3  -4   85.67    7.62
  -7  -3  -4   82.36    8.17
   7  -3  -4   91.09    7.61
  -7  -3   4   91.07    8.59
   7   3   5  997.12   25.88
  -7   3  -5  991.34   28.58
  -7  -3  -5  953.84   28.45
   7   3  -5  968.76   25.88
   7  -3  -5  821.07   23.54
  -7  -3   5 1134.51   31.85
   7   3   6  320.54   15.30
  -7   3  -6  280.49   16.21
  -7  -3  -6  315.55   16.88
   7   3  -6  270.29   13.94
   7  -3  -6  278.68   14.38
   7   3   7  111.70    9.39
  -7   3  -7  100.22   10.31
  -7  -3  -7  121.24   10.96
   7   3  -7   93.92    8.49
  -7  -3   7  103.90    9.31
   7  -3  -7   99.37    9.14
   7   3   8  134.26   10.62
  -7   3  -8  118.04   11.55
  -7  -3  -8  125.51   11.58
   7   3  -8  120.79    9.93
   7  -3  -8  100.90    9.59
  -7  -3   8  125.07   10.59
   7   3   9  791.05   26.02
  -7   3  -9  767.21   30.32
  -7  -3  -9  861.33   31.50
   7   3  -9  821.47   26.67
   7  -3  -9  789.17   27.55
  -7  -3   9  893.35   29.88
  -7   3 -10  100.70   11.98
  -7  -3 -10   86.02   10.95
   7   3 -10   76.09    8.72
   7  -3 -10   79.98    9.45
  -7  -3  10   86.89    9.84
  -7   3 -11   73.70   10.97
  -7  -3 -11   85.45   11.17
   7   3 -11   52.90    8.04
   7  -3 -11   70.07    9.66
  -7  -3  11   91.17   10.35
   7   5   0   21.80    4.12
   7  -5   0   27.85    3.94
  -7  -5   0   19.59    3.95
   7   5   1  643.29   21.45
  -7  -5  -1  639.88   21.82
  -7  -5   1  637.68   21.55
   7  -5   1  691.22   17.09
   7  -5  -1  610.77   17.68
   7   5   2  167.08   10.89
   7   5  -2  176.01   11.04
  -7   5  -2  186.22    9.99
  -7  -5  -2  200.74   12.46
   7  -5   2  163.39    7.89
  -7  -5   2  197.15   12.40
   7  -5  -2  173.31    9.91
   7  -5  -3    8.85    2.75
   7   5   3   13.59    3.55
   7   5  -3    7.33    2.68
  -7   5  -3    8.68    2.97
  -7  -5  -3   11.94    3.80
  -7  -5   3    7.52    3.02
   7   5   4  127.55   10.01
  -7   5  -4  112.59    9.26
   7   5  -4  128.88    9.75
  -7  -5  -4  110.66    9.68
  -7  -5   4  133.42   11.09
   7  -5  -4  122.84    9.27
  -7  -5   4  115.95    8.72
  -7   5  -5  659.89   23.67
   7   5  -5  705.03   22.78
  -7  -5  -5  731.30   25.31
  -7  -5   5  654.52   29.03
   7  -5  -5  654.18   21.81
  -7  -5   5  706.54   22.12
   7   5   6   78.23    8.42
  -7   5  -6   72.51    8.40
  -7  -5  -6   86.76    9.27
   7   5  -6   83.22    8.28
  -7  -5   6   78.22   10.55
   7  -5  -6   81.28    8.11
  -7  -5   6   72.95    7.85
   7   5   7  121.96   10.68
  -7   5  -7  120.88   11.28
  -7  -5  -7  133.57   11.68
   7   5  -7  133.11   10.75
   7  -5  -7  108.28    9.82
  -7  -5   7  144.65   11.30
   7   5   8  194.93   13.81
  -7   5  -8  164.49   13.69
  -7  -5  -8  199.63   14.91
   7   5  -8  196.59   13.02
   7  -5  -8  180.48   13.38
  -7  -5   8  171.00   12.79
  -7   5  -9  569.59   27.35
  -7  -5  -9  577.38   26.04
   7   5  -9  561.93   22.04
   7  -5  -9  574.33   23.90
  -7  -5   9  605.07   24.53
  -7  -5 -10   67.67   10.13
   7   5 -10   50.98    7.71
  -7   5 -10   52.09    9.71
   7  -5 -10   52.26    7.73
  -7  -5  10   75.52    9.72
   7   5 -11   23.36    5.62
  -7   5 -11   41.24    9.42
   7   7   0  286.00   15.27
  -7  -7   0  265.98   14.80
   7  -7  -1    6.70    2.63
   7   7   1   15.19    4.00
   7   7  -1   11.65    3.66
  -7  -7  -1    3.42    2.52
  -7  -7   1    7.22    3.37
   7   7   2   98.28    9.05
   7   7  -2   96.34    8.92
  -7  -7  -2   86.90    8.67
  -7  -7   2   96.74    9.12
   7  -7  -2   80.05    7.38
  -7  -7   2   86.27    6.99
   7   7   3   83.89    8.91
   7   7  -3   84.21    8.39
  -7  -7  -3   87.50    8.93
  -7  -7   3   73.88    8.46
   7  -7  -3   71.62    6.99
  -7  -7   3   87.76    7.45
   7   7   4   52.61    7.09
   7   7  -4   38.94    5.80
  -7  -7  -4   44.16    6.90
  -7  -7   4   37.32    6.98
   7  -7  -4   43.18    5.85
  -7  -7   4   34.55    5.00
   7   7   5  452.42   20.50
   7   7  -5  446.86   18.83
  -7  -7  -5  421.60   20.44
  -7  -7   5  494.36   25.53
   7  -7  -5  395.00   17.76
  -7  -7   5  437.68   17.78
   7   7   6  298.99   17.17
   7   7  -6  268.48   15.17
  -7  -7  -6  264.57   16.08
  -7  -7   6  205.27   20.22
   7  -7  -6  254.43   14.79
  -7  -7   6  233.55   13.88
   7   7   7   41.73    7.10
  -7  -7  -7   47.30    7.85
  -7   7  -7   22.13    6.07
   7  -7  -7   35.09    6.23
  -7  -7   7   32.28    6.15
   7   7   8  123.15   12.13
  -7  -7   8  121.34   10.99
  -7  -7  -8  146.74   13.34
   7   7  -8  148.15   11.63
   7  -7  -8  118.25   11.09
   7   7   9  503.31   25.12
  -7  -7  -9  521.14   25.07
   7   7  -9  503.06   21.96
  -7  -7   9  486.04   22.35
   7  -7  -9  475.21   22.60
   7   7 -10    5.05    4.15
   7   9   0    0.49    2.60
  -7  -9   0   -1.64    2.82
   7   9   1  548.93   22.54
   7   9  -1  498.18   20.90
  -7  -9  -1  523.96   22.33
  -7  -9   1  498.82   21.90
   7   9   2  376.17   18.87
   7   9  -2  378.21   18.75
  -7  -9  -2  376.51   19.12
  -7  -9   2  412.43   20.21
   7   9   3   62.35    8.27
   7   9  -3   49.80    6.99
  -7  -9  -3   56.82    8.08
  -7  -9   3   44.07    7.18
   7  -9  -3   49.75    6.25
   7   9   4  177.10   13.67
   7   9  -4  153.99   11.74
  -7  -9  -4  185.64   13.96
  -7  -9   4  190.78   16.36
   7  -9  -4  147.86   10.97
   7   9   5  379.23   20.36
   7   9  -5  360.92   18.15
  -7  -9  -5  356.29   19.61
  -7  -9   5  350.36   22.55
  -7  -9   5  369.48   17.04
   7  -9  -5  325.42   16.93
  -7  -9   6    1.39    5.75
  -7  -9   6    2.25    3.15
   7   9   6    3.09    3.83
   7  -9  -6    1.05    2.84
   7   9  -6    4.70    3.75
  -7  -9  -6    3.76    4.21
   7   9   7   52.05    8.67
   7   9  -7   60.51    8.16
  -7  -9  -7   74.13    9.61
  -7  -9   7   75.85    8.99
   7  -9  -7   57.18    8.18
   7   9   8    3.20    4.71
  -7  -9   8   17.16    5.97
   7  -9  -8    9.45    4.59
   7   9  -8    5.66    3.65
  -7  -9  -8   11.17    5.52
   7  11   0  211.24   15.33
  -7 -11   0  223.00   15.90
   7  11   1   10.68    4.54
   7  11  -1    6.03    4.07
  -7 -11  -1    5.58    3.98
  -7 -11   1   15.25    5.39
   7  11   2  190.61   14.45
   7  11  -2  162.82   13.22
  -7 -11  -2  206.91   15.21
  -7 -11   2  186.10   15.30
   7  11   3   21.19    5.78
   7  11  -3   18.17    4.98
  -7 -11  -3   11.43    4.71
  -7 -11   3   31.55    7.94
   7  11   4   42.48    8.37
   7  11  -4   38.42    7.11
  -7 -11  -4   37.32    7.39
  -7 -11   4   32.16    7.78
   7  11   5  241.70   17.90
   7  11  -5  243.23   15.77
  -7 -11  -5  239.20   16.93
  -7 -11   5  277.10   23.37
   7 -11  -6  136.23   12.07
   7  11  -6  146.56   12.47
   7 -11  -7    4.14    4.04
   8   0   0  459.80   16.69
  -8   0   0  535.19   19.02
   8   0   1    4.51    3.01
   8   0  -1    1.14    2.01
  -8   0  -1   -3.95    2.48
  -8   0   1    0.89    1.91
   8   0   2  893.85   23.23
   8   0  -2  880.45   24.20
  -8   0  -2  923.20   25.60
   8   0   3   -0.28    1.72
   8   0  -3    0.62    1.90
  -8   0  -3    2.05    2.53
  -8   0   3    0.56    2.21
   8   0  -4    5.94    2.53
  -8   0  -4    2.74    2.78
  -8   0   4    6.00    3.19
   8   0   5    2.33    2.29
  -8   0  -5   -0.58    2.60
   8   0  -5    3.21    2.55
  -8   0   5   -3.82    3.29
   8   0   6 1146.55   27.28
  -8   0  -6 1140.38   33.20
   8   0  -6 1087.32   28.81
  -8   0  -7   -1.11    2.85
   8   0  -7    2.91    2.36
  -8   0  -8  380.79   21.37
   8   0  -8  363.86   18.19
   8   0  -9    7.13    4.32
  -8   0  -9   -0.76    4.88
   8   0 -10   39.44    7.40
  -8   0 -10   56.22    9.51
  -8   0  10   58.28    8.55
   8   2   0  150.06   10.31
   8  -2   0  140.95    9.08
  -8   2   0  173.69   10.46
  -8  -2   0  181.83   11.60
   8   2   1   -0.73    2.61
   8   2  -1    0.76    2.09
   8  -2   1    3.50    2.11
   8  -2  -1    0.84    1.96
  -8   2  -1    0.81    2.13
  -8  -2  -1    1.06    2.00
  -8   2   1   -1.71    1.92
  -8  -2   1    2.75    2.10
   8   2   2 3013.01   45.86
   8   2  -2 2866.88   44.26
   8  -2   2 2914.35   39.70
  -8   2  -2 3064.21   45.91
  -8  -2  -2 3119.04   49.92
   8  -2  -2 2845.13   42.37
  -8  -2   2 3224.30   48.70
  -8   2   2 2935.19   41.19
   8   2   3   77.14    7.73
   8  -2   3   80.26    6.57
   8   2  -3   85.75    8.19
  -8   2  -3   84.83    8.21
  -8  -2  -3   71.28    7.72
   8  -2  -3   75.06    7.23
  -8  -2   3   90.39    8.33
   8   2   4   26.39    4.93
   8  -2   4   18.92    3.86
   8   2  -4   25.79    4.72
  -8   2  -4   20.20    4.64
  -8  -2  -4   12.57    3.98
   8  -2  -4   20.53    4.20
  -8  -2   4   21.14    4.64
   8   2   5  123.43    9.86
  -8   2  -5  139.00   11.09
  -8  -2  -5  115.23   10.86
   8   2  -5  129.96   10.08
   8  -2  -5  124.01    9.85
  -8  -2   5  112.44   11.75
  -8   2  -6  436.73   20.89
  -8  -2  -6  439.89   21.55
   8   2  -6  461.21   19.41
   8  -2  -6  443.81   18.78
   8  -2  -7    5.91    3.58
   8   2   7    7.29    3.34
  -8   2  -7    7.13    3.65
  -8  -2  -7    4.62    3.43
   8   2  -7    3.36    2.91
  -8   2  -8   59.35    8.83
  -8  -2  -8   57.61    8.62
   8   2  -8   55.39    7.37
   8  -2  -8   51.34    7.53
  -8  -2   8   68.04    8.59
  -8   2  -9   63.24    9.94
  -8  -2  -9   70.94    9.86
   8   2  -9   58.08    7.97
   8  -2  -9   37.39    6.79
  -8  -2   9   49.69    7.52
  -8  -2  10   17.47    5.78
   8  -2 -10   24.11    6.20
   8   2 -10   36.63    7.64
  -8   2 -10   33.23    8.13
  -8  -2 -10   26.96    6.97
   8   4   0  422.20   18.12
  -8  -4   0  419.79   18.55
   8  -4   0  410.44   15.21
   8   4   1    5.58    3.13
   8   4  -1    7.70    3.05
   8  -4   1    4.06    2.35
  -8  -4  -1    2.95    2.39
  -8  -4   1    6.63    3.16
   8   4   2  794.61   24.96
   8   4  -2  821.92   25.17
  -8   4  -2  780.79   22.34
  -8  -4  -2  785.64   25.84
   8  -4   2  737.09   19.14
  -8  -4   2  864.27   27.56
   8  -4  -2  760.02   21.89
   8  -4  -3    1.16    2.17
   8   4   3    4.22    2.96
   8   4  -3    1.68    2.10
  -8   4  -3    1.20    2.44
  -8  -4  -3    1.50    2.76
  -8  -4   3    4.05    2.80
   8  -4  -4    6.75    3.05
   8   4   4    1.45    2.71
   8   4  -4    3.08    2.62
  -8   4  -4    4.59    2.95
  -8  -4  -4    4.42    3.32
  -8  -4   4    0.34    2.60
   8  -4  -5    6.63    3.56
   8   4   5   15.04    4.29
   8   4  -5    4.81    2.72
  -8   4  -5    6.85    3.32
  -8  -4  -5    5.08    3.55
  -8  -4   5    7.87    3.67
  -8   4  -6  667.67   26.17
  -8  -4  -6  735.47   27.88
   8   4  -6  739.77   24.99
   8  -4  -6  725.31   24.65
  -8  -4   6  721.05   24.72
   8   4   7  296.31   16.71
  -8   4  -7  227.75   16.08
  -8  -4  -7  269.50   17.73
   8   4  -7  247.27   15.09
   8  -4  -7  250.03   14.85
  -8  -4   7  245.99   15.14
   8   4   8  313.66   17.45
  -8   4  -8  277.52   18.71
  -8  -4  -8  327.64   20.37
   8   4  -8  322.54   17.72
   8  -4  -8  307.35   17.42
  -8  -4   9    0.06    3.60
   8   4   9    1.29    3.87
   8  -4  -9    1.39    3.69
  -8   4  -9    6.03    5.48
  -8  -4  -9   -1.99    4.12
   8   4  -9    4.40    3.71
   8   4 -10   77.75    9.40
  -8   4 -10   39.49    9.05
   8   6   0  170.84   12.32
  -8  -6   0  176.14   12.90
   8  -6   0  155.34    9.68
   8  -6  -1    5.94    2.66
   8   6   1   -1.84    3.07
   8   6  -1    7.10    2.99
  -8  -6  -1    7.68    3.74
  -8  -6   1    8.76    3.91
   8   6   2 2480.74   47.54
   8   6  -2 2341.64   44.51
  -8  -6  -2 2380.21   47.08
  -8  -6   2 2500.21   47.60
   8  -6  -2 2109.42   36.94
  -8  -6   2 2227.01   37.04
  -8  -6   3    9.58    3.34
   8  -6  -3    7.65    3.14
   8   6   3   13.20    4.09
   8   6  -3    5.03    2.91
  -8  -6  -3    9.24    3.76
  -8  -6   3    6.28    3.56
   8   6   4   73.58    8.56
   8   6  -4   75.49    8.19
  -8  -6  -4   69.84    8.93
  -8  -6   4   80.83    9.46
   8  -6  -4   50.44    6.63
  -8  -6   4   75.80    7.79
   8   6   5  217.47   14.58
   8   6  -5  240.06   14.85
  -8  -6  -5  215.62   15.48
  -8  -6   5  205.28   17.67
   8  -6  -5  187.55   12.74
  -8  -6   5  227.82   13.95
   8   6   6  336.26   18.54
   8   6  -6  344.10   18.15
  -8  -6  -6  332.08   19.16
  -8  -6   6  292.36   22.80
   8  -6  -6  354.31   17.89
  -8  -6   6  350.93   17.55
  -8  -6   7    0.26    3.08
   8   6   7   -1.29    4.04
   8  -6  -7    3.89    3.32
   8   6  -7    4.38    3.64
  -8   6  -7   -9.45    5.05
  -8  -6  -7    3.87    3.82
   8   6   8  127.90   12.61
  -8  -6  -8  111.90   12.38
   8   6  -8  108.47   10.88
  -8  -6   8  102.28   10.65
   8   6   9  198.59   15.78
  -8   6  -9  167.41   16.17
   8   6  -9  183.86   13.97
  -8  -6   9  170.27   14.25
   8   8   0  186.62   13.63
  -8  -8   0  201.40   14.71
   8   8   1  201.74   14.48
   8   8  -1  175.68   13.27
  -8  -8  -1  176.50   13.49
  -8  -8   1  176.27   13.67
   8   8   2  398.25   20.46
   8   8  -2  400.57   20.00
  -8  -8  -2  368.10   19.71
  -8  -8   2  423.02   21.08
   8   8   3   52.49    7.87
   8   8  -3   50.07    7.15
  -8  -8  -3   50.38    7.86
  -8  -8   3   62.62    9.11
   8  -8  -3   42.93    6.18
   8   8   4   -0.32    3.49
   8  -8  -4    2.82    2.92
   8   8  -4    3.00    3.73
  -8  -8  -4    6.27    4.06
  -8  -8   4   -3.24    4.75
  -8  -8   5   21.24    4.65
   8   8   5   18.45    5.57
   8  -8  -5   24.29    5.41
   8   8  -5   29.15    5.65
  -8  -8  -5   28.43    6.14
  -8  -8   5   33.10    7.83
   8   8   6  404.23   22.37
   8   8  -6  415.05   20.68
  -8  -8  -6  413.05   22.71
   8  -8  -6  359.85   18.63
  -8  -8   6  376.91   18.50
   8   8   7  104.20   12.26
   8   8  -7  102.01   10.34
  -8  -8  -7   90.66   11.55
   8  -8  -7   77.36    9.45
  -8  -8   7   80.79    9.32
   8   8  -8  166.17   13.88
  -8  -8   8  185.32   14.34
   8  10   0   91.86   10.73
  -8 -10   0  108.73   11.31
   8  10   1   31.80    6.92
   8  10  -1   34.08    7.10
  -8 -10  -1   38.40    7.54
  -8 -10   1   34.24    7.41
   8  10   2  865.30   32.23
   8  10  -2  851.99   30.64
  -8 -10  -2  833.52   31.15
  -8 -10   2  920.33   33.63
   8  10   3   23.03    5.98
   8  10  -3   26.71    6.26
  -8 -10  -3   39.44    8.04
  -8 -10   3   36.66    8.29
   8  10   4   22.11    6.14
   8  10  -4   27.68    6.46
  -8 -10  -4   24.39    6.76
  -8 -10   4   35.59    8.41
   8  10  -5  265.43   16.90
   9   1   0   32.24    5.37
  -9   1   0   30.94    5.52
  -9  -1   0   36.00    5.88
   9  -1   0   27.02    4.82
   9   1   1   13.29    3.95
   9   1  -1   17.12    4.31
   9  -1   1    3.44    2.34
   9  -1  -1   12.31    3.43
  -9   1  -1   14.30    4.21
  -9  -1  -1    8.80    3.74
  -9   1   1   10.90    3.92
  -9  -1   1    9.98    4.00
   9   1   2   18.29    4.26
   9  -1   2   14.14    3.42
   9   1  -2   14.93    4.04
   9  -1  -2   14.33    3.66
  -9   1  -2   19.92    4.59
  -9  -1  -2   19.76    4.89
  -9  -1   2   15.13    4.61
  -9   1   2    7.03    3.50
   9   1   3    8.71    3.10
   9  -1   3   11.87    3.66
   9   1  -3    9.92    3.86
   9  -1  -3    9.23    3.40
  -9   1  -3   16.05    4.53
  -9  -1  -3   13.71    4.38
  -9  -1   3   11.67    4.35
   9   1   4   71.17    7.91
   9  -1   4   73.68    7.30
  -9   1  -4   68.38    8.40
  -9  -1  -4   76.46    9.00
   9   1  -4   84.75    8.89
   9  -1  -4   61.02    7.49
  -9  -1   4   78.32    8.59
   9   1   5  403.30   18.08
  -9   1  -5  373.90   19.97
  -9  -1  -5  375.53   20.06
   9   1  -5  354.39   17.81
   9  -1  -5  430.25   18.88
  -9  -1   5  309.06   21.59
  -9   1  -6  106.16   11.49
  -9  -1  -6  115.97   12.01
   9   1  -6   91.03    9.56
   9  -1  -6  112.04   10.36
  -9   1  -7  411.15   23.01
  -9  -1  -7  459.65   24.00
   9   1  -7  452.43   20.82
   9  -1  -7  409.90   19.93
  -9  -1  -8  140.25   14.19
   9   1  -8  149.09   13.02
   9   3   0   66.39    7.68
   9  -3   0   67.82    6.97
  -9  -3   0   59.34    7.56
   9   3   1   42.54    6.50
   9   3  -1   48.97    6.74
   9  -3   1   35.33    5.44
   9  -3  -1   30.26    5.04
  -9  -3   1   35.21    6.08
  -9  -3  -1   34.05    6.16
   9   3   2    6.49    3.38
   9   3  -2    9.84    3.96
   9  -3   2    5.28    2.73
  -9  -3  -2    8.04    3.46
   9  -3  -2   10.84    3.40
  -9  -3   2    4.17    3.74
   9   3   3   64.24    7.89
   9   3  -3   58.85    7.68
  -9   3  -3   47.35    6.90
  -9  -3  -3   60.67    8.17
   9  -3  -3   64.77    7.40
  -9  -3   3   64.36    8.17
   9  -3  -4    3.81    3.16
   9   3   4    7.33    3.79
   9   3  -4    5.02    3.33
  -9   3  -4    5.82    3.71
  -9  -3  -4    9.04    4.72
  -9  -3   4    1.10    3.10
   9   3   5  407.78   19.61
  -9   3  -5  393.04   20.71
  -9  -3  -5  399.57   21.20
   9   3  -5  429.17   19.80
   9  -3  -5  354.37   17.39
  -9  -3   5  377.30   22.86
   9   3   6  266.76   16.08
  -9   3  -6  222.89   16.39
  -9  -3  -6  281.98   18.28
   9   3  -6  275.77   16.29
   9  -3  -6  237.68   15.36
   9   3   7  127.27   11.56
  -9   3  -7   79.46   10.17
  -9  -3  -7  113.79   12.28
   9   3  -7  105.48   10.68
   9  -3  -7  114.76   11.31
  -9  -3   7   98.12   10.59
  -9   3  -8  121.89   13.28
  -9  -3  -8  121.59   13.61
   9   3  -8  136.10   12.21
   9  -3  -8  132.20   12.30
  -9  -3   8  133.15   12.42
   9   5   0   -2.67    2.99
  -9  -5   0   -0.01    2.85
   9   5   1  292.55   16.93
   9   5  -1  315.20   17.35
  -9  -5  -1  322.58   18.24
  -9  -5   1  311.81   17.76
   9  -5  -1  299.24   14.56
   9   5   2  124.42   11.40
   9   5  -2  103.75   10.03
  -9  -5  -2  113.02   10.98
  -9  -5   2  134.79   11.93
   9  -5  -2   94.29    8.83
   9   5   3   63.99    8.51
   9   5  -3   70.81    8.53
  -9  -5  -3   64.40    8.70
  -9  -5   3   75.91    9.53
   9  -5  -3   45.64    6.77
   9   5  -4   98.91   10.09
  -9  -5  -4  118.91   11.84
  -9  -5   4  107.48   11.87
   9  -5  -4   84.54    9.07
  -9  -5   4   90.76    9.25
   9   5   5  240.38   16.46
   9   5  -5  213.52   14.62
  -9  -5  -5  237.47   17.13
  -9  -5   5  157.58   17.16
   9  -5  -5  166.61   12.47
  -9  -5   5  206.87   13.83
  -9  -5   6   24.26    5.94
   9  -5  -6   12.09    4.67
   9   5   6   29.32    6.59
   9   5  -6   29.16    6.26
  -9  -5  -6   23.69    6.55
  -9  -5   6   15.93    8.30
   9   5   7   77.04   10.19
  -9  -5  -7   66.15   10.22
   9   5  -7   67.31    9.00
   9  -5  -7   57.82    8.83
  -9  -5   7   75.97    9.73
   9   7   0  322.51   18.57
  -9  -7   0  324.16   19.12
   9   7   1    9.54    4.45
  -9  -7  -1    1.74    3.41
  -9  -7   1   -0.61    3.78
   9   7   2   39.54    7.26
   9   7  -2   38.80    6.61
  -9  -7   2   54.07    8.91
  -9  -7  -2   37.73    7.10
   9   7   3  274.37   17.81
   9   7  -3  256.81   16.64
  -9  -7  -3  295.52   18.69
  -9  -7   3  232.09   17.34
   9  -7  -3  213.60   13.74
   9   7   4   16.01    5.61
   9   7  -4    9.78    4.46
  -9  -7  -4    3.39    3.95
  -9  -7   4   18.24    6.64
   9   7   5  104.15   12.08
   9   7  -5  121.04   11.75
  -9  -7  -5  112.71   12.79
  -9  -7   5  100.49   13.86
   9  -7  -5   85.23    9.95
   9   7   6  115.48   12.45
  -9  -7   6   74.58   13.78
   9  -7  -6   83.81   10.00
  -9  -7   6   93.74   10.25
  -9  -7   7   22.42    6.10
   9   9   0   43.14    7.88
  -9  -9   0   32.47    7.36
   9   9   1  195.62   15.99
   9   9  -1  207.90   15.93
  -9  -9  -1  211.29   16.61
  -9  -9   1  195.47   16.16
   9   9  -2  203.93   15.75
  -9  -9   2  178.44   16.35
  10   0   0 2540.01   47.19
 -10   0   0 2378.86   46.73
  10   0   1    1.72    3.61
  10   0  -1   -0.12    3.01
 -10   0  -1   -0.88    3.54
 -10   0   1    0.85    3.13
  10   0   2   62.13    7.40
 -10   0  -2   82.32    9.55
  10   0   3   -0.13    2.85
  10   0  -3    2.72    3.31
 -10   0  -3   -0.10    3.67
 -10   0  -4  855.48   30.75
  10   0  -4  808.10   27.73
 -10   0  -5    1.33    3.90
  10   0  -5   -0.09    3.04
 -10   0  -6   17.11    6.49
  10   0  -6   16.55    5.05
  10  -2   0  333.80   16.61
 -10  -2   0  324.41   18.62
  10   2   1    5.84    3.77
  10  -2   1    3.17    3.48
  10  -2  -1    3.83    2.79
 -10  -2  -1    7.91    4.52
 -10  -2   1    1.76    3.91
  10   2   2  206.40   14.02
  10   2  -2  233.96   15.30
 -10  -2  -2  246.00   16.49
  10  -2  -2  223.50   14.12
 -10  -2   2  227.26   15.21
  10   2   3   -0.49    3.25
  10   2  -3    2.96    3.06
 -10  -2  -3    1.74    3.70
  10  -2  -3    0.67    2.88
 -10  -2   3   -0.97    3.64
  10   2   4  421.98   20.31
 -10   2  -4  375.10   20.23
  10   2  -4  459.11   21.71
 -10  -2  -4  487.68   24.98
  10  -2  -4  475.11   21.01
 -10  -2   4  336.65   20.77
  10  -2  -5   28.79    6.41
  10   2   5   29.56    6.54
  10   2  -5   27.63    6.22
 -10   2  -5   24.41    6.59
 -10  -2  -5   26.25    7.19
 -10  -2  -6   55.58    9.57
  10  -2  -6   48.67    7.67
 -10   2  -6   45.41    8.84
 -10   2  -7    6.50    5.12
  10   4   0 1514.26   39.39
 -10  -4   0 1619.40   42.06
  10   4   1    0.37    3.50
  10   4  -1    2.41    3.33
 -10  -4  -1   -2.40    4.28
 -10  -4   1    1.19    4.33
  10  -4  -1   -1.52    3.53
  10  -4  -2   22.72    5.48
  10   4   2   30.61    6.53
  10   4  -2   24.17    5.97
 -10  -4  -2   39.06    7.39
 -10  -4   2   16.13    5.89
  10  -4  -3    1.97    3.06
  10   4   3   -0.97    3.76
  10   4  -3    9.82    4.68
 -10  -4  -3   11.33    5.23
 -10  -4   3   11.11    5.38
  10   4   4  657.51   27.01
  10   4  -4  639.21   26.33
 -10  -4  -4  595.22   27.41
  10  -4  -4  592.72   24.13
  10  -4  -5    7.51    4.86
  10   4   5    8.40    5.24
 -10  -4  -5    3.70    4.78
 -10  -4   6    3.11    4.57
  10   4   6    4.94    5.14
  10   6   0  257.57   17.43
 -10  -6   0  278.80   18.85
  10   6   1    8.57    4.51
  10   6  -1    3.33    3.63
 -10  -6   1    5.48    4.39
  10   6   2   72.04   10.11
  10   6  -2   70.83    9.50
 -10  -6   2   70.43   10.56
  10   6   3   38.54    8.23
  10  -6  -3   39.86    7.06
 -10  -6   3   38.26    8.27
 -10  -6   4  401.11   24.57
  10  -6  -4  383.76   19.18
  11   1   0   14.52    5.61
  11  -1   0   10.87    5.21
  11   1   1   45.26    7.85
  11   1  -1   33.91    6.46
  11  -1   1   38.45    6.76
  11  -1  -1   38.66    7.16
 -11  -1  -1   43.51    7.91
  11   1   2   28.22    6.28
  11  -1  -2   20.65    5.62
 -11  -1  -2   40.96    7.91
  11   1   3  328.03   18.30
 -11  -1  -3  375.73   22.04
 -11  -3   0  158.37   14.68
  11  -3  -1  131.28   11.41
 -11  -3   1  139.60   13.95
 -11  -3   2    2.69    4.58
  11  -3  -2    1.33    3.68
   0   0   0    0.00    0.00


TITL CaNi2(SeO3)3 in Cmcm
REM Cmcm (#63 in standard setting)
CELL 0.71073   7.375906  10.971476  10.218865  90.0000  90.0000  90.0000
ZERR    4.00   0.000255   0.000463   0.000341   0.0000   0.0000   0.0000
LATT  7
SYMM -x,-y, z+1/2
SYMM -x, y,-z+1/2
SYMM  x,-y,-z
SFAC C H N O
UNIT 44.00 40.00 4.00 4.00
TREF
HKLF 4
END
_computing_structure_solution     'SHELXT 2014/5 (Sheldrick, 2014)'
;
_shelx_hkl_checksum              57023
_olex2_submission_special_instructions 'No special instructions were received'
_oxdiff_exptl_absorpt_empirical_details
;
Empirical correction (ABSPACK) includes:
- Absorption correction using spherical harmonics
- Frame scaling
- Detector area scaling
;
_oxdiff_exptl_absorpt_empirical_full_max 2.005
_oxdiff_exptl_absorpt_empirical_full_min 0.738
loop_
_space_group_symop_operation_xyz
'x, y, z'
'-x, -y, z+1/2'
'-x, y, -z+1/2'
'x, -y, -z'
'x+1/2, y+1/2, z'
'-x+1/2, -y+1/2, z+1/2'
'-x+1/2, y+1/2, -z+1/2'
'x+1/2, -y+1/2, -z'
'-x, -y, -z'
'x, y, -z-1/2'
'x, -y, z-1/2'
'-x, y, z'
'-x+1/2, -y+1/2, -z'
'x+1/2, y+1/2, -z-1/2'
'x+1/2, -y+1/2, z-1/2'
'-x+1/2, y+1/2, z'
loop_
_atom_site_label
_atom_site_type_symbol
_atom_site_fract_x
_atom_site_fract_y
_atom_site_fract_z
_atom_site_U_iso_or_equiv
_atom_site_adp_type
_atom_site_occupancy
_atom_site_site_symmetry_order
_atom_site_calc_flag
_atom_site_refinement_flags_posn
_atom_site_refinement_flags_adp
_atom_site_refinement_flags_occupancy
_atom_site_disorder_assembly
_atom_site_disorder_group
Se1 Se 0.500000 0.23695(4) 0.52997(3) 0.00928(13) Uani 1 2 d S T P . .
Ni1 Ni 0.19086(6) 0.25418(4) 0.750000 0.00731(13) Uani 1 2 d S T P . .
Se2 Se 0.500000 0.48617(7) 0.81732(7) 0.00853(16) Uani 0.5 2 d S T P . .
Ca1 Ca 0.500000 -0.01931(10) 0.250000 0.0122(2) Uani 1 4 d S T P . .
O1 O 0.500000 0.1647(2) 0.3802(3) 0.0095(5) Uani 1 2 d S T P . .
O2 O 0.3281(3) 0.16337(19) 0.60735(19) 0.0124(4) Uani 1 1 d . . . . .
O3 O 0.3180(4) 0.4185(3) 0.750000 0.0156(6) Uani 1 2 d S T P . .
O4 O 0.500000 0.6208(4) 0.750000 0.0203(9) Uani 1 4 d S T P . .
loop_
_atom_site_aniso_label
_atom_site_aniso_U_11
_atom_site_aniso_U_22
_atom_site_aniso_U_33
_atom_site_aniso_U_23
_atom_site_aniso_U_13
_atom_site_aniso_U_12
Se1 0.01013(19) 0.0111(2) 0.00660(19) -0.00014(11) 0.000 0.000
Ni1 0.0069(2) 0.0066(2) 0.0085(2) 0.000 0.000 -0.00014(14)
Se2 0.0095(3) 0.0055(3) 0.0106(3) 0.0004(2) 0.000 0.000
Ca1 0.0136(4) 0.0067(5) 0.0163(5) 0.000 0.000 0.000
O1 0.0117(11) 0.0093(12) 0.0075(11) -0.0015(9) 0.000 0.000
O2 0.0117(8) 0.0135(9) 0.0122(8) 0.0000(7) 0.0037(7) -0.0005(7)
O3 0.0129(12) 0.0088(13) 0.0252(15) 0.000 0.000 -0.0043(10)
O4 0.0100(17) 0.0054(19) 0.046(3) 0.000 0.000 0.000
loop_
_atom_type_symbol
_atom_type_description
_atom_type_scat_dispersion_real
_atom_type_scat_dispersion_imag
_atom_type_scat_source
Ca Ca 0.2262 0.3064 'International Tables Vol C Tables 4.2.6.8 and 6.1.1.4'
Ni Ni 0.3393 1.1124 'International Tables Vol C Tables 4.2.6.8 and 6.1.1.4'
O O 0.0106 0.0060 'International Tables Vol C Tables 4.2.6.8 and 6.1.1.4'
Se Se -0.0929 2.2259 'International Tables Vol C Tables 4.2.6.8 and 6.1.1.4'
loop_
_geom_angle_atom_site_label_1
_geom_angle_atom_site_label_2
_geom_angle_atom_site_label_3
_geom_angle
_geom_angle_site_symmetry_1
_geom_angle_site_symmetry_3
_geom_angle_publ_flag
O1 Se1 Ca1 105.89(9) . 9_656 ?
O2 Se1 Ca1 48.30(7) . 9_656 ?
O2 Se1 Ca1 48.30(7) 12_655 9_656 ?
O2 Se1 O1 101.23(10) . . ?
O2 Se1 O1 101.23(10) 12_655 . ?
O2 Se1 O2 96.58(14) . 12_655 ?
O1 Ni1 O1 77.25(12) 13_556 6 ?
O2 Ni1 O1 94.92(9) . 13_556 ?
O2 Ni1 O1 94.92(9) 10_557 6 ?
O2 Ni1 O1 168.50(8) 10_557 13_556 ?
O2 Ni1 O1 168.50(8) . 6 ?
O2 Ni1 O2 91.49(12) 10_557 . ?
O3 Ni1 O1 86.24(9) . 6 ?
O3 Ni1 O1 86.24(9) . 13_556 ?
O3 Ni1 O2 101.81(8) . 10_557 ?
O3 Ni1 O2 101.81(8) . . ?
O4 Ni1 O1 80.97(9) 5_445 6 ?
O4 Ni1 O1 80.97(9) 5_445 13_556 ?
O4 Ni1 O2 89.55(8) 5_445 10_557 ?
O4 Ni1 O2 89.55(8) 5_445 . ?
O4 Ni1 O3 163.59(12) 5_445 . ?
Se2 Se2 O3 65.84(4) 10_557 . ?
Se2 Se2 O3 65.84(4) 10_557 3_656 ?
Se2 Se2 O4 65.03(7) 10_557 . ?
O3 Se2 O3 105.96(17) . 3_656 ?
O4 Se2 O3 103.15(10) . 3_656 ?
O4 Se2 O3 103.15(10) . . ?
Se1 Ca1 Se1 86.56(3) 2_654 9_656 ?
Ni1 Ca1 Se1 130.944(10) 13_556 2_654 ?
Ni1 Ca1 Se1 130.944(10) 13_556 9_656 ?
Ni1 Ca1 Se1 130.944(10) 15 2_654 ?
Ni1 Ca1 Se1 130.944(10) 15 9_656 ?
Ni1 Ca1 Ni1 51.65(2) 15 13_556 ?
O1 Ca1 Se1 170.12(7) 10_556 9_656 ?
O1 Ca1 Se1 103.33(6) . 9_656 ?
O1 Ca1 Se1 170.12(7) . 2_654 ?
O1 Ca1 Se1 103.32(6) 10_556 2_654 ?
O1 Ca1 Ni1 41.28(5) 10_556 13_556 ?
O1 Ca1 Ni1 41.28(5) 10_556 15 ?
O1 Ca1 Ni1 41.28(5) . 15 ?
O1 Ca1 Ni1 41.28(5) . 13_556 ?
O1 Ca1 O1 66.79(13) 10_556 . ?
O1 Ca1 O2 101.96(7) . 4_556 ?
O1 Ca1 O2 101.96(7) 10_556 2_654 ?
O1 Ca1 O2 148.22(5) . 2_654 ?
O1 Ca1 O2 101.96(7) 10_556 11 ?
O1 Ca1 O2 148.22(5) 10_556 9_656 ?
O1 Ca1 O2 148.22(5) . 11 ?
O1 Ca1 O2 101.96(7) . 9_656 ?
O1 Ca1 O2 148.22(5) 10_556 4_556 ?
O1 Ca1 O3 69.15(6) . 13_556 ?
O1 Ca1 O3 69.15(6) . 15 ?
O1 Ca1 O3 69.15(6) 10_556 15 ?
O1 Ca1 O3 69.15(6) 10_556 13_556 ?
O2 Ca1 Se1 86.52(5) 4_556 2_654 ?
O2 Ca1 Se1 30.53(4) 11 2_654 ?
O2 Ca1 Se1 30.53(4) 9_656 9_656 ?
O2 Ca1 Se1 30.53(4) 2_654 2_654 ?
O2 Ca1 Se1 86.52(5) 9_656 2_654 ?
O2 Ca1 Se1 86.52(5) 2_654 9_656 ?
O2 Ca1 Se1 30.53(4) 4_556 9_656 ?
O2 Ca1 Se1 86.52(5) 11 9_656 ?
O2 Ca1 Ni1 110.41(5) 11 13_556 ?
O2 Ca1 Ni1 142.30(5) 4_556 15 ?
O2 Ca1 Ni1 110.41(5) 9_656 15 ?
O2 Ca1 Ni1 110.41(5) 4_556 13_556 ?
O2 Ca1 Ni1 110.41(5) 2_654 15 ?
O2 Ca1 Ni1 142.30(5) 2_654 13_556 ?
O2 Ca1 Ni1 142.30(5) 9_656 13_556 ?
O2 Ca1 Ni1 142.30(5) 11 15 ?
O2 Ca1 O2 61.05(9) 11 2_654 ?
O2 Ca1 O2 71.46(9) 11 4_556 ?
O2 Ca1 O2 101.42(10) 4_556 2_654 ?
O2 Ca1 O2 101.42(10) 11 9_656 ?
O2 Ca1 O2 61.05(9) 4_556 9_656 ?
O2 Ca1 O2 71.46(9) 2_654 9_656 ?
O2 Ca1 O3 136.84(6) 11 15 ?
O2 Ca1 O3 136.84(6) 9_656 13_556 ?
O2 Ca1 O3 79.08(7) 2_654 15 ?
O2 Ca1 O3 79.08(7) 11 13_556 ?
O2 Ca1 O3 136.84(6) 4_556 15 ?
O2 Ca1 O3 79.08(7) 4_556 13_556 ?
O2 Ca1 O3 79.08(7) 9_656 15 ?
O2 Ca1 O3 136.84(6) 2_654 13_556 ?
O3 Ca1 Se1 108.08(4) 15 9_656 ?
O3 Ca1 Se1 108.08(4) 13_556 2_654 ?
O3 Ca1 Se1 108.08(4) 15 2_654 ?
O3 Ca1 Se1 108.08(4) 13_556 9_656 ?
O3 Ca1 Ni1 38.94(6) 13_556 13_556 ?
O3 Ca1 Ni1 38.94(6) 15 15 ?
O3 Ca1 Ni1 90.59(7) 15 13_556 ?
O3 Ca1 Ni1 90.59(7) 13_556 15 ?
O3 Ca1 O3 129.52(13) 15 13_556 ?
Se1 O1 Ni1 111.23(11) . 13_556 ?
Se1 O1 Ni1 111.23(11) . 15 ?
Se1 O1 Ca1 150.79(15) . . ?
Ni1 O1 Ni1 82.65(10) 13_556 15 ?
Ni1 O1 Ca1 90.28(8) 15 . ?
Ni1 O1 Ca1 90.28(8) 13_556 . ?
Se1 O2 Ni1 118.17(11) . . ?
Se1 O2 Ca1 101.17(9) . 9_656 ?
Ni1 O2 Ca1 98.30(8) . 9_656 ?
Ni1 O3 Ca1 87.75(10) . 13_556 ?
Se2 O3 Ni1 139.48(14) 10_557 . ?
Se2 O3 Ni1 139.49(14) . . ?
Se2 O3 Se2 48.32(9) 10_557 . ?
Se2 O3 Ca1 122.27(14) 10_557 13_556 ?
Se2 O3 Ca1 122.27(14) . 13_556 ?
Ni1 O4 Ni1 87.80(17) 5 7_556 ?
Se2 O4 Ni1 130.79(5) 10_557 7_556 ?
Se2 O4 Ni1 130.79(5) . 5 ?
Se2 O4 Ni1 130.79(5) . 7_556 ?
Se2 O4 Ni1 130.79(5) 10_557 5 ?
Se2 O4 Se2 49.93(13) . 10_557 ?
loop_
_geom_bond_atom_site_label_1
_geom_bond_atom_site_label_2
_geom_bond_distance
_geom_bond_site_symmetry_2
_geom_bond_publ_flag
Se1 Ca1 3.2799(9) 9_656 ?
Se1 O1 1.723(3) . ?
Se1 O2 1.6984(19) 12_655 ?
Se1 O2 1.6983(19) . ?
Ni1 O1 2.132(2) 13_556 ?
Ni1 O1 2.132(2) 6 ?
Ni1 O2 2.035(2) 10_557 ?
Ni1 O2 2.035(2) . ?
Ni1 O3 2.032(3) . ?
Ni1 O4 2.030(3) 5_445 ?
Se2 Se2 1.3759(14) 10_557 ?
Se2 O3 1.681(3) 3_656 ?
Se2 O3 1.681(3) . ?
Se2 O4 1.630(4) . ?
Ca1 O1 2.418(3) . ?
Ca1 O1 2.418(3) 10_556 ?
Ca1 O2 2.496(2) 4_556 ?
Ca1 O2 2.496(2) 9_656 ?
Ca1 O2 2.496(2) 2_654 ?
Ca1 O2 2.496(2) 11 ?
Ca1 O3 2.593(3) 15 ?
Ca1 O3 2.593(3) 13_556 ?
