#------------------------------------------------------------------------------
#$Date: 2021-07-05 20:10:48 +0300 (Mon, 05 Jul 2021) $
#$Revision: 267123 $
#$URL: file:///home/coder/svn-repositories/cod/cif/7/24/28/7242880.cif $
#------------------------------------------------------------------------------
#
# This file is available in the Crystallography Open Database (COD),
# http://www.crystallography.net/
#
# All data on this site have been placed in the public domain by the
# contributors.
#
data_7242880
loop_
_publ_author_name
'Richardson, Jonathan G.'
'Mizuno, Asato'
'Shuku, Yoshiaki'
'Awaga, Kunio'
'Robertson, Neil'
'Morrison, Carole A.'
'Warren, Mark R.'
'Allan, David R.'
'Moggach, Stephen A.'
_publ_section_title
;
 Evaluating the high-pressure structural response and crystal lattice
 interactions of the magnetically-bistable organic radical TTTA
;
_journal_issue                   25
_journal_name_full               CrystEngComm
_journal_page_first              4444
_journal_page_last               4450
_journal_paper_doi               10.1039/D1CE00577D
_journal_volume                  23
_journal_year                    2021
_chemical_formula_moiety         'C2 N3 S3'
_chemical_formula_sum            'C2 N3 S3'
_chemical_formula_weight         162.24
_space_group_IT_number           14
_space_group_name_Hall           '-P 2ybc'
_space_group_name_H-M_alt        'P 1 21/c 1'
_symmetry_cell_setting           monoclinic
_symmetry_space_group_name_Hall  '-P 2ybc'
_symmetry_space_group_name_H-M   'P 1 21/c 1'
_atom_sites_solution_hydrogens   difmap
_atom_sites_solution_primary     direct
_audit_creation_date             2021-04-22
_audit_creation_method           CRYSTALS_ver_14.61_build_6999
_audit_update_record
;
2021-04-27 deposited with the CCDC.	2021-05-18 downloaded from the CCDC.
;
_cell_angle_alpha                90
_cell_angle_beta                 104.62(8)
_cell_angle_gamma                90
_cell_formula_units_Z            4
_cell_length_a                   9.084(16)
_cell_length_b                   3.3013(5)
_cell_length_c                   14.495(4)
_cell_measurement_reflns_used    993
_cell_measurement_temperature    293
_cell_measurement_theta_max      23
_cell_measurement_theta_min      4
_cell_volume                     420.6(8)
_computing_cell_refinement       'USER DEFINED CELL REFINEMENT'
_computing_data_collection       'USER DEFINED DATA COLLECTION'
_computing_data_reduction
; 
 CrysAlisPro (Rigaku Oxford Diffraction, 2017) 
;
_computing_molecular_graphics    'CAMERON (Watkin et al., 1996)'
_computing_publication_material  'CRYSTALS (Betteridge et al., 2003)'
_computing_structure_refinement  'CRYSTALS (Betteridge et al., 2003)'
_computing_structure_solution    'SHELXS 86 (Sheldrick, 1986)'
_diffrn_ambient_pressure         3940000
_diffrn_ambient_temperature      293
_diffrn_measured_fraction_theta_full 0.305
_diffrn_measured_fraction_theta_max 0.254
_diffrn_measurement_device       Area
_diffrn_measurement_device_type  Synchrotron
_diffrn_measurement_method       \w
_diffrn_radiation_monochromator  'focussing mirrors'
_diffrn_radiation_type           synchrotron
_diffrn_radiation_wavelength     0.48590
_diffrn_reflns_av_R_equivalents  0.031
_diffrn_reflns_av_unetI/netI     0.050
_diffrn_reflns_limit_h_max       6
_diffrn_reflns_limit_h_min       -7
_diffrn_reflns_limit_k_max       5
_diffrn_reflns_limit_k_min       -5
_diffrn_reflns_limit_l_max       18
_diffrn_reflns_limit_l_min       -18
_diffrn_reflns_number            2270
_diffrn_reflns_theta_full        17.076
_diffrn_reflns_theta_max         22.768
_diffrn_reflns_theta_min         3.888
_diffrn_standards_number         0
_exptl_absorpt_coefficient_mu    0.537
_exptl_absorpt_correction_T_max  0.95
_exptl_absorpt_correction_T_min  0.36
_exptl_absorpt_correction_type   multi-scan
_exptl_absorpt_process_details   'DENZO/SCALEPACK (Otwinowski & Minor, 1997)'
_exptl_crystal_colour            black
_exptl_crystal_density_diffrn    2.562
_exptl_crystal_density_meas      ?
_exptl_crystal_density_method    'not measured'
_exptl_crystal_description       block
_exptl_crystal_F_000             324
_exptl_crystal_size_max          0.120
_exptl_crystal_size_mid          0.100
_exptl_crystal_size_min          0.100
_refine_diff_density_max         0.37
_refine_diff_density_min         -0.40
_refine_ls_extinction_method     None
_refine_ls_goodness_of_fit_ref   0.8998
_refine_ls_hydrogen_treatment    noref
_refine_ls_matrix_type           full
_refine_ls_number_parameters     73
_refine_ls_number_reflns         427
_refine_ls_number_restraints     104
_refine_ls_R_factor_all          0.0780
_refine_ls_R_factor_gt           0.0626
_refine_ls_shift/su_max          0.0002816
_refine_ls_shift/su_mean         0.0000201
_refine_ls_structure_factor_coef Fsqd
_refine_ls_weighting_details
;
 Method= Modified Sheldrick 
 w=1/[\s^2^(F^2^) + ( 0.12P)^2^ + 0.00P] 
 ,where P=(max(Fo^2^,0) + 2Fc^2^)/3 
;
_refine_ls_weighting_scheme      calc
_refine_ls_wR_factor_all         0.2217
_refine_ls_wR_factor_gt          0.1978
_refine_ls_wR_factor_ref         0.1312
_reflns_limit_h_max              4
_reflns_limit_h_min              -7
_reflns_limit_k_max              5
_reflns_limit_k_min              0
_reflns_limit_l_max              18
_reflns_limit_l_min              0
_reflns_number_gt                343
_reflns_number_total             454
_reflns_threshold_expression     I>2.0\s(I)
_oxford_diffrn_Wilson_B_factor   1.95
_oxford_diffrn_Wilson_scale      1.73
_oxford_refine_ls_r_factor_ref   0.0572
_oxford_refine_ls_scale          0.789(8)
_oxford_reflns_number_all        454
_iucr_refine_instructions_details
;
#
# Punched on 22/04/21 at 21:38:09
#
#LIST     12                                                                    
BLOCK SCALE X'S  U'S 
END                                                                             
#
# Punched on 22/04/21 at 21:38:09
#
#LIST     16                                                                    
DIST   1.659,.01= S(1) TO N(2) 
DIST   1.734,.01= S(1) TO C(5) 
DIST   1.656,.01= N(2) TO S(3) 
DIST   1.735,.01= S(3) TO C(4) 
DIST   1.430,.01= C(4) TO C(5) 
DIST   1.313,.01= C(4) TO N(8) 
DIST   1.318,.01= C(5) TO N(6) 
DIST   1.645,.01= N(6) TO S(7) 
DIST   1.646,.01= S(7) TO N(8) 
ANGL  98,1= C(5) TO S(1) TO N(2) 
ANGL 117,1= S(3) TO N(2) TO S(1) 
ANGL  98,1= C(4) TO S(3) TO N(2) 
ANGL 114,1= C(5) TO C(4) TO S(3) 
ANGL 132,1= N(8) TO C(4) TO S(3) 
ANGL 114,1= N(8) TO C(4) TO C(5) 
ANGL 114,1= C(4) TO C(5) TO S(1) 
ANGL 132,1= N(6) TO C(5) TO S(1) 
ANGL 114,1= N(6) TO C(5) TO C(4) 
ANGL 106,1= S(7) TO N(6) TO C(5) 
ANGL  99,1= N(8) TO S(7) TO N(6) 
ANGL 106,1= S(7) TO N(8) TO C(4) 
REM   HREST   START (DO NOT REMOVE THIS LINE) 
REM   HREST   END (DO NOT REMOVE THIS LINE) 
PLANAR 0.01 N(2) S(1) S(3) C(4) C(5) N(6) S(7) N(8) 
REM   DELU   START (DO NOT REMOVE THIS LINE) 
VIBR .0, 0.00200 = S(1) TO N(2) 
VIBR .0, 0.00200 = S(1) TO C(5) 
VIBR .0, 0.00500 = C(5) TO N(2) 
VIBR .0, 0.00200 = N(2) TO S(3) 
VIBR .0, 0.00500 = S(3) TO S(1) 
VIBR .0, 0.00200 = S(3) TO C(4) 
VIBR .0, 0.00500 = C(4) TO N(2) 
VIBR .0, 0.00200 = C(4) TO C(5) 
VIBR .0, 0.00200 = C(4) TO N(8) 
VIBR .0, 0.00500 = C(5) TO S(3) 
VIBR .0, 0.00500 = N(8) TO S(3) 
VIBR .0, 0.00500 = N(8) TO C(5) 
VIBR .0, 0.00200 = C(5) TO N(6) 
VIBR .0, 0.00500 = S(1) TO C(4) 
VIBR .0, 0.00500 = N(6) TO C(4) 
VIBR .0, 0.00500 = N(6) TO S(1) 
VIBR .0, 0.00200 = N(6) TO S(7) 
VIBR .0, 0.00500 = S(7) TO C(5) 
VIBR .0, 0.00200 = S(7) TO N(8) 
VIBR .0, 0.00500 = N(8) TO N(6) 
VIBR .0, 0.00500 = S(7) TO C(4) 
REM   DELU   END (DO NOT REMOVE THIS LINE) 
REM   THERMSIM   START (DO NOT REMOVE THIS LINE) 
U(IJ) .0, 0.04000 = S(1) TO N(2) 
U(IJ) .0, 0.04000 = S(1) TO C(5) 
U(IJ) .0, 0.04000 = N(2) TO S(3) 
U(IJ) .0, 0.04000 = S(3) TO C(4) 
U(IJ) .0, 0.04000 = C(4) TO C(5) 
U(IJ) .0, 0.04000 = C(4) TO N(8) 
U(IJ) .0, 0.04000 = C(5) TO N(6) 
U(IJ) .0, 0.04000 = N(6) TO S(7) 
U(IJ) .0, 0.04000 = S(7) TO N(8) 
REM   THERMSIM   END (DO NOT REMOVE THIS LINE) 
END                                                                             
;
_cod_data_source_file            d1ce00577d2.cif
_cod_data_source_block           394GPa
_cod_depositor_comments
;
The following automatic conversions were performed:

data item '_exptl_crystal_density_meas' value 'not measured' was
changed to '?' -- the value is perceived as not measured.

Automatic conversion script
Id: cif_fix_values 7556 2019-12-06 15:28:31Z antanas 

 Adding full bibliography for 7242874--7242883.cif.
;
_cod_original_sg_symbol_H-M      'P 1 21/c 1 '
_cod_database_code               7242880
_oxford_refine_reflns_threshold_expression_ref I>-10.0\s(I)
_iucr_refine_reflections_details
; 
 
# Data was input as F-squared 
# punching LIST  6 as LIST  6 with all keys set 
# NBGNXT=    36 
#LIST   6 
READ NCOEF= 8 TYPE=FIX, F'S = FSQ UNIT=DATA, CHECK=NO L30=NO ARCH=NO 
STORE  NCOEF= 6 
OUTPUT INDICES     /FO/        SIGMA(/FO/) RATIO/JCODE CORRECTIONS SERIAL 
CONT 
INPUT  H           K           L           /FO/        SIGMA(/FO/) JCODE 
CONT   CORRECTIONS SERIAL 
FOR (I4,I4,I4,F10.2,F8.2,F4.0,F7.4,F7.0) 
END 
   0  -1   0      0.52    1.12  0. 1.0000     0. 
   0  -1   0      0.56    1.43  0. 1.0000     0. 
   0   1   0      0.32    0.90  0. 1.0000     0. 
   0   1   0      0.19    0.49  0. 1.0000     0. 
   0   1   0      0.16    1.28  0. 1.0000     0. 
   0   1   0      1.14    1.48  0. 1.0000     0. 
  -1  -1   0   9554.37  298.63  0. 1.0000     0. 
   1  -1   0   9856.22  428.70  0. 1.0000     0. 
  -1  -1   0   9589.62  150.17  0. 1.0000     0. 
   1  -1   0   9518.46  315.23  0. 1.0000     0. 
  -1   1   0   9639.86  156.26  0. 1.0000     0. 
   1   1   0   9613.43  444.06  0. 1.0000     0. 
   1   1   0   9888.22  155.89  0. 1.0000     0. 
  -1   1   0   9291.64  379.10  0. 1.0000     0. 
  -1   1   0   9641.06  172.97  0. 1.0000     0. 
   1   1   0   9999.99  169.74  0. 1.0000     0. 
  -1   1   0   9699.05  261.84  0. 1.0000     0. 
   0  -2   0    841.33   25.00  0. 1.0000     0. 
   0  -2   0    825.60   25.02  0. 1.0000     0. 
   0   2   0    850.51   38.83  0. 1.0000     0. 
   0   2   0    860.53   17.45  0. 1.0000     0. 
   0   2   0    880.21   16.63  0. 1.0000     0. 
   1  -2   0   1087.27   38.97  0. 1.0000     0. 
   1   2   0   1107.96   29.80  0. 1.0000     0. 
  -1   2   0   1101.94   32.39  0. 1.0000     0. 
  -1   2   0   1106.35   22.61  0. 1.0000     0. 
   2  -2   0     16.51    3.38  0. 1.0000     0. 
   2  -2   0     27.79    3.71  0. 1.0000     0. 
  -2  -2   0     28.58    4.36  0. 1.0000     0. 
  -2   2   0     25.92    2.52  0. 1.0000     0. 
  -2   2   0     23.13    5.08  0. 1.0000     0. 
  -2   2   0     22.95    3.77  0. 1.0000     0. 
  -2   2   0     26.72    3.08  0. 1.0000     0. 
  -3   2   0     64.74    5.17  0. 1.0000     0. 
   0  -3   0     -0.86    4.29  0. 1.0000     0. 
   0  -3   0     -5.64    4.98  0. 1.0000     0. 
   0  -3   0     -5.54    4.67  0. 1.0000     0. 
   0  -3   0     -0.39    2.10  0. 1.0000     0. 
   0   3   0    -11.56    7.20  0. 1.0000     0. 
   0   3   0     -2.76    3.17  0. 1.0000     0. 
   0   3   0     -2.08    2.12  0. 1.0000     0. 
   0   3   0     -1.26    5.36  0. 1.0000     0. 
  -1  -3   0      4.06    2.07  0. 1.0000     0. 
   1  -3   0      9.32    4.43  0. 1.0000     0. 
  -1  -3   0     -1.83    6.18  0. 1.0000     0. 
   1  -3   0      1.84    4.74  0. 1.0000     0. 
   1  -3   0      6.40    3.81  0. 1.0000     0. 
  -1  -3   0     -0.30    4.99  0. 1.0000     0. 
   1  -3   0      5.81    2.32  0. 1.0000     0. 
  -1   3   0      5.97    6.10  0. 1.0000     0. 
   1   3   0      3.56    2.15  0. 1.0000     0. 
  -1   3   0      1.66    3.18  0. 1.0000     0. 
   1   3   0      3.64    3.13  0. 1.0000     0. 
  -1   3   0      4.53    5.25  0. 1.0000     0. 
  -1   3   0      4.61    2.54  0. 1.0000     0. 
   1   3   0     -7.95    7.04  0. 1.0000     0. 
   1   3   0      0.40    5.52  0. 1.0000     0. 
   2  -3   0    542.78   33.25  0. 1.0000     0. 
  -2  -3   0    666.61   15.23  0. 1.0000     0. 
  -2  -3   0    659.20   21.03  0. 1.0000     0. 
   2  -3   0    644.18   26.55  0. 1.0000     0. 
   2  -3   0    649.64   14.82  0. 1.0000     0. 
   2   3   0    671.86   14.27  0. 1.0000     0. 
  -2   3   0    650.74   12.06  0. 1.0000     0. 
   2   3   0    642.21   18.23  0. 1.0000     0. 
  -2   3   0    638.71   26.95  0. 1.0000     0. 
  -2   3   0    649.55   25.33  0. 1.0000     0. 
   3   3   0      7.91    6.24  0. 1.0000     0. 
   3   3   0      4.47    2.41  0. 1.0000     0. 
  -3   3   0      8.00    4.17  0. 1.0000     0. 
  -3   3   0      6.70    6.17  0. 1.0000     0. 
  -4   3   0     -0.31    4.78  0. 1.0000     0. 
  -4   3   0     -4.50    5.42  0. 1.0000     0. 
  -2   1   1   1817.99   74.62  0. 1.0000     0. 
  -1  -1   1     88.77    2.86  0. 1.0000     0. 
  -1  -1   1     82.66    3.02  0. 1.0000     0. 
   1  -1  -1     76.71    3.67  0. 1.0000     0. 
   1  -1  -1     85.90    4.66  0. 1.0000     0. 
  -1   1   1     85.33    2.93  0. 1.0000     0. 
  -1   1   1     87.16    2.57  0. 1.0000     0. 
   1   1  -1     84.25    4.12  0. 1.0000     0. 
   1   1  -1     82.02    2.47  0. 1.0000     0. 
  -1   1   1     85.32    3.34  0. 1.0000     0. 
  -1   1   1     82.04    4.61  0. 1.0000     0. 
   0  -1  -1    427.71   14.89  0. 1.0000     0. 
   0  -1   1    512.76   21.82  0. 1.0000     0. 
   0  -1   1    509.21   11.05  0. 1.0000     0. 
   0  -1  -1    480.66   10.83  0. 1.0000     0. 
   0   1   1    485.55    9.56  0. 1.0000     0. 
   0   1  -1    483.33   20.56  0. 1.0000     0. 
   0   1   1    480.90   11.25  0. 1.0000     0. 
   0   1  -1    484.49   10.94  0. 1.0000     0. 
   0   1   1    485.17   13.32  0. 1.0000     0. 
   0   1  -1    495.85    9.67  0. 1.0000     0. 
   0   1   1    481.87   20.89  0. 1.0000     0. 
   0   1  -1    467.41   12.65  0. 1.0000     0. 
   1  -1   1   3245.31  113.17  0. 1.0000     0. 
  -1  -1  -1   3375.34  104.14  0. 1.0000     0. 
   1  -1   1   3405.03  151.28  0. 1.0000     0. 
  -1   1  -1   3407.15  135.96  0. 1.0000     0. 
   1   1   1   3471.77  151.12  0. 1.0000     0. 
  -1   1  -1   3437.39   48.49  0. 1.0000     0. 
  -1   1  -1   3419.37   59.52  0. 1.0000     0. 
  -3   2   1    174.55    9.75  0. 1.0000     0. 
   2  -2  -1    127.90    8.16  0. 1.0000     0. 
  -2  -2   1    138.32    6.72  0. 1.0000     0. 
   2  -2  -1    122.97    7.07  0. 1.0000     0. 
   2   2  -1    133.15    4.63  0. 1.0000     0. 
   2   2  -1    129.81    6.96  0. 1.0000     0. 
  -2   2   1    125.92    7.96  0. 1.0000     0. 
   2   2  -1    134.08    4.41  0. 1.0000     0. 
  -2   2   1    137.51    6.07  0. 1.0000     0. 
  -2   2   1    134.43    4.61  0. 1.0000     0. 
   0  -2  -1    270.67    9.00  0. 1.0000     0. 
   0  -2   1    286.93    8.89  0. 1.0000     0. 
   0  -2   1    289.49    8.40  0. 1.0000     0. 
   0  -2  -1    275.29   17.16  0. 1.0000     0. 
   0   2  -1    292.34    7.71  0. 1.0000     0. 
   0   2   1    282.17   11.08  0. 1.0000     0. 
   0   2  -1    288.43   14.22  0. 1.0000     0. 
   0   2   1    281.02    8.28  0. 1.0000     0. 
   0   2  -1    284.52    7.08  0. 1.0000     0. 
   0   2   1    254.91   16.48  0. 1.0000     0. 
   2  -2   1   1326.09   46.66  0. 1.0000     0. 
  -2  -2  -1   1320.50   43.64  0. 1.0000     0. 
   2   2   1   1316.62   33.55  0. 1.0000     0. 
  -2   2  -1   1265.18   22.57  0. 1.0000     0. 
   2   2   1   1315.09   36.25  0. 1.0000     0. 
  -2   2  -1   1322.09   47.95  0. 1.0000     0. 
  -2   2  -1   1320.73   32.47  0. 1.0000     0. 
  -4   3   1     58.25    6.26  0. 1.0000     0. 
  -4   3   1     74.64    7.26  0. 1.0000     0. 
   3  -3  -1     20.38    4.61  0. 1.0000     0. 
  -3   3   1     25.61    6.40  0. 1.0000     0. 
   3   3  -1     10.20    6.27  0. 1.0000     0. 
   3   3  -1     12.41    2.38  0. 1.0000     0. 
  -3   3   1     12.66    3.90  0. 1.0000     0. 
   2  -3  -1     89.51    7.26  0. 1.0000     0. 
  -2  -3   1     94.37    4.17  0. 1.0000     0. 
   2  -3  -1     75.00    7.53  0. 1.0000     0. 
  -2  -3   1    104.28    6.98  0. 1.0000     0. 
   2  -3  -1     78.06    6.87  0. 1.0000     0. 
  -2   3   1     73.19    8.37  0. 1.0000     0. 
  -2   3   1     75.79    8.83  0. 1.0000     0. 
  -2   3   1     89.04    4.90  0. 1.0000     0. 
   2   3  -1    102.67    7.20  0. 1.0000     0. 
   2   3  -1     96.82    5.00  0. 1.0000     0. 
   2   3  -1     92.81    3.85  0. 1.0000     0. 
  -1  -3   1    221.21    7.62  0. 1.0000     0. 
  -1  -3   1    221.03   10.72  0. 1.0000     0. 
   1  -3  -1    234.47    6.68  0. 1.0000     0. 
   1  -3  -1    240.39   14.24  0. 1.0000     0. 
  -1  -3   1    195.88   14.93  0. 1.0000     0. 
   1  -3  -1    232.97   11.70  0. 1.0000     0. 
  -1   3   1    226.51   10.73  0. 1.0000     0. 
  -1   3   1    226.83   13.86  0. 1.0000     0. 
   1   3  -1    230.89   11.61  0. 1.0000     0. 
  -1   3   1    233.28    8.06  0. 1.0000     0. 
   1   3  -1    218.12    7.87  0. 1.0000     0. 
  -1   3   1    228.99    6.66  0. 1.0000     0. 
   1   3  -1    231.18    6.67  0. 1.0000     0. 
   0  -3  -1     37.06    5.72  0. 1.0000     0. 
   0  -3   1     40.39    2.72  0. 1.0000     0. 
   0  -3   1     26.70    5.30  0. 1.0000     0. 
   0  -3  -1     40.90    5.59  0. 1.0000     0. 
   0  -3   1     29.29    5.65  0. 1.0000     0. 
   0  -3   1     38.29    5.35  0. 1.0000     0. 
   0  -3  -1     37.64    2.81  0. 1.0000     0. 
   0  -3  -1     38.16    5.78  0. 1.0000     0. 
   0   3   1     45.22    6.14  0. 1.0000     0. 
   0   3  -1     37.99    6.29  0. 1.0000     0. 
   0   3   1     50.97    8.62  0. 1.0000     0. 
   0   3   1     42.08    3.63  0. 1.0000     0. 
   0   3  -1     35.45    3.81  0. 1.0000     0. 
   0   3   1     37.54    2.66  0. 1.0000     0. 
   0   3  -1     40.29    2.82  0. 1.0000     0. 
   0   3  -1     29.27    7.69  0. 1.0000     0. 
   1  -3   1     55.88    5.66  0. 1.0000     0. 
   1  -3   1     51.05    5.31  0. 1.0000     0. 
  -1  -3  -1     44.82    3.03  0. 1.0000     0. 
  -1  -3  -1     35.54    7.91  0. 1.0000     0. 
   1  -3   1     42.58    6.03  0. 1.0000     0. 
  -1  -3  -1     42.33    6.33  0. 1.0000     0. 
   1   3   1     46.50    2.91  0. 1.0000     0. 
   1   3   1     37.41    3.72  0. 1.0000     0. 
  -1   3  -1     38.65    7.18  0. 1.0000     0. 
  -1   3  -1     50.53    3.47  0. 1.0000     0. 
  -1   3  -1     51.01    6.39  0. 1.0000     0. 
  -1   3  -1     49.09    4.20  0. 1.0000     0. 
   1   3   1     40.16    6.51  0. 1.0000     0. 
   2  -3   1    300.45   14.58  0. 1.0000     0. 
   2  -3   1    296.68   16.06  0. 1.0000     0. 
  -2  -3  -1    310.31   10.14  0. 1.0000     0. 
   2   3   1    294.92   12.29  0. 1.0000     0. 
   2   3   1    274.73    9.03  0. 1.0000     0. 
  -2   3  -1    288.30    8.33  0. 1.0000     0. 
  -2   3  -1    289.69   15.71  0. 1.0000     0. 
  -2   3  -1    283.44   14.83  0. 1.0000     0. 
   2  -1  -2   1139.34   51.19  0. 1.0000     0. 
  -2  -1   2   1213.39   21.19  0. 1.0000     0. 
  -2   1   2   1169.92   33.55  0. 1.0000     0. 
   1  -1  -2    109.94    6.13  0. 1.0000     0. 
  -1  -1   2    109.11    3.93  0. 1.0000     0. 
   1  -1  -2    102.96    4.70  0. 1.0000     0. 
   1   1  -2    104.08    2.89  0. 1.0000     0. 
  -1   1   2    109.34    3.51  0. 1.0000     0. 
  -1   1   2    110.17    3.22  0. 1.0000     0. 
  -1   1   2    114.32    3.00  0. 1.0000     0. 
  -1   1   2    111.00    6.30  0. 1.0000     0. 
   0  -1   2   1182.70   52.11  0. 1.0000     0. 
   0  -1  -2   1096.52   22.46  0. 1.0000     0. 
   0  -1  -2   1103.41   33.61  0. 1.0000     0. 
   0   1  -2   1155.29   31.45  0. 1.0000     0. 
   0   1   2   1128.11   47.91  0. 1.0000     0. 
   0   1   2   1095.27   25.62  0. 1.0000     0. 
   0   1  -2   1143.07   22.79  0. 1.0000     0. 
   0   1  -2   1125.56   46.00  0. 1.0000     0. 
   0   1   2   1140.72   19.11  0. 1.0000     0. 
   0   1   2   1140.62   31.13  0. 1.0000     0. 
  -1  -1  -2   1673.94   51.46  0. 1.0000     0. 
   1  -1   2   1745.18   59.29  0. 1.0000     0. 
  -1   1  -2   1705.65   34.94  0. 1.0000     0. 
  -1   1  -2   1724.73   31.89  0. 1.0000     0. 
   1   1   2   1795.95   79.07  0. 1.0000     0. 
   3  -2  -2    745.63   35.85  0. 1.0000     0. 
  -3   2   2    761.56   32.64  0. 1.0000     0. 
   2  -2  -2      1.96    2.59  0. 1.0000     0. 
   2  -2  -2     -1.79    2.89  0. 1.0000     0. 
  -2  -2   2      4.82    3.64  0. 1.0000     0. 
   2   2  -2      3.54    3.87  0. 1.0000     0. 
  -2   2   2     -0.55    1.89  0. 1.0000     0. 
  -2   2   2     -0.51    3.43  0. 1.0000     0. 
   2   2  -2      1.71    2.17  0. 1.0000     0. 
  -1  -2  -2    242.06    7.50  0. 1.0000     0. 
   1  -2   2    254.03   14.06  0. 1.0000     0. 
  -1   2  -2    241.57    6.57  0. 1.0000     0. 
   1   2   2    247.12    8.42  0. 1.0000     0. 
   1   2   2    244.91    7.39  0. 1.0000     0. 
   1   2   2    234.90   15.38  0. 1.0000     0. 
   2  -2   2   1432.75   52.59  0. 1.0000     0. 
  -2  -2  -2   1441.01   48.51  0. 1.0000     0. 
  -2   2  -2   1510.51   51.77  0. 1.0000     0. 
   2   2   2   1402.56   43.81  0. 1.0000     0. 
  -2   2  -2   1498.98   33.51  0. 1.0000     0. 
  -2   2  -2   1460.60   21.65  0. 1.0000     0. 
   2   2   2   1449.93   39.59  0. 1.0000     0. 
  -4   3   2     22.72    6.41  0. 1.0000     0. 
   3  -3  -2      2.57    4.10  0. 1.0000     0. 
  -3  -3   2      8.66    6.13  0. 1.0000     0. 
   3   3  -2      6.88    5.62  0. 1.0000     0. 
  -3   3   2      8.57    6.61  0. 1.0000     0. 
  -3   3   2     11.63    3.33  0. 1.0000     0. 
   2  -3  -2    304.83   17.53  0. 1.0000     0. 
  -2  -3   2    322.42   13.25  0. 1.0000     0. 
  -2   3   2    310.42   17.00  0. 1.0000     0. 
   2   3  -2    321.34    8.86  0. 1.0000     0. 
   2   3  -2    307.79   12.16  0. 1.0000     0. 
   1  -3  -2      8.36    4.55  0. 1.0000     0. 
  -1  -3   2      5.84    5.43  0. 1.0000     0. 
   1  -3  -2      3.22    2.42  0. 1.0000     0. 
  -1   3   2      2.82    2.38  0. 1.0000     0. 
   1   3  -2      5.69    5.78  0. 1.0000     0. 
   1   3  -2      1.58    3.22  0. 1.0000     0. 
  -1   3   2     -0.24    6.41  0. 1.0000     0. 
   0  -3  -2      1.23    2.28  0. 1.0000     0. 
   0  -3  -2      3.46    4.47  0. 1.0000     0. 
   0  -3   2      3.27    5.26  0. 1.0000     0. 
   0  -3   2      7.15    5.05  0. 1.0000     0. 
   0   3  -2      1.39    5.36  0. 1.0000     0. 
   0   3   2      5.74    2.19  0. 1.0000     0. 
   0   3   2      0.52    6.61  0. 1.0000     0. 
   0   3  -2      6.22    3.51  0. 1.0000     0. 
  -1  -3  -2    653.95   19.04  0. 1.0000     0. 
   1  -3   2    673.18   13.65  0. 1.0000     0. 
  -1  -3  -2    619.08   38.49  0. 1.0000     0. 
   1  -3   2    671.25   27.30  0. 1.0000     0. 
  -1   3  -2    673.29   21.46  0. 1.0000     0. 
   1   3   2    513.34   36.13  0. 1.0000     0. 
   1   3   2    655.93   18.93  0. 1.0000     0. 
  -1   3  -2    665.76   12.50  0. 1.0000     0. 
  -2  -3  -2     52.61    3.32  0. 1.0000     0. 
   2  -3   2     40.11    6.23  0. 1.0000     0. 
   2   3   2     48.78    3.16  0. 1.0000     0. 
  -2   3  -2     46.22    7.94  0. 1.0000     0. 
  -2   3  -2     45.04    4.69  0. 1.0000     0. 
   4   4  -2      0.35    8.51  0. 1.0000     0. 
   3   4  -2      1.49    7.83  0. 1.0000     0. 
  -2  -4   2      4.18    6.59  0. 1.0000     0. 
   2   4  -2      5.69    7.83  0. 1.0000     0. 
   2   4  -2      8.81    4.24  0. 1.0000     0. 
  -1  -4   2      6.40    6.79  0. 1.0000     0. 
  -1  -4   2      6.14    7.04  0. 1.0000     0. 
   1   4  -2      0.70    7.42  0. 1.0000     0. 
   1   4  -2      2.85    4.40  0. 1.0000     0. 
   0  -4   2      6.67    6.74  0. 1.0000     0. 
   0  -4   2     -1.05    6.47  0. 1.0000     0. 
   0   4  -2     -0.15    7.86  0. 1.0000     0. 
   0   4  -2     -2.57    4.12  0. 1.0000     0. 
   1  -4   2     -2.29    6.69  0. 1.0000     0. 
   1  -4   2      8.96    6.47  0. 1.0000     0. 
  -1   4  -2     -2.58    8.50  0. 1.0000     0. 
  -1   4  -2     -6.32    4.51  0. 1.0000     0. 
   2  -4   2     56.96    8.68  0. 1.0000     0. 
   2  -4   2     47.09    7.81  0. 1.0000     0. 
  -2   4  -2     50.41    9.29  0. 1.0000     0. 
  -2   4  -2     39.46    6.01  0. 1.0000     0. 
   3  -4   2     13.08    7.40  0. 1.0000     0. 
   3  -4   2      0.88    4.50  0. 1.0000     0. 
  -3   4  -2     12.18    5.77  0. 1.0000     0. 
   1   0  -3      0.15    0.77  0. 1.0000     0. 
  -1   0   3     -0.12    0.71  0. 1.0000     0. 
   1   0  -3      0.14    0.56  0. 1.0000     0. 
  -1   0   3      0.11    0.53  0. 1.0000     0. 
  -1   0   3      0.08    0.40  0. 1.0000     0. 
   1   0  -3      0.52    0.43  0. 1.0000     0. 
   0   0  -3      0.02    0.29  0. 1.0000     0. 
   0   0   3      0.09    0.25  0. 1.0000     0. 
   0   0   3     -0.92    0.89  0. 1.0000     0. 
   0   0  -3      0.08    0.79  0. 1.0000     0. 
   0   0   3     -0.21    0.68  0. 1.0000     0. 
   0   0  -3      0.64    0.65  0. 1.0000     0. 
  -2  -1   3    384.73    9.40  0. 1.0000     0. 
  -2   1   3    389.64   11.24  0. 1.0000     0. 
   2   1  -3    360.53    8.36  0. 1.0000     0. 
  -1  -1   3    493.97    9.28  0. 1.0000     0. 
  -1   1   3    481.11   10.61  0. 1.0000     0. 
  -1   1   3    496.59   13.30  0. 1.0000     0. 
   1   1  -3    492.04    9.76  0. 1.0000     0. 
   0  -1   3    154.05    7.54  0. 1.0000     0. 
   0   1   3    169.79    4.80  0. 1.0000     0. 
   0   1   3    164.60    2.46  0. 1.0000     0. 
   0   1  -3    162.10    4.02  0. 1.0000     0. 
   0   1  -3    146.27    7.34  0. 1.0000     0. 
  -1   1  -3    725.25   15.22  0. 1.0000     0. 
  -3  -2   3    304.00   11.17  0. 1.0000     0. 
   3  -2  -3    301.16   15.68  0. 1.0000     0. 
  -3   2   3    296.53   13.96  0. 1.0000     0. 
  -3   2   3    301.41    9.89  0. 1.0000     0. 
   3   2  -3    298.66   13.75  0. 1.0000     0. 
   2  -2  -3    242.75   13.18  0. 1.0000     0. 
  -2  -2   3    247.35    9.23  0. 1.0000     0. 
   2   2  -3    239.64    9.23  0. 1.0000     0. 
  -2   2   3    259.04   12.82  0. 1.0000     0. 
   2   2  -3    241.11    7.37  0. 1.0000     0. 
  -1  -2   3     30.97    4.34  0. 1.0000     0. 
   1  -2  -3     26.16    3.42  0. 1.0000     0. 
  -1  -2   3     36.59    3.98  0. 1.0000     0. 
   1  -2  -3     24.79    3.04  0. 1.0000     0. 
   1  -2  -3     30.26    4.39  0. 1.0000     0. 
  -1  -2   3     30.21    1.78  0. 1.0000     0. 
  -1   2   3     33.82    4.99  0. 1.0000     0. 
   1   2  -3     30.20    4.33  0. 1.0000     0. 
  -1   2   3     33.55    2.07  0. 1.0000     0. 
   1   2  -3     22.66    4.55  0. 1.0000     0. 
  -1   2   3     28.45    2.36  0. 1.0000     0. 
  -1   2   3     29.33    3.55  0. 1.0000     0. 
   1   2  -3     32.86    2.75  0. 1.0000     0. 
   1   2  -3     28.53    1.58  0. 1.0000     0. 
   0  -2   3    432.21   22.67  0. 1.0000     0. 
   0  -2  -3    467.96   11.57  0. 1.0000     0. 
   0  -2  -3    476.33   25.17  0. 1.0000     0. 
   0  -2   3    456.23   18.04  0. 1.0000     0. 
   0  -2  -3    455.31   13.47  0. 1.0000     0. 
   0  -2   3    447.92   10.56  0. 1.0000     0. 
   0   2   3    461.66   10.41  0. 1.0000     0. 
   0   2  -3    443.80   13.95  0. 1.0000     0. 
   0   2  -3    461.09   11.59  0. 1.0000     0. 
   0   2  -3    452.14    9.59  0. 1.0000     0. 
   0   2   3    467.58   12.19  0. 1.0000     0. 
   0   2   3    448.87   11.69  0. 1.0000     0. 
   0   2   3    448.39   23.29  0. 1.0000     0. 
   0   2  -3    447.16   19.81  0. 1.0000     0. 
   1  -2   3    113.73    6.80  0. 1.0000     0. 
  -1  -2  -3    124.55    4.07  0. 1.0000     0. 
  -1   2  -3    125.69    4.51  0. 1.0000     0. 
  -1   2  -3    114.67    6.60  0. 1.0000     0. 
   1   2   3    122.45    3.81  0. 1.0000     0. 
   1   2   3    127.20    9.93  0. 1.0000     0. 
   2  -2   3     78.94    6.29  0. 1.0000     0. 
  -2  -2  -3     90.28    4.01  0. 1.0000     0. 
  -2   2  -3     71.64    7.20  0. 1.0000     0. 
  -2   2  -3     92.58    4.80  0. 1.0000     0. 
   2   2   3     87.20    3.38  0. 1.0000     0. 
  -2   2  -3     86.67    5.35  0. 1.0000     0. 
   4  -3  -3      0.16    3.37  0. 1.0000     0. 
  -4   3   3      2.41    6.39  0. 1.0000     0. 
  -2  -3   3      7.48    5.54  0. 1.0000     0. 
   2  -3  -3      6.35    4.51  0. 1.0000     0. 
  -2   3   3      0.54    2.75  0. 1.0000     0. 
   2   3  -3     11.06    6.07  0. 1.0000     0. 
   2   3  -3      8.23    3.44  0. 1.0000     0. 
  -2   3   3     -0.21    5.97  0. 1.0000     0. 
   1  -3  -3      2.83    2.42  0. 1.0000     0. 
   1  -3  -3      3.34    4.47  0. 1.0000     0. 
  -1  -3   3      6.06    4.97  0. 1.0000     0. 
   1   3  -3      7.97    3.38  0. 1.0000     0. 
   1   3  -3      2.49    5.05  0. 1.0000     0. 
  -1   3   3      4.31    2.42  0. 1.0000     0. 
  -1   3   3     -0.23    6.21  0. 1.0000     0. 
   0  -3  -3    180.55    6.72  0. 1.0000     0. 
   0  -3   3    182.24   10.79  0. 1.0000     0. 
   0  -3   3    188.88    8.03  0. 1.0000     0. 
   0  -3  -3    149.09   12.41  0. 1.0000     0. 
   0   3   3    163.67   13.62  0. 1.0000     0. 
   0   3  -3    181.78    6.19  0. 1.0000     0. 
   0   3  -3    192.35    9.70  0. 1.0000     0. 
   0   3   3    181.36    6.39  0. 1.0000     0. 
   1  -3   3     86.68    7.13  0. 1.0000     0. 
  -1  -3  -3     95.12   10.68  0. 1.0000     0. 
   1  -3   3     90.74    7.67  0. 1.0000     0. 
  -1  -3  -3     95.73    4.27  0. 1.0000     0. 
  -1   3  -3     83.79    8.77  0. 1.0000     0. 
  -1   3  -3     90.42    5.45  0. 1.0000     0. 
   1   3   3     93.37   11.81  0. 1.0000     0. 
   1   3   3     92.22    4.05  0. 1.0000     0. 
   2  -3   3      1.09    5.11  0. 1.0000     0. 
  -2   3  -3      7.62    6.77  0. 1.0000     0. 
   3  -3   3     15.10    4.42  0. 1.0000     0. 
  -3   3  -3     41.06    5.88  0. 1.0000     0. 
   3   3   3     17.16    2.95  0. 1.0000     0. 
   4  -4  -3    219.26   15.47  0. 1.0000     0. 
  -4   4   3    249.43   16.79  0. 1.0000     0. 
  -3  -4   3     10.70    7.66  0. 1.0000     0. 
   3  -4  -3      6.27    5.31  0. 1.0000     0. 
  -3   4   3      0.88    8.33  0. 1.0000     0. 
  -3   4   3      8.01    4.21  0. 1.0000     0. 
   3   4  -3      4.30    8.37  0. 1.0000     0. 
   2  -4  -3      9.99    3.32  0. 1.0000     0. 
   2  -4  -3      9.62    5.37  0. 1.0000     0. 
  -2  -4   3     21.14    8.07  0. 1.0000     0. 
   2   4  -3     12.60    4.27  0. 1.0000     0. 
  -2   4   3     13.78    3.96  0. 1.0000     0. 
  -2   4   3     19.28    9.62  0. 1.0000     0. 
   2   4  -3     16.43    7.73  0. 1.0000     0. 
  -1  -4   3     83.93    8.01  0. 1.0000     0. 
   1  -4  -3     54.03    8.56  0. 1.0000     0. 
   1  -4  -3     72.77    4.57  0. 1.0000     0. 
  -1  -4   3     77.88    8.73  0. 1.0000     0. 
   1   4  -3     83.04    9.24  0. 1.0000     0. 
   1   4  -3     79.88    5.00  0. 1.0000     0. 
  -1   4   3     65.25   11.80  0. 1.0000     0. 
  -1   4   3     64.79    4.90  0. 1.0000     0. 
   0  -4   3     -1.32    6.35  0. 1.0000     0. 
   0  -4  -3      4.06    5.63  0. 1.0000     0. 
   0  -4  -3      0.65    2.98  0. 1.0000     0. 
   0  -4   3      2.04    6.46  0. 1.0000     0. 
   0   4   3      5.33    8.69  0. 1.0000     0. 
   0   4  -3      4.16    4.29  0. 1.0000     0. 
   0   4  -3      1.70    7.44  0. 1.0000     0. 
   0   4   3      2.73    3.06  0. 1.0000     0. 
   1  -4   3     18.73    6.80  0. 1.0000     0. 
  -1  -4  -3     15.82    3.32  0. 1.0000     0. 
   1  -4   3     18.72    6.71  0. 1.0000     0. 
  -1  -4  -3     12.14    7.30  0. 1.0000     0. 
   1   4   3     14.28    3.32  0. 1.0000     0. 
   1   4   3     -1.66    8.87  0. 1.0000     0. 
  -1   4  -3     14.06    4.85  0. 1.0000     0. 
  -1   4  -3     12.02    8.28  0. 1.0000     0. 
   2  -4   3      8.73    7.25  0. 1.0000     0. 
   2  -4   3     -0.56    6.92  0. 1.0000     0. 
  -2  -4  -3     -5.65    9.36  0. 1.0000     0. 
  -2  -4  -3      2.66    3.01  0. 1.0000     0. 
   2   4   3     -0.60    3.12  0. 1.0000     0. 
  -2   4  -3      5.96    5.28  0. 1.0000     0. 
  -2   4  -3     -2.60    8.29  0. 1.0000     0. 
   3  -4   3     -0.89    4.82  0. 1.0000     0. 
   3  -4   3      2.34    8.15  0. 1.0000     0. 
   3   4   3      0.65    3.26  0. 1.0000     0. 
  -3   4  -3      4.26    5.94  0. 1.0000     0. 
  -1   0   4   3684.87   98.56  0. 1.0000     0. 
  -1   0   4   3857.54  156.58  0. 1.0000     0. 
   1   0  -4   3720.62   67.45  0. 1.0000     0. 
   1   0  -4   3636.66  158.96  0. 1.0000     0. 
   1   0  -4   3537.23   70.36  0. 1.0000     0. 
   0   0   4   3320.57   94.44  0. 1.0000     0. 
   0   0  -4   2847.16   90.49  0. 1.0000     0. 
   0   0   4   3197.46   87.60  0. 1.0000     0. 
   0   0  -4   3150.75   64.23  0. 1.0000     0. 
   0   0   4   3407.59  133.19  0. 1.0000     0. 
  -1  -1   4   1832.89   37.01  0. 1.0000     0. 
   1   1  -4   1826.87   35.36  0. 1.0000     0. 
  -1   1   4   1749.78   47.87  0. 1.0000     0. 
   0   1  -4   1029.06   20.33  0. 1.0000     0. 
   0   1   4   1033.41   28.63  0. 1.0000     0. 
   3  -2  -4    633.98   31.19  0. 1.0000     0. 
  -3  -2   4    635.64   19.32  0. 1.0000     0. 
   3   2  -4    631.86   18.58  0. 1.0000     0. 
  -3   2   4    646.28   26.52  0. 1.0000     0. 
  -2  -2   4     43.94    4.14  0. 1.0000     0. 
   2  -2  -4     29.92    4.32  0. 1.0000     0. 
  -2   2   4     35.47    2.63  0. 1.0000     0. 
   2   2  -4     35.07    2.80  0. 1.0000     0. 
  -2   2   4     22.62    4.90  0. 1.0000     0. 
  -2   2   4     30.64    2.63  0. 1.0000     0. 
   2   2  -4     39.97    4.48  0. 1.0000     0. 
   1  -2  -4    189.74   11.25  0. 1.0000     0. 
   1  -2  -4    167.07    8.18  0. 1.0000     0. 
  -1  -2   4    172.80   10.40  0. 1.0000     0. 
  -1  -2   4    184.15    6.23  0. 1.0000     0. 
  -1  -2   4    188.43    7.33  0. 1.0000     0. 
   1  -2  -4    181.35    6.16  0. 1.0000     0. 
   1   2  -4    176.87    5.00  0. 1.0000     0. 
   1   2  -4    190.78    7.69  0. 1.0000     0. 
  -1   2   4    191.43    6.25  0. 1.0000     0. 
  -1   2   4    182.66    4.74  0. 1.0000     0. 
  -1   2   4    179.88    5.90  0. 1.0000     0. 
  -1   2   4    182.84   11.23  0. 1.0000     0. 
   1   2  -4    181.77    5.31  0. 1.0000     0. 
   0  -2  -4     49.43    2.65  0. 1.0000     0. 
   0  -2  -4     51.03    6.98  0. 1.0000     0. 
   0  -2   4     46.72    3.82  0. 1.0000     0. 
   0  -2  -4     49.23    3.72  0. 1.0000     0. 
   0  -2   4     40.56    4.50  0. 1.0000     0. 
   0   2  -4     48.80    2.38  0. 1.0000     0. 
   0   2   4     50.85    3.74  0. 1.0000     0. 
   0   2  -4     50.10    5.29  0. 1.0000     0. 
   0   2  -4     49.53    4.62  0. 1.0000     0. 
   0   2   4     45.94    7.62  0. 1.0000     0. 
   0   2   4     49.74    2.50  0. 1.0000     0. 
   0   2  -4     48.85    3.65  0. 1.0000     0. 
   1  -2   4    171.85    8.90  0. 1.0000     0. 
  -1  -2  -4    172.91    5.57  0. 1.0000     0. 
  -1   2  -4    163.98    5.89  0. 1.0000     0. 
  -1   2  -4    154.85   10.22  0. 1.0000     0. 
  -1   2  -4    157.11    8.84  0. 1.0000     0. 
   1   2   4    164.25    5.30  0. 1.0000     0. 
   1   2   4    164.24   12.17  0. 1.0000     0. 
  -2  -2  -4    264.26    9.48  0. 1.0000     0. 
   2  -2   4    264.55   12.60  0. 1.0000     0. 
  -2   2  -4    276.66    7.44  0. 1.0000     0. 
   4  -3  -4     38.91    5.90  0. 1.0000     0. 
   2  -3  -4    116.06    8.76  0. 1.0000     0. 
  -2  -3   4    112.54    8.50  0. 1.0000     0. 
  -2   3   4    116.21    5.57  0. 1.0000     0. 
  -2   3   4    117.12    9.82  0. 1.0000     0. 
   2   3  -4    118.68    8.74  0. 1.0000     0. 
   2   3  -4    118.66    5.18  0. 1.0000     0. 
   1  -3  -4     18.40    5.06  0. 1.0000     0. 
  -1  -3   4     19.38    5.42  0. 1.0000     0. 
   1  -3  -4     20.95    2.62  0. 1.0000     0. 
   1   3  -4     22.92    3.78  0. 1.0000     0. 
   1   3  -4     16.02    5.73  0. 1.0000     0. 
  -1   3   4      9.27    7.26  0. 1.0000     0. 
  -1   3   4     22.06    2.74  0. 1.0000     0. 
   0  -3   4    103.08    7.01  0. 1.0000     0. 
   0  -3   4    122.56    9.38  0. 1.0000     0. 
   0  -3  -4    130.57    5.17  0. 1.0000     0. 
   0  -3  -4    142.93   11.59  0. 1.0000     0. 
   0   3  -4    125.71    5.77  0. 1.0000     0. 
   0   3   4    124.15   11.64  0. 1.0000     0. 
   0   3   4    138.45    4.99  0. 1.0000     0. 
   0   3  -4    109.91   10.31  0. 1.0000     0. 
   1  -3   4     24.09    6.22  0. 1.0000     0. 
  -1  -3  -4     27.10    2.83  0. 1.0000     0. 
   1  -3   4     20.40    5.54  0. 1.0000     0. 
  -1   3  -4     20.01    6.99  0. 1.0000     0. 
   1   3   4     21.23    2.65  0. 1.0000     0. 
  -1   3  -4     21.66    4.52  0. 1.0000     0. 
   1   3   4     29.68    8.75  0. 1.0000     0. 
   4  -4  -4     10.57    5.92  0. 1.0000     0. 
   4   4  -4     15.23    9.04  0. 1.0000     0. 
  -4   4   4      8.30    8.67  0. 1.0000     0. 
  -3  -4   4      4.75    7.33  0. 1.0000     0. 
   3  -4  -4      4.06    5.50  0. 1.0000     0. 
   3   4  -4     -2.54    8.16  0. 1.0000     0. 
  -3   4   4     -2.11    8.80  0. 1.0000     0. 
  -3   4   4     -0.31    3.98  0. 1.0000     0. 
   2  -4  -4      4.92    5.32  0. 1.0000     0. 
  -2  -4   4      2.65    7.60  0. 1.0000     0. 
   2  -4  -4      1.37    3.09  0. 1.0000     0. 
  -2   4   4      4.27    9.72  0. 1.0000     0. 
  -2   4   4      8.31    3.92  0. 1.0000     0. 
   2   4  -4     -3.31    7.03  0. 1.0000     0. 
   2   4  -4     -6.92    4.56  0. 1.0000     0. 
  -1  -4   4      4.56    6.75  0. 1.0000     0. 
   1  -4  -4      0.69    3.22  0. 1.0000     0. 
   1  -4  -4     -1.55    5.96  0. 1.0000     0. 
  -1  -4   4      5.34    6.88  0. 1.0000     0. 
  -1   4   4      1.65    3.37  0. 1.0000     0. 
  -1   4   4      4.62    9.20  0. 1.0000     0. 
   1   4  -4      2.40    4.48  0. 1.0000     0. 
   1   4  -4      1.47    7.65  0. 1.0000     0. 
   0  -4  -4      4.75    6.48  0. 1.0000     0. 
   0  -4  -4      0.10    2.98  0. 1.0000     0. 
   0  -4   4      7.83    6.78  0. 1.0000     0. 
   0  -4   4     -1.36    6.48  0. 1.0000     0. 
   0   4   4     -0.93    3.05  0. 1.0000     0. 
   0   4  -4      7.32    7.12  0. 1.0000     0. 
   0   4  -4     -3.71    4.61  0. 1.0000     0. 
   0   4   4     -1.48    8.50  0. 1.0000     0. 
  -1  -4  -4      7.21    7.82  0. 1.0000     0. 
   1  -4   4      5.30    6.02  0. 1.0000     0. 
  -1  -4  -4      7.00    3.34  0. 1.0000     0. 
   1  -4   4      2.86    6.99  0. 1.0000     0. 
  -1   4  -4      3.84    4.81  0. 1.0000     0. 
   1   4   4     11.54    9.40  0. 1.0000     0. 
  -1   4  -4      2.67    8.07  0. 1.0000     0. 
   1   4   4      7.49    3.19  0. 1.0000     0. 
   2  -4   4      4.18    6.94  0. 1.0000     0. 
  -2  -4  -4     -1.15    9.15  0. 1.0000     0. 
  -2  -4  -4     -1.16    3.03  0. 1.0000     0. 
   2  -4   4      0.92    7.36  0. 1.0000     0. 
   2   4   4      1.64    3.27  0. 1.0000     0. 
  -2   4  -4     -2.78    5.30  0. 1.0000     0. 
  -2   4  -4     -2.84    8.38  0. 1.0000     0. 
   3  -4   4      4.26    5.15  0. 1.0000     0. 
   3  -4   4     32.77    8.90  0. 1.0000     0. 
   3   4   4     11.70    3.61  0. 1.0000     0. 
  -3   4  -4     13.53    6.46  0. 1.0000     0. 
  -4   4  -4    -11.38    6.86  0. 1.0000     0. 
   2   0  -5      0.42    1.59  0. 1.0000     0. 
  -2   0   5      0.29    1.08  0. 1.0000     0. 
  -1   0   5     -0.29    0.53  0. 1.0000     0. 
  -1   0   5      0.37    1.32  0. 1.0000     0. 
   1   0  -5      0.33    1.08  0. 1.0000     0. 
   1   0  -5      0.30    0.87  0. 1.0000     0. 
   1   0  -5      0.38    1.33  0. 1.0000     0. 
  -1   0   5      0.91    1.14  0. 1.0000     0. 
   0   0   5      0.61    0.61  0. 1.0000     0. 
   0   0   5      0.11    1.16  0. 1.0000     0. 
   0   0   5     -0.09    1.79  0. 1.0000     0. 
   0   0  -5     -0.08    1.75  0. 1.0000     0. 
   0   0  -5      0.88    1.33  0. 1.0000     0. 
   0   0  -5     -0.35    0.60  0. 1.0000     0. 
   3  -1  -5    961.17   39.94  0. 1.0000     0. 
  -3  -1   5    965.00   28.98  0. 1.0000     0. 
  -3   1   5    971.45   42.95  0. 1.0000     0. 
   3   1  -5    987.20   21.23  0. 1.0000     0. 
  -2   1   5    275.48   13.71  0. 1.0000     0. 
   2   1  -5    276.91    8.63  0. 1.0000     0. 
   1   1  -5    421.70    9.08  0. 1.0000     0. 
  -1   1   5    403.18   21.31  0. 1.0000     0. 
   0  -1  -5    225.54    7.64  0. 1.0000     0. 
   0  -1   5    228.52   10.06  0. 1.0000     0. 
   0   1  -5    231.07    7.94  0. 1.0000     0. 
   0   1   5    250.07   13.00  0. 1.0000     0. 
  -1  -1  -5    236.43    8.00  0. 1.0000     0. 
   1  -1   5    242.27   10.07  0. 1.0000     0. 
   1   1   5    241.51    7.55  0. 1.0000     0. 
  -1   1  -5    238.34    6.99  0. 1.0000     0. 
  -1   1  -5    237.85    8.70  0. 1.0000     0. 
   1   1   5    236.28   14.85  0. 1.0000     0. 
   4  -2  -5    348.42   17.56  0. 1.0000     0. 
  -4   2   5    335.51   17.92  0. 1.0000     0. 
   3  -2  -5     21.32    4.44  0. 1.0000     0. 
  -3  -2   5     25.21    4.78  0. 1.0000     0. 
   3   2  -5     28.53    5.50  0. 1.0000     0. 
  -3   2   5     23.18    5.22  0. 1.0000     0. 
   3   2  -5     23.25    3.00  0. 1.0000     0. 
  -3   2   5     27.00    2.82  0. 1.0000     0. 
   2  -2  -5    371.42   19.83  0. 1.0000     0. 
  -2  -2   5    383.31   12.48  0. 1.0000     0. 
  -2   2   5    380.34   11.66  0. 1.0000     0. 
  -2   2   5    387.51   19.08  0. 1.0000     0. 
   2   2  -5    378.85   13.43  0. 1.0000     0. 
   2   2  -5    381.61    9.10  0. 1.0000     0. 
   1  -2  -5    124.56    8.09  0. 1.0000     0. 
  -1  -2   5    113.77    6.39  0. 1.0000     0. 
  -1   2   5    123.14    4.23  0. 1.0000     0. 
  -1   2   5    126.10    9.31  0. 1.0000     0. 
   1   2  -5    112.10    4.78  0. 1.0000     0. 
   1   2  -5     90.67    8.12  0. 1.0000     0. 
   0  -2   5    237.40    9.34  0. 1.0000     0. 
   0  -2   5    245.91   11.63  0. 1.0000     0. 
   0  -2  -5    242.74    8.36  0. 1.0000     0. 
   0   2   5    222.27   15.55  0. 1.0000     0. 
   0   2  -5    238.56    7.59  0. 1.0000     0. 
   0   2  -5    250.00    9.36  0. 1.0000     0. 
   0   2   5    244.31    7.50  0. 1.0000     0. 
   1  -2   5      1.17    3.91  0. 1.0000     0. 
  -1  -2  -5     -0.52    1.78  0. 1.0000     0. 
   1   2   5      1.36    1.46  0. 1.0000     0. 
  -1   2  -5      4.66    3.30  0. 1.0000     0. 
   1   2   5     -3.25    6.31  0. 1.0000     0. 
  -1   2  -5     -1.33    4.60  0. 1.0000     0. 
  -5   3   5     27.00    6.84  0. 1.0000     0. 
   4  -3  -5     62.13    6.65  0. 1.0000     0. 
  -4   3   5     40.59    4.31  0. 1.0000     0. 
   4   3  -5     36.64    8.04  0. 1.0000     0. 
  -1  -3   5    258.58   12.28  0. 1.0000     0. 
  -1  -3   5    265.41   13.90  0. 1.0000     0. 
   1  -3  -5    268.18    8.93  0. 1.0000     0. 
   1   3  -5    258.49   14.43  0. 1.0000     0. 
   1   3  -5    264.94    8.06  0. 1.0000     0. 
  -1   3   5    289.41   17.37  0. 1.0000     0. 
   2   3   5    422.73   13.39  0. 1.0000     0. 
  -2   3  -5    421.84   10.70  0. 1.0000     0. 
   3  -3   5      3.71    3.75  0. 1.0000     0. 
  -5   4   5     27.76   10.07  0. 1.0000     0. 
   4  -4  -5     11.71    5.42  0. 1.0000     0. 
  -4   4   5     14.51    9.47  0. 1.0000     0. 
   4   4  -5      9.53    9.19  0. 1.0000     0. 
   3  -4  -5    115.23    9.92  0. 1.0000     0. 
  -3  -4   5    106.08   10.27  0. 1.0000     0. 
  -3   4   5    120.28   13.02  0. 1.0000     0. 
   3   4  -5    119.52   11.19  0. 1.0000     0. 
  -2  -4   5    254.51   14.48  0. 1.0000     0. 
   2  -4  -5    278.70    9.36  0. 1.0000     0. 
   2  -4  -5    270.06   16.88  0. 1.0000     0. 
  -2   4   5    255.11   10.25  0. 1.0000     0. 
   2   4  -5    280.07    8.90  0. 1.0000     0. 
  -2   4   5    269.20   18.53  0. 1.0000     0. 
   2   4  -5    260.97   15.18  0. 1.0000     0. 
  -1  -4   5    172.84   11.98  0. 1.0000     0. 
   1  -4  -5    181.53    7.16  0. 1.0000     0. 
   1  -4  -5    176.45   13.26  0. 1.0000     0. 
  -1  -4   5    170.58   11.35  0. 1.0000     0. 
   1   4  -5    177.62    6.89  0. 1.0000     0. 
   1   4  -5    165.99   12.93  0. 1.0000     0. 
  -1   4   5    164.89   15.44  0. 1.0000     0. 
  -1   4   5    173.25    7.46  0. 1.0000     0. 
   0  -4  -5     94.48    4.83  0. 1.0000     0. 
   0  -4   5     91.44    9.78  0. 1.0000     0. 
   0  -4   5     84.65    8.18  0. 1.0000     0. 
   0  -4  -5     86.91    9.75  0. 1.0000     0. 
   0   4   5     87.05    4.84  0. 1.0000     0. 
   0   4  -5     89.82    5.82  0. 1.0000     0. 
   0   4  -5     87.82   10.62  0. 1.0000     0. 
   0   4   5     78.15   12.43  0. 1.0000     0. 
  -1  -4  -5    207.91    7.92  0. 1.0000     0. 
   1  -4   5    195.37   14.20  0. 1.0000     0. 
  -1  -4  -5    194.86   16.75  0. 1.0000     0. 
   1  -4   5    210.96    8.87  0. 1.0000     0. 
  -1   4  -5    206.85   14.53  0. 1.0000     0. 
   1   4   5    182.33    7.26  0. 1.0000     0. 
   1   4   5    179.96   19.37  0. 1.0000     0. 
  -2  -4  -5      1.81    3.04  0. 1.0000     0. 
  -2  -4  -5      2.88    9.07  0. 1.0000     0. 
   2  -4   5      5.69    7.53  0. 1.0000     0. 
   2  -4   5      5.21    6.92  0. 1.0000     0. 
  -2   4  -5      8.73    5.53  0. 1.0000     0. 
  -2   4  -5      5.20    9.02  0. 1.0000     0. 
   2   4   5      0.13    3.40  0. 1.0000     0. 
   2   0  -6   2390.44   47.29  0. 1.0000     0. 
   1   0  -6     54.66    3.73  0. 1.0000     0. 
  -1   0   6     64.85    4.09  0. 1.0000     0. 
  -1   0   6     56.48    1.93  0. 1.0000     0. 
  -1   0   6     59.11    2.23  0. 1.0000     0. 
   1   0  -6     50.75    3.19  0. 1.0000     0. 
   1   0  -6     54.92    2.29  0. 1.0000     0. 
   0   0   6    389.36   13.43  0. 1.0000     0. 
   0   0  -6    379.36   10.03  0. 1.0000     0. 
   0   0  -6    388.52    7.99  0. 1.0000     0. 
   0   0  -6    372.76   11.82  0. 1.0000     0. 
   0   0   6    430.66   18.65  0. 1.0000     0. 
   0   0   6    394.49   11.28  0. 1.0000     0. 
   3  -1  -6   1712.43   72.47  0. 1.0000     0. 
  -3  -1   6   1723.32   34.35  0. 1.0000     0. 
  -3   1   6   1712.26   74.79  0. 1.0000     0. 
  -3   1   6   1703.83   47.89  0. 1.0000     0. 
   3   1  -6   1740.31   41.37  0. 1.0000     0. 
   2  -1  -6     -1.21    2.58  0. 1.0000     0. 
  -2  -1   6      0.14    2.69  0. 1.0000     0. 
   2   1  -6      0.15    1.91  0. 1.0000     0. 
  -2   1   6      1.28    1.31  0. 1.0000     0. 
  -2   1   6     -0.12    2.79  0. 1.0000     0. 
   2   1  -6     -0.49    2.61  0. 1.0000     0. 
  -1  -1   6     39.52    3.38  0. 1.0000     0. 
   1  -1  -6     48.05    4.96  0. 1.0000     0. 
   1   1  -6     42.49    3.94  0. 1.0000     0. 
  -1   1   6     45.33    4.85  0. 1.0000     0. 
   1   1  -6     35.23    2.59  0. 1.0000     0. 
  -1   1   6     43.39    1.97  0. 1.0000     0. 
   0  -1  -6   1655.10   51.13  0. 1.0000     0. 
   0  -1   6   1719.12   58.34  0. 1.0000     0. 
   0   1   6   1697.95   48.14  0. 1.0000     0. 
   0   1  -6   1720.26   32.79  0. 1.0000     0. 
   0   1  -6   1712.20   31.89  0. 1.0000     0. 
   0   1   6   1783.47   75.51  0. 1.0000     0. 
  -1  -1  -6      7.07    1.50  0. 1.0000     0. 
   1  -1   6     10.40    2.92  0. 1.0000     0. 
   1   1   6      6.53    1.26  0. 1.0000     0. 
  -1   1  -6     10.48    3.83  0. 1.0000     0. 
   1   1   6      6.29    4.31  0. 1.0000     0. 
  -1   1  -6      6.87    3.07  0. 1.0000     0. 
   4  -2  -6    488.04   23.45  0. 1.0000     0. 
  -4   2   6    495.98   23.78  0. 1.0000     0. 
   4   2  -6    494.43   19.33  0. 1.0000     0. 
   2  -2  -6    283.42   15.77  0. 1.0000     0. 
  -2  -2   6    283.72   10.97  0. 1.0000     0. 
   2   2  -6    297.80    7.63  0. 1.0000     0. 
  -2   2   6    288.91    9.20  0. 1.0000     0. 
   2   2  -6    275.08   11.34  0. 1.0000     0. 
  -2   2   6    277.57   16.07  0. 1.0000     0. 
   1  -2  -6    227.16    7.93  0. 1.0000     0. 
   1  -2  -6    213.56   14.15  0. 1.0000     0. 
  -1  -2   6    218.66    8.35  0. 1.0000     0. 
   1   2  -6    234.78    9.40  0. 1.0000     0. 
  -1   2   6    223.98    7.32  0. 1.0000     0. 
  -1   2   6    216.62   14.40  0. 1.0000     0. 
   1   2  -6    222.38    6.60  0. 1.0000     0. 
   0  -2  -6    853.76   26.64  0. 1.0000     0. 
   0  -2   6    844.05   19.44  0. 1.0000     0. 
   0   2  -6    870.02   22.71  0. 1.0000     0. 
   0   2   6    836.82   41.51  0. 1.0000     0. 
   0   2   6    839.48   23.98  0. 1.0000     0. 
   0   2  -6    818.51   17.92  0. 1.0000     0. 
  -2  -2  -6     32.80    2.71  0. 1.0000     0. 
   2   2   6     34.66    2.62  0. 1.0000     0. 
  -2   2  -6     33.70    4.66  0. 1.0000     0. 
  -2   2  -6     20.91    6.34  0. 1.0000     0. 
  -5   3   6     14.74    7.52  0. 1.0000     0. 
  -4   3   6    146.50   12.38  0. 1.0000     0. 
   4   3  -6    157.74   10.24  0. 1.0000     0. 
   3  -3  -6    209.34   14.06  0. 1.0000     0. 
   3   3  -6    236.47   11.64  0. 1.0000     0. 
   2  -3  -6    134.86   10.51  0. 1.0000     0. 
  -2   3   6    131.45    5.74  0. 1.0000     0. 
   0  -3  -6      1.99    7.24  0. 1.0000     0. 
   0   3   6      3.45    2.68  0. 1.0000     0. 
   1  -3   6    151.07    8.46  0. 1.0000     0. 
   1   3   6    139.18    5.86  0. 1.0000     0. 
  -1   3  -6    146.29    6.87  0. 1.0000     0. 
  -2  -3  -6     51.13    3.77  0. 1.0000     0. 
   2  -3   6     56.10    7.95  0. 1.0000     0. 
  -2   3  -6     75.61    8.85  0. 1.0000     0. 
   3  -3   6     24.43    4.93  0. 1.0000     0. 
  -5   4   6     10.95    9.34  0. 1.0000     0. 
   3  -4  -6      7.77    4.01  0. 1.0000     0. 
   3  -4  -6      1.38    6.09  0. 1.0000     0. 
  -3  -4   6      7.82    7.19  0. 1.0000     0. 
  -3   4   6      3.54    8.35  0. 1.0000     0. 
   3   4  -6     -3.86    4.46  0. 1.0000     0. 
  -3   4   6      3.74    4.14  0. 1.0000     0. 
   3   4  -6      3.36    8.43  0. 1.0000     0. 
  -2  -4   6     -0.76    7.70  0. 1.0000     0. 
  -2  -4   6      2.93    7.12  0. 1.0000     0. 
   2  -4  -6      3.93    3.46  0. 1.0000     0. 
   2  -4  -6      4.03    5.60  0. 1.0000     0. 
   2   4  -6      0.33    8.24  0. 1.0000     0. 
   2   4  -6      0.33    4.60  0. 1.0000     0. 
  -2   4   6      2.10    9.23  0. 1.0000     0. 
  -2   4   6      2.49    3.77  0. 1.0000     0. 
  -1  -4   6      7.98    6.98  0. 1.0000     0. 
  -1  -4   6     16.02    7.62  0. 1.0000     0. 
   1  -4  -6     13.93    3.38  0. 1.0000     0. 
   1  -4  -6     19.05    6.64  0. 1.0000     0. 
  -1   4   6      9.29    9.33  0. 1.0000     0. 
   1   4  -6     11.64    8.67  0. 1.0000     0. 
   1   4  -6     14.26    4.89  0. 1.0000     0. 
  -1   4   6     14.90    3.64  0. 1.0000     0. 
   0  -4  -6      0.97    6.38  0. 1.0000     0. 
   0  -4   6      1.64    6.12  0. 1.0000     0. 
   0  -4   6     -7.07    7.20  0. 1.0000     0. 
   0  -4  -6      0.93    3.29  0. 1.0000     0. 
   0   4  -6      0.92    7.78  0. 1.0000     0. 
   0   4  -6     -5.99    4.81  0. 1.0000     0. 
   0   4   6      7.82    9.87  0. 1.0000     0. 
   0   4   6      3.02    3.01  0. 1.0000     0. 
   1  -4   6     -1.34    6.04  0. 1.0000     0. 
   1  -4   6      5.92    7.49  0. 1.0000     0. 
  -1  -4  -6      2.45    3.51  0. 1.0000     0. 
  -1  -4  -6      3.14    8.40  0. 1.0000     0. 
   1   4   6     -2.58    3.26  0. 1.0000     0. 
  -1   4  -6      3.87    7.67  0. 1.0000     0. 
  -1   4  -6     -3.88    5.02  0. 1.0000     0. 
   1   4   6      2.89    9.83  0. 1.0000     0. 
   3  -4   6      5.43    8.74  0. 1.0000     0. 
   3  -4   6      2.56    4.50  0. 1.0000     0. 
  -3   4  -6      0.72    6.56  0. 1.0000     0. 
  -3  -5   6     22.06    8.71  0. 1.0000     0. 
  -2  -5   6     33.61   10.28  0. 1.0000     0. 
   2   5  -6     44.80    5.69  0. 1.0000     0. 
  -1  -5   6      8.42    9.16  0. 1.0000     0. 
   1   5  -6     11.39    5.60  0. 1.0000     0. 
   0  -5   6     21.05    9.35  0. 1.0000     0. 
   0   5  -6     13.76    5.74  0. 1.0000     0. 
   1  -5   6     31.12    9.32  0. 1.0000     0. 
  -1   5  -6     23.71    6.20  0. 1.0000     0. 
   3   0  -7     -0.79    2.60  0. 1.0000     0. 
   2   0  -7      0.46    2.11  0. 1.0000     0. 
   2   0  -7      1.12    1.66  0. 1.0000     0. 
  -2   0   7     -0.65    1.94  0. 1.0000     0. 
  -2   0   7     -0.09    1.23  0. 1.0000     0. 
  -2   0   7      0.77    2.12  0. 1.0000     0. 
   2   0  -7      0.40    1.27  0. 1.0000     0. 
  -1   0   7      0.71    1.81  0. 1.0000     0. 
   1   0  -7     -0.44    1.47  0. 1.0000     0. 
   1   0  -7     -0.46    0.93  0. 1.0000     0. 
  -1   0   7     -0.34    1.71  0. 1.0000     0. 
  -1   0   7      0.34    0.82  0. 1.0000     0. 
   1   0  -7     -0.04    1.99  0. 1.0000     0. 
  -1   0   7     -0.37    2.49  0. 1.0000     0. 
   1   0  -7      0.92    1.93  0. 1.0000     0. 
   0   0  -7      1.48    1.08  0. 1.0000     0. 
   0   0  -7      0.39    1.65  0. 1.0000     0. 
   0   0   7      1.68    2.88  0. 1.0000     0. 
   0   0   7      0.24    0.88  0. 1.0000     0. 
   0   0   7      2.50    2.12  0. 1.0000     0. 
   0   0  -7      1.37    3.17  0. 1.0000     0. 
  -4   1   7    234.03   11.98  0. 1.0000     0. 
   3  -1  -7     10.89    2.98  0. 1.0000     0. 
  -3  -1   7     14.37    3.55  0. 1.0000     0. 
  -3   1   7      7.18    3.16  0. 1.0000     0. 
  -3   1   7     14.24    2.12  0. 1.0000     0. 
   3   1  -7     10.52    3.74  0. 1.0000     0. 
   3   1  -7      6.96    2.11  0. 1.0000     0. 
  -2  -1   7    292.17    9.25  0. 1.0000     0. 
   2  -1  -7    264.73   13.83  0. 1.0000     0. 
   2   1  -7    275.85    6.68  0. 1.0000     0. 
  -2   1   7    272.81    8.49  0. 1.0000     0. 
   2   1  -7    277.36    9.90  0. 1.0000     0. 
  -2   1   7    290.47   14.86  0. 1.0000     0. 
  -1  -1   7   1423.98   33.95  0. 1.0000     0. 
   1  -1  -7   1469.49   71.38  0. 1.0000     0. 
   1  -1  -7   1428.84   43.50  0. 1.0000     0. 
  -1   1   7   1409.63   64.38  0. 1.0000     0. 
   1   1  -7   1425.60   34.53  0. 1.0000     0. 
   1   1  -7   1412.10   29.94  0. 1.0000     0. 
  -1   1   7   1377.04   33.50  0. 1.0000     0. 
   0  -1   7     88.72    5.03  0. 1.0000     0. 
   0  -1  -7     79.01    3.52  0. 1.0000     0. 
   0   1  -7     89.24    4.93  0. 1.0000     0. 
   0   1  -7     87.97    3.77  0. 1.0000     0. 
   0   1   7     76.92    7.56  0. 1.0000     0. 
   0   1   7     83.00    3.29  0. 1.0000     0. 
  -4  -2   7     40.75    6.42  0. 1.0000     0. 
   4  -2  -7     51.91    5.46  0. 1.0000     0. 
  -4   2   7     47.29    3.74  0. 1.0000     0. 
   3  -2  -7    234.81   12.70  0. 1.0000     0. 
  -3   2   7    230.87    8.19  0. 1.0000     0. 
   3   2  -7    227.81    7.48  0. 1.0000     0. 
  -2  -2   7    347.05   10.24  0. 1.0000     0. 
   2  -2  -7    344.22   19.91  0. 1.0000     0. 
   2   2  -7    348.83    8.15  0. 1.0000     0. 
  -2   2   7    348.82   11.21  0. 1.0000     0. 
   0  -2   7   1377.29   26.73  0. 1.0000     0. 
   0   2  -7   1367.76   25.62  0. 1.0000     0. 
   0   2   7   1273.68   37.48  0. 1.0000     0. 
   1   2   7     30.58    2.49  0. 1.0000     0. 
  -1   2  -7     34.03    4.28  0. 1.0000     0. 
  -2   2  -7     52.78    5.24  0. 1.0000     0. 
   2   2   7     58.97    3.39  0. 1.0000     0. 
   5  -3  -7     12.31    5.54  0. 1.0000     0. 
  -5   3   7      6.10    7.57  0. 1.0000     0. 
   4  -3  -7    199.58   12.89  0. 1.0000     0. 
  -4  -3   7    175.41   11.06  0. 1.0000     0. 
   4   3  -7    179.55   12.75  0. 1.0000     0. 
  -4   3   7    177.72   13.91  0. 1.0000     0. 
  -3   3   7      8.12    7.46  0. 1.0000     0. 
   3   3  -7     30.79    7.49  0. 1.0000     0. 
   2  -3  -7     22.45    3.65  0. 1.0000     0. 
   2   3  -7     30.78    7.06  0. 1.0000     0. 
  -2   3   7     12.93    7.73  0. 1.0000     0. 
   1  -3  -7    368.13   12.49  0. 1.0000     0. 
  -1  -3   7    383.04   17.83  0. 1.0000     0. 
   1   3  -7    388.73   14.92  0. 1.0000     0. 
  -1   3   7    353.90   23.78  0. 1.0000     0. 
   0  -3   7     37.28    6.71  0. 1.0000     0. 
   0  -3  -7     39.18    3.31  0. 1.0000     0. 
   0   3  -7     31.63    8.16  0. 1.0000     0. 
   0   3   7     37.39    8.97  0. 1.0000     0. 
  -1  -3  -7     22.23    3.08  0. 1.0000     0. 
   1  -3   7     20.53    6.27  0. 1.0000     0. 
   1   3   7     30.26   10.33  0. 1.0000     0. 
  -1   3  -7     16.41    7.12  0. 1.0000     0. 
  -2  -3  -7     20.11    3.27  0. 1.0000     0. 
   2  -3   7     17.90    6.89  0. 1.0000     0. 
  -2   3  -7     25.83    5.43  0. 1.0000     0. 
  -2   3  -7     32.84    8.51  0. 1.0000     0. 
   2   3   7     21.01    2.99  0. 1.0000     0. 
  -3   3  -7     42.48    6.53  0. 1.0000     0. 
   5  -4  -7     54.18    8.37  0. 1.0000     0. 
  -5   4   7     48.02   10.87  0. 1.0000     0. 
   4  -4  -7      6.20    5.91  0. 1.0000     0. 
  -4   4   7      2.73    8.81  0. 1.0000     0. 
  -2  -4   7     43.49    8.96  0. 1.0000     0. 
   2  -4  -7     46.17    4.36  0. 1.0000     0. 
  -2  -4   7     67.90    7.99  0. 1.0000     0. 
   2  -4  -7     27.29    7.04  0. 1.0000     0. 
  -2   4   7     44.40    4.80  0. 1.0000     0. 
   2   4  -7     69.41    9.51  0. 1.0000     0. 
   2   4  -7     54.19    4.91  0. 1.0000     0. 
  -2   4   7     44.14   12.37  0. 1.0000     0. 
  -1  -4   7      9.36    7.54  0. 1.0000     0. 
   1  -4  -7      4.70    6.93  0. 1.0000     0. 
  -1  -4   7     15.83    7.03  0. 1.0000     0. 
   1  -4  -7      8.29    3.39  0. 1.0000     0. 
  -1   4   7      6.01    3.47  0. 1.0000     0. 
   1   4  -7      5.84    8.13  0. 1.0000     0. 
  -1   4   7     16.87    9.50  0. 1.0000     0. 
   1   4  -7      8.66    4.43  0. 1.0000     0. 
   0  -4   7     11.89    6.90  0. 1.0000     0. 
   0  -4  -7     16.23    7.34  0. 1.0000     0. 
   0  -4   7      8.36    7.46  0. 1.0000     0. 
   0  -4  -7     21.70    3.55  0. 1.0000     0. 
   0   4   7     16.44    3.45  0. 1.0000     0. 
   0   4   7     15.02    9.57  0. 1.0000     0. 
   0   4  -7     12.64    7.98  0. 1.0000     0. 
   0   4  -7     11.61    4.86  0. 1.0000     0. 
  -2  -4  -7     -4.25    9.77  0. 1.0000     0. 
  -2  -4  -7      0.21    3.33  0. 1.0000     0. 
   2  -4   7     -0.50    7.60  0. 1.0000     0. 
   2  -4   7      3.52    6.70  0. 1.0000     0. 
   2   4   7     -4.70    3.48  0. 1.0000     0. 
  -2   4  -7     -6.88    6.22  0. 1.0000     0. 
   3  -4   7      8.16    8.77  0. 1.0000     0. 
   3  -4   7      0.33    4.04  0. 1.0000     0. 
  -3   4  -7      0.99    6.88  0. 1.0000     0. 
   2  -5  -7      1.02    7.14  0. 1.0000     0. 
  -2   5   7     -5.44    4.96  0. 1.0000     0. 
   1  -5  -7     14.41    7.23  0. 1.0000     0. 
  -1   5   7     13.70    5.21  0. 1.0000     0. 
  -2   0   8     49.88    4.41  0. 1.0000     0. 
   2   0  -8     46.04    3.54  0. 1.0000     0. 
  -2   0   8     48.50    2.28  0. 1.0000     0. 
  -2   0   8     47.13    3.35  0. 1.0000     0. 
   2   0  -8     44.36    2.29  0. 1.0000     0. 
   2   0  -8     49.11    3.64  0. 1.0000     0. 
   1   0  -8    985.90   24.86  0. 1.0000     0. 
   1   0  -8   1000.69   24.04  0. 1.0000     0. 
  -1   0   8   1017.38   35.45  0. 1.0000     0. 
   1   0  -8   1063.51   43.69  0. 1.0000     0. 
  -1   0   8    988.57   24.90  0. 1.0000     0. 
   1   0  -8   1002.04   31.86  0. 1.0000     0. 
  -1   0   8   1036.10   23.93  0. 1.0000     0. 
  -1   0   8   1061.85   44.28  0. 1.0000     0. 
   0   0  -8    682.62   17.33  0. 1.0000     0. 
   0   0   8    752.70   24.46  0. 1.0000     0. 
   0   0   8    720.48   19.58  0. 1.0000     0. 
   4  -1  -8    150.83    8.47  0. 1.0000     0. 
  -4   1   8    151.08    9.20  0. 1.0000     0. 
   4   1  -8    146.71    9.29  0. 1.0000     0. 
   3  -1  -8      2.15    2.93  0. 1.0000     0. 
  -3  -1   8      1.20    3.67  0. 1.0000     0. 
  -3   1   8      0.53    3.48  0. 1.0000     0. 
  -3   1   8      0.72    1.93  0. 1.0000     0. 
   3   1  -8      0.92    4.00  0. 1.0000     0. 
   3   1  -8      1.21    2.21  0. 1.0000     0. 
   0  -1   8     38.49    4.28  0. 1.0000     0. 
   0  -1  -8     30.10    2.08  0. 1.0000     0. 
   0  -1   8     30.03    1.29  0. 1.0000     0. 
   0   1   8     33.35    5.85  0. 1.0000     0. 
   0   1   8     33.59    2.02  0. 1.0000     0. 
   0   1  -8     35.00    4.39  0. 1.0000     0. 
   0   1  -8     32.99    3.33  0. 1.0000     0. 
  -1  -1  -8   1025.68   32.93  0. 1.0000     0. 
   1  -1   8   1177.07   38.06  0. 1.0000     0. 
   1   1   8   1088.18   52.64  0. 1.0000     0. 
  -1   1  -8   1114.75   20.18  0. 1.0000     0. 
   1   1   8   1054.62   33.27  0. 1.0000     0. 
  -1   1  -8   1127.19   15.98  0. 1.0000     0. 
  -5   2   8    286.52   15.41  0. 1.0000     0. 
   4  -2  -8     68.73    6.87  0. 1.0000     0. 
  -4  -2   8     74.71    7.04  0. 1.0000     0. 
  -4   2   8     67.16    4.34  0. 1.0000     0. 
   4   2  -8     66.56    7.73  0. 1.0000     0. 
  -4   2   8     70.99    8.06  0. 1.0000     0. 
   3  -2  -8     12.59    4.52  0. 1.0000     0. 
  -3  -2   8      5.40    4.99  0. 1.0000     0. 
  -3   2   8     16.48    2.81  0. 1.0000     0. 
   3   2  -8      4.84    5.27  0. 1.0000     0. 
   3   2  -8      9.81    3.42  0. 1.0000     0. 
  -3   2   8     11.66    6.12  0. 1.0000     0. 
   2  -2  -8    226.33   13.07  0. 1.0000     0. 
  -2  -2   8    204.29    9.64  0. 1.0000     0. 
  -2   2   8    212.52    7.42  0. 1.0000     0. 
  -2   2   8    201.29   13.37  0. 1.0000     0. 
   2   2  -8    208.77    6.62  0. 1.0000     0. 
   2   2  -8    211.22   10.15  0. 1.0000     0. 
   1  -2  -8     33.89    2.71  0. 1.0000     0. 
  -1  -2   8     27.15    5.57  0. 1.0000     0. 
  -1  -2   8     22.74    4.37  0. 1.0000     0. 
   1  -2  -8     42.08    6.57  0. 1.0000     0. 
  -1   2   8     42.91    7.97  0. 1.0000     0. 
   1   2  -8     29.62    6.11  0. 1.0000     0. 
  -1   2   8     40.17    2.68  0. 1.0000     0. 
   1   2  -8     33.54    3.83  0. 1.0000     0. 
   0  -2  -8    170.08    6.25  0. 1.0000     0. 
   0  -2   8    146.70    8.38  0. 1.0000     0. 
   0  -2   8    156.34    9.45  0. 1.0000     0. 
   0   2  -8    160.91    6.37  0. 1.0000     0. 
   0   2   8    181.62    5.80  0. 1.0000     0. 
   0   2   8    161.90   12.55  0. 1.0000     0. 
   0   2  -8    157.27   10.52  0. 1.0000     0. 
   1  -2   8    230.01   12.46  0. 1.0000     0. 
  -1  -2  -8    208.59    7.72  0. 1.0000     0. 
   1   2   8    207.97    7.14  0. 1.0000     0. 
  -1   2  -8    201.65    7.19  0. 1.0000     0. 
  -2  -2  -8     76.93    4.07  0. 1.0000     0. 
   2  -2   8     71.03    7.13  0. 1.0000     0. 
  -2   2  -8     74.55    6.30  0. 1.0000     0. 
   2   2   8     78.15    3.77  0. 1.0000     0. 
   5  -3  -8     54.22    6.80  0. 1.0000     0. 
  -5   3   8     49.39    8.93  0. 1.0000     0. 
   4  -3  -8    232.78   13.24  0. 1.0000     0. 
  -4  -3   8    196.11   12.53  0. 1.0000     0. 
  -4   3   8    232.73   14.72  0. 1.0000     0. 
  -4   3   8    213.15    8.35  0. 1.0000     0. 
   4   3  -8    198.28   13.72  0. 1.0000     0. 
   3  -3  -8     12.79    5.58  0. 1.0000     0. 
  -3  -3   8      9.72    6.11  0. 1.0000     0. 
   3   3  -8     21.15    7.46  0. 1.0000     0. 
  -3   3   8     11.65    3.51  0. 1.0000     0. 
  -3   3   8      8.07    7.09  0. 1.0000     0. 
   3   3  -8     14.44    4.11  0. 1.0000     0. 
   2  -3  -8      2.78    3.01  0. 1.0000     0. 
  -2  -3   8      2.78    6.04  0. 1.0000     0. 
   2  -3  -8      0.66    5.33  0. 1.0000     0. 
   2   3  -8     -1.07    6.63  0. 1.0000     0. 
   2   3  -8      5.59    4.23  0. 1.0000     0. 
  -2   3   8      2.37    2.99  0. 1.0000     0. 
  -2   3   8      7.72    8.43  0. 1.0000     0. 
  -1  -3   8    228.34   12.69  0. 1.0000     0. 
   1  -3  -8    236.93    8.42  0. 1.0000     0. 
   1  -3  -8    227.94   15.38  0. 1.0000     0. 
  -1  -3   8    207.40   11.11  0. 1.0000     0. 
  -1   3   8    223.28    8.03  0. 1.0000     0. 
  -1   3   8    228.52   17.47  0. 1.0000     0. 
   1   3  -8    220.50   13.05  0. 1.0000     0. 
   1   3  -8    226.22    7.20  0. 1.0000     0. 
   0  -3  -8      1.41    7.50  0. 1.0000     0. 
   0  -3   8      0.21    5.71  0. 1.0000     0. 
   0  -3   8     -2.65    5.51  0. 1.0000     0. 
   0  -3  -8      3.55    2.72  0. 1.0000     0. 
   0   3   8     -1.24    2.77  0. 1.0000     0. 
   0   3  -8      6.67    4.50  0. 1.0000     0. 
   0   3   8     -5.66    8.09  0. 1.0000     0. 
   0   3  -8     -2.13    6.58  0. 1.0000     0. 
   1  -3   8     29.46    6.30  0. 1.0000     0. 
   1  -3   8     26.27    7.13  0. 1.0000     0. 
  -1  -3  -8     32.25    3.62  0. 1.0000     0. 
  -1   3  -8     25.41    7.90  0. 1.0000     0. 
   1   3   8     34.00    3.32  0. 1.0000     0. 
  -1   3  -8     29.36    5.01  0. 1.0000     0. 
   1   3   8     29.98    9.42  0. 1.0000     0. 
  -2   3  -8    214.00   13.65  0. 1.0000     0. 
   3  -3   8     -0.59    2.71  0. 1.0000     0. 
   5  -4  -8     26.00    6.95  0. 1.0000     0. 
  -5   4   8     23.29   10.15  0. 1.0000     0. 
   5   4  -8      9.16    9.48  0. 1.0000     0. 
   4  -4  -8      8.16    6.56  0. 1.0000     0. 
  -4  -4   8      6.02    7.84  0. 1.0000     0. 
   4   4  -8     17.74    9.67  0. 1.0000     0. 
  -4   4   8     13.13    4.63  0. 1.0000     0. 
  -4   4   8     10.44    9.84  0. 1.0000     0. 
   3  -4  -8     -8.11    6.55  0. 1.0000     0. 
  -3   4   8    -10.39    4.54  0. 1.0000     0. 
  -3   4   8     -3.79    9.63  0. 1.0000     0. 
  -1  -4  -8     -8.51    8.72  0. 1.0000     0. 
  -1  -4  -8     -4.06    3.90  0. 1.0000     0. 
   1  -4   8     -2.16    7.02  0. 1.0000     0. 
   1  -4   8     -2.14    7.76  0. 1.0000     0. 
  -1   4  -8     -5.11    5.35  0. 1.0000     0. 
  -1   4  -8      1.05    8.92  0. 1.0000     0. 
   1   4   8      8.86    3.86  0. 1.0000     0. 
   1   4   8    -15.06   11.44  0. 1.0000     0. 
  -2  -4  -8      5.39    3.45  0. 1.0000     0. 
  -2  -4  -8      8.37    9.82  0. 1.0000     0. 
   2  -4   8     -1.22    7.15  0. 1.0000     0. 
   2  -4   8      1.20    7.73  0. 1.0000     0. 
  -2   4  -8      5.18    9.55  0. 1.0000     0. 
   2   4   8      1.37    3.55  0. 1.0000     0. 
  -2   4  -8     -1.11    6.28  0. 1.0000     0. 
   3  -4   8     -0.33    3.59  0. 1.0000     0. 
   3  -4   8     27.62    9.54  0. 1.0000     0. 
  -3   4  -8      4.39    7.28  0. 1.0000     0. 
  -4   0   9      2.11    2.30  0. 1.0000     0. 
  -3   0   9     -0.34    2.68  0. 1.0000     0. 
   0   0   9     -0.56    0.99  0. 1.0000     0. 
   0   0  -9     -0.95    2.42  0. 1.0000     0. 
   4  -1  -9     72.88    5.16  0. 1.0000     0. 
  -4  -1   9     49.58    6.61  0. 1.0000     0. 
   4   1  -9     69.80    6.94  0. 1.0000     0. 
  -4   1   9     73.52    6.03  0. 1.0000     0. 
  -3  -1   9     42.42    4.90  0. 1.0000     0. 
   3  -1  -9     34.75    4.61  0. 1.0000     0. 
  -3   1   9     38.06    2.88  0. 1.0000     0. 
  -3   1   9     41.31    5.71  0. 1.0000     0. 
   3   1  -9     42.02    4.87  0. 1.0000     0. 
   3   1  -9     41.60    3.06  0. 1.0000     0. 
  -2  -1   9     49.68    4.43  0. 1.0000     0. 
   2  -1  -9     45.58    5.01  0. 1.0000     0. 
   2   1  -9     41.52    3.30  0. 1.0000     0. 
   2   1  -9     40.74    5.09  0. 1.0000     0. 
  -2   1   9     40.61    6.00  0. 1.0000     0. 
  -2   1   9     41.10    2.56  0. 1.0000     0. 
   1  -1  -9    483.32   25.18  0. 1.0000     0. 
  -1  -1   9    448.84   14.58  0. 1.0000     0. 
   1  -1  -9    451.74   15.12  0. 1.0000     0. 
  -1  -1   9    481.88   17.83  0. 1.0000     0. 
   1   1  -9    455.72   13.95  0. 1.0000     0. 
  -1   1   9    451.88   24.62  0. 1.0000     0. 
  -1   1   9    456.23   12.30  0. 1.0000     0. 
   1   1  -9    461.46   10.58  0. 1.0000     0. 
   0  -1   9     61.86    5.26  0. 1.0000     0. 
   0  -1  -9     53.39    2.83  0. 1.0000     0. 
   0   1   9     56.69    2.74  0. 1.0000     0. 
   0   1  -9     48.90    6.03  0. 1.0000     0. 
   0   1  -9     54.44    3.92  0. 1.0000     0. 
   0   1   9     66.36    7.69  0. 1.0000     0. 
  -1  -1  -9      8.59    2.01  0. 1.0000     0. 
   1  -1   9      9.91    3.96  0. 1.0000     0. 
  -1   1  -9      3.13    4.87  0. 1.0000     0. 
   1   1   9      8.50    1.84  0. 1.0000     0. 
  -1   1  -9      6.83    3.38  0. 1.0000     0. 
  -2   1  -9    366.39   11.10  0. 1.0000     0. 
   5  -2  -9      1.50    4.22  0. 1.0000     0. 
  -4  -2   9    406.59   14.83  0. 1.0000     0. 
   4  -2  -9    393.82   19.56  0. 1.0000     0. 
  -4   2   9    397.85   12.93  0. 1.0000     0. 
   4   2  -9    402.99   10.83  0. 1.0000     0. 
   4   2  -9    408.01   12.53  0. 1.0000     0. 
  -4   2   9    391.70   22.46  0. 1.0000     0. 
  -2  -2   9     92.36    6.70  0. 1.0000     0. 
   2  -2  -9     94.70    8.58  0. 1.0000     0. 
  -2   2   9     95.82    4.49  0. 1.0000     0. 
   2   2  -9     98.50    7.94  0. 1.0000     0. 
  -2   2   9     99.23    9.55  0. 1.0000     0. 
   2   2  -9     99.48    4.92  0. 1.0000     0. 
   1  -2  -9     10.54    2.52  0. 1.0000     0. 
   1  -2  -9     11.67    6.07  0. 1.0000     0. 
  -1  -2   9      6.14    4.37  0. 1.0000     0. 
  -1  -2   9      0.34    4.56  0. 1.0000     0. 
   1   2  -9      3.70    5.39  0. 1.0000     0. 
   1   2  -9      9.02    3.58  0. 1.0000     0. 
  -1   2   9      8.83    2.30  0. 1.0000     0. 
  -1   2   9     13.63    7.18  0. 1.0000     0. 
   0  -2   9      5.32    4.78  0. 1.0000     0. 
   0   2  -9      3.77    5.62  0. 1.0000     0. 
   1  -2   9    116.44    8.96  0. 1.0000     0. 
  -1  -2  -9    131.05    5.40  0. 1.0000     0. 
  -1   2  -9    121.55   10.17  0. 1.0000     0. 
  -1   2  -9    125.05    6.06  0. 1.0000     0. 
   1   2   9    129.88    4.84  0. 1.0000     0. 
   1   2   9    111.30   13.94  0. 1.0000     0. 
   2  -2   9      5.34    4.60  0. 1.0000     0. 
  -2  -2  -9      1.55    2.34  0. 1.0000     0. 
   2   2   9      7.33    2.50  0. 1.0000     0. 
  -2   2  -9      2.31    4.71  0. 1.0000     0. 
   4  -3  -9    167.23   11.79  0. 1.0000     0. 
  -4  -3   9    168.63   10.44  0. 1.0000     0. 
   4   3  -9    168.60    6.84  0. 1.0000     0. 
  -4   3   9    165.63    7.62  0. 1.0000     0. 
   4   3  -9    178.00   11.55  0. 1.0000     0. 
  -4   3   9    160.61   13.73  0. 1.0000     0. 
  -3  -3   9      5.79    6.19  0. 1.0000     0. 
   3  -3  -9     11.76    5.65  0. 1.0000     0. 
   3   3  -9      7.88    4.39  0. 1.0000     0. 
   3   3  -9     14.66    7.48  0. 1.0000     0. 
  -3   3   9      7.78    3.33  0. 1.0000     0. 
  -3   3   9     10.68    7.70  0. 1.0000     0. 
   2  -3  -9    360.95   12.05  0. 1.0000     0. 
  -2  -3   9    317.51   15.28  0. 1.0000     0. 
   2  -3  -9    381.69   21.20  0. 1.0000     0. 
   2   3  -9    366.81   16.00  0. 1.0000     0. 
   2   3  -9    357.11    9.08  0. 1.0000     0. 
  -2   3   9    362.07   12.14  0. 1.0000     0. 
  -2   3   9    341.05   21.80  0. 1.0000     0. 
   1  -3  -9     16.82    3.04  0. 1.0000     0. 
   1  -3  -9     17.15    6.23  0. 1.0000     0. 
  -1  -3   9     16.02    6.07  0. 1.0000     0. 
  -1  -3   9     14.12    6.73  0. 1.0000     0. 
   1   3  -9     11.46    4.40  0. 1.0000     0. 
  -1   3   9     17.56    2.93  0. 1.0000     0. 
   1   3  -9      8.06    7.39  0. 1.0000     0. 
  -1   3   9     19.78    9.60  0. 1.0000     0. 
   0  -3  -9     -1.71    7.76  0. 1.0000     0. 
   0  -3   9      4.53    6.45  0. 1.0000     0. 
   0  -3   9     -0.12    5.82  0. 1.0000     0. 
   0  -3  -9     -2.06    2.82  0. 1.0000     0. 
   0   3   9     -3.32    8.22  0. 1.0000     0. 
   0   3   9      0.12    2.81  0. 1.0000     0. 
   0   3  -9      2.16    6.79  0. 1.0000     0. 
   0   3  -9     -1.29    4.49  0. 1.0000     0. 
   1  -3   9    108.36   11.17  0. 1.0000     0. 
  -1  -3  -9    132.46    5.92  0. 1.0000     0. 
   1   3   9    130.74   15.82  0. 1.0000     0. 
  -1   3  -9    141.33    6.93  0. 1.0000     0. 
   2  -3   9     -0.54    6.11  0. 1.0000     0. 
  -2  -3  -9     -2.37    3.06  0. 1.0000     0. 
  -2   3  -9     -7.45    5.50  0. 1.0000     0. 
  -2   3  -9     -0.17    8.01  0. 1.0000     0. 
  -3   3  -9      4.61    5.97  0. 1.0000     0. 
  -6   4   9     31.24   10.24  0. 1.0000     0. 
   5  -4  -9     -2.22    5.12  0. 1.0000     0. 
  -5   4   9     -3.66    9.35  0. 1.0000     0. 
   5   4  -9     -8.22    9.05  0. 1.0000     0. 
   4  -4  -9      5.73    6.00  0. 1.0000     0. 
  -4  -4   9      5.09    8.00  0. 1.0000     0. 
   4   4  -9      2.07    4.58  0. 1.0000     0. 
  -4   4   9      6.70    9.36  0. 1.0000     0. 
  -4   4   9     -2.00    4.20  0. 1.0000     0. 
   4   4  -9      6.93    9.54  0. 1.0000     0. 
  -3  -4   9    444.17   20.60  0. 1.0000     0. 
   3  -4  -9    455.91   25.33  0. 1.0000     0. 
   3  -4  -9    459.06   14.49  0. 1.0000     0. 
  -3   4   9    435.99   27.89  0. 1.0000     0. 
   3   4  -9    456.70   11.62  0. 1.0000     0. 
  -3   4   9    439.91   15.89  0. 1.0000     0. 
   3   4  -9    454.56   19.67  0. 1.0000     0. 
   2  -4  -9     18.07    7.19  0. 1.0000     0. 
  -2  -4   9      4.37    7.70  0. 1.0000     0. 
   2  -4  -9     13.17    3.74  0. 1.0000     0. 
  -2  -4   9     14.39    7.77  0. 1.0000     0. 
  -2   4   9     17.41   10.12  0. 1.0000     0. 
  -2   4   9      7.54    4.01  0. 1.0000     0. 
   2   4  -9      6.76    8.33  0. 1.0000     0. 
   2   4  -9     13.18    4.95  0. 1.0000     0. 
   1  -4  -9     55.90    8.80  0. 1.0000     0. 
  -1  -4   9     52.88    8.71  0. 1.0000     0. 
  -1  -4   9     47.76    8.23  0. 1.0000     0. 
   1  -4  -9     48.97    4.29  0. 1.0000     0. 
   1   4  -9     49.65   10.31  0. 1.0000     0. 
  -1   4   9     52.40   11.28  0. 1.0000     0. 
  -1   4   9     46.95    4.45  0. 1.0000     0. 
   1   4  -9     52.13    5.59  0. 1.0000     0. 
   0  -4  -9    117.69    5.97  0. 1.0000     0. 
   0  -4  -9     97.84   11.28  0. 1.0000     0. 
   0  -4   9    137.24    9.53  0. 1.0000     0. 
   0  -4   9    128.22   11.34  0. 1.0000     0. 
   0   4  -9    117.79    6.96  0. 1.0000     0. 
   0   4   9    108.92    5.89  0. 1.0000     0. 
   0   4  -9    144.23   12.61  0. 1.0000     0. 
   0   4   9     75.10   14.49  0. 1.0000     0. 
   1  -4   9     -6.94    7.18  0. 1.0000     0. 
  -1  -4  -9     -3.10    8.94  0. 1.0000     0. 
  -1  -4  -9      1.42    3.66  0. 1.0000     0. 
   1  -4   9     -6.62    7.74  0. 1.0000     0. 
   1   4   9     -1.06    3.69  0. 1.0000     0. 
  -1   4  -9      0.17    9.07  0. 1.0000     0. 
   1   4   9      2.15   10.81  0. 1.0000     0. 
  -1   4  -9     -1.37    5.42  0. 1.0000     0. 
  -2  -4  -9     13.78   10.47  0. 1.0000     0. 
  -2  -4  -9     14.17    3.70  0. 1.0000     0. 
   2  -4   9     14.42    7.74  0. 1.0000     0. 
   2  -4   9     31.87    8.85  0. 1.0000     0. 
   2   4   9     14.04    3.74  0. 1.0000     0. 
  -2   4  -9     19.97    6.95  0. 1.0000     0. 
  -2   4  -9     30.57    9.54  0. 1.0000     0. 
   3  -4   9     40.86   10.15  0. 1.0000     0. 
  -3   4  -9     37.01    8.27  0. 1.0000     0. 
   4   0 -10      1.05    3.96  0. 1.0000     0. 
  -4   0  10      1.26    3.01  0. 1.0000     0. 
  -3   0  10   4756.01  194.44  0. 1.0000     0. 
   2   0 -10      0.87    2.05  0. 1.0000     0. 
  -2   0  10      1.37    3.15  0. 1.0000     0. 
  -2   0  10     -2.74    3.65  0. 1.0000     0. 
   1   0 -10    652.56   13.99  0. 1.0000     0. 
  -1   0  10    675.39   28.49  0. 1.0000     0. 
   1   0 -10    618.32   19.68  0. 1.0000     0. 
   0   0  10   1257.73   73.94  0. 1.0000     0. 
   1   0  10   1959.97   55.35  0. 1.0000     0. 
  -1   0 -10   1991.78   34.08  0. 1.0000     0. 
  -5   1  10     17.67    4.49  0. 1.0000     0. 
  -4  -1  10   1131.47   28.80  0. 1.0000     0. 
   4  -1 -10   1129.21   47.29  0. 1.0000     0. 
  -4   1  10   1126.59   53.51  0. 1.0000     0. 
  -4   1  10   1139.21   31.01  0. 1.0000     0. 
   4   1 -10   1121.07   33.22  0. 1.0000     0. 
   1  -1  10   1117.19   38.59  0. 1.0000     0. 
  -1  -1 -10   1064.09   36.18  0. 1.0000     0. 
  -1   1 -10   1167.56   17.46  0. 1.0000     0. 
   1   1  10   1152.35   32.50  0. 1.0000     0. 
  -2   1 -10    288.78   10.17  0. 1.0000     0. 
  -4  -2  10    766.15   24.14  0. 1.0000     0. 
   4  -2 -10    812.84   35.23  0. 1.0000     0. 
  -4   2  10    791.14   37.27  0. 1.0000     0. 
   4   2 -10    777.50   18.05  0. 1.0000     0. 
   4   2 -10    772.87   23.08  0. 1.0000     0. 
  -4   2  10    745.82   23.05  0. 1.0000     0. 
   3  -2 -10     15.76    4.86  0. 1.0000     0. 
  -3  -2  10     12.40    4.75  0. 1.0000     0. 
  -3   2  10     26.85    7.29  0. 1.0000     0. 
   3   2 -10     13.49    3.44  0. 1.0000     0. 
   3   2 -10     13.32    5.82  0. 1.0000     0. 
  -3   2  10     22.62    3.16  0. 1.0000     0. 
   2  -2 -10    179.75    6.93  0. 1.0000     0. 
  -2  -2  10    160.81    9.47  0. 1.0000     0. 
   2  -2 -10    185.40   11.82  0. 1.0000     0. 
  -2   2  10    188.54   13.29  0. 1.0000     0. 
  -2   2  10    167.21    6.41  0. 1.0000     0. 
   2   2 -10    172.27    6.52  0. 1.0000     0. 
   2   2 -10    161.32   10.26  0. 1.0000     0. 
  -1  -2  10    625.96   25.31  0. 1.0000     0. 
  -1  -2  10    603.65   14.33  0. 1.0000     0. 
   1  -2 -10    593.35   34.00  0. 1.0000     0. 
   1  -2 -10    590.22   19.27  0. 1.0000     0. 
  -1   2  10    613.93   34.06  0. 1.0000     0. 
   1   2 -10    612.91   17.50  0. 1.0000     0. 
  -1   2  10    570.03   17.50  0. 1.0000     0. 
   1   2 -10    617.28   12.31  0. 1.0000     0. 
   0  -2  10      2.50    4.71  0. 1.0000     0. 
   0  -2  10      1.40    5.05  0. 1.0000     0. 
   0  -2 -10      6.16    7.29  0. 1.0000     0. 
   0  -2 -10      1.44    2.35  0. 1.0000     0. 
   0   2  10     -2.87    6.95  0. 1.0000     0. 
   0   2  10      1.39    2.15  0. 1.0000     0. 
   0   2 -10     -3.50    4.08  0. 1.0000     0. 
   0   2 -10      0.69    5.78  0. 1.0000     0. 
   1  -2  10      6.24    4.89  0. 1.0000     0. 
  -1   2 -10      8.48    4.51  0. 1.0000     0. 
  -1   2 -10     12.09    6.71  0. 1.0000     0. 
   1   2  10      8.32    2.59  0. 1.0000     0. 
   2   2  10     19.01    2.66  0. 1.0000     0. 
  -6   3  10     10.41    7.89  0. 1.0000     0. 
  -5  -3  10    405.75   17.33  0. 1.0000     0. 
   5  -3 -10    427.81   22.37  0. 1.0000     0. 
  -5   3  10    415.79   14.30  0. 1.0000     0. 
  -5   3  10    412.12   25.05  0. 1.0000     0. 
   3  -3 -10     30.17    6.43  0. 1.0000     0. 
  -3  -3  10     29.31    6.86  0. 1.0000     0. 
   3   3 -10     34.93    4.34  0. 1.0000     0. 
  -3   3  10     35.59    8.89  0. 1.0000     0. 
  -3   3  10     33.03    3.99  0. 1.0000     0. 
   2  -3 -10    125.22   11.89  0. 1.0000     0. 
  -2  -3  10    157.52    8.59  0. 1.0000     0. 
   2   3 -10    152.56    6.02  0. 1.0000     0. 
  -2   3  10    125.83   14.34  0. 1.0000     0. 
  -2   3  10    139.40    6.36  0. 1.0000     0. 
   1  -3 -10    184.10   14.21  0. 1.0000     0. 
  -1  -3  10    178.14   10.48  0. 1.0000     0. 
  -1   3  10    198.95    7.29  0. 1.0000     0. 
  -1   3  10    191.25   16.35  0. 1.0000     0. 
   1   3 -10    185.28    7.28  0. 1.0000     0. 
   0  -3  10     79.93    7.61  0. 1.0000     0. 
   0  -3 -10     71.59   11.12  0. 1.0000     0. 
   0   3  10     79.47    4.59  0. 1.0000     0. 
   0   3 -10     78.80    5.92  0. 1.0000     0. 
   0   3  10     75.17   12.76  0. 1.0000     0. 
  -2   3 -10     31.43    6.16  0. 1.0000     0. 
   2   3  10     27.59    3.38  0. 1.0000     0. 
   6  -4 -10     -0.23    1.74  0. 1.0000     0. 
  -6   4  10     -4.74    9.47  0. 1.0000     0. 
  -5  -4  10     -4.45    8.94  0. 1.0000     0. 
   5  -4 -10     -2.18    5.83  0. 1.0000     0. 
   5   4 -10      2.92    9.72  0. 1.0000     0. 
  -5   4  10      0.95    8.75  0. 1.0000     0. 
  -5   4  10     -2.19    4.59  0. 1.0000     0. 
   4  -4 -10     15.70    4.76  0. 1.0000     0. 
  -4  -4  10      6.18    8.00  0. 1.0000     0. 
   4  -4 -10      6.24    6.27  0. 1.0000     0. 
   4   4 -10     -0.92    9.54  0. 1.0000     0. 
  -4   4  10     12.81   10.00  0. 1.0000     0. 
   4   4 -10      5.74    4.90  0. 1.0000     0. 
  -4   4  10      5.40    4.50  0. 1.0000     0. 
  -3  -4  10     -0.84    8.54  0. 1.0000     0. 
  -3  -4  10     -2.08    8.13  0. 1.0000     0. 
   3  -4 -10      6.27    3.80  0. 1.0000     0. 
   3  -4 -10      3.13    6.13  0. 1.0000     0. 
  -3   4  10      9.00   10.75  0. 1.0000     0. 
   3   4 -10     11.09    9.32  0. 1.0000     0. 
   3   4 -10      2.07    5.07  0. 1.0000     0. 
  -3   4  10      3.48    4.47  0. 1.0000     0. 
   2  -4 -10     18.48    3.93  0. 1.0000     0. 
  -2  -4  10     19.58    8.33  0. 1.0000     0. 
   2  -4 -10     14.47    7.30  0. 1.0000     0. 
  -2  -4  10     19.45    7.71  0. 1.0000     0. 
   2   4 -10     16.65    5.11  0. 1.0000     0. 
  -2   4  10      9.97    3.91  0. 1.0000     0. 
  -2   4  10      3.30   10.68  0. 1.0000     0. 
   2   4 -10      7.96    8.93  0. 1.0000     0. 
  -1  -4  10     14.13    7.24  0. 1.0000     0. 
   1  -4 -10     10.01    7.62  0. 1.0000     0. 
   1  -4 -10     17.79    3.63  0. 1.0000     0. 
  -1  -4  10     14.31    7.62  0. 1.0000     0. 
   1   4 -10      3.52    4.97  0. 1.0000     0. 
  -1   4  10     10.65   10.43  0. 1.0000     0. 
   1   4 -10      8.56    8.17  0. 1.0000     0. 
  -1   4  10     11.23    3.88  0. 1.0000     0. 
   0  -4  10      5.07    7.70  0. 1.0000     0. 
   0  -4 -10     16.30    7.99  0. 1.0000     0. 
   0  -4 -10      3.66    3.68  0. 1.0000     0. 
   0  -4  10      3.44    7.44  0. 1.0000     0. 
   0   4  10     -0.50   11.43  0. 1.0000     0. 
   0   4  10      7.43    3.69  0. 1.0000     0. 
   0   4 -10      6.63    5.41  0. 1.0000     0. 
   0   4 -10      2.25    9.91  0. 1.0000     0. 
   1  -4  10      1.18    7.22  0. 1.0000     0. 
   1  -4  10      5.86    7.92  0. 1.0000     0. 
  -1  -4 -10     10.52    3.74  0. 1.0000     0. 
  -1  -4 -10     19.00    9.87  0. 1.0000     0. 
  -1   4 -10      4.96   10.04  0. 1.0000     0. 
  -1   4 -10      6.22    5.82  0. 1.0000     0. 
   1   4  10      8.32   11.08  0. 1.0000     0. 
   1   4  10      8.93    4.03  0. 1.0000     0. 
   2  -4  10     -1.28    7.37  0. 1.0000     0. 
   2  -4  10     -6.42    7.95  0. 1.0000     0. 
  -2  -4 -10     -1.33    3.35  0. 1.0000     0. 
  -2  -4 -10      0.33   10.11  0. 1.0000     0. 
   2   4  10      4.15    3.57  0. 1.0000     0. 
  -2   4 -10    -11.28    6.74  0. 1.0000     0. 
   3  -4  10     -2.15    9.23  0. 1.0000     0. 
  -3   4 -10     -3.04    7.66  0. 1.0000     0. 
   4   0 -11     -0.42    4.16  0. 1.0000     0. 
  -4   0  11      0.22    3.51  0. 1.0000     0. 
   0   0  11      0.10    1.35  0. 1.0000     0. 
   0   0 -11     -0.26    3.03  0. 1.0000     0. 
  -1   0 -11      1.26    3.77  0. 1.0000     0. 
   1   0  11      2.47    1.40  0. 1.0000     0. 
  -4  -1  11      1.46    4.71  0. 1.0000     0. 
   4  -1 -11      2.82    3.43  0. 1.0000     0. 
   4   1 -11      5.31    4.74  0. 1.0000     0. 
  -4   1  11      5.89    5.40  0. 1.0000     0. 
  -4   1  11      3.62    2.78  0. 1.0000     0. 
  -3  -1  11    170.55    8.62  0. 1.0000     0. 
   3  -1 -11    167.42    9.96  0. 1.0000     0. 
   3   1 -11    168.49    9.76  0. 1.0000     0. 
  -3   1  11    181.98   12.02  0. 1.0000     0. 
  -3   1  11    180.06    6.12  0. 1.0000     0. 
   3   1 -11    166.96    6.26  0. 1.0000     0. 
  -2  -1  11   1169.30   23.36  0. 1.0000     0. 
   2  -1 -11   1127.29   51.54  0. 1.0000     0. 
   2  -1 -11   1171.57   36.27  0. 1.0000     0. 
   2   1 -11   1126.36   31.71  0. 1.0000     0. 
  -2   1  11   1161.70   31.91  0. 1.0000     0. 
  -2   1  11   1141.20   52.82  0. 1.0000     0. 
   2   1 -11   1137.31   24.17  0. 1.0000     0. 
   1  -1 -11    269.11    9.80  0. 1.0000     0. 
  -1  -1  11    284.42   10.56  0. 1.0000     0. 
  -1  -1  11    284.27   12.99  0. 1.0000     0. 
   1  -1 -11    298.58   18.09  0. 1.0000     0. 
   1   1 -11    283.84   12.81  0. 1.0000     0. 
  -1   1  11    295.57   17.96  0. 1.0000     0. 
  -1   1  11    278.92    7.73  0. 1.0000     0. 
   1   1 -11    282.62    7.97  0. 1.0000     0. 
   0  -1  11     36.37    5.64  0. 1.0000     0. 
   0  -1 -11     26.12    2.56  0. 1.0000     0. 
   0   1  11     22.19    2.33  0. 1.0000     0. 
   0   1  11     26.08    7.36  0. 1.0000     0. 
   0   1 -11     19.14    3.85  0. 1.0000     0. 
   0   1 -11     30.58    6.27  0. 1.0000     0. 
  -1  -1 -11    331.36   12.40  0. 1.0000     0. 
   1  -1  11    350.67   14.65  0. 1.0000     0. 
   1   1  11    347.60   10.51  0. 1.0000     0. 
  -1   1 -11    356.84    7.76  0. 1.0000     0. 
  -2   1 -11    408.85   12.71  0. 1.0000     0. 
  -5   2  11     39.12    8.45  0. 1.0000     0. 
   5   2 -11     54.78    7.61  0. 1.0000     0. 
  -4   2  11    545.82   16.90  0. 1.0000     0. 
  -2  -2  11     13.75    5.24  0. 1.0000     0. 
   2  -2 -11      9.07    5.23  0. 1.0000     0. 
  -2  -2  11     18.27    6.05  0. 1.0000     0. 
   2   2 -11     10.49    6.75  0. 1.0000     0. 
   2   2 -11     13.04    4.14  0. 1.0000     0. 
  -1  -2  11    718.52   17.89  0. 1.0000     0. 
   1   2 -11    708.95   15.53  0. 1.0000     0. 
   1   2 -11    747.53   25.62  0. 1.0000     0. 
  -1   2 -11     43.56    5.27  0. 1.0000     0. 
   1   2  11     38.59    3.16  0. 1.0000     0. 
   2  -2  11    138.77    9.38  0. 1.0000     0. 
   6  -3 -11      5.32    4.95  0. 1.0000     0. 
   5  -3 -11    165.26   12.06  0. 1.0000     0. 
  -5  -3  11    170.69   11.71  0. 1.0000     0. 
   5   3 -11    171.03   12.40  0. 1.0000     0. 
  -5   3  11    172.72    7.79  0. 1.0000     0. 
  -4  -3  11     18.56    7.52  0. 1.0000     0. 
   4  -3 -11     26.78    6.52  0. 1.0000     0. 
   4   3 -11     15.30    7.88  0. 1.0000     0. 
   4   3 -11     17.76    4.66  0. 1.0000     0. 
  -4   3  11     20.52    4.20  0. 1.0000     0. 
  -3  -3  11      0.67    5.97  0. 1.0000     0. 
   3  -3 -11      0.65    5.38  0. 1.0000     0. 
  -3   3  11      0.15    3.72  0. 1.0000     0. 
   3   3 -11     -2.84    4.32  0. 1.0000     0. 
   1  -3 -11     32.09    7.60  0. 1.0000     0. 
   0  -3  11     75.18    9.23  0. 1.0000     0. 
   0  -3 -11     87.02    4.58  0. 1.0000     0. 
   0  -3  11     66.46    7.72  0. 1.0000     0. 
   0  -3 -11    102.94   12.54  0. 1.0000     0. 
   0   3 -11     92.66    6.15  0. 1.0000     0. 
   0   3  11     94.03    4.70  0. 1.0000     0. 
   0   3 -11     76.38   10.88  0. 1.0000     0. 
  -1  -3 -11      5.22    9.05  0. 1.0000     0. 
   1  -3  11     19.53    6.86  0. 1.0000     0. 
   1  -3  11     15.92    6.55  0. 1.0000     0. 
  -1  -3 -11     13.97    3.55  0. 1.0000     0. 
  -1   3 -11     14.98    5.72  0. 1.0000     0. 
   1   3  11      8.39    2.91  0. 1.0000     0. 
  -1   3 -11     13.67    8.60  0. 1.0000     0. 
  -2  -3 -11     15.25    3.17  0. 1.0000     0. 
   2  -3  11     13.66    6.58  0. 1.0000     0. 
   2   3  11     10.60    2.99  0. 1.0000     0. 
  -2   3 -11     17.47    6.23  0. 1.0000     0. 
   6  -4 -11     17.12    6.52  0. 1.0000     0. 
  -5  -4  11      7.09    8.43  0. 1.0000     0. 
   5  -4 -11      0.88    6.05  0. 1.0000     0. 
  -5   4  11      7.02    4.93  0. 1.0000     0. 
  -5   4  11     -0.36    9.84  0. 1.0000     0. 
   5   4 -11      2.92    9.57  0. 1.0000     0. 
   4  -4 -11     -8.78    6.38  0. 1.0000     0. 
   4  -4 -11      5.05    4.07  0. 1.0000     0. 
  -4  -4  11     -6.42    7.82  0. 1.0000     0. 
  -4   4  11     12.57    4.86  0. 1.0000     0. 
   4   4 -11      0.82    4.85  0. 1.0000     0. 
  -4   4  11     -1.58   10.72  0. 1.0000     0. 
   4   4 -11      2.71    9.22  0. 1.0000     0. 
  -3  -4  11     18.96    8.32  0. 1.0000     0. 
  -3  -4  11     -6.99    9.27  0. 1.0000     0. 
   3  -4 -11     12.79    4.15  0. 1.0000     0. 
   3  -4 -11      9.79    6.38  0. 1.0000     0. 
   3   4 -11     10.40    5.47  0. 1.0000     0. 
  -3   4  11     14.40   11.10  0. 1.0000     0. 
   3   4 -11     15.08    9.36  0. 1.0000     0. 
  -3   4  11     15.11    4.62  0. 1.0000     0. 
   2  -4 -11      7.43    3.75  0. 1.0000     0. 
   2  -4 -11     -3.69    6.92  0. 1.0000     0. 
  -2  -4  11      0.29    8.39  0. 1.0000     0. 
  -2  -4  11      3.22    7.43  0. 1.0000     0. 
   2   4 -11     -0.18    8.96  0. 1.0000     0. 
  -2   4  11      3.19    3.71  0. 1.0000     0. 
  -2   4  11    -10.92   10.41  0. 1.0000     0. 
   2   4 -11      5.40    5.66  0. 1.0000     0. 
  -1  -4  11     16.11    7.51  0. 1.0000     0. 
  -1  -4  11     19.27    8.55  0. 1.0000     0. 
   1  -4 -11     37.36    8.43  0. 1.0000     0. 
   1   4 -11     31.00    5.51  0. 1.0000     0. 
  -1   4  11     26.10    4.23  0. 1.0000     0. 
   1   4 -11     17.37    9.28  0. 1.0000     0. 
  -1   4  11     19.47   10.74  0. 1.0000     0. 
   0  -4  11     32.66    8.40  0. 1.0000     0. 
   0  -4 -11     56.01    9.53  0. 1.0000     0. 
   0  -4  11     46.74    8.57  0. 1.0000     0. 
   0   4 -11     45.63   10.62  0. 1.0000     0. 
   0   4  11     54.82    4.58  0. 1.0000     0. 
   0   4 -11     56.77    6.21  0. 1.0000     0. 
   0   4  11     17.50   12.46  0. 1.0000     0. 
  -1  -4 -11     18.63    4.33  0. 1.0000     0. 
  -1  -4 -11     29.15   10.18  0. 1.0000     0. 
   1  -4  11     19.48    8.37  0. 1.0000     0. 
   1  -4  11     24.18    7.85  0. 1.0000     0. 
  -1   4 -11     20.81    6.24  0. 1.0000     0. 
   1   4  11     16.79    4.32  0. 1.0000     0. 
  -1   4 -11     25.90   10.66  0. 1.0000     0. 
  -2  -4 -11     42.70   12.11  0. 1.0000     0. 
  -2   4 -11     39.03    7.37  0. 1.0000     0. 
  -5   0  12    352.53   17.17  0. 1.0000     0. 
  -4   0  12   1506.18   64.19  0. 1.0000     0. 
  -3   0  12    250.59   14.73  0. 1.0000     0. 
  -3   0  12    259.73    8.05  0. 1.0000     0. 
  -2   0  12    672.85   18.69  0. 1.0000     0. 
  -2   0  12    656.46   32.82  0. 1.0000     0. 
  -1   0  12     62.01    2.81  0. 1.0000     0. 
  -5   1  12      7.60    5.16  0. 1.0000     0. 
   5   1 -12      6.33    5.86  0. 1.0000     0. 
  -4  -1  12    118.63    7.81  0. 1.0000     0. 
   4  -1 -12    108.70    8.16  0. 1.0000     0. 
  -4   1  12    120.59    5.48  0. 1.0000     0. 
   4   1 -12    110.28    8.99  0. 1.0000     0. 
  -4   1  12    121.25   10.09  0. 1.0000     0. 
  -2  -1  12    798.04   30.69  0. 1.0000     0. 
  -2   1  12    831.76   37.65  0. 1.0000     0. 
   2   1 -12    768.68   22.51  0. 1.0000     0. 
   0  -1 -12    150.66    6.32  0. 1.0000     0. 
   0  -1  12    176.20    9.16  0. 1.0000     0. 
   0   1  12    159.97    5.66  0. 1.0000     0. 
   0   1 -12    165.29   10.39  0. 1.0000     0. 
   0   1  12    141.35   13.25  0. 1.0000     0. 
   0   1 -12    159.60    6.53  0. 1.0000     0. 
   1  -1  12      1.94    3.50  0. 1.0000     0. 
  -1   1 -12      2.68    4.19  0. 1.0000     0. 
   1   1  12      0.28    1.82  0. 1.0000     0. 
  -6   2  12      9.75    6.58  0. 1.0000     0. 
   5  -2 -12     41.84    6.21  0. 1.0000     0. 
  -5   2  12     47.61    9.19  0. 1.0000     0. 
  -5   2  12     34.50    4.31  0. 1.0000     0. 
   5   2 -12     35.87    7.63  0. 1.0000     0. 
  -4   2  12      5.29    7.17  0. 1.0000     0. 
   4   2 -12     10.90    7.04  0. 1.0000     0. 
  -3  -2  12    431.19   14.77  0. 1.0000     0. 
   3   2 -12    430.11   10.93  0. 1.0000     0. 
  -3   2  12    414.15   24.87  0. 1.0000     0. 
   2  -2 -12    134.66   10.80  0. 1.0000     0. 
  -2  -2  12    125.33    8.35  0. 1.0000     0. 
  -2   2  12    137.51    5.62  0. 1.0000     0. 
   2   2 -12    134.29    6.23  0. 1.0000     0. 
  -1  -2  12    361.98   12.86  0. 1.0000     0. 
   1  -2 -12    366.20   23.48  0. 1.0000     0. 
   1   2 -12    374.75    9.69  0. 1.0000     0. 
  -1   2  12    380.05   11.74  0. 1.0000     0. 
   0  -2  12     10.49    5.55  0. 1.0000     0. 
   0  -2 -12      7.20    2.87  0. 1.0000     0. 
   0   2  12     12.79    8.95  0. 1.0000     0. 
   0   2 -12      6.42    6.81  0. 1.0000     0. 
   1  -2  12    596.02   28.34  0. 1.0000     0. 
  -1  -2 -12    648.38   20.17  0. 1.0000     0. 
  -6   3  12      3.62    8.75  0. 1.0000     0. 
  -5  -3  12     24.83    7.71  0. 1.0000     0. 
   5  -3 -12     33.39    6.46  0. 1.0000     0. 
   5   3 -12     24.82    9.38  0. 1.0000     0. 
  -5   3  12     33.90    4.80  0. 1.0000     0. 
  -5   3  12     35.21    8.95  0. 1.0000     0. 
  -4  -3  12      2.16    7.42  0. 1.0000     0. 
   4  -3 -12      2.12    5.53  0. 1.0000     0. 
  -4   3  12      0.94    8.64  0. 1.0000     0. 
  -4   3  12      3.79    3.75  0. 1.0000     0. 
   4   3 -12     -2.40    7.90  0. 1.0000     0. 
   4   3 -12      1.08    4.51  0. 1.0000     0. 
  -3  -3  12      5.25    6.20  0. 1.0000     0. 
   3  -3 -12     -1.35    5.65  0. 1.0000     0. 
   3  -3 -12      6.26    3.66  0. 1.0000     0. 
  -3   3  12      4.84    3.78  0. 1.0000     0. 
  -3   3  12     -5.00    9.06  0. 1.0000     0. 
   3   3 -12      0.94    7.95  0. 1.0000     0. 
   3   3 -12      0.58    3.99  0. 1.0000     0. 
  -2  -3  12    278.38   12.23  0. 1.0000     0. 
   2  -3 -12    271.31   10.11  0. 1.0000     0. 
  -2  -3  12    275.15   15.47  0. 1.0000     0. 
   2  -3 -12    276.10   18.46  0. 1.0000     0. 
  -2   3  12    279.36   10.05  0. 1.0000     0. 
  -2   3  12    258.46   21.79  0. 1.0000     0. 
   2   3 -12    278.87   14.37  0. 1.0000     0. 
   2   3 -12    280.34    7.92  0. 1.0000     0. 
  -1  -3  12      0.91    6.31  0. 1.0000     0. 
  -1  -3  12      0.14    6.21  0. 1.0000     0. 
   1  -3 -12      3.94    6.49  0. 1.0000     0. 
   1  -3 -12     -1.53    3.10  0. 1.0000     0. 
   1   3 -12      1.24    7.25  0. 1.0000     0. 
  -1   3  12      3.39    3.02  0. 1.0000     0. 
   1   3 -12     -4.88    4.80  0. 1.0000     0. 
  -1   3  12      1.46    8.80  0. 1.0000     0. 
   0  -3 -12     -8.74    9.15  0. 1.0000     0. 
   0  -3  12      2.53    6.51  0. 1.0000     0. 
   0  -3 -12      3.86    3.44  0. 1.0000     0. 
   0  -3  12      0.14    6.14  0. 1.0000     0. 
   0   3 -12     -0.56    5.25  0. 1.0000     0. 
   0   3  12      0.94   10.30  0. 1.0000     0. 
   0   3 -12     -3.28    8.81  0. 1.0000     0. 
   0   3  12      1.20    3.33  0. 1.0000     0. 
   1  -3  12     22.66    7.19  0. 1.0000     0. 
   1  -3  12     21.57    7.28  0. 1.0000     0. 
  -1  -3 -12     17.49    3.69  0. 1.0000     0. 
  -1  -3 -12     17.42   10.26  0. 1.0000     0. 
  -1   3 -12     14.64    9.12  0. 1.0000     0. 
   1   3  12      6.84   10.48  0. 1.0000     0. 
  -1   3 -12     19.73    6.24  0. 1.0000     0. 
   1   3  12     13.52    3.34  0. 1.0000     0. 
  -5  -4  12     -0.19    8.51  0. 1.0000     0. 
   5  -4 -12      0.18    6.15  0. 1.0000     0. 
  -5   4  12      2.96    4.87  0. 1.0000     0. 
  -4  -4  12     -3.38    7.94  0. 1.0000     0. 
   4  -4 -12     -0.40    7.04  0. 1.0000     0. 
  -4   4  12      2.91    4.85  0. 1.0000     0. 
   4   4 -12      0.17    5.19  0. 1.0000     0. 
   4   4 -12      0.19    8.28  0. 1.0000     0. 
  -4   4  12      0.39    8.45  0. 1.0000     0. 
   3  -4 -12     -1.66    3.78  0. 1.0000     0. 
  -3  -4  12      2.74    7.84  0. 1.0000     0. 
   3  -4 -12      1.34    6.49  0. 1.0000     0. 
  -3  -4  12      0.54    8.22  0. 1.0000     0. 
   3   4 -12     -4.49    8.69  0. 1.0000     0. 
  -3   4  12      8.52    4.79  0. 1.0000     0. 
   3   4 -12      7.14    5.43  0. 1.0000     0. 
  -3   4  12      5.48   12.21  0. 1.0000     0. 
  -2  -4  12      0.69    7.66  0. 1.0000     0. 
   2  -4 -12      4.25    7.17  0. 1.0000     0. 
  -2  -4  12      5.55    8.08  0. 1.0000     0. 
   2  -4 -12      2.88    3.79  0. 1.0000     0. 
   2   4 -12     11.32    5.75  0. 1.0000     0. 
  -2   4  12      0.42   10.48  0. 1.0000     0. 
   2   4 -12      0.18    9.12  0. 1.0000     0. 
  -2   4  12     -0.31    4.06  0. 1.0000     0. 
  -1  -4  12     11.17    6.92  0. 1.0000     0. 
  -1  -4  12     13.62    8.37  0. 1.0000     0. 
   1  -4 -12      9.20    3.86  0. 1.0000     0. 
   1  -4 -12     11.69    7.85  0. 1.0000     0. 
  -1   4  12     17.65    4.24  0. 1.0000     0. 
   1   4 -12     14.27    8.76  0. 1.0000     0. 
  -1   4  12      6.07   10.95  0. 1.0000     0. 
   1   4 -12      2.91    5.34  0. 1.0000     0. 
   0  -4  12     17.60    8.97  0. 1.0000     0. 
   0  -4  12     41.24    8.35  0. 1.0000     0. 
   0  -4 -12      4.63    3.90  0. 1.0000     0. 
   0  -4 -12     33.53    8.48  0. 1.0000     0. 
   0   4 -12     28.95    6.12  0. 1.0000     0. 
   0   4  12     -0.49    9.29  0. 1.0000     0. 
   0   4  12     21.20    3.86  0. 1.0000     0. 
   1  -4  12     -4.09    7.84  0. 1.0000     0. 
  -1  -4 -12     -5.78    9.42  0. 1.0000     0. 
  -1   4 -12     -5.67    6.32  0. 1.0000     0. 
   1   4  12     -2.11    3.89  0. 1.0000     0. 
  -4  -1  13      5.18    5.09  0. 1.0000     0. 
  -4   1  13      2.38    2.90  0. 1.0000     0. 
  -4   1  13      1.43    6.03  0. 1.0000     0. 
   4   1 -13      3.05    3.21  0. 1.0000     0. 
   4   1 -13      2.17    5.68  0. 1.0000     0. 
   3  -1 -13     27.83    4.85  0. 1.0000     0. 
  -3  -1  13     21.34    5.12  0. 1.0000     0. 
  -3   1  13     20.33    7.17  0. 1.0000     0. 
   3   1 -13     23.76    6.30  0. 1.0000     0. 
  -3   1  13     24.03    2.97  0. 1.0000     0. 
   3   1 -13     22.02    3.65  0. 1.0000     0. 
  -2  -1  13     16.36    4.82  0. 1.0000     0. 
  -2  -1  13     25.40    5.62  0. 1.0000     0. 
   2  -1 -13     10.53    4.75  0. 1.0000     0. 
   2  -1 -13     17.58    2.71  0. 1.0000     0. 
  -2   1  13     14.00    2.56  0. 1.0000     0. 
   2   1 -13     17.41    6.07  0. 1.0000     0. 
  -2   1  13     17.46    7.60  0. 1.0000     0. 
   2   1 -13      8.91    3.58  0. 1.0000     0. 
   1  -1 -13     37.52    2.97  0. 1.0000     0. 
  -1  -1  13     45.38    5.96  0. 1.0000     0. 
   1  -1 -13     47.22    7.66  0. 1.0000     0. 
  -1  -1  13     37.63    5.43  0. 1.0000     0. 
   1   1 -13     37.82    7.29  0. 1.0000     0. 
  -1   1  13     46.28    2.95  0. 1.0000     0. 
  -1   1  13     42.07    8.53  0. 1.0000     0. 
   1   1 -13     45.22    4.65  0. 1.0000     0. 
   0  -1  13    197.84   10.41  0. 1.0000     0. 
   0   1 -13    185.65   11.49  0. 1.0000     0. 
   1   1  13    148.61    5.60  0. 1.0000     0. 
  -1   1 -13    153.99    6.62  0. 1.0000     0. 
  -2   1 -13    214.24    8.64  0. 1.0000     0. 
   5  -2 -13      7.19    5.05  0. 1.0000     0. 
  -5  -2  13     17.06    7.17  0. 1.0000     0. 
  -5   2  13     12.10    8.00  0. 1.0000     0. 
   5   2 -13     16.21    7.68  0. 1.0000     0. 
  -5   2  13      6.01    3.74  0. 1.0000     0. 
   4  -2 -13     61.62    7.06  0. 1.0000     0. 
  -4   2  13     58.37   10.14  0. 1.0000     0. 
  -4   2  13     63.00    4.62  0. 1.0000     0. 
   4   2 -13     60.01    8.54  0. 1.0000     0. 
   3  -2 -13     -0.11    3.50  0. 1.0000     0. 
   3   2 -13      2.09    6.58  0. 1.0000     0. 
  -3   2  13      3.18    7.65  0. 1.0000     0. 
  -2  -2  13     10.07    6.14  0. 1.0000     0. 
   2  -2 -13     20.40    3.28  0. 1.0000     0. 
   2   2 -13     13.38    6.64  0. 1.0000     0. 
  -2   2  13     23.53    9.58  0. 1.0000     0. 
   1  -2 -13    129.28    5.55  0. 1.0000     0. 
  -1  -2  13    125.14    9.62  0. 1.0000     0. 
   1   2 -13    116.88   10.67  0. 1.0000     0. 
  -1   2  13    119.53   12.72  0. 1.0000     0. 
   0  -2 -13     21.72    9.40  0. 1.0000     0. 
   0  -2  13     34.15    6.21  0. 1.0000     0. 
   0  -2 -13     33.01    3.44  0. 1.0000     0. 
   0  -2  13     30.24    7.36  0. 1.0000     0. 
   0   2 -13     35.11    8.23  0. 1.0000     0. 
   0   2  13     29.77    3.26  0. 1.0000     0. 
   0   2  13     24.42   10.59  0. 1.0000     0. 
  -1  -2 -13    263.95    9.66  0. 1.0000     0. 
   1  -2  13    244.96   14.37  0. 1.0000     0. 
  -1   2 -13    259.65    8.85  0. 1.0000     0. 
   1   2  13    252.01    8.91  0. 1.0000     0. 
   6  -3 -13     68.27    8.47  0. 1.0000     0. 
  -6   3  13     58.43   10.06  0. 1.0000     0. 
  -4  -3  13     78.23    9.95  0. 1.0000     0. 
   4  -3 -13     87.77    5.10  0. 1.0000     0. 
   4  -3 -13     82.15    8.57  0. 1.0000     0. 
   4   3 -13     77.84    6.07  0. 1.0000     0. 
  -4   3  13     78.66    5.65  0. 1.0000     0. 
   4   3 -13     72.70   10.81  0. 1.0000     0. 
  -4   3  13     69.65   11.84  0. 1.0000     0. 
   3  -3 -13    105.55    5.71  0. 1.0000     0. 
  -3  -3  13     99.37    9.49  0. 1.0000     0. 
   3  -3 -13    109.14   10.01  0. 1.0000     0. 
  -3  -3  13    106.55   10.89  0. 1.0000     0. 
  -3   3  13    104.65   14.70  0. 1.0000     0. 
   3   3 -13    111.71   11.28  0. 1.0000     0. 
   3   3 -13    108.20    6.26  0. 1.0000     0. 
  -3   3  13    109.27    6.01  0. 1.0000     0. 
   2  -3 -13    105.11    5.50  0. 1.0000     0. 
  -2  -3  13     87.79    9.07  0. 1.0000     0. 
  -2  -3  13     95.09   10.35  0. 1.0000     0. 
   2  -3 -13     95.36   10.56  0. 1.0000     0. 
   2   3 -13     93.37    6.21  0. 1.0000     0. 
  -2   3  13     93.60   14.10  0. 1.0000     0. 
   2   3 -13    100.03   10.74  0. 1.0000     0. 
  -2   3  13    100.42    5.47  0. 1.0000     0. 
  -1  -3  13     35.02    7.46  0. 1.0000     0. 
  -1  -3  13     20.07    7.87  0. 1.0000     0. 
   1  -3 -13     30.01    7.75  0. 1.0000     0. 
   1  -3 -13     25.72    3.72  0. 1.0000     0. 
  -1   3  13     28.28    3.47  0. 1.0000     0. 
   1   3 -13     23.29    8.31  0. 1.0000     0. 
  -1   3  13     15.73   10.48  0. 1.0000     0. 
   1   3 -13     28.73    5.10  0. 1.0000     0. 
   0  -3 -13    194.19   18.56  0. 1.0000     0. 
   0  -3 -13    238.47    8.83  0. 1.0000     0. 
   0  -3  13    235.37   15.39  0. 1.0000     0. 
   0  -3  13    242.79    9.48  0. 1.0000     0. 
   0   3  13    209.17   21.69  0. 1.0000     0. 
   0   3 -13    237.61   15.55  0. 1.0000     0. 
   0   3 -13    246.93    7.94  0. 1.0000     0. 
   0   3  13    217.44    8.51  0. 1.0000     0. 
   2  -3  13      4.96    8.04  0. 1.0000     0. 
   2  -3  13      1.85    5.72  0. 1.0000     0. 
  -2   3 -13      4.34    6.41  0. 1.0000     0. 
  -3  -4  13     41.79    9.01  0. 1.0000     0. 
   3  -4 -13     45.78    8.40  0. 1.0000     0. 
  -3   4  13     40.97    5.38  0. 1.0000     0. 
  -2  -4  13     -2.46    7.79  0. 1.0000     0. 
   2  -4 -13     -4.77    7.38  0. 1.0000     0. 
  -2   4  13      1.92    4.27  0. 1.0000     0. 
  -1  -4  13    115.47    9.08  0. 1.0000     0. 
   1  -4 -13     90.94   11.51  0. 1.0000     0. 
  -1   4  13     92.66    6.04  0. 1.0000     0. 
   5  -1 -14     77.57    6.92  0. 1.0000     0. 
  -5   1  14     81.36    9.59  0. 1.0000     0. 
   5   1 -14     70.30    8.98  0. 1.0000     0. 
  -4  -1  14    604.92   21.29  0. 1.0000     0. 
   4  -1 -14    619.48   26.53  0. 1.0000     0. 
  -4   1  14    669.56   33.11  0. 1.0000     0. 
   4   1 -14    615.95   22.88  0. 1.0000     0. 
  -4   1  14    635.83   17.24  0. 1.0000     0. 
   4   1 -14    617.45   15.98  0. 1.0000     0. 
   3  -1 -14     -1.92    2.82  0. 1.0000     0. 
   3  -1 -14      4.73    4.40  0. 1.0000     0. 
  -3  -1  14      2.48    4.93  0. 1.0000     0. 
   3   1 -14     -0.44    3.48  0. 1.0000     0. 
  -3   1  14      6.30    7.33  0. 1.0000     0. 
  -3   1  14     -2.78    2.81  0. 1.0000     0. 
   3   1 -14     -2.68    6.09  0. 1.0000     0. 
   2  -1 -14     10.35    2.68  0. 1.0000     0. 
   2  -1 -14      8.89    5.34  0. 1.0000     0. 
  -2  -1  14     10.14    5.44  0. 1.0000     0. 
  -2  -1  14      7.07    4.98  0. 1.0000     0. 
  -2   1  14     12.82    7.62  0. 1.0000     0. 
   2   1 -14      9.01    6.08  0. 1.0000     0. 
   2   1 -14     -0.89    4.35  0. 1.0000     0. 
  -2   1  14      9.12    2.59  0. 1.0000     0. 
   1  -1 -14    826.90   43.39  0. 1.0000     0. 
  -1  -1  14    898.21   16.00  0. 1.0000     0. 
   1  -1 -14    828.37   26.75  0. 1.0000     0. 
  -1  -1  14    884.17   33.32  0. 1.0000     0. 
   1   1 -14    872.16   37.58  0. 1.0000     0. 
  -1   1  14    865.69   46.85  0. 1.0000     0. 
  -1   1  14    922.05   21.71  0. 1.0000     0. 
   1   1 -14    868.23   18.54  0. 1.0000     0. 
   0  -1 -14     98.52    4.95  0. 1.0000     0. 
   0  -1  14     97.53    7.43  0. 1.0000     0. 
   0  -1  14     98.97    7.90  0. 1.0000     0. 
   0   1 -14     84.04   10.21  0. 1.0000     0. 
   0   1  14    107.11   12.97  0. 1.0000     0. 
   0   1  14     95.15    4.13  0. 1.0000     0. 
   0   1 -14     97.11    5.94  0. 1.0000     0. 
   1   1  14     14.98    2.37  0. 1.0000     0. 
  -1   1 -14     19.86    5.00  0. 1.0000     0. 
   6  -2 -14     40.65    6.73  0. 1.0000     0. 
   6   2 -14     18.84    8.40  0. 1.0000     0. 
  -4  -2  14      3.95    6.96  0. 1.0000     0. 
   4  -2 -14      4.25    5.14  0. 1.0000     0. 
  -4   2  14      1.37    7.67  0. 1.0000     0. 
   4   2 -14     -1.12    7.03  0. 1.0000     0. 
   4   2 -14      0.29    4.39  0. 1.0000     0. 
  -4   2  14     -0.70    3.67  0. 1.0000     0. 
  -3  -2  14     26.09    7.15  0. 1.0000     0. 
  -3  -2  14     31.84    7.42  0. 1.0000     0. 
   3  -2 -14     25.14    6.76  0. 1.0000     0. 
   3  -2 -14     27.00    3.52  0. 1.0000     0. 
   3   2 -14     26.84    8.07  0. 1.0000     0. 
  -3   2  14     32.72    9.56  0. 1.0000     0. 
   3   2 -14     35.15    4.97  0. 1.0000     0. 
  -3   2  14     25.01    3.71  0. 1.0000     0. 
   2  -2 -14     24.50    3.54  0. 1.0000     0. 
  -2  -2  14     39.39    7.54  0. 1.0000     0. 
  -2  -2  14     37.15    6.63  0. 1.0000     0. 
   2  -2 -14     12.39    6.14  0. 1.0000     0. 
   2   2 -14     29.57    5.06  0. 1.0000     0. 
   2   2 -14     32.67    8.16  0. 1.0000     0. 
  -2   2  14     27.84    3.50  0. 1.0000     0. 
  -2   2  14      6.15    9.61  0. 1.0000     0. 
  -1  -2  14     18.73    6.62  0. 1.0000     0. 
   1  -2 -14     18.09    7.50  0. 1.0000     0. 
   1  -2 -14     21.98    3.25  0. 1.0000     0. 
  -1   2  14     14.85    8.93  0. 1.0000     0. 
   1   2 -14     17.22    7.38  0. 1.0000     0. 
   1   2 -14     18.89    4.81  0. 1.0000     0. 
  -1   2  14     18.25    3.17  0. 1.0000     0. 
   0  -2  14      7.48    6.56  0. 1.0000     0. 
   0  -2  14      6.11    5.95  0. 1.0000     0. 
   0  -2 -14      7.16    3.09  0. 1.0000     0. 
   0   2 -14      4.60    7.56  0. 1.0000     0. 
   0   2  14     -4.20    9.15  0. 1.0000     0. 
   0   2 -14      3.39    5.34  0. 1.0000     0. 
   1  -2  14     16.76    6.63  0. 1.0000     0. 
  -1  -2 -14     33.39    3.55  0. 1.0000     0. 
  -1   2 -14     27.27    5.76  0. 1.0000     0. 
   1   2  14     34.23    3.38  0. 1.0000     0. 
  -2   2 -14      0.66    6.10  0. 1.0000     0. 
   6  -3 -14     23.31    7.18  0. 1.0000     0. 
  -6   3  14     32.28   10.01  0. 1.0000     0. 
   6   3 -14      1.12    8.66  0. 1.0000     0. 
   5  -3 -14     78.20    9.12  0. 1.0000     0. 
  -5  -3  14     61.87    9.60  0. 1.0000     0. 
   5   3 -14     73.58   10.84  0. 1.0000     0. 
  -5   3  14     71.56   11.52  0. 1.0000     0. 
  -5   3  14     66.86    5.89  0. 1.0000     0. 
   0  -3 -14     64.02    4.82  0. 1.0000     0. 
   0  -3 -14     52.54   11.09  0. 1.0000     0. 
   0   3 -14     39.58    6.13  0. 1.0000     0. 
   0   3  14     51.49    4.29  0. 1.0000     0. 
   0   3  14     53.45   12.27  0. 1.0000     0. 
  -1  -3 -14      9.74    3.56  0. 1.0000     0. 
   1  -3  14     13.06    7.32  0. 1.0000     0. 
   1  -3  14     12.13    7.04  0. 1.0000     0. 
  -1  -3 -14     14.55   10.88  0. 1.0000     0. 
   1   3  14      2.35    3.24  0. 1.0000     0. 
  -1   3 -14     19.70    6.36  0. 1.0000     0. 
  -1   3 -14     20.59    9.85  0. 1.0000     0. 
   2  -3  14      0.33    3.88  0. 1.0000     0. 
   2  -3  14      2.16    8.07  0. 1.0000     0. 
  -2   3 -14     24.38    7.07  0. 1.0000     0. 
   5  -1 -15    367.69   19.76  0. 1.0000     0. 
   4  -1 -15    161.77   10.31  0. 1.0000     0. 
  -4   1  15    160.35    6.65  0. 1.0000     0. 
  -4   1  15    151.19   13.07  0. 1.0000     0. 
   3  -1 -15     49.43    3.51  0. 1.0000     0. 
   3  -1 -15     47.25    6.07  0. 1.0000     0. 
   3   1 -15     38.04    7.38  0. 1.0000     0. 
  -3   1  15     59.54   10.20  0. 1.0000     0. 
  -3   1  15     45.71    3.76  0. 1.0000     0. 
   2  -1 -15    218.86   14.36  0. 1.0000     0. 
   2  -1 -15    231.40    8.49  0. 1.0000     0. 
  -2   1  15    234.37   17.10  0. 1.0000     0. 
   2   1 -15    233.90   12.03  0. 1.0000     0. 
  -2   1  15    239.45    7.76  0. 1.0000     0. 
   1  -1 -15    110.63    5.26  0. 1.0000     0. 
   1  -1 -15    110.64   10.24  0. 1.0000     0. 
  -1   1  15    120.51    4.68  0. 1.0000     0. 
  -1   1  15    121.68   13.80  0. 1.0000     0. 
   1   1 -15    106.97   10.34  0. 1.0000     0. 
   0  -1 -15     29.82    9.06  0. 1.0000     0. 
   0  -1 -15     28.42    3.25  0. 1.0000     0. 
   0   1  15     24.63    2.94  0. 1.0000     0. 
   1   1  15     43.78    3.22  0. 1.0000     0. 
   6  -2 -15    244.13   15.14  0. 1.0000     0. 
   6   2 -15    226.20   14.42  0. 1.0000     0. 
  -6   2  15    215.59   17.97  0. 1.0000     0. 
  -5  -2  15     47.47    8.47  0. 1.0000     0. 
   5  -2 -15     47.59    6.88  0. 1.0000     0. 
  -5   2  15     41.46    4.83  0. 1.0000     0. 
  -5   2  15     46.73   10.55  0. 1.0000     0. 
   4  -2 -15    101.24    8.72  0. 1.0000     0. 
  -4  -2  15     98.52   10.08  0. 1.0000     0. 
   4   2 -15     98.38    6.16  0. 1.0000     0. 
  -4   2  15     88.64   11.70  0. 1.0000     0. 
   4   2 -15     94.70    9.89  0. 1.0000     0. 
  -4   2  15     96.73    5.58  0. 1.0000     0. 
  -3  -2  15    295.07   13.04  0. 1.0000     0. 
   3  -2 -15    291.83   10.64  0. 1.0000     0. 
  -3  -2  15    283.56   15.55  0. 1.0000     0. 
   3  -2 -15    295.95   17.92  0. 1.0000     0. 
  -3   2  15    289.50   20.76  0. 1.0000     0. 
   3   2 -15    282.83    9.41  0. 1.0000     0. 
  -3   2  15    293.97   10.26  0. 1.0000     0. 
   3   2 -15    282.56   14.27  0. 1.0000     0. 
   2  -2 -15     27.43    7.29  0. 1.0000     0. 
   2  -2 -15     25.31    3.44  0. 1.0000     0. 
  -2  -2  15     28.43    7.07  0. 1.0000     0. 
  -2  -2  15     17.69    6.82  0. 1.0000     0. 
   2   2 -15     19.59    8.17  0. 1.0000     0. 
   2   2 -15     18.80    5.09  0. 1.0000     0. 
  -2   2  15     39.49   10.18  0. 1.0000     0. 
  -2   2  15     19.63    3.56  0. 1.0000     0. 
   1  -2 -15      5.53    6.43  0. 1.0000     0. 
   1  -2 -15      2.71    3.03  0. 1.0000     0. 
  -1  -2  15      1.56    5.07  0. 1.0000     0. 
  -1  -2  15     -9.29    6.97  0. 1.0000     0. 
  -1   2  15      4.73    2.94  0. 1.0000     0. 
  -1   2  15      4.85    9.28  0. 1.0000     0. 
   1   2 -15      5.90    8.07  0. 1.0000     0. 
   1   2 -15      9.63    5.03  0. 1.0000     0. 
   0  -2  15     75.89    7.73  0. 1.0000     0. 
   0  -2 -15     58.09   11.80  0. 1.0000     0. 
   0  -2 -15     72.68    5.03  0. 1.0000     0. 
   0  -2  15     67.86    8.36  0. 1.0000     0. 
   0   2 -15     71.55   10.56  0. 1.0000     0. 
   0   2  15     64.11   12.82  0. 1.0000     0. 
   0   2  15     72.04    4.31  0. 1.0000     0. 
   0   2 -15     69.43    6.02  0. 1.0000     0. 
  -1  -2 -15      1.57    2.86  0. 1.0000     0. 
   1  -2  15     -5.04    6.82  0. 1.0000     0. 
   1  -2  15      2.42    5.71  0. 1.0000     0. 
   1   2  15      3.58    2.90  0. 1.0000     0. 
  -1   2 -15     14.20    5.88  0. 1.0000     0. 
  -2   2 -15      1.87    5.82  0. 1.0000     0. 
   6  -3 -15     63.31    8.00  0. 1.0000     0. 
   6   3 -15     34.65    9.89  0. 1.0000     0. 
  -6   3  15     44.97   11.41  0. 1.0000     0. 
  -5  -3  15      4.34    8.04  0. 1.0000     0. 
   5  -3 -15      0.19    6.32  0. 1.0000     0. 
  -5   3  15      0.89    4.47  0. 1.0000     0. 
   5   3 -15      4.09    9.18  0. 1.0000     0. 
  -5   3  15      0.34    9.27  0. 1.0000     0. 
   4  -3 -15      3.87    6.32  0. 1.0000     0. 
   4  -3 -15      0.12    3.67  0. 1.0000     0. 
  -4  -3  15      8.48    8.21  0. 1.0000     0. 
  -4  -3  15      7.05    8.41  0. 1.0000     0. 
  -4   3  15     -2.16    9.84  0. 1.0000     0. 
  -4   3  15      3.18    4.27  0. 1.0000     0. 
   4   3 -15     -2.55    9.41  0. 1.0000     0. 
   4   3 -15     -7.43    5.11  0. 1.0000     0. 
  -3  -3  15     32.27    8.13  0. 1.0000     0. 
  -3  -3  15     36.25    8.88  0. 1.0000     0. 
   3  -3 -15     53.93    8.03  0. 1.0000     0. 
   3  -3 -15     49.82    4.32  0. 1.0000     0. 
  -3   3  15     36.53   13.21  0. 1.0000     0. 
  -3   3  15     43.98    4.74  0. 1.0000     0. 
   3   3 -15     33.75    9.25  0. 1.0000     0. 
   3   3 -15     43.20    5.34  0. 1.0000     0. 
   2  -3 -15      0.46    3.64  0. 1.0000     0. 
  -2  -3  15      2.09    6.79  0. 1.0000     0. 
  -2  -3  15      3.66    7.52  0. 1.0000     0. 
   2  -3 -15      2.18    7.29  0. 1.0000     0. 
  -2   3  15      8.51   10.08  0. 1.0000     0. 
   2   3 -15      0.16    4.64  0. 1.0000     0. 
   2   3 -15      5.13    8.37  0. 1.0000     0. 
  -2   3  15     -0.58    3.62  0. 1.0000     0. 
   1  -3 -15     81.04    9.72  0. 1.0000     0. 
  -1  -3  15     53.73    8.40  0. 1.0000     0. 
  -1  -3  15     62.79    9.70  0. 1.0000     0. 
   1  -3 -15     78.63    4.60  0. 1.0000     0. 
  -1   3  15     43.36   12.05  0. 1.0000     0. 
  -1   3  15     75.86    4.55  0. 1.0000     0. 
   1   3 -15     78.40    6.03  0. 1.0000     0. 
   1   3 -15     58.18   11.37  0. 1.0000     0. 
   0  -3  15      8.06    7.09  0. 1.0000     0. 
   0  -3  15      5.68    6.89  0. 1.0000     0. 
   0  -3 -15     23.48    9.63  0. 1.0000     0. 
   0  -3 -15     17.93    4.33  0. 1.0000     0. 
   0   3 -15      2.96    5.48  0. 1.0000     0. 
   0   3 -15      8.38    9.43  0. 1.0000     0. 
   0   3  15     17.81    3.58  0. 1.0000     0. 
   0   3  15      8.54   11.23  0. 1.0000     0. 
   1  -3  15      8.14    7.53  0. 1.0000     0. 
  -1  -3 -15      2.04    3.58  0. 1.0000     0. 
  -1  -3 -15      0.99   10.20  0. 1.0000     0. 
   1  -3  15      2.53    7.32  0. 1.0000     0. 
  -1   3 -15      3.53    8.83  0. 1.0000     0. 
  -1   3 -15      1.46    5.95  0. 1.0000     0. 
   1   3  15      8.26    3.42  0. 1.0000     0. 
   2  -3  15     50.34    9.39  0. 1.0000     0. 
  -2   3 -15     79.35    8.18  0. 1.0000     0. 
   6   2 -16     56.37    9.98  0. 1.0000     0. 
   5  -2 -16      3.46    5.34  0. 1.0000     0. 
  -5  -2  16      2.27    7.30  0. 1.0000     0. 
  -5   2  16      3.63    4.26  0. 1.0000     0. 
  -5   2  16      5.58    8.00  0. 1.0000     0. 
   5   2 -16      4.66    7.96  0. 1.0000     0. 
  -4  -2  16      6.09    8.04  0. 1.0000     0. 
   4  -2 -16      1.21    5.33  0. 1.0000     0. 
   4  -2 -16      3.01    3.56  0. 1.0000     0. 
  -4   2  16      7.13    3.96  0. 1.0000     0. 
  -4   2  16     12.99   10.10  0. 1.0000     0. 
   4   2 -16      3.15    7.78  0. 1.0000     0. 
   4   2 -16      7.64    5.02  0. 1.0000     0. 
  -3  -2  16    680.14   30.54  0. 1.0000     0. 
  -3  -2  16    688.18   21.53  0. 1.0000     0. 
   3  -2 -16    727.22   34.41  0. 1.0000     0. 
   3  -2 -16    711.46   22.78  0. 1.0000     0. 
  -3   2  16    740.41   41.82  0. 1.0000     0. 
   3   2 -16    706.47   15.75  0. 1.0000     0. 
   3   2 -16    662.84   25.54  0. 1.0000     0. 
  -3   2  16    712.33   21.22  0. 1.0000     0. 
  -2  -2  16      4.70    6.87  0. 1.0000     0. 
  -2  -2  16     -0.24    6.75  0. 1.0000     0. 
   2  -2 -16      3.01    3.17  0. 1.0000     0. 
   2  -2 -16      1.94    6.82  0. 1.0000     0. 
  -2   2  16      8.22    9.07  0. 1.0000     0. 
  -2   2  16     -1.34    3.23  0. 1.0000     0. 
   2   2 -16     -4.75    4.97  0. 1.0000     0. 
   2   2 -16      1.64    7.90  0. 1.0000     0. 
  -1  -2  16     27.94    7.81  0. 1.0000     0. 
   1  -2 -16     19.94    7.30  0. 1.0000     0. 
  -1  -2  16     22.85    6.39  0. 1.0000     0. 
   1  -2 -16     19.02    3.64  0. 1.0000     0. 
  -1   2  16     18.01   10.99  0. 1.0000     0. 
   1   2 -16     28.10    8.41  0. 1.0000     0. 
   1   2 -16     28.84    5.32  0. 1.0000     0. 
  -1   2  16     21.14    3.37  0. 1.0000     0. 
   0  -2  16    354.00   19.84  0. 1.0000     0. 
   0  -2  16    334.08   12.92  0. 1.0000     0. 
   0  -2 -16    361.57   12.52  0. 1.0000     0. 
   0  -2 -16    355.35   24.24  0. 1.0000     0. 
   0   2 -16    332.13   20.85  0. 1.0000     0. 
   0   2  16    344.38   10.76  0. 1.0000     0. 
   0   2 -16    342.25   10.10  0. 1.0000     0. 
  -2   2 -16      8.85    5.97  0. 1.0000     0. 
   6  -3 -16     83.62    8.24  0. 1.0000     0. 
   6   3 -16     68.70   11.77  0. 1.0000     0. 
  -6   3  16     62.02   11.71  0. 1.0000     0. 
   5  -3 -16     21.25    4.82  0. 1.0000     0. 
   5  -3 -16     25.98    7.19  0. 1.0000     0. 
  -5  -3  16     23.82    9.64  0. 1.0000     0. 
   5   3 -16     27.93   10.37  0. 1.0000     0. 
  -5   3  16     29.30   10.98  0. 1.0000     0. 
   5   3 -16     26.99    5.48  0. 1.0000     0. 
  -5   3  16     24.17    4.99  0. 1.0000     0. 
   4  -3 -16     95.47   10.21  0. 1.0000     0. 
  -4  -3  16     99.76   11.36  0. 1.0000     0. 
   4  -3 -16     99.86    5.85  0. 1.0000     0. 
  -4  -3  16     96.04   11.61  0. 1.0000     0. 
   4   3 -16     92.20    6.75  0. 1.0000     0. 
  -4   3  16     95.24    6.38  0. 1.0000     0. 
   4   3 -16    102.14   12.43  0. 1.0000     0. 
  -4   3  16    104.09   14.80  0. 1.0000     0. 
  -3  -3  16      4.55    7.46  0. 1.0000     0. 
   3  -3 -16      2.45    6.52  0. 1.0000     0. 
   3  -3 -16      0.92    3.63  0. 1.0000     0. 
  -3  -3  16      7.54    8.33  0. 1.0000     0. 
   3   3 -16     -1.21    8.96  0. 1.0000     0. 
  -3   3  16      8.39   11.85  0. 1.0000     0. 
  -3   3  16      1.33    4.25  0. 1.0000     0. 
   3   3 -16      6.58    5.10  0. 1.0000     0. 
  -2  -3  16    156.53   13.38  0. 1.0000     0. 
   2  -3 -16    172.73    7.21  0. 1.0000     0. 
  -2  -3  16    163.24   10.05  0. 1.0000     0. 
   2  -3 -16    158.86   13.54  0. 1.0000     0. 
   2   3 -16    166.62    7.19  0. 1.0000     0. 
   2   3 -16    159.15   14.15  0. 1.0000     0. 
  -2   3  16    150.00   17.41  0. 1.0000     0. 
  -2   3  16    163.10    7.33  0. 1.0000     0. 
  -1  -3  16     85.98    8.40  0. 1.0000     0. 
   1  -3 -16     72.62    5.17  0. 1.0000     0. 
   1  -3 -16     53.45    9.98  0. 1.0000     0. 
  -1  -3  16     81.88    9.63  0. 1.0000     0. 
   1   3 -16     71.47    6.21  0. 1.0000     0. 
   1   3 -16     70.76   10.88  0. 1.0000     0. 
  -1   3  16     48.16   14.21  0. 1.0000     0. 
  -1   3  16     59.70    4.57  0. 1.0000     0. 
   0  -3 -16      9.34    4.00  0. 1.0000     0. 
   0  -3 -16     15.30    8.62  0. 1.0000     0. 
   0  -3  16     11.74    7.43  0. 1.0000     0. 
   0  -3  16     16.31    7.90  0. 1.0000     0. 
   0   3  16     14.53    3.61  0. 1.0000     0. 
   0   3 -16     15.88   11.27  0. 1.0000     0. 
   0   3 -16     10.27    5.90  0. 1.0000     0. 
   0   3  16      8.16   12.23  0. 1.0000     0. 
  -1  -3 -16     62.21    5.06  0. 1.0000     0. 
  -1  -3 -16     55.94   12.84  0. 1.0000     0. 
   1  -3  16     66.69    9.29  0. 1.0000     0. 
   1   3  16     60.88    4.63  0. 1.0000     0. 
  -1   3 -16     97.62    7.43  0. 1.0000     0. 
   2  -3  16     -3.57    7.48  0. 1.0000     0. 
  -2   3 -16     11.77    6.77  0. 1.0000     0. 
  -7   2  17     -1.86    8.36  0. 1.0000     0. 
   6  -2 -17     20.97    6.61  0. 1.0000     0. 
  -6   2  17      5.38    9.85  0. 1.0000     0. 
   6   2 -17      7.16    8.41  0. 1.0000     0. 
   5  -2 -17     96.39    9.51  0. 1.0000     0. 
  -5   2  17     94.17    6.48  0. 1.0000     0. 
   3   2 -17    118.26   11.39  0. 1.0000     0. 
   0  -2  17    467.00   23.39  0. 1.0000     0. 
   0  -2 -17    430.20   29.02  0. 1.0000     0. 
   0  -2 -17    437.41   16.31  0. 1.0000     0. 
   0  -2  17    452.20   12.25  0. 1.0000     0. 
   0   2  17    468.45   12.71  0. 1.0000     0. 
   0   2 -17    462.30   11.59  0. 1.0000     0. 
   0   2 -17    451.21   23.17  0. 1.0000     0. 
  -1  -2 -17     64.20   13.57  0. 1.0000     0. 
   1  -2  17     74.39    8.44  0. 1.0000     0. 
   1   2  17     73.38    4.61  0. 1.0000     0. 
  -1   2 -17     86.67    7.08  0. 1.0000     0. 
   5  -3 -17     33.76    7.67  0. 1.0000     0. 
  -5  -3  17     22.40    8.95  0. 1.0000     0. 
  -5   3  17     20.77    5.00  0. 1.0000     0. 
   5   3 -17     18.87   10.26  0. 1.0000     0. 
   5   3 -17     17.77    5.33  0. 1.0000     0. 
  -5   3  17     17.06   11.06  0. 1.0000     0. 
  -4  -3  17     54.08   10.32  0. 1.0000     0. 
   4  -3 -17     65.49    8.61  0. 1.0000     0. 
   4  -3 -17     59.53    5.12  0. 1.0000     0. 
  -4  -3  17     52.19    9.68  0. 1.0000     0. 
  -4   3  17     51.85   14.45  0. 1.0000     0. 
  -4   3  17     60.42    5.64  0. 1.0000     0. 
   4   3 -17     53.23   10.43  0. 1.0000     0. 
   4   3 -17     57.54    6.18  0. 1.0000     0. 
  -3  -3  17     -0.28    8.14  0. 1.0000     0. 
  -3  -3  17      0.99    7.53  0. 1.0000     0. 
   3  -3 -17      6.94    3.69  0. 1.0000     0. 
   3  -3 -17     -3.66    6.59  0. 1.0000     0. 
  -3   3  17      9.57    4.51  0. 1.0000     0. 
  -3   3  17      6.42   10.80  0. 1.0000     0. 
   3   3 -17     -6.63    9.52  0. 1.0000     0. 
   3   3 -17      1.93    4.68  0. 1.0000     0. 
  -2  -3  17     48.56    9.28  0. 1.0000     0. 
   2  -3 -17     51.49    4.66  0. 1.0000     0. 
  -2  -3  17     50.81    8.26  0. 1.0000     0. 
   2  -3 -17     47.25    9.18  0. 1.0000     0. 
   2   3 -17     55.83   10.50  0. 1.0000     0. 
   2   3 -17     54.71    5.68  0. 1.0000     0. 
  -2   3  17     40.37   13.27  0. 1.0000     0. 
  -2   3  17     45.84    4.78  0. 1.0000     0. 
   1  -3 -17     51.00    4.83  0. 1.0000     0. 
  -1  -3  17     47.33   10.30  0. 1.0000     0. 
  -1  -3  17     52.57    8.09  0. 1.0000     0. 
   1  -3 -17     34.87    9.21  0. 1.0000     0. 
   1   3 -17     53.64   10.63  0. 1.0000     0. 
  -1   3  17     37.62    4.24  0. 1.0000     0. 
   1   3 -17     49.59    6.16  0. 1.0000     0. 
  -1   3  17     27.01   13.02  0. 1.0000     0. 
   0  -3  17     14.69    6.77  0. 1.0000     0. 
   0  -3  17     14.03    8.61  0. 1.0000     0. 
   0  -3 -17     15.04    8.63  0. 1.0000     0. 
   0   3  17      7.67    3.73  0. 1.0000     0. 
   0   3 -17      6.52   10.59  0. 1.0000     0. 
   0   3 -17     14.04    6.05  0. 1.0000     0. 
   1  -3  17     13.68    7.98  0. 1.0000     0. 
  -1  -3 -17     20.58   10.69  0. 1.0000     0. 
   1   3  17     13.95    3.90  0. 1.0000     0. 
  -1   3 -17     15.15    6.79  0. 1.0000     0. 
  -7   2  18      6.71    9.04  0. 1.0000     0. 
   6  -2 -18     88.48    9.04  0. 1.0000     0. 
  -6   2  18     71.51   11.81  0. 1.0000     0. 
   5  -2 -18      2.74    4.26  0. 1.0000     0. 
   5  -2 -18      5.65    6.24  0. 1.0000     0. 
  -5   2  18     -2.77    4.71  0. 1.0000     0. 
  -5   2  18      4.49   10.35  0. 1.0000     0. 
   4  -2 -18      5.30    3.95  0. 1.0000     0. 
   4  -2 -18      0.65    5.97  0. 1.0000     0. 
  -4   2  18     -4.01   10.72  0. 1.0000     0. 
  -4   2  18      4.33    4.17  0. 1.0000     0. 
   3  -2 -18      8.97    3.51  0. 1.0000     0. 
   3  -2 -18      4.30    6.27  0. 1.0000     0. 
  -3   2  18      9.89    4.13  0. 1.0000     0. 
  -3   2  18      2.42    9.90  0. 1.0000     0. 
   2  -2 -18      0.21    7.13  0. 1.0000     0. 
   2  -2 -18      6.78    3.64  0. 1.0000     0. 
   2   2 -18      1.41    9.33  0. 1.0000     0. 
  -2   2  18      0.45   10.78  0. 1.0000     0. 
  -2   2  18      2.57    3.65  0. 1.0000     0. 
   1  -2 -18     15.89    4.19  0. 1.0000     0. 
   1  -2 -18      6.22    7.43  0. 1.0000     0. 
   1   2 -18     11.94    9.78  0. 1.0000     0. 
  -1   2  18     12.47    3.35  0. 1.0000     0. 
  -1   2  18     10.88   11.22  0. 1.0000     0. 
   0  -2 -18     58.09   11.06  0. 1.0000     0. 
   0  -2 -18     44.54    4.49  0. 1.0000     0. 
   0   2  18     46.98    4.20  0. 1.0000     0. 
  -1  -2 -18      3.82   10.62  0. 1.0000     0. 
   1   2  18      4.74    3.21  0. 1.0000     0. 
  -5  -3  18     -0.36    8.31  0. 1.0000     0. 
   5   3 -18     -3.13    5.40  0. 1.0000     0. 
   4  -3 -18     37.23    7.53  0. 1.0000     0. 
  -4  -3  18     25.07   10.00  0. 1.0000     0. 
  -4   3  18     29.87    5.16  0. 1.0000     0. 
   4   3 -18     32.80    6.09  0. 1.0000     0. 
  -3  -3  18     20.56    7.53  0. 1.0000     0. 
  -3  -3  18      1.96    6.92  0. 1.0000     0. 
   3  -3 -18     19.29    7.45  0. 1.0000     0. 
  -3   3  18     20.61    4.81  0. 1.0000     0. 
   3   3 -18     20.26    5.32  0. 1.0000     0. 
   2  -3 -18      9.70    7.93  0. 1.0000     0. 
  -2  -3  18     16.08    8.15  0. 1.0000     0. 
  -2   3  18     17.08    4.22  0. 1.0000     0. 
   2   3 -18      9.28    5.51  0. 1.0000     0. 
  -1  -3  18      7.65    7.29  0. 1.0000     0. 
   1  -3 -18     13.20    8.66  0. 1.0000     0. 
  -1   3  18     13.39    3.99  0. 1.0000     0. 
   1   3 -18     17.18    5.76  0. 1.0000     0. 
-512 
#   2341 reflections output 
;
loop_
_symmetry_equiv_pos_as_xyz
x,y,z
-x,-y,-z
-x,y+1/2,-z+1/2
x,-y+1/2,z+1/2
loop_
_atom_site_label
_atom_site_type_symbol
_atom_site_fract_x
_atom_site_fract_y
_atom_site_fract_z
_atom_site_U_iso_or_equiv
_atom_site_occupancy
_atom_site_adp_type
_atom_site_refinement_flags_posn
_atom_site_refinement_flags_adp
_atom_site_refinement_flags_occupancy
_atom_site_disorder_assembly
_atom_site_disorder_group
_atom_site_attached_hydrogens
S1 S 0.4440(4) 0.2938(4) 0.33853(10) 0.0364 1.0000 Uani D U . . . .
N2 N 0.3158(7) 0.1808(10) 0.2394(3) 0.0346 1.0000 Uani D U . . . .
S3 S 0.1440(3) 0.0637(3) 0.24844(7) 0.0310 1.0000 Uani D U . . . .
C4 C 0.1758(7) 0.1202(10) 0.3709(3) 0.0280 1.0000 Uani D U . . . .
C5 C 0.3272(7) 0.2441(11) 0.4154(3) 0.0291 1.0000 Uani D U . . . .
N6 N 0.3531(7) 0.2986(10) 0.5089(2) 0.0308 1.0000 Uani D U . . . .
S7 S 0.1936(3) 0.1844(3) 0.53742(8) 0.0287 1.0000 Uani D U . . . .
N8 N 0.0871(7) 0.0745(10) 0.4293(2) 0.0297 1.0000 Uani D U . . . .
loop_
_atom_site_aniso_label
_atom_site_aniso_U_11
_atom_site_aniso_U_22
_atom_site_aniso_U_33
_atom_site_aniso_U_23
_atom_site_aniso_U_13
_atom_site_aniso_U_12
S1 0.047(4) 0.0455(6) 0.0231(7) 0.0094(4) 0.0202(14) 0.0076(9)
N2 0.052(4) 0.0387(17) 0.0196(16) 0.0055(12) 0.021(2) 0.007(3)
S3 0.048(4) 0.0328(5) 0.0155(6) 0.0021(3) 0.0149(12) 0.0057(7)
C4 0.046(5) 0.0243(14) 0.0176(15) 0.0014(11) 0.016(2) -0.000(3)
C5 0.043(5) 0.0290(16) 0.0197(17) 0.0027(11) 0.016(2) 0.003(3)
N6 0.044(5) 0.0321(15) 0.0203(17) 0.0009(11) 0.016(3) -0.002(2)
S7 0.042(4) 0.0304(5) 0.0167(6) -0.0005(3) 0.0137(14) -0.0013(6)
N8 0.043(5) 0.0324(14) 0.0178(14) -0.0002(11) 0.015(2) 0.000(2)
loop_
_atom_type_symbol
_atom_type_scat_dispersion_real
_atom_type_scat_dispersion_imag
_atom_type_scat_Cromer_Mann_a1
_atom_type_scat_Cromer_Mann_b1
_atom_type_scat_Cromer_Mann_a2
_atom_type_scat_Cromer_Mann_b2
_atom_type_scat_Cromer_Mann_a3
_atom_type_scat_Cromer_Mann_b3
_atom_type_scat_Cromer_Mann_a4
_atom_type_scat_Cromer_Mann_b4
_atom_type_scat_Cromer_Mann_c
_atom_type_scat_source
C 0.0006 0.0007 2.3100 20.8439 1.0200 10.2075 1.5886 0.5687 0.8650 51.6512
0.2156 'International Tables Vol C 4.2.6.8 and 6.1.1.4'
N 0.0016 0.0014 12.2126 0.0057 3.1322 9.8933 2.0125 28.9975 1.1663 0.5826
-11.5290 'International Tables Vol C 4.2.6.8 and 6.1.1.4'
S 0.0630 0.0572 6.9053 1.4679 5.2034 22.2151 1.4379 0.2536 1.5863 56.1720
0.8669 'International Tables Vol C 4.2.6.8 and 6.1.1.4'
loop_
_geom_angle_atom_site_label_1
_geom_angle_site_symmetry_1
_geom_angle_atom_site_label_2
_geom_angle_site_symmetry_2
_geom_angle_atom_site_label_3
_geom_angle_site_symmetry_3
_geom_angle
_geom_angle_publ_flag
N2 . S1 . C5 . 97.3(3) yes
S1 . N2 . S3 . 117.4(3) yes
N2 . S3 . C4 . 98.0(3) yes
S3 . C4 . C5 . 112.7(3) yes
S3 . C4 . N8 . 132.4(4) yes
C5 . C4 . N8 . 114.8(4) yes
C4 . C5 . S1 . 114.5(3) yes
C4 . C5 . N6 . 113.8(4) yes
S1 . C5 . N6 . 131.7(4) yes
C5 . N6 . S7 . 106.5(4) yes
N6 . S7 . N8 . 98.8(3) yes
S7 . N8 . C4 . 106.0(4) yes
loop_
_geom_bond_atom_site_label_1
_geom_bond_site_symmetry_1
_geom_bond_atom_site_label_2
_geom_bond_site_symmetry_2
_geom_bond_distance
_geom_bond_publ_flag
S1 . N2 . 1.648(6) yes
S1 . C5 . 1.730(5) yes
N2 . S3 . 1.644(7) yes
S3 . C4 . 1.735(4) yes
C4 . C5 . 1.423(7) yes
C4 . N8 . 1.317(6) yes
C5 . N6 . 1.328(4) yes
N6 . S7 . 1.647(6) yes
S7 . N8 . 1.661(5) yes
loop_
_oxford_refln_omitted_index_h
_oxford_refln_omitted_index_k
_oxford_refln_omitted_index_l
_oxford_refln_omitted_flag
_oxford_refln_omitted_details
0 0 10 x .
-5 1 10 x .
3 3 6 x .
-6 3 10 x .
-6 2 14 x .
-7 2 18 x .
-6 4 9 x .
-6 2 12 x .
2 1 11 x .
1 0 10 x .
0 0 4 x .
-2 1 1 x .
-1 0 4 x .
-3 0 10 x .
-2 2 7 x .
-4 1 7 x .
2 2 11 x .
2 1 10 x .
2 2 9 x .
0 3 6 x .
-5 2 17 x .
-1 2 8 x .
-6 2 18 x .
-4 3 18 x .
-3 1 15 x .
-5 2 8 x .
0 0 6 x .
