#------------------------------------------------------------------------------
#$Date: 2021-07-05 20:10:48 +0300 (Mon, 05 Jul 2021) $
#$Revision: 267123 $
#$URL: file:///home/coder/svn-repositories/cod/cif/7/24/28/7242883.cif $
#------------------------------------------------------------------------------
#
# This file is available in the Crystallography Open Database (COD),
# http://www.crystallography.net/
#
# All data on this site have been placed in the public domain by the
# contributors.
#
data_7242883
loop_
_publ_author_name
'Richardson, Jonathan G.'
'Mizuno, Asato'
'Shuku, Yoshiaki'
'Awaga, Kunio'
'Robertson, Neil'
'Morrison, Carole A.'
'Warren, Mark R.'
'Allan, David R.'
'Moggach, Stephen A.'
_publ_section_title
;
 Evaluating the high-pressure structural response and crystal lattice
 interactions of the magnetically-bistable organic radical TTTA
;
_journal_issue                   25
_journal_name_full               CrystEngComm
_journal_page_first              4444
_journal_page_last               4450
_journal_paper_doi               10.1039/D1CE00577D
_journal_volume                  23
_journal_year                    2021
_chemical_formula_moiety         'C2 N3 S3'
_chemical_formula_sum            'C2 N3 S3'
_chemical_formula_weight         162.24
_space_group_IT_number           14
_space_group_name_Hall           '-P 2ybc'
_space_group_name_H-M_alt        'P 1 21/c 1'
_symmetry_cell_setting           monoclinic
_symmetry_space_group_name_Hall  '-P 2ybc'
_symmetry_space_group_name_H-M   'P 1 21/c 1'
_atom_sites_solution_hydrogens   difmap
_atom_sites_solution_primary     direct
_audit_creation_date             2021-04-22
_audit_creation_method           CRYSTALS_ver_14.61_build_6999
_audit_update_record
;
2021-04-27 deposited with the CCDC.	2021-05-18 downloaded from the CCDC.
;
_cell_angle_alpha                90
_cell_angle_beta                 104.63(11)
_cell_angle_gamma                90
_cell_formula_units_Z            4
_cell_length_a                   9.07(2)
_cell_length_b                   3.2680(7)
_cell_length_c                   14.418(6)
_cell_measurement_reflns_used    885
_cell_measurement_temperature    293
_cell_measurement_theta_max      21
_cell_measurement_theta_min      4
_cell_volume                     413.5(10)
_computing_cell_refinement       'USER DEFINED CELL REFINEMENT'
_computing_data_collection       'USER DEFINED DATA COLLECTION'
_computing_data_reduction
; 
 CrysAlisPro (Rigaku Oxford Diffraction, 2017) 
;
_computing_molecular_graphics    'CAMERON (Watkin et al., 1996)'
_computing_publication_material  'CRYSTALS (Betteridge et al., 2003)'
_computing_structure_refinement  'CRYSTALS (Betteridge et al., 2003)'
_computing_structure_solution    'SHELXS 86 (Sheldrick, 1986)'
_diffrn_ambient_pressure         4560000
_diffrn_ambient_temperature      293
_diffrn_measured_fraction_theta_full 0.299
_diffrn_measured_fraction_theta_max 0.251
_diffrn_measurement_device       Area
_diffrn_measurement_device_type  Synchrotron
_diffrn_measurement_method       \w
_diffrn_radiation_monochromator  'focussing mirrors'
_diffrn_radiation_type           synchrotron
_diffrn_radiation_wavelength     0.48590
_diffrn_reflns_av_R_equivalents  0.032
_diffrn_reflns_av_unetI/netI     0.045
_diffrn_reflns_limit_h_max       6
_diffrn_reflns_limit_h_min       -7
_diffrn_reflns_limit_k_max       5
_diffrn_reflns_limit_k_min       -5
_diffrn_reflns_limit_l_max       18
_diffrn_reflns_limit_l_min       -18
_diffrn_reflns_number            2149
_diffrn_reflns_theta_full        17.169
_diffrn_reflns_theta_max         22.892
_diffrn_reflns_theta_min         3.908
_diffrn_standards_number         0
_exptl_absorpt_coefficient_mu    0.547
_exptl_absorpt_correction_T_max  0.95
_exptl_absorpt_correction_T_min  0.78
_exptl_absorpt_correction_type   multi-scan
_exptl_absorpt_process_details   'DENZO/SCALEPACK (Otwinowski & Minor, 1997)'
_exptl_crystal_colour            black
_exptl_crystal_density_diffrn    2.607
_exptl_crystal_density_meas      ?
_exptl_crystal_density_method    'not measured'
_exptl_crystal_description       block
_exptl_crystal_F_000             324
_exptl_crystal_size_max          0.120
_exptl_crystal_size_mid          0.100
_exptl_crystal_size_min          0.100
_refine_diff_density_max         0.58
_refine_diff_density_min         -0.52
_refine_ls_extinction_method     None
_refine_ls_goodness_of_fit_ref   1.0051
_refine_ls_hydrogen_treatment    noref
_refine_ls_matrix_type           full
_refine_ls_number_parameters     73
_refine_ls_number_reflns         443
_refine_ls_number_restraints     104
_refine_ls_R_factor_all          0.0768
_refine_ls_R_factor_gt           0.0593
_refine_ls_shift/su_max          0.0002389
_refine_ls_shift/su_mean         0.0000123
_refine_ls_structure_factor_coef Fsqd
_refine_ls_weighting_details
;
 Method= Modified Sheldrick 
 w=1/[\s^2^(F^2^) + ( 0.12P)^2^ + 0.90P] 
 ,where P=(max(Fo^2^,0) + 2Fc^2^)/3 
;
_refine_ls_weighting_scheme      calc
_refine_ls_wR_factor_all         0.1853
_refine_ls_wR_factor_gt          0.1598
_refine_ls_wR_factor_ref         0.1725
_reflns_limit_h_max              4
_reflns_limit_h_min              -7
_reflns_limit_k_max              5
_reflns_limit_k_min              0
_reflns_limit_l_max              18
_reflns_limit_l_min              0
_reflns_number_gt                337
_reflns_number_total             446
_reflns_threshold_expression     I>2.0\s(I)
_oxford_diffrn_Wilson_B_factor   0.00
_oxford_diffrn_Wilson_scale      0.00
_oxford_refine_ls_r_factor_ref   0.0736
_oxford_refine_ls_scale          0.797(11)
_oxford_reflns_number_all        446
_iucr_refine_instructions_details
;
#
# Punched on 22/04/21 at 21:40:38
#
#LIST     12                                                                    
BLOCK SCALE X'S  U'S 
END                                                                             
#
# Punched on 22/04/21 at 21:40:38
#
#LIST     16                                                                    
DIST   1.659,.01= S(1) TO N(2) 
DIST   1.734,.01= S(1) TO C(5) 
DIST   1.656,.01= N(2) TO S(3) 
DIST   1.735,.01= S(3) TO C(4) 
DIST   1.430,.01= C(4) TO C(5) 
DIST   1.313,.01= C(4) TO N(8) 
DIST   1.318,.01= C(5) TO N(6) 
DIST   1.645,.01= N(6) TO S(7) 
DIST   1.646,.01= S(7) TO N(8) 
ANGL  98,1= C(5) TO S(1) TO N(2) 
ANGL 117,1= S(3) TO N(2) TO S(1) 
ANGL  98,1= C(4) TO S(3) TO N(2) 
ANGL 114,1= C(5) TO C(4) TO S(3) 
ANGL 132,1= N(8) TO C(4) TO S(3) 
ANGL 114,1= N(8) TO C(4) TO C(5) 
ANGL 114,1= C(4) TO C(5) TO S(1) 
ANGL 132,1= N(6) TO C(5) TO S(1) 
ANGL 114,1= N(6) TO C(5) TO C(4) 
ANGL 106,1= S(7) TO N(6) TO C(5) 
ANGL  99,1= N(8) TO S(7) TO N(6) 
ANGL 106,1= S(7) TO N(8) TO C(4) 
REM   HREST   START (DO NOT REMOVE THIS LINE) 
REM   HREST   END (DO NOT REMOVE THIS LINE) 
PLANAR 0.01 N(2) S(1) S(3) C(4) C(5) N(6) S(7) N(8) 
REM   DELU   START (DO NOT REMOVE THIS LINE) 
VIBR .0, 0.00200 = S(1) TO N(2) 
VIBR .0, 0.00200 = S(1) TO C(5) 
VIBR .0, 0.00500 = C(5) TO N(2) 
VIBR .0, 0.00200 = N(2) TO S(3) 
VIBR .0, 0.00500 = S(3) TO S(1) 
VIBR .0, 0.00200 = S(3) TO C(4) 
VIBR .0, 0.00500 = C(4) TO N(2) 
VIBR .0, 0.00200 = C(4) TO C(5) 
VIBR .0, 0.00200 = C(4) TO N(8) 
VIBR .0, 0.00500 = C(5) TO S(3) 
VIBR .0, 0.00500 = N(8) TO S(3) 
VIBR .0, 0.00500 = N(8) TO C(5) 
VIBR .0, 0.00200 = C(5) TO N(6) 
VIBR .0, 0.00500 = S(1) TO C(4) 
VIBR .0, 0.00500 = N(6) TO C(4) 
VIBR .0, 0.00500 = N(6) TO S(1) 
VIBR .0, 0.00200 = N(6) TO S(7) 
VIBR .0, 0.00500 = S(7) TO C(5) 
VIBR .0, 0.00200 = S(7) TO N(8) 
VIBR .0, 0.00500 = N(8) TO N(6) 
VIBR .0, 0.00500 = S(7) TO C(4) 
REM   DELU   END (DO NOT REMOVE THIS LINE) 
REM   THERMSIM   START (DO NOT REMOVE THIS LINE) 
U(IJ) .0, 0.04000 = S(1) TO N(2) 
U(IJ) .0, 0.04000 = S(1) TO C(5) 
U(IJ) .0, 0.04000 = N(2) TO S(3) 
U(IJ) .0, 0.04000 = S(3) TO C(4) 
U(IJ) .0, 0.04000 = C(4) TO C(5) 
U(IJ) .0, 0.04000 = C(4) TO N(8) 
U(IJ) .0, 0.04000 = C(5) TO N(6) 
U(IJ) .0, 0.04000 = N(6) TO S(7) 
U(IJ) .0, 0.04000 = S(7) TO N(8) 
REM   THERMSIM   END (DO NOT REMOVE THIS LINE) 
END                                                                             
;
_cod_data_source_file            d1ce00577d2.cif
_cod_data_source_block           456GPa
_cod_depositor_comments
;
The following automatic conversions were performed:

data item '_exptl_crystal_density_meas' value 'not measured' was
changed to '?' -- the value is perceived as not measured.

Automatic conversion script
Id: cif_fix_values 7556 2019-12-06 15:28:31Z antanas 

 Adding full bibliography for 7242874--7242883.cif.
;
_cod_original_cell_volume        413.3(10)
_cod_original_sg_symbol_H-M      'P 1 21/c 1 '
_cod_database_code               7242883
_oxford_refine_reflns_threshold_expression_ref I>-3.0\s(I)
_iucr_refine_reflections_details
; 
 
# Data was input as F-squared 
# punching LIST  6 as LIST  6 with all keys set 
# NBGNXT=    36 
#LIST   6 
READ NCOEF= 8 TYPE=FIX, F'S = FSQ UNIT=DATA, CHECK=NO L30=NO ARCH=NO 
STORE  NCOEF= 6 
OUTPUT INDICES     /FO/        SIGMA(/FO/) RATIO/JCODE CORRECTIONS SERIAL 
CONT 
INPUT  H           K           L           /FO/        SIGMA(/FO/) JCODE 
CONT   CORRECTIONS SERIAL 
FOR (I4,I4,I4,F10.2,F8.2,F4.0,F7.4,F7.0) 
END 
   0  -1   0      0.64    1.12  0. 1.0000     0. 
   0   1   0      0.72    0.90  0. 1.0000     0. 
   0   1   0      0.37    0.85  0. 1.0000     0. 
   0   1   0      1.46    1.30  0. 1.0000     0. 
   0   1   0     -1.24    1.23  0. 1.0000     0. 
   1  -1   0   9311.06  300.17  0. 1.0000     0. 
   1  -1   0   9354.57  205.55  0. 1.0000     0. 
  -1  -1   0   9651.42  260.74  0. 1.0000     0. 
  -1  -1   0   9392.61  209.77  0. 1.0000     0. 
  -1   1   0   9311.60  258.85  0. 1.0000     0. 
   1   1   0   9999.99  207.52  0. 1.0000     0. 
  -1   1   0   9045.23  211.80  0. 1.0000     0. 
  -1   1   0   9427.12  211.73  0. 1.0000     0. 
   1   1   0   9540.45  210.00  0. 1.0000     0. 
  -1   1   0   9552.94  211.02  0. 1.0000     0. 
   2  -2   0     21.78    2.85  0. 1.0000     0. 
   2  -2   0     15.68    4.82  0. 1.0000     0. 
  -2   2   0     19.78    3.32  0. 1.0000     0. 
  -2   2   0     15.85    4.15  0. 1.0000     0. 
  -2   2   0     18.47    2.73  0. 1.0000     0. 
  -2   2   0     16.82    2.99  0. 1.0000     0. 
  -3   2   0     61.03    3.98  0. 1.0000     0. 
   0  -3   0     -6.90    4.82  0. 1.0000     0. 
   0  -3   0      1.14    6.00  0. 1.0000     0. 
   0  -3   0     -0.46    4.12  0. 1.0000     0. 
   0  -3   0      2.13    2.96  0. 1.0000     0. 
   0   3   0     -4.31    5.03  0. 1.0000     0. 
   0   3   0     -2.76    3.58  0. 1.0000     0. 
   0   3   0      3.19    3.10  0. 1.0000     0. 
   0   3   0     -4.04    6.35  0. 1.0000     0. 
   1  -3   0      1.20    6.57  0. 1.0000     0. 
   1  -3   0      2.29    3.74  0. 1.0000     0. 
  -1  -3   0      3.55    5.50  0. 1.0000     0. 
   1  -3   0     -1.17    4.43  0. 1.0000     0. 
  -1  -3   0      4.10    3.31  0. 1.0000     0. 
  -1  -3   0      1.44    4.66  0. 1.0000     0. 
   1  -3   0      2.89    2.96  0. 1.0000     0. 
   1   3   0      5.02    3.68  0. 1.0000     0. 
   1   3   0      2.19    7.36  0. 1.0000     0. 
  -1   3   0     -1.19    3.38  0. 1.0000     0. 
   1   3   0     -2.12    5.69  0. 1.0000     0. 
   1   3   0      0.72    3.52  0. 1.0000     0. 
  -1   3   0      2.70    3.65  0. 1.0000     0. 
  -1   3   0      2.97    5.28  0. 1.0000     0. 
  -1   3   0     -1.62    5.27  0. 1.0000     0. 
   2  -3   0    651.07   19.31  0. 1.0000     0. 
   2  -3   0    609.06   25.97  0. 1.0000     0. 
   2  -3   0    630.99   15.80  0. 1.0000     0. 
  -2  -3   0    656.67   16.54  0. 1.0000     0. 
  -2  -3   0    653.17   20.13  0. 1.0000     0. 
   2   3   0    655.30   17.15  0. 1.0000     0. 
   2   3   0    611.86   16.72  0. 1.0000     0. 
  -2   3   0    634.02   17.20  0. 1.0000     0. 
  -2   3   0    618.07   20.36  0. 1.0000     0. 
  -2   3   0    641.27   16.65  0. 1.0000     0. 
  -2   3   0    619.29   17.99  0. 1.0000     0. 
   3  -3   0      0.23    5.68  0. 1.0000     0. 
  -3   3   0      3.85    4.65  0. 1.0000     0. 
  -4   3   0     10.46    5.10  0. 1.0000     0. 
  -4   3   0      6.95    4.40  0. 1.0000     0. 
  -2   1   1   2207.91   61.68  0. 1.0000     0. 
  -1  -1   1     92.91    3.29  0. 1.0000     0. 
   1  -1  -1     91.90    2.99  0. 1.0000     0. 
  -1  -1   1     95.45    2.77  0. 1.0000     0. 
   1  -1  -1     93.26    4.38  0. 1.0000     0. 
   1   1  -1     91.22    3.43  0. 1.0000     0. 
  -1   1   1     93.15    2.95  0. 1.0000     0. 
   1   1  -1     90.44    2.89  0. 1.0000     0. 
  -1   1   1     91.69    3.35  0. 1.0000     0. 
  -1   1   1     90.77    2.96  0. 1.0000     0. 
  -1   1   1     91.67    3.24  0. 1.0000     0. 
   0  -1   1    468.78   13.19  0. 1.0000     0. 
   0  -1  -1    451.25   10.97  0. 1.0000     0. 
   0  -1   1    469.10   10.28  0. 1.0000     0. 
   0  -1  -1    451.07   12.72  0. 1.0000     0. 
   0   1   1    455.10   10.72  0. 1.0000     0. 
   0   1   1    446.49   13.59  0. 1.0000     0. 
   0   1   1    453.31   10.86  0. 1.0000     0. 
   0   1   1    441.17   10.70  0. 1.0000     0. 
   0   1  -1    455.67   10.58  0. 1.0000     0. 
   0   1  -1    451.92   11.00  0. 1.0000     0. 
   0   1  -1    439.62   13.03  0. 1.0000     0. 
   0   1  -1    463.60   11.04  0. 1.0000     0. 
  -1  -1  -1   3371.08   75.31  0. 1.0000     0. 
   1  -1   1   3268.12   73.07  0. 1.0000     0. 
   1  -1   1   3368.09  108.03  0. 1.0000     0. 
  -1   1  -1   3369.67   92.85  0. 1.0000     0. 
  -1   1  -1   3285.91   75.53  0. 1.0000     0. 
  -1   1  -1   3442.91   74.51  0. 1.0000     0. 
   1   1   1   3427.06   97.65  0. 1.0000     0. 
  -3   2   1    159.25    6.64  0. 1.0000     0. 
   2  -2  -1    119.80    8.53  0. 1.0000     0. 
  -2  -2   1    144.90    6.17  0. 1.0000     0. 
   2  -2  -1    133.93    4.83  0. 1.0000     0. 
  -2   2   1    137.70    5.39  0. 1.0000     0. 
  -2   2   1    139.83    5.51  0. 1.0000     0. 
  -2   2   1    136.63    5.16  0. 1.0000     0. 
   2   2  -1    135.17    6.12  0. 1.0000     0. 
  -2   2   1    139.10    6.37  0. 1.0000     0. 
   2   2  -1    138.65    4.60  0. 1.0000     0. 
   2  -2   1   1283.17   44.98  0. 1.0000     0. 
   2   2   1   1292.13   31.17  0. 1.0000     0. 
  -2   2  -1   1280.94   31.29  0. 1.0000     0. 
   2   2   1   1341.56   30.03  0. 1.0000     0. 
  -2   2  -1   1291.38   30.89  0. 1.0000     0. 
  -2   2  -1   1289.31   36.86  0. 1.0000     0. 
  -4   3   1     74.20    5.85  0. 1.0000     0. 
  -4   3   1     69.83    6.23  0. 1.0000     0. 
   3  -3  -1     22.33    4.33  0. 1.0000     0. 
   3   3  -1      7.33    3.88  0. 1.0000     0. 
  -3   3   1     16.74    4.46  0. 1.0000     0. 
  -3   3   1     21.83    4.53  0. 1.0000     0. 
   3   3  -1      8.86    6.53  0. 1.0000     0. 
   2  -3  -1     69.91    4.92  0. 1.0000     0. 
   2  -3  -1     60.34    5.43  0. 1.0000     0. 
   2  -3  -1     53.66    8.06  0. 1.0000     0. 
  -2   3   1     56.26    6.20  0. 1.0000     0. 
   2   3  -1     75.25    4.03  0. 1.0000     0. 
  -2   3   1     54.77    5.05  0. 1.0000     0. 
  -2   3   1     64.12    6.70  0. 1.0000     0. 
  -2   3   1     62.15    4.92  0. 1.0000     0. 
   1  -3  -1    239.31   12.72  0. 1.0000     0. 
  -1  -3   1    226.91    9.10  0. 1.0000     0. 
  -1  -3   1    224.85    8.99  0. 1.0000     0. 
  -1  -3   1    235.94    8.11  0. 1.0000     0. 
   1  -3  -1    238.44    8.33  0. 1.0000     0. 
   1  -3  -1    238.27    7.55  0. 1.0000     0. 
   1  -3  -1    240.90    7.54  0. 1.0000     0. 
   1   3  -1    219.24    8.15  0. 1.0000     0. 
  -1   3   1    233.00   10.35  0. 1.0000     0. 
   1   3  -1    229.79    8.00  0. 1.0000     0. 
  -1   3   1    231.11    7.57  0. 1.0000     0. 
  -1   3   1    240.85    7.88  0. 1.0000     0. 
  -1   3   1    236.31    8.67  0. 1.0000     0. 
   1   3  -1    234.23    9.49  0. 1.0000     0. 
   0  -3   1     34.97    4.95  0. 1.0000     0. 
   0  -3  -1     44.93    4.91  0. 1.0000     0. 
   0  -3  -1     33.74    4.57  0. 1.0000     0. 
   0  -3   1     36.13    7.14  0. 1.0000     0. 
   0  -3  -1     42.12    3.81  0. 1.0000     0. 
   0  -3  -1     33.71    6.98  0. 1.0000     0. 
   0  -3   1     31.00    3.54  0. 1.0000     0. 
   0  -3   1     34.63    4.58  0. 1.0000     0. 
   0   3  -1     42.75    6.40  0. 1.0000     0. 
   0   3  -1     28.03    3.41  0. 1.0000     0. 
   0   3   1     40.87    5.32  0. 1.0000     0. 
   0   3   1     35.93    4.02  0. 1.0000     0. 
   0   3   1     48.06    7.07  0. 1.0000     0. 
   0   3  -1     27.02    6.53  0. 1.0000     0. 
   0   3   1     34.95    3.64  0. 1.0000     0. 
   0   3  -1     34.19    4.04  0. 1.0000     0. 
   1  -3   1     38.95    3.49  0. 1.0000     0. 
   1  -3   1     45.06    5.23  0. 1.0000     0. 
  -1  -3  -1     28.10    3.86  0. 1.0000     0. 
  -1  -3  -1     33.39    5.16  0. 1.0000     0. 
  -1  -3  -1     25.85    6.25  0. 1.0000     0. 
   1  -3   1     38.83    3.86  0. 1.0000     0. 
   1  -3   1     39.42    8.04  0. 1.0000     0. 
   1   3   1     33.91    4.28  0. 1.0000     0. 
   1   3   1     36.19    8.45  0. 1.0000     0. 
  -1   3  -1     44.46    4.42  0. 1.0000     0. 
   1   3   1     41.08    5.87  0. 1.0000     0. 
  -1   3  -1     43.50    5.84  0. 1.0000     0. 
   1   3   1     32.69    4.29  0. 1.0000     0. 
   2  -3   1    316.10    8.59  0. 1.0000     0. 
   2  -3   1    292.62   15.72  0. 1.0000     0. 
  -2  -3  -1    312.71    9.93  0. 1.0000     0. 
  -2   3  -1    293.97   10.16  0. 1.0000     0. 
   2   3   1    272.85    9.75  0. 1.0000     0. 
   2   3   1    323.76   10.22  0. 1.0000     0. 
  -2   3  -1    313.64   10.68  0. 1.0000     0. 
  -4   3  -1    107.22    7.06  0. 1.0000     0. 
   2  -1  -2   1139.70   24.69  0. 1.0000     0. 
  -2   1   2   1118.13   26.82  0. 1.0000     0. 
   1  -1  -2    104.74    4.52  0. 1.0000     0. 
   1  -1  -2    101.97    3.34  0. 1.0000     0. 
  -1  -1   2    101.68    3.69  0. 1.0000     0. 
  -1   1   2    100.94    3.17  0. 1.0000     0. 
  -1   1   2    104.55    3.86  0. 1.0000     0. 
  -1   1   2    105.39    3.18  0. 1.0000     0. 
  -1   1   2     98.79    2.98  0. 1.0000     0. 
   1   1  -2    100.28    3.08  0. 1.0000     0. 
   1   1  -2    101.01    3.68  0. 1.0000     0. 
   0  -1   2   1144.12   24.73  0. 1.0000     0. 
   0  -1  -2   1172.37   31.79  0. 1.0000     0. 
   0  -1  -2   1138.72   26.46  0. 1.0000     0. 
   0   1  -2   1148.34   25.85  0. 1.0000     0. 
   0   1   2   1084.34   25.90  0. 1.0000     0. 
   0   1   2   1087.46   26.14  0. 1.0000     0. 
   0   1   2   1113.39   33.22  0. 1.0000     0. 
   0   1  -2   1179.99   25.88  0. 1.0000     0. 
   0   1   2   1148.04   25.55  0. 1.0000     0. 
   0   1  -2   1132.92   31.87  0. 1.0000     0. 
   0   1  -2   1170.40   25.66  0. 1.0000     0. 
  -1  -1  -2   1839.13   42.30  0. 1.0000     0. 
   1  -1   2   1872.98   61.39  0. 1.0000     0. 
   1   1   2   1920.49   55.58  0. 1.0000     0. 
  -1   1  -2   1847.63   42.14  0. 1.0000     0. 
  -1   1  -2   1844.04   42.46  0. 1.0000     0. 
   3  -2  -2    778.67   18.44  0. 1.0000     0. 
  -3   2   2    785.58   23.62  0. 1.0000     0. 
  -2  -2   2      2.05    3.40  0. 1.0000     0. 
   2  -2  -2     -0.10    4.03  0. 1.0000     0. 
   2  -2  -2      0.97    2.59  0. 1.0000     0. 
   2   2  -2      0.88    2.61  0. 1.0000     0. 
  -2   2   2      0.17    2.83  0. 1.0000     0. 
   2   2  -2      4.73    3.98  0. 1.0000     0. 
  -2   2   2     -0.85    2.69  0. 1.0000     0. 
  -1  -2  -2    223.75    6.37  0. 1.0000     0. 
   1  -2   2    230.79    6.38  0. 1.0000     0. 
   1   2   2    208.97    9.48  0. 1.0000     0. 
   1   2   2    225.78    6.46  0. 1.0000     0. 
  -2  -2  -2   1393.00   32.77  0. 1.0000     0. 
   2  -2   2   1467.43   47.95  0. 1.0000     0. 
  -2   2  -2   1445.76   31.96  0. 1.0000     0. 
  -2   2  -2   1481.24   32.29  0. 1.0000     0. 
   2   2   2   1422.36   32.14  0. 1.0000     0. 
  -4   3   2     14.55    4.59  0. 1.0000     0. 
   3  -3  -2      2.79    3.94  0. 1.0000     0. 
   3   3  -2      8.34    6.48  0. 1.0000     0. 
  -3   3   2      0.10    4.28  0. 1.0000     0. 
  -3   3   2      1.74    4.90  0. 1.0000     0. 
   2  -3  -2    300.93    8.90  0. 1.0000     0. 
  -2  -3   2    308.35   11.38  0. 1.0000     0. 
  -2   3   2    300.00    9.83  0. 1.0000     0. 
   2   3  -2    297.50   10.12  0. 1.0000     0. 
  -2   3   2    300.69   11.92  0. 1.0000     0. 
   2   3  -2    302.04   10.65  0. 1.0000     0. 
   1  -3  -2      4.52    3.28  0. 1.0000     0. 
  -1  -3   2     -0.95    4.82  0. 1.0000     0. 
   1  -3  -2      1.02    4.03  0. 1.0000     0. 
   1   3  -2      1.57    3.96  0. 1.0000     0. 
  -1   3   2      5.52    3.50  0. 1.0000     0. 
   1   3  -2      1.59    5.34  0. 1.0000     0. 
  -1   3   2     -0.34    5.48  0. 1.0000     0. 
   0  -3  -2      5.76    4.54  0. 1.0000     0. 
   0  -3   2     -3.64    6.79  0. 1.0000     0. 
   0  -3  -2      1.94    3.20  0. 1.0000     0. 
   0  -3   2      5.42    4.52  0. 1.0000     0. 
   0   3  -2     -3.79    5.75  0. 1.0000     0. 
   0   3   2      0.41    6.72  0. 1.0000     0. 
   0   3   2      3.45    3.19  0. 1.0000     0. 
   0   3  -2      4.59    3.62  0. 1.0000     0. 
  -1  -3  -2    644.40   17.70  0. 1.0000     0. 
   1  -3   2    697.72   19.53  0. 1.0000     0. 
   1  -3   2    678.02   26.29  0. 1.0000     0. 
  -1   3  -2    683.61   16.86  0. 1.0000     0. 
   1   3   2    627.97   18.18  0. 1.0000     0. 
  -1   3  -2    659.38   16.87  0. 1.0000     0. 
   1   3   2    582.49   25.25  0. 1.0000     0. 
   2  -3   2     52.67    8.54  0. 1.0000     0. 
  -2  -3  -2     45.47    4.52  0. 1.0000     0. 
  -2   3  -2     41.61    5.02  0. 1.0000     0. 
  -2   3  -2     38.72    6.58  0. 1.0000     0. 
   2   3   2     42.75    4.43  0. 1.0000     0. 
   3   4  -2     -1.73    8.44  0. 1.0000     0. 
  -2  -4   2     19.36    6.57  0. 1.0000     0. 
   2   4  -2     12.50    5.42  0. 1.0000     0. 
   2   4  -2      9.75    7.58  0. 1.0000     0. 
  -1  -4   2      3.09    8.61  0. 1.0000     0. 
  -1  -4   2     -7.60    6.51  0. 1.0000     0. 
   1   4  -2      6.78    7.29  0. 1.0000     0. 
   1   4  -2      1.59    4.99  0. 1.0000     0. 
   0  -4   2      4.61    6.51  0. 1.0000     0. 
   0  -4   2      2.28    8.84  0. 1.0000     0. 
   0   4  -2     -0.59    5.13  0. 1.0000     0. 
   1  -4   2      4.87    6.08  0. 1.0000     0. 
   1  -4   2      3.48    8.60  0. 1.0000     0. 
  -1   4  -2      6.46    4.90  0. 1.0000     0. 
   2  -4   2     48.68    9.76  0. 1.0000     0. 
   2  -4   2     56.67    7.17  0. 1.0000     0. 
   3  -4   2     28.97    7.55  0. 1.0000     0. 
   3  -4   2     12.54    9.94  0. 1.0000     0. 
   1   0  -3      0.21    0.50  0. 1.0000     0. 
  -1   0   3     -0.24    0.55  0. 1.0000     0. 
  -1   0   3     -0.02    0.48  0. 1.0000     0. 
   1   0  -3     -0.20    0.57  0. 1.0000     0. 
  -1   0   3      0.08    0.63  0. 1.0000     0. 
   1   0  -3      0.02    0.79  0. 1.0000     0. 
   0   0   3     -0.37    0.76  0. 1.0000     0. 
   0   0   3      0.60    0.90  0. 1.0000     0. 
   0   0   3      0.43    0.38  0. 1.0000     0. 
   0   0  -3      0.24    0.81  0. 1.0000     0. 
   0   0  -3      0.18    0.39  0. 1.0000     0. 
   0   0  -3      0.30    0.78  0. 1.0000     0. 
   2  -1  -3    365.62    9.51  0. 1.0000     0. 
  -2  -1   3    397.64   11.71  0. 1.0000     0. 
   2   1  -3    374.16    9.57  0. 1.0000     0. 
  -2   1   3    390.41    9.44  0. 1.0000     0. 
   1  -1  -3    508.14   18.10  0. 1.0000     0. 
   1  -1  -3    523.56   12.01  0. 1.0000     0. 
  -1  -1   3    516.75   14.81  0. 1.0000     0. 
   1   1  -3    510.51   12.31  0. 1.0000     0. 
  -1   1   3    515.38   11.89  0. 1.0000     0. 
  -1   1   3    526.57   12.17  0. 1.0000     0. 
   0  -1   3    157.97    3.90  0. 1.0000     0. 
   0   1   3    172.06    4.17  0. 1.0000     0. 
   0   1  -3    154.09    4.59  0. 1.0000     0. 
   0   1   3    161.41    3.80  0. 1.0000     0. 
   0   1  -3    146.56    4.92  0. 1.0000     0. 
  -1   1  -3    708.51   17.36  0. 1.0000     0. 
  -3  -2   3    249.41   10.58  0. 1.0000     0. 
   3  -2  -3    267.23    7.39  0. 1.0000     0. 
  -3   2   3    269.52    8.64  0. 1.0000     0. 
   3   2  -3    270.85    9.47  0. 1.0000     0. 
  -3   2   3    271.81    8.97  0. 1.0000     0. 
   2  -2  -3    236.16    6.79  0. 1.0000     0. 
  -2  -2   3    234.67    8.51  0. 1.0000     0. 
  -2   2   3    240.59    7.21  0. 1.0000     0. 
  -2   2   3    236.93    8.26  0. 1.0000     0. 
  -2   2   3    230.53    6.90  0. 1.0000     0. 
   2   2  -3    235.35    7.12  0. 1.0000     0. 
   2   2  -3    227.91    6.97  0. 1.0000     0. 
   2   2  -3    240.54    8.21  0. 1.0000     0. 
  -1  -2   3     31.73    2.03  0. 1.0000     0. 
  -1  -2   3     34.87    3.85  0. 1.0000     0. 
   1  -2  -3     25.12    3.43  0. 1.0000     0. 
   1  -2  -3     24.02    2.85  0. 1.0000     0. 
  -1   2   3     25.95    2.30  0. 1.0000     0. 
  -1   2   3     28.96    2.77  0. 1.0000     0. 
   1   2  -3     24.49    4.11  0. 1.0000     0. 
   1   2  -3     31.07    2.98  0. 1.0000     0. 
  -1   2   3     25.52    3.68  0. 1.0000     0. 
   1   2  -3     34.29    4.53  0. 1.0000     0. 
   1   2  -3     28.76    2.25  0. 1.0000     0. 
   0  -2   3    423.96   10.31  0. 1.0000     0. 
   0  -2  -3    427.77   11.03  0. 1.0000     0. 
   0  -2  -3    433.69   12.93  0. 1.0000     0. 
   0  -2   3    430.75   16.63  0. 1.0000     0. 
   0  -2   3    418.06   12.98  0. 1.0000     0. 
   0   2   3    437.13   11.14  0. 1.0000     0. 
   0   2   3    427.54   10.42  0. 1.0000     0. 
   0   2  -3    415.33   11.79  0. 1.0000     0. 
   0   2  -3    432.92   13.52  0. 1.0000     0. 
   0   2   3    412.10   14.87  0. 1.0000     0. 
   0   2  -3    409.92   11.28  0. 1.0000     0. 
   0   2  -3    421.82   11.31  0. 1.0000     0. 
  -1  -2  -3    114.46    3.88  0. 1.0000     0. 
   1  -2   3    109.36    7.95  0. 1.0000     0. 
   1  -2   3     95.77    4.33  0. 1.0000     0. 
  -1   2  -3    106.68    5.69  0. 1.0000     0. 
  -1   2  -3    113.96    5.18  0. 1.0000     0. 
   1   2   3    113.00    6.63  0. 1.0000     0. 
   1   2   3    109.19    3.91  0. 1.0000     0. 
   2  -2   3     66.72    7.05  0. 1.0000     0. 
  -2  -2  -3     81.79    4.01  0. 1.0000     0. 
   2   2   3     81.34    3.85  0. 1.0000     0. 
  -2   2  -3     75.08    4.18  0. 1.0000     0. 
  -2   2  -3     72.86    5.98  0. 1.0000     0. 
  -2   2  -3     81.77    4.88  0. 1.0000     0. 
   4  -3  -3      0.31    4.56  0. 1.0000     0. 
  -4   3   3      8.38    4.75  0. 1.0000     0. 
   2  -3  -3      1.13    3.89  0. 1.0000     0. 
  -2  -3   3      9.32    5.44  0. 1.0000     0. 
   2   3  -3      3.82    3.83  0. 1.0000     0. 
   2   3  -3     13.90    5.91  0. 1.0000     0. 
  -2   3   3      0.98    3.78  0. 1.0000     0. 
  -2   3   3      8.38    5.11  0. 1.0000     0. 
   1  -3  -3      6.79    4.47  0. 1.0000     0. 
  -1  -3   3      4.58    5.05  0. 1.0000     0. 
   1  -3  -3      1.84    3.47  0. 1.0000     0. 
  -1   3   3      0.89    3.43  0. 1.0000     0. 
  -1   3   3      3.27    6.30  0. 1.0000     0. 
   1   3  -3      2.09    4.07  0. 1.0000     0. 
   1   3  -3      4.28    5.33  0. 1.0000     0. 
   0  -3   3    174.95   11.05  0. 1.0000     0. 
   0  -3   3    177.38    7.34  0. 1.0000     0. 
   0  -3  -3    141.74    6.50  0. 1.0000     0. 
   0  -3  -3    164.34    7.84  0. 1.0000     0. 
   0   3   3    171.93    6.53  0. 1.0000     0. 
   0   3  -3    179.12    7.73  0. 1.0000     0. 
   0   3  -3    170.29    6.66  0. 1.0000     0. 
   0   3   3    133.24    9.72  0. 1.0000     0. 
  -1  -3  -3     85.76    5.13  0. 1.0000     0. 
   1  -3   3     73.90    6.15  0. 1.0000     0. 
   1  -3   3     69.27    9.57  0. 1.0000     0. 
   1   3   3     85.83    4.92  0. 1.0000     0. 
  -1   3  -3     72.05    5.68  0. 1.0000     0. 
   1   3   3     98.15   10.28  0. 1.0000     0. 
  -1   3  -3     77.42    7.35  0. 1.0000     0. 
  -3   3  -3     43.41    5.13  0. 1.0000     0. 
   4  -4  -3    199.50    9.22  0. 1.0000     0. 
  -3  -4   3     -0.95    7.76  0. 1.0000     0. 
   3  -4  -3      7.40    5.41  0. 1.0000     0. 
  -3   4   3      9.40    5.48  0. 1.0000     0. 
   3   4  -3      1.92    8.58  0. 1.0000     0. 
  -2  -4   3     14.10    7.00  0. 1.0000     0. 
   2  -4  -3     12.60    4.99  0. 1.0000     0. 
   2  -4  -3     10.08    4.94  0. 1.0000     0. 
  -2   4   3     12.54    5.33  0. 1.0000     0. 
   2   4  -3     16.47    5.57  0. 1.0000     0. 
  -2   4   3     16.33    8.52  0. 1.0000     0. 
   2   4  -3     19.82    8.33  0. 1.0000     0. 
  -1  -4   3     88.16    6.99  0. 1.0000     0. 
   1  -4  -3     57.41    5.48  0. 1.0000     0. 
  -1  -4   3     72.75   10.53  0. 1.0000     0. 
   1  -4  -3     64.06    6.29  0. 1.0000     0. 
   1   4  -3     96.30    9.47  0. 1.0000     0. 
  -1   4   3     51.41   10.15  0. 1.0000     0. 
   1   4  -3     77.22    5.80  0. 1.0000     0. 
  -1   4   3     53.06    6.19  0. 1.0000     0. 
   0  -4  -3      4.42    4.36  0. 1.0000     0. 
   0  -4   3     -8.70    9.83  0. 1.0000     0. 
   0  -4  -3      9.49    5.92  0. 1.0000     0. 
   0  -4   3      1.52    6.61  0. 1.0000     0. 
   0   4  -3     -4.32    8.74  0. 1.0000     0. 
   0   4  -3      9.45    5.10  0. 1.0000     0. 
   0   4   3      3.07    8.72  0. 1.0000     0. 
   0   4   3      0.10    4.65  0. 1.0000     0. 
   1  -4   3     15.46    8.99  0. 1.0000     0. 
  -1  -4  -3     16.54    4.97  0. 1.0000     0. 
  -1  -4  -3     14.00    6.77  0. 1.0000     0. 
   1  -4   3     13.56    6.33  0. 1.0000     0. 
  -1   4  -3      6.69    5.27  0. 1.0000     0. 
   1   4   3     15.15    4.98  0. 1.0000     0. 
  -1   4  -3     21.90    8.00  0. 1.0000     0. 
   1   4   3     13.71   10.41  0. 1.0000     0. 
  -2  -4  -3     -2.68    8.95  0. 1.0000     0. 
   2  -4   3      2.26    6.91  0. 1.0000     0. 
  -2  -4  -3      1.41    4.70  0. 1.0000     0. 
   2  -4   3      2.37    8.79  0. 1.0000     0. 
  -2   4  -3      3.76    5.54  0. 1.0000     0. 
   2   4   3      1.57    5.93  0. 1.0000     0. 
  -2   4  -3      8.77    8.37  0. 1.0000     0. 
   3  -4   3     -3.43   10.11  0. 1.0000     0. 
   3  -4   3      2.50    7.16  0. 1.0000     0. 
  -3   4  -3      4.14    6.24  0. 1.0000     0. 
   3   4   3      5.13    5.26  0. 1.0000     0. 
  -1   0   4   3810.10  102.75  0. 1.0000     0. 
  -1   0   4   3832.41   81.88  0. 1.0000     0. 
   1   0  -4   3720.77   80.68  0. 1.0000     0. 
   1   0  -4   3535.09   82.95  0. 1.0000     0. 
  -1   0   4   3750.07  102.73  0. 1.0000     0. 
   1   0  -4   3660.65   83.48  0. 1.0000     0. 
   0   0   4   3182.54   71.21  0. 1.0000     0. 
   0   0   4   3262.12   84.56  0. 1.0000     0. 
   0   0  -4   3160.63   71.45  0. 1.0000     0. 
   0   0  -4   3086.37   72.63  0. 1.0000     0. 
   3  -1  -4    412.97   10.46  0. 1.0000     0. 
   1  -1  -4   1624.64   35.99  0. 1.0000     0. 
  -1  -1   4   1566.06   44.30  0. 1.0000     0. 
  -1   1   4   1619.67   35.74  0. 1.0000     0. 
   1   1  -4   1589.00   36.89  0. 1.0000     0. 
   0   1  -4   1096.60   26.47  0. 1.0000     0. 
   0   1   4   1116.83   25.10  0. 1.0000     0. 
   3  -2  -4    654.88   15.57  0. 1.0000     0. 
  -3  -2   4    652.83   20.20  0. 1.0000     0. 
  -3   2   4    657.85   16.82  0. 1.0000     0. 
  -3   2   4    651.14   17.40  0. 1.0000     0. 
  -3   2   4    656.33   20.02  0. 1.0000     0. 
   3   2  -4    652.91   17.24  0. 1.0000     0. 
  -2  -2   4     40.51    3.75  0. 1.0000     0. 
   2  -2  -4     31.57    3.65  0. 1.0000     0. 
  -2   2   4     24.21    2.84  0. 1.0000     0. 
   2   2  -4     39.88    3.09  0. 1.0000     0. 
   2   2  -4     37.50    2.31  0. 1.0000     0. 
  -2   2   4     27.48    3.28  0. 1.0000     0. 
   2   2  -4     46.61    4.63  0. 1.0000     0. 
  -2   2   4     28.47    3.90  0. 1.0000     0. 
   1  -2  -4    176.61    8.70  0. 1.0000     0. 
  -1  -2   4    188.49    6.85  0. 1.0000     0. 
  -1  -2   4    185.18    5.80  0. 1.0000     0. 
   1  -2  -4    186.55    6.27  0. 1.0000     0. 
   1  -2  -4    191.40    6.36  0. 1.0000     0. 
   1   2  -4    190.86    7.32  0. 1.0000     0. 
  -1   2   4    180.16    5.81  0. 1.0000     0. 
  -1   2   4    184.84    7.64  0. 1.0000     0. 
   1   2  -4    186.27    6.07  0. 1.0000     0. 
  -1   2   4    187.07    5.19  0. 1.0000     0. 
  -1   2   4    187.55    5.99  0. 1.0000     0. 
   1   2  -4    173.79    5.25  0. 1.0000     0. 
   0  -2   4     56.83    4.30  0. 1.0000     0. 
   0  -2   4     58.68    2.66  0. 1.0000     0. 
   0  -2   4     50.89    6.11  0. 1.0000     0. 
   0  -2   4     58.12    2.87  0. 1.0000     0. 
   0  -2  -4     62.40    3.46  0. 1.0000     0. 
   0   2  -4     61.04    3.87  0. 1.0000     0. 
   0   2   4     67.43    6.02  0. 1.0000     0. 
   0   2  -4     60.01    2.91  0. 1.0000     0. 
   0   2  -4     54.28    5.08  0. 1.0000     0. 
   0   2   4     62.06    3.47  0. 1.0000     0. 
   0   2  -4     57.28    4.03  0. 1.0000     0. 
   0   2   4     59.40    3.60  0. 1.0000     0. 
  -1  -2  -4    162.80    5.31  0. 1.0000     0. 
   1  -2   4    160.92   10.17  0. 1.0000     0. 
   1   2   4    171.47    8.53  0. 1.0000     0. 
  -1   2  -4    147.26    5.85  0. 1.0000     0. 
  -1   2  -4    162.09    6.24  0. 1.0000     0. 
   1   2   4    169.95    5.08  0. 1.0000     0. 
  -1   2  -4    157.09    7.57  0. 1.0000     0. 
  -2  -2  -4    260.11    8.70  0. 1.0000     0. 
   2  -2   4    273.85   13.55  0. 1.0000     0. 
  -2   2  -4    269.97    8.86  0. 1.0000     0. 
  -2   2  -4    279.57    9.74  0. 1.0000     0. 
   2   2   4    271.41    8.24  0. 1.0000     0. 
   4  -3  -4     31.01    4.86  0. 1.0000     0. 
  -2  -3   4    102.62    6.76  0. 1.0000     0. 
   2  -3  -4    107.50    5.65  0. 1.0000     0. 
  -2   3   4    113.13    7.31  0. 1.0000     0. 
   2   3  -4    109.56    7.71  0. 1.0000     0. 
  -2   3   4    100.80    5.91  0. 1.0000     0. 
   2   3  -4    104.18    5.88  0. 1.0000     0. 
   1  -3  -4     22.87    4.74  0. 1.0000     0. 
  -1  -3   4     16.86    5.35  0. 1.0000     0. 
   1  -3  -4     16.07    3.79  0. 1.0000     0. 
  -1   3   4     20.56    3.81  0. 1.0000     0. 
  -1   3   4     12.32    6.17  0. 1.0000     0. 
   1   3  -4     24.63    6.37  0. 1.0000     0. 
   1   3  -4     18.58    4.16  0. 1.0000     0. 
   0  -3   4    114.39    6.87  0. 1.0000     0. 
   0  -3  -4    138.88    7.14  0. 1.0000     0. 
   0  -3  -4    140.16    5.70  0. 1.0000     0. 
   0  -3   4    119.20   10.93  0. 1.0000     0. 
   0   3   4    138.42    9.39  0. 1.0000     0. 
   0   3  -4    133.82    8.12  0. 1.0000     0. 
   0   3   4    128.23    5.81  0. 1.0000     0. 
   0   3  -4    125.99    6.11  0. 1.0000     0. 
   1  -3   4     25.37    5.33  0. 1.0000     0. 
   1  -3   4     11.99    8.00  0. 1.0000     0. 
  -1  -3  -4     23.51    4.12  0. 1.0000     0. 
   1   3   4     22.59    4.06  0. 1.0000     0. 
  -1   3  -4     28.65    4.66  0. 1.0000     0. 
  -1   3  -4     25.26    7.06  0. 1.0000     0. 
  -3   3  -4    153.49    7.49  0. 1.0000     0. 
   4  -4  -4     11.13    5.72  0. 1.0000     0. 
   4   4  -4     10.57    8.54  0. 1.0000     0. 
  -4   4   4      1.86    7.23  0. 1.0000     0. 
   3  -4  -4     -3.03    5.07  0. 1.0000     0. 
  -3  -4   4     -9.70    7.09  0. 1.0000     0. 
  -3   4   4      1.26    5.63  0. 1.0000     0. 
   3   4  -4     10.09    9.10  0. 1.0000     0. 
  -3   4   4      9.50    6.94  0. 1.0000     0. 
  -2  -4   4     -1.50    6.95  0. 1.0000     0. 
   2  -4  -4      2.55    4.52  0. 1.0000     0. 
   2  -4  -4      0.38    4.90  0. 1.0000     0. 
   2   4  -4     -2.78    8.11  0. 1.0000     0. 
  -2   4   4     -1.45    8.07  0. 1.0000     0. 
  -2   4   4     10.95    5.20  0. 1.0000     0. 
   2   4  -4      0.23    5.03  0. 1.0000     0. 
  -1  -4   4      0.65    6.72  0. 1.0000     0. 
   1  -4  -4     -1.04    4.43  0. 1.0000     0. 
   1  -4  -4     -3.17    5.62  0. 1.0000     0. 
  -1  -4   4      6.97    9.60  0. 1.0000     0. 
  -1   4   4     -0.89    4.86  0. 1.0000     0. 
  -1   4   4      5.30    8.97  0. 1.0000     0. 
   1   4  -4     -7.68    5.17  0. 1.0000     0. 
   1   4  -4     13.57    7.69  0. 1.0000     0. 
   0  -4  -4      1.19    6.08  0. 1.0000     0. 
   0  -4  -4     -2.08    4.49  0. 1.0000     0. 
   0  -4   4     14.77    9.30  0. 1.0000     0. 
   0  -4   4     -6.13    7.09  0. 1.0000     0. 
   0   4   4      8.25    8.77  0. 1.0000     0. 
   0   4  -4      2.68    5.32  0. 1.0000     0. 
   0   4  -4      8.53    8.39  0. 1.0000     0. 
   0   4   4      2.68    4.78  0. 1.0000     0. 
  -1  -4  -4      2.00    7.01  0. 1.0000     0. 
   1  -4   4     16.71    9.15  0. 1.0000     0. 
  -1  -4  -4      6.61    4.79  0. 1.0000     0. 
   1  -4   4     23.33    5.97  0. 1.0000     0. 
  -1   4  -4     15.51    5.17  0. 1.0000     0. 
  -1   4  -4     14.13    8.18  0. 1.0000     0. 
   1   4   4     17.22    5.21  0. 1.0000     0. 
   1   4   4     -3.43   10.26  0. 1.0000     0. 
  -2  -4  -4      7.15    9.12  0. 1.0000     0. 
   2  -4   4     -9.86    8.97  0. 1.0000     0. 
   2  -4   4    -10.50    7.21  0. 1.0000     0. 
  -2  -4  -4     -5.60    4.84  0. 1.0000     0. 
  -2   4  -4      2.60    8.90  0. 1.0000     0. 
  -2   4  -4      5.89    6.03  0. 1.0000     0. 
   2   4   4     13.10    6.12  0. 1.0000     0. 
   3  -4   4     26.99   10.96  0. 1.0000     0. 
   3  -4   4     23.18    7.66  0. 1.0000     0. 
  -3   4  -4     30.02    6.87  0. 1.0000     0. 
  -4   4  -4      4.97    6.09  0. 1.0000     0. 
  -2   0   5     -0.10    1.14  0. 1.0000     0. 
   2   0  -5     -0.04    1.99  0. 1.0000     0. 
  -1   0   5     -1.03    1.09  0. 1.0000     0. 
   1   0  -5     -0.32    1.22  0. 1.0000     0. 
  -1   0   5      0.44    0.81  0. 1.0000     0. 
   1   0  -5     -0.20    0.84  0. 1.0000     0. 
   1   0  -5      0.16    1.33  0. 1.0000     0. 
  -1   0   5     -0.20    1.08  0. 1.0000     0. 
   0   0   5      0.05    1.73  0. 1.0000     0. 
   0   0  -5     -0.41    1.60  0. 1.0000     0. 
   0   0  -5     -0.50    0.86  0. 1.0000     0. 
   0   0   5     -0.36    1.81  0. 1.0000     0. 
   0   0  -5     -0.86    1.41  0. 1.0000     0. 
   0   0   5     -0.34    0.81  0. 1.0000     0. 
   3  -1  -5    949.21   22.43  0. 1.0000     0. 
   3   1  -5   1005.99   26.06  0. 1.0000     0. 
  -3   1   5   1001.21   23.41  0. 1.0000     0. 
  -3   1   5    997.37   28.18  0. 1.0000     0. 
   2  -1  -5    248.09    6.91  0. 1.0000     0. 
   2   1  -5    255.22    7.28  0. 1.0000     0. 
  -2   1   5    248.34    8.32  0. 1.0000     0. 
  -1   1   5    426.72   13.34  0. 1.0000     0. 
   0  -1   5    263.40   11.14  0. 1.0000     0. 
   0  -1  -5    259.81    6.89  0. 1.0000     0. 
   0   1   5    267.54    9.32  0. 1.0000     0. 
   0   1  -5    241.26    7.86  0. 1.0000     0. 
  -1  -1  -5    240.31    6.51  0. 1.0000     0. 
   1  -1   5    231.88   10.59  0. 1.0000     0. 
  -1   1  -5    233.84    7.29  0. 1.0000     0. 
   1   1   5    228.75    6.83  0. 1.0000     0. 
   1   1   5    225.47   10.16  0. 1.0000     0. 
  -1   1  -5    233.37    7.73  0. 1.0000     0. 
   4  -2  -5    312.63    9.04  0. 1.0000     0. 
  -4   2   5    313.09   11.40  0. 1.0000     0. 
   3  -2  -5     19.13    3.67  0. 1.0000     0. 
  -3  -2   5     25.04    4.48  0. 1.0000     0. 
  -3   2   5     18.48    3.60  0. 1.0000     0. 
  -3   2   5     17.48    3.62  0. 1.0000     0. 
   3   2  -5     23.29    3.25  0. 1.0000     0. 
   3   2  -5     17.73    4.88  0. 1.0000     0. 
  -2  -2   5    360.71   12.13  0. 1.0000     0. 
   2  -2  -5    365.16    9.82  0. 1.0000     0. 
  -2   2   5    363.78   12.48  0. 1.0000     0. 
   2   2  -5    365.16   11.36  0. 1.0000     0. 
  -2   2   5    361.43   10.32  0. 1.0000     0. 
   2   2  -5    358.25   10.18  0. 1.0000     0. 
   1  -2  -5    123.22    5.40  0. 1.0000     0. 
   1  -2  -5    127.93    4.54  0. 1.0000     0. 
  -1  -2   5    118.36    5.82  0. 1.0000     0. 
  -1   2   5    125.89    4.44  0. 1.0000     0. 
  -1   2   5    124.86    6.43  0. 1.0000     0. 
   1   2  -5    121.39    5.13  0. 1.0000     0. 
   1   2  -5    110.01    6.40  0. 1.0000     0. 
   0  -2  -5    204.26    6.97  0. 1.0000     0. 
   0  -2   5    219.49   10.93  0. 1.0000     0. 
   0  -2   5    215.85    7.84  0. 1.0000     0. 
   0   2  -5    207.78    7.62  0. 1.0000     0. 
   0   2  -5    211.27    6.92  0. 1.0000     0. 
   0   2   5    211.23    9.92  0. 1.0000     0. 
   0   2   5    201.87    6.69  0. 1.0000     0. 
   1  -2   5      4.83    5.79  0. 1.0000     0. 
  -1  -2  -5      1.33    2.62  0. 1.0000     0. 
  -1   2  -5     -1.35    3.46  0. 1.0000     0. 
   1   2   5     -1.37    2.19  0. 1.0000     0. 
  -1   2  -5     -2.66    5.02  0. 1.0000     0. 
   1   2   5      7.20    5.80  0. 1.0000     0. 
  -5   3   5     53.23    5.93  0. 1.0000     0. 
   4  -3  -5     53.24    4.80  0. 1.0000     0. 
   4   3  -5     46.60    7.83  0. 1.0000     0. 
  -4   3   5     48.42    5.35  0. 1.0000     0. 
  -3  -3   5    187.19    9.16  0. 1.0000     0. 
   3  -3  -5    184.94    7.25  0. 1.0000     0. 
  -3   3   5    170.11    8.02  0. 1.0000     0. 
   1   3  -5    264.88   10.81  0. 1.0000     0. 
   1   3  -5    264.76    8.97  0. 1.0000     0. 
  -2   3  -5    425.69   12.54  0. 1.0000     0. 
   2   3   5    412.06   12.91  0. 1.0000     0. 
   3  -3   5      1.37    8.37  0. 1.0000     0. 
  -5   4   5     19.58    7.49  0. 1.0000     0. 
   4   4  -5     21.22    8.70  0. 1.0000     0. 
   3  -4  -5    131.48    7.09  0. 1.0000     0. 
  -3  -4   5    112.79    9.00  0. 1.0000     0. 
   3  -4  -5    112.41    6.72  0. 1.0000     0. 
  -3   4   5    131.87   10.28  0. 1.0000     0. 
  -3   4   5    108.85    7.79  0. 1.0000     0. 
   3   4  -5    120.14   10.51  0. 1.0000     0. 
   2  -4  -5    253.74    9.07  0. 1.0000     0. 
   2  -4  -5    249.22    9.59  0. 1.0000     0. 
  -2  -4   5    260.33   11.77  0. 1.0000     0. 
   2   4  -5    257.40   12.41  0. 1.0000     0. 
  -2   4   5    236.18    9.85  0. 1.0000     0. 
  -2   4   5    269.79   14.32  0. 1.0000     0. 
  -1  -4   5    166.07    9.26  0. 1.0000     0. 
   1  -4  -5    175.51    8.28  0. 1.0000     0. 
  -1  -4   5    144.82   12.98  0. 1.0000     0. 
   1  -4  -5    165.65    7.78  0. 1.0000     0. 
  -1   4   5    163.09   12.28  0. 1.0000     0. 
  -1   4   5    146.69    7.77  0. 1.0000     0. 
   1   4  -5    151.68   10.03  0. 1.0000     0. 
   0  -4  -5     85.52    5.85  0. 1.0000     0. 
   0  -4   5     85.61    8.35  0. 1.0000     0. 
   0  -4   5     77.47   11.22  0. 1.0000     0. 
   0  -4  -5     77.89    7.40  0. 1.0000     0. 
   0   4   5     75.58    6.05  0. 1.0000     0. 
   0   4   5     65.38   10.17  0. 1.0000     0. 
   0   4  -5     98.90    9.04  0. 1.0000     0. 
  -1  -4  -5    184.30    8.83  0. 1.0000     0. 
  -1  -4  -5    197.68   10.64  0. 1.0000     0. 
   1  -4   5    204.24    9.90  0. 1.0000     0. 
   1  -4   5    191.34   14.00  0. 1.0000     0. 
  -1   4  -5    207.74   10.94  0. 1.0000     0. 
   1   4   5    178.06   15.67  0. 1.0000     0. 
   1   4   5    179.95    8.63  0. 1.0000     0. 
  -1   4  -5    204.18    8.77  0. 1.0000     0. 
   2  -4   5      1.13    6.43  0. 1.0000     0. 
  -2  -4  -5     -0.40    4.82  0. 1.0000     0. 
  -2  -4  -5     -6.45    9.41  0. 1.0000     0. 
   2  -4   5      5.75    9.12  0. 1.0000     0. 
   2   4   5     -6.59    6.13  0. 1.0000     0. 
  -2   4  -5     -4.33    5.79  0. 1.0000     0. 
  -2   4  -5      9.21    8.87  0. 1.0000     0. 
  -4   4  -5     34.57    6.86  0. 1.0000     0. 
   2   0  -6   2242.09   51.74  0. 1.0000     0. 
  -2   0   6   2270.19   61.82  0. 1.0000     0. 
  -2   0   6   2264.90   62.92  0. 1.0000     0. 
   2   0  -6   2127.45   49.79  0. 1.0000     0. 
  -2   0   6   2334.41   49.71  0. 1.0000     0. 
  -1   0   6     49.35    1.99  0. 1.0000     0. 
   1   0  -6     46.23    2.13  0. 1.0000     0. 
   1   0  -6     49.14    2.31  0. 1.0000     0. 
  -1   0   6     51.71    2.21  0. 1.0000     0. 
  -1   0   6     56.02    2.54  0. 1.0000     0. 
   1   0  -6     46.73    2.57  0. 1.0000     0. 
   0   0  -6    379.66    9.12  0. 1.0000     0. 
   0   0  -6    339.45    9.93  0. 1.0000     0. 
   0   0   6    373.92    9.08  0. 1.0000     0. 
   0   0   6    366.02   13.57  0. 1.0000     0. 
   0   0  -6    371.20    9.11  0. 1.0000     0. 
   0   0   6    398.68   11.50  0. 1.0000     0. 
   3  -1  -6   1624.67   36.83  0. 1.0000     0. 
  -3  -1   6   1632.91   46.62  0. 1.0000     0. 
   3   1  -6   1670.58   38.79  0. 1.0000     0. 
  -3   1   6   1636.29   47.40  0. 1.0000     0. 
  -3   1   6   1650.80   36.90  0. 1.0000     0. 
  -2  -1   6     -1.29    2.42  0. 1.0000     0. 
   2  -1  -6      1.19    2.24  0. 1.0000     0. 
  -2   1   6      1.51    2.23  0. 1.0000     0. 
   2   1  -6      0.80    2.94  0. 1.0000     0. 
   2   1  -6      1.84    2.04  0. 1.0000     0. 
  -2   1   6      2.54    2.03  0. 1.0000     0. 
   1  -1  -6     39.88    3.26  0. 1.0000     0. 
  -1  -1   6     39.30    3.06  0. 1.0000     0. 
   1   1  -6     41.04    3.59  0. 1.0000     0. 
   1   1  -6     35.31    2.61  0. 1.0000     0. 
  -1   1   6     43.06    3.16  0. 1.0000     0. 
  -1   1   6     45.05    2.53  0. 1.0000     0. 
   0  -1  -6   1856.32   42.09  0. 1.0000     0. 
   0  -1   6   1883.61   61.42  0. 1.0000     0. 
   0   1   6   1874.77   42.29  0. 1.0000     0. 
   0   1   6   1850.43   54.25  0. 1.0000     0. 
   0   1  -6   1843.95   43.07  0. 1.0000     0. 
   0   1  -6   1862.27   44.42  0. 1.0000     0. 
  -1  -1  -6      8.12    1.98  0. 1.0000     0. 
   1  -1   6     11.12    4.26  0. 1.0000     0. 
   1   1   6      8.22    1.84  0. 1.0000     0. 
   1   1   6      5.51    3.84  0. 1.0000     0. 
  -1   1  -6      9.59    3.48  0. 1.0000     0. 
  -1   1  -6      8.21    2.80  0. 1.0000     0. 
   4  -2  -6    469.38   11.66  0. 1.0000     0. 
  -4   2   6    442.84   13.71  0. 1.0000     0. 
  -4   2   6    459.11   14.85  0. 1.0000     0. 
  -2  -2   6    253.33    9.47  0. 1.0000     0. 
   2  -2  -6    248.63    8.32  0. 1.0000     0. 
  -2   2   6    269.84    9.84  0. 1.0000     0. 
  -2   2   6    258.13    8.12  0. 1.0000     0. 
   2   2  -6    255.30    8.11  0. 1.0000     0. 
   2   2  -6    251.53    8.75  0. 1.0000     0. 
   1  -2  -6    189.53    6.51  0. 1.0000     0. 
  -1  -2   6    194.24    7.09  0. 1.0000     0. 
   1  -2  -6    179.28    7.45  0. 1.0000     0. 
  -1   2   6    197.86    8.80  0. 1.0000     0. 
  -1   2   6    186.66    6.55  0. 1.0000     0. 
   1   2  -6    200.67    7.50  0. 1.0000     0. 
   1   2  -6    195.56    6.46  0. 1.0000     0. 
   0  -2  -6    816.90   20.15  0. 1.0000     0. 
   0  -2   6    787.97   24.69  0. 1.0000     0. 
   0   2   6    803.50   27.00  0. 1.0000     0. 
   0   2  -6    812.07   19.97  0. 1.0000     0. 
   0   2   6    806.20   19.69  0. 1.0000     0. 
   0   2  -6    819.33   19.75  0. 1.0000     0. 
  -2  -2  -6     34.99    3.61  0. 1.0000     0. 
  -2   2  -6     34.78    6.44  0. 1.0000     0. 
   2   2   6     44.66    3.67  0. 1.0000     0. 
  -2   2  -6     37.17    4.97  0. 1.0000     0. 
  -5   3   6     12.19    5.35  0. 1.0000     0. 
  -4   3   6    167.25    9.13  0. 1.0000     0. 
   4   3  -6    169.58    9.66  0. 1.0000     0. 
   3   3  -6    222.15    9.76  0. 1.0000     0. 
  -3   3   6    205.29   10.52  0. 1.0000     0. 
   2  -3  -6    115.06    6.32  0. 1.0000     0. 
  -2  -3   6    124.87    7.59  0. 1.0000     0. 
  -2   3   6    115.34    6.21  0. 1.0000     0. 
   2   3  -6    117.55    6.24  0. 1.0000     0. 
   0  -3   6     13.49    5.52  0. 1.0000     0. 
   0  -3  -6      2.88    6.07  0. 1.0000     0. 
   0   3   6      9.07    3.92  0. 1.0000     0. 
   1  -3   6    110.69   10.42  0. 1.0000     0. 
  -1  -3  -6    104.25    6.41  0. 1.0000     0. 
   1   3   6    100.30   10.47  0. 1.0000     0. 
  -1   3  -6    120.61    8.30  0. 1.0000     0. 
   2  -3   6     59.96    9.31  0. 1.0000     0. 
  -2  -3  -6     49.39    5.26  0. 1.0000     0. 
  -2   3  -6     64.94    8.24  0. 1.0000     0. 
   3  -3   6     68.77   11.08  0. 1.0000     0. 
  -3   3  -6     90.02    6.24  0. 1.0000     0. 
   5  -4  -6     -2.72    4.91  0. 1.0000     0. 
  -5   4   6      6.13    7.30  0. 1.0000     0. 
   3  -4  -6      3.05    5.69  0. 1.0000     0. 
   3  -4  -6     -0.60    4.61  0. 1.0000     0. 
  -3  -4   6     -5.72    7.29  0. 1.0000     0. 
   3   4  -6      3.82    8.40  0. 1.0000     0. 
  -3   4   6     -1.79    5.72  0. 1.0000     0. 
   3   4  -6     -2.65    5.34  0. 1.0000     0. 
  -3   4   6     -4.98    7.86  0. 1.0000     0. 
   2  -4  -6     -0.61    4.53  0. 1.0000     0. 
  -2  -4   6      1.31    9.53  0. 1.0000     0. 
  -2  -4   6    -11.46    7.05  0. 1.0000     0. 
   2  -4  -6     -0.10    5.41  0. 1.0000     0. 
  -2   4   6      1.86    5.41  0. 1.0000     0. 
  -2   4   6     -0.27    8.31  0. 1.0000     0. 
   2   4  -6     -2.62    5.27  0. 1.0000     0. 
   2   4  -6    -13.79    8.45  0. 1.0000     0. 
   1  -4  -6     26.14    6.08  0. 1.0000     0. 
   1  -4  -6     12.76    4.47  0. 1.0000     0. 
  -1  -4   6     11.89    6.78  0. 1.0000     0. 
  -1  -4   6     13.08   10.54  0. 1.0000     0. 
   1   4  -6     14.56    5.69  0. 1.0000     0. 
   1   4  -6     17.88    8.62  0. 1.0000     0. 
  -1   4   6      7.55    8.42  0. 1.0000     0. 
  -1   4   6     17.27    5.33  0. 1.0000     0. 
   0  -4  -6     -1.48    6.02  0. 1.0000     0. 
   0  -4   6      3.62    6.78  0. 1.0000     0. 
   0  -4   6      1.00    9.64  0. 1.0000     0. 
   0  -4  -6     -2.45    4.13  0. 1.0000     0. 
   0   4   6      0.30    8.63  0. 1.0000     0. 
   0   4  -6     -1.28    5.39  0. 1.0000     0. 
   0   4   6      5.44    4.90  0. 1.0000     0. 
   0   4  -6      9.58    8.12  0. 1.0000     0. 
   1  -4   6     -1.04    9.51  0. 1.0000     0. 
   1  -4   6      1.86    6.71  0. 1.0000     0. 
  -1  -4  -6      4.87    4.89  0. 1.0000     0. 
  -1  -4  -6     -3.34    7.69  0. 1.0000     0. 
   1   4   6      6.83   10.46  0. 1.0000     0. 
  -1   4  -6      6.78    5.93  0. 1.0000     0. 
  -1   4  -6     11.18    9.56  0. 1.0000     0. 
   1   4   6      4.60    5.32  0. 1.0000     0. 
   3  -4   6      4.24    7.62  0. 1.0000     0. 
   3  -4   6      6.10   10.06  0. 1.0000     0. 
  -3   4  -6     11.42    6.76  0. 1.0000     0. 
  -2  -5   6     39.43    8.76  0. 1.0000     0. 
   2   5  -6     43.25    7.08  0. 1.0000     0. 
  -1  -5   6     12.36    8.57  0. 1.0000     0. 
   1   5  -6     15.37    6.43  0. 1.0000     0. 
   0  -5   6     12.03    8.19  0. 1.0000     0. 
   0   5  -6     14.03    6.90  0. 1.0000     0. 
   1  -5   6     11.06    9.45  0. 1.0000     0. 
  -1   5  -6     18.59    6.74  0. 1.0000     0. 
   3   0  -7      2.15    3.25  0. 1.0000     0. 
   2   0  -7      0.18    2.34  0. 1.0000     0. 
   2   0  -7     -0.42    1.52  0. 1.0000     0. 
   2   0  -7     -1.00    1.76  0. 1.0000     0. 
  -2   0   7     -0.73    1.66  0. 1.0000     0. 
  -2   0   7      0.18    1.61  0. 1.0000     0. 
  -2   0   7      1.00    1.88  0. 1.0000     0. 
   1   0  -7     -0.06    1.19  0. 1.0000     0. 
  -1   0   7      0.24    2.51  0. 1.0000     0. 
  -1   0   7     -0.47    1.16  0. 1.0000     0. 
   1   0  -7     -1.08    2.29  0. 1.0000     0. 
  -1   0   7     -0.83    1.92  0. 1.0000     0. 
  -1   0   7      1.19    1.70  0. 1.0000     0. 
   1   0  -7     -0.35    1.92  0. 1.0000     0. 
   1   0  -7     -0.31    1.48  0. 1.0000     0. 
   0   0   7      0.77    2.94  0. 1.0000     0. 
   0   0  -7      2.76    1.36  0. 1.0000     0. 
   0   0  -7     -0.17    1.87  0. 1.0000     0. 
   0   0   7      1.86    2.93  0. 1.0000     0. 
   0   0   7      0.03    1.34  0. 1.0000     0. 
  -4   1   7    342.60   11.31  0. 1.0000     0. 
   2  -1  -7    272.85    8.16  0. 1.0000     0. 
  -2  -1   7    273.26    9.38  0. 1.0000     0. 
  -2   1   7    305.47   10.01  0. 1.0000     0. 
   2   1  -7    284.50    8.93  0. 1.0000     0. 
   2   1  -7    286.48    7.80  0. 1.0000     0. 
  -2   1   7    294.36    7.91  0. 1.0000     0. 
   1  -1  -7   1412.79   32.43  0. 1.0000     0. 
  -1  -1   7   1385.47   40.10  0. 1.0000     0. 
   1  -1  -7   1455.99   33.28  0. 1.0000     0. 
  -1   1   7   1365.58   40.78  0. 1.0000     0. 
   1   1  -7   1399.68   33.91  0. 1.0000     0. 
  -1   1   7   1495.73   31.67  0. 1.0000     0. 
   1   1  -7   1374.50   32.99  0. 1.0000     0. 
   0  -1   7     83.13    6.10  0. 1.0000     0. 
   0  -1  -7     77.35    3.46  0. 1.0000     0. 
   0   1  -7     80.19    4.04  0. 1.0000     0. 
   0   1   7     65.25    5.29  0. 1.0000     0. 
   0   1  -7     79.69    4.83  0. 1.0000     0. 
   0   1   7     82.56    3.50  0. 1.0000     0. 
   4  -2  -7     45.12    4.03  0. 1.0000     0. 
  -4  -2   7     44.09    5.18  0. 1.0000     0. 
  -4   2   7     40.56    4.59  0. 1.0000     0. 
  -3  -2   7    190.65    8.63  0. 1.0000     0. 
   3  -2  -7    202.94    6.77  0. 1.0000     0. 
   3   2  -7    203.95    7.13  0. 1.0000     0. 
  -3   2   7    209.04    7.21  0. 1.0000     0. 
   2  -2  -7    321.01    9.83  0. 1.0000     0. 
  -2  -2   7    324.10   11.42  0. 1.0000     0. 
  -2   2   7    335.18    9.90  0. 1.0000     0. 
   2   2  -7    328.65    9.33  0. 1.0000     0. 
   1  -2  -7     98.26    5.74  0. 1.0000     0. 
  -1   2   7     86.59    4.49  0. 1.0000     0. 
   0  -2   7   1282.44   36.93  0. 1.0000     0. 
   0   2   7   1228.19   29.70  0. 1.0000     0. 
   0   2  -7   1277.72   30.37  0. 1.0000     0. 
   1   2   7     26.77    3.43  0. 1.0000     0. 
  -1   2  -7     31.12    4.28  0. 1.0000     0. 
   2   2   7     38.98    3.94  0. 1.0000     0. 
  -2   2  -7     40.23    5.18  0. 1.0000     0. 
   5  -3  -7     11.69    5.08  0. 1.0000     0. 
  -5   3   7      6.92    5.78  0. 1.0000     0. 
   4  -3  -7    163.08    7.22  0. 1.0000     0. 
  -4  -3   7    158.66    8.91  0. 1.0000     0. 
  -4   3   7    153.79    7.98  0. 1.0000     0. 
  -4   3   7    171.48    9.28  0. 1.0000     0. 
   4   3  -7    162.41    9.52  0. 1.0000     0. 
   3   3  -7     21.78    6.95  0. 1.0000     0. 
  -3   3   7     15.28    6.12  0. 1.0000     0. 
   2  -3  -7     16.20    3.96  0. 1.0000     0. 
  -2   3   7     26.23    6.64  0. 1.0000     0. 
   2   3  -7     15.12    6.55  0. 1.0000     0. 
  -1  -3   7    328.81   15.73  0. 1.0000     0. 
   1  -3  -7    299.27   10.67  0. 1.0000     0. 
  -1   3   7    297.73   15.24  0. 1.0000     0. 
   1   3  -7    332.37   11.32  0. 1.0000     0. 
   0  -3  -7     43.47    4.30  0. 1.0000     0. 
   0  -3   7     38.14    8.98  0. 1.0000     0. 
   0   3  -7     34.43    8.19  0. 1.0000     0. 
   0   3   7     32.65    8.48  0. 1.0000     0. 
   1  -3   7      0.17    7.80  0. 1.0000     0. 
  -1  -3  -7     12.88    4.26  0. 1.0000     0. 
  -1   3  -7      8.57    7.23  0. 1.0000     0. 
   1   3   7     37.65    8.07  0. 1.0000     0. 
   2  -3   7     18.12    8.47  0. 1.0000     0. 
  -2  -3  -7      3.51    4.29  0. 1.0000     0. 
  -2   3  -7     27.85    5.31  0. 1.0000     0. 
  -2   3  -7     29.02    8.13  0. 1.0000     0. 
   2   3   7     11.69    4.57  0. 1.0000     0. 
   3  -3   7     11.65    8.09  0. 1.0000     0. 
  -3   3  -7     25.50    5.43  0. 1.0000     0. 
   5  -4  -7     48.35    6.71  0. 1.0000     0. 
  -5   4   7     43.96    9.10  0. 1.0000     0. 
   4  -4  -7     12.53    5.73  0. 1.0000     0. 
  -4  -4   7     14.41    7.38  0. 1.0000     0. 
   4   4  -7      5.37    9.13  0. 1.0000     0. 
  -4   4   7      9.62    7.33  0. 1.0000     0. 
  -4   4   7      5.67    5.87  0. 1.0000     0. 
  -2  -4   7     61.85    7.39  0. 1.0000     0. 
  -2  -4   7     41.59   10.53  0. 1.0000     0. 
   2   4  -7     51.86    6.20  0. 1.0000     0. 
   2   4  -7     53.26    8.83  0. 1.0000     0. 
   1  -4  -7      1.54    5.89  0. 1.0000     0. 
  -1  -4   7      6.45    9.98  0. 1.0000     0. 
  -1  -4   7     11.52    7.37  0. 1.0000     0. 
   1  -4  -7      6.34    4.87  0. 1.0000     0. 
   1   4  -7      1.96    8.62  0. 1.0000     0. 
  -1   4   7      2.13    9.14  0. 1.0000     0. 
   1   4  -7      6.39    5.68  0. 1.0000     0. 
   0  -4   7     12.46   10.26  0. 1.0000     0. 
   0  -4   7      1.88    6.66  0. 1.0000     0. 
   0   4  -7     19.56    8.41  0. 1.0000     0. 
   0   4  -7     18.54    5.68  0. 1.0000     0. 
   2  -4   7     -0.58    7.25  0. 1.0000     0. 
  -2  -4  -7     -1.53    4.93  0. 1.0000     0. 
   2  -4   7     -4.06    9.50  0. 1.0000     0. 
   2   4   7      1.28    6.18  0. 1.0000     0. 
  -2   4  -7     -8.52    8.76  0. 1.0000     0. 
  -2   4  -7     -0.61    6.22  0. 1.0000     0. 
   3  -4   7     -2.68    9.26  0. 1.0000     0. 
   3  -4   7      5.30    7.72  0. 1.0000     0. 
  -3   4  -7     -0.82    6.65  0. 1.0000     0. 
   2   0  -8     39.27    2.46  0. 1.0000     0. 
   2   0  -8     39.84    3.17  0. 1.0000     0. 
  -2   0   8     40.15    2.76  0. 1.0000     0. 
   2   0  -8     40.86    2.32  0. 1.0000     0. 
  -2   0   8     42.10    2.51  0. 1.0000     0. 
   1   0  -8    874.26   22.15  0. 1.0000     0. 
  -1   0   8    930.73   27.21  0. 1.0000     0. 
   1   0  -8    950.61   20.95  0. 1.0000     0. 
   1   0  -8    915.89   22.73  0. 1.0000     0. 
  -1   0   8    951.31   26.04  0. 1.0000     0. 
  -1   0   8    928.85   31.76  0. 1.0000     0. 
   1   0  -8    946.86   21.27  0. 1.0000     0. 
  -1   0   8    941.01   21.60  0. 1.0000     0. 
   0   0  -8    704.22   17.13  0. 1.0000     0. 
   0   0   8    708.58   16.62  0. 1.0000     0. 
   4  -1  -8    175.87    5.55  0. 1.0000     0. 
  -4   1   8    170.14    6.76  0. 1.0000     0. 
   4   1  -8    132.67    7.57  0. 1.0000     0. 
  -3  -1   8     -2.00    3.34  0. 1.0000     0. 
   3  -1  -8      1.14    2.94  0. 1.0000     0. 
  -3   1   8     -1.03    2.92  0. 1.0000     0. 
   3   1  -8      0.88    4.12  0. 1.0000     0. 
   3   1  -8      2.09    2.68  0. 1.0000     0. 
  -3   1   8      0.32    2.58  0. 1.0000     0. 
   0  -1   8     37.31    5.65  0. 1.0000     0. 
   0  -1   8     22.68    1.40  0. 1.0000     0. 
   0  -1  -8     27.06    2.45  0. 1.0000     0. 
   0   1  -8     29.81    3.66  0. 1.0000     0. 
   0   1   8     30.21    4.76  0. 1.0000     0. 
   0   1  -8     24.66    4.04  0. 1.0000     0. 
   0   1   8     30.84    2.59  0. 1.0000     0. 
   1  -1   8   1012.80   34.47  0. 1.0000     0. 
  -1  -1  -8    991.50   23.13  0. 1.0000     0. 
   1   1   8    959.82   23.89  0. 1.0000     0. 
  -1   1  -8    981.52   23.39  0. 1.0000     0. 
  -1   1  -8    922.29   25.05  0. 1.0000     0. 
   5  -2  -8    447.77   12.85  0. 1.0000     0. 
  -3  -2   8      4.81    4.51  0. 1.0000     0. 
   3  -2  -8     13.55    3.70  0. 1.0000     0. 
  -3   2   8     17.35    3.62  0. 1.0000     0. 
   3   2  -8     12.82    5.67  0. 1.0000     0. 
   3   2  -8      8.38    3.51  0. 1.0000     0. 
   2  -2  -8    233.63    7.92  0. 1.0000     0. 
  -2  -2   8    224.96    9.10  0. 1.0000     0. 
   2   2  -8    216.71    9.37  0. 1.0000     0. 
  -2   2   8    219.53    9.86  0. 1.0000     0. 
  -2   2   8    224.91    7.61  0. 1.0000     0. 
   2   2  -8    225.73    7.52  0. 1.0000     0. 
   1  -2  -8     41.86    5.10  0. 1.0000     0. 
  -1  -2   8     26.11    4.56  0. 1.0000     0. 
  -1  -2   8     36.03    6.91  0. 1.0000     0. 
   1  -2  -8     36.79    3.61  0. 1.0000     0. 
  -1   2   8     35.47    3.71  0. 1.0000     0. 
  -1   2   8     43.04    5.83  0. 1.0000     0. 
   1   2  -8     36.54    4.44  0. 1.0000     0. 
   1   2  -8     36.19    5.91  0. 1.0000     0. 
   0  -2   8    168.01    7.99  0. 1.0000     0. 
   0  -2  -8    186.92    6.46  0. 1.0000     0. 
   0  -2   8    174.42   11.88  0. 1.0000     0. 
   0   2  -8    178.70    7.43  0. 1.0000     0. 
   0   2  -8    173.81    9.15  0. 1.0000     0. 
   0   2   8    196.46    6.43  0. 1.0000     0. 
   1  -2   8    200.50   12.58  0. 1.0000     0. 
  -1  -2  -8    198.02    7.57  0. 1.0000     0. 
  -1   2  -8    218.88    9.09  0. 1.0000     0. 
   1   2   8    180.28   11.50  0. 1.0000     0. 
   1   2   8    200.35    7.31  0. 1.0000     0. 
  -1   2  -8    205.60    7.77  0. 1.0000     0. 
  -2  -2  -8     60.66    4.17  0. 1.0000     0. 
  -2   2  -8     63.55    5.76  0. 1.0000     0. 
   2   2   8     52.74    4.45  0. 1.0000     0. 
   5  -3  -8     47.33    5.74  0. 1.0000     0. 
  -5   3   8     57.48    6.35  0. 1.0000     0. 
  -4  -3   8    194.09   10.19  0. 1.0000     0. 
   4  -3  -8    232.26    8.28  0. 1.0000     0. 
  -4   3   8    218.64   10.95  0. 1.0000     0. 
   4   3  -8    214.61   11.75  0. 1.0000     0. 
  -4   3   8    217.52    8.92  0. 1.0000     0. 
   3  -3  -8      7.49    4.55  0. 1.0000     0. 
  -3  -3   8      8.30    5.80  0. 1.0000     0. 
  -3   3   8      9.84    4.24  0. 1.0000     0. 
   3   3  -8     10.52    4.52  0. 1.0000     0. 
  -3   3   8     25.51    6.74  0. 1.0000     0. 
   3   3  -8     21.95    7.17  0. 1.0000     0. 
  -2  -3   8     -3.55    5.61  0. 1.0000     0. 
   2  -3  -8     -1.47    5.05  0. 1.0000     0. 
   2  -3  -8      0.21    3.84  0. 1.0000     0. 
  -2   3   8     -1.31    4.26  0. 1.0000     0. 
   2   3  -8      3.52    7.27  0. 1.0000     0. 
   2   3  -8     -2.72    4.64  0. 1.0000     0. 
  -2   3   8     -3.19    6.34  0. 1.0000     0. 
   1  -3  -8    232.94    8.85  0. 1.0000     0. 
  -1  -3   8    225.62    9.92  0. 1.0000     0. 
  -1  -3   8    224.11   14.62  0. 1.0000     0. 
   1  -3  -8    237.53    8.35  0. 1.0000     0. 
  -1   3   8    226.82   12.78  0. 1.0000     0. 
   1   3  -8    227.05   10.84  0. 1.0000     0. 
  -1   3   8    228.45    8.35  0. 1.0000     0. 
   1   3  -8    225.67    8.62  0. 1.0000     0. 
   0  -3   8     -1.47    5.85  0. 1.0000     0. 
   0  -3  -8      6.97    6.75  0. 1.0000     0. 
   0  -3   8     -9.45    7.99  0. 1.0000     0. 
   0  -3  -8      6.53    3.82  0. 1.0000     0. 
   0   3   8      2.74    4.42  0. 1.0000     0. 
   0   3  -8     -0.34    4.63  0. 1.0000     0. 
   0   3   8      8.91    7.94  0. 1.0000     0. 
   0   3  -8     -2.98    7.22  0. 1.0000     0. 
   1  -3   8     16.58    8.52  0. 1.0000     0. 
  -1  -3  -8     24.39    4.47  0. 1.0000     0. 
   1  -3   8     27.58    6.55  0. 1.0000     0. 
   1   3   8     30.82    9.74  0. 1.0000     0. 
  -1   3  -8     24.44    7.79  0. 1.0000     0. 
  -1   3  -8     29.55    5.26  0. 1.0000     0. 
   1   3   8     21.32    4.41  0. 1.0000     0. 
   2  -3   8    223.68   14.92  0. 1.0000     0. 
  -2  -3  -8    209.85    9.44  0. 1.0000     0. 
  -2   3  -8    256.27   11.14  0. 1.0000     0. 
  -2   3  -8    236.73    9.33  0. 1.0000     0. 
   2   3   8    215.57    8.40  0. 1.0000     0. 
   5  -4  -8     36.48    6.30  0. 1.0000     0. 
  -5   4   8     23.16    8.14  0. 1.0000     0. 
  -4  -4   8      7.32    7.27  0. 1.0000     0. 
   4  -4  -8     13.80    5.69  0. 1.0000     0. 
  -4   4   8      7.66    7.86  0. 1.0000     0. 
  -4   4   8      1.11    6.02  0. 1.0000     0. 
   4   4  -8      8.44    9.80  0. 1.0000     0. 
   3  -4  -8     -7.54    5.47  0. 1.0000     0. 
   3  -4  -8      6.13    5.12  0. 1.0000     0. 
  -3  -4   8     -9.51    7.26  0. 1.0000     0. 
  -3   4   8    -11.05    9.23  0. 1.0000     0. 
   3   4  -8     -6.11    9.21  0. 1.0000     0. 
   3   4  -8     -9.31    5.87  0. 1.0000     0. 
  -3   4   8     -0.91    5.64  0. 1.0000     0. 
   0  -4  -8      9.40    4.66  0. 1.0000     0. 
   0  -4  -8     11.08    6.46  0. 1.0000     0. 
   0   4   8      8.08    5.09  0. 1.0000     0. 
   0   4   8     -1.79   10.78  0. 1.0000     0. 
  -1  -4  -8      8.50    8.17  0. 1.0000     0. 
   1  -4   8     -0.67   10.13  0. 1.0000     0. 
   1  -4   8      9.24    7.21  0. 1.0000     0. 
  -1  -4  -8      5.68    5.21  0. 1.0000     0. 
   1   4   8     -3.07    5.35  0. 1.0000     0. 
   1   4   8      2.85   10.47  0. 1.0000     0. 
  -1   4  -8     -6.87    9.74  0. 1.0000     0. 
  -1   4  -8      7.60    5.69  0. 1.0000     0. 
  -2  -4  -8      3.42    9.74  0. 1.0000     0. 
   2  -4   8      6.60    7.42  0. 1.0000     0. 
   2  -4   8      4.78   10.45  0. 1.0000     0. 
  -2   4  -8      0.62    6.41  0. 1.0000     0. 
  -2   4  -8      4.11    9.76  0. 1.0000     0. 
   2   4   8     16.29    6.16  0. 1.0000     0. 
   3  -4   8     -3.76    8.26  0. 1.0000     0. 
   3  -4   8     13.01    7.86  0. 1.0000     0. 
  -3   4  -8      9.96    6.83  0. 1.0000     0. 
  -4   0   9     -0.39    2.26  0. 1.0000     0. 
  -3   0   9     -0.27    2.10  0. 1.0000     0. 
   0   0  -9     -0.36    2.49  0. 1.0000     0. 
   4   1  -9     74.90    5.86  0. 1.0000     0. 
   3  -1  -9     36.39    3.51  0. 1.0000     0. 
  -3  -1   9     35.78    4.27  0. 1.0000     0. 
  -3   1   9     33.85    4.01  0. 1.0000     0. 
   3   1  -9     33.75    3.19  0. 1.0000     0. 
   3   1  -9     37.17    4.75  0. 1.0000     0. 
  -3   1   9     38.41    3.63  0. 1.0000     0. 
   2  -1  -9     42.77    3.94  0. 1.0000     0. 
  -2  -1   9     44.61    4.33  0. 1.0000     0. 
  -2   1   9     39.53    4.20  0. 1.0000     0. 
  -2   1   9     43.18    3.24  0. 1.0000     0. 
   2   1  -9     41.32    4.76  0. 1.0000     0. 
   2   1  -9     45.95    3.40  0. 1.0000     0. 
   1  -1  -9    505.94   14.01  0. 1.0000     0. 
  -1  -1   9    507.30   19.24  0. 1.0000     0. 
   1  -1  -9    503.86   12.84  0. 1.0000     0. 
  -1  -1   9    478.30   15.48  0. 1.0000     0. 
   1   1  -9    476.82   14.41  0. 1.0000     0. 
   1   1  -9    504.33   12.77  0. 1.0000     0. 
  -1   1   9    485.27   16.73  0. 1.0000     0. 
  -1   1   9    513.22   12.48  0. 1.0000     0. 
   0  -1   9     77.47    7.42  0. 1.0000     0. 
   0  -1  -9     76.27    3.76  0. 1.0000     0. 
   0   1   9     81.28    3.67  0. 1.0000     0. 
   0   1   9     77.05    6.10  0. 1.0000     0. 
   0   1  -9     76.32    4.82  0. 1.0000     0. 
   0   1  -9     66.48    5.68  0. 1.0000     0. 
  -1  -1  -9     10.70    2.98  0. 1.0000     0. 
   1  -1   9      7.63    6.00  0. 1.0000     0. 
  -1   1  -9      8.37    5.30  0. 1.0000     0. 
   1   1   9      5.63    2.78  0. 1.0000     0. 
  -1   1  -9     11.45    4.07  0. 1.0000     0. 
  -2   1  -9    373.90   12.23  0. 1.0000     0. 
   5  -2  -9      2.77    4.17  0. 1.0000     0. 
   4  -2  -9    340.28   10.59  0. 1.0000     0. 
  -4  -2   9    364.98   12.58  0. 1.0000     0. 
  -4   2   9    353.61   11.28  0. 1.0000     0. 
  -4   2   9    353.50   13.64  0. 1.0000     0. 
   4   2  -9    357.22   10.95  0. 1.0000     0. 
   4   2  -9    382.68   12.12  0. 1.0000     0. 
  -2  -2   9     94.62    6.60  0. 1.0000     0. 
   2  -2  -9     97.67    5.85  0. 1.0000     0. 
   2   2  -9    101.44    6.92  0. 1.0000     0. 
  -2   2   9    100.39    7.07  0. 1.0000     0. 
   2   2  -9     95.37    5.34  0. 1.0000     0. 
  -1  -2   9      5.72    4.52  0. 1.0000     0. 
  -1  -2   9      9.48    6.40  0. 1.0000     0. 
   1  -2  -9     13.74    3.29  0. 1.0000     0. 
   1  -2  -9      8.94    4.98  0. 1.0000     0. 
   1   2  -9      3.87    6.05  0. 1.0000     0. 
  -1   2   9     13.42    6.07  0. 1.0000     0. 
   1   2  -9      5.13    3.78  0. 1.0000     0. 
   1  -2   9    129.55   10.75  0. 1.0000     0. 
  -1  -2  -9    134.14    5.79  0. 1.0000     0. 
   1   2   9    122.65   10.90  0. 1.0000     0. 
   1   2   9    130.48    6.01  0. 1.0000     0. 
  -1   2  -9    137.50    8.71  0. 1.0000     0. 
  -1   2  -9    123.99    6.87  0. 1.0000     0. 
   2  -2   9      2.17    8.32  0. 1.0000     0. 
  -2   2  -9      7.62    4.74  0. 1.0000     0. 
   2   2   9     -0.48    3.55  0. 1.0000     0. 
   4  -3  -9    161.28    7.56  0. 1.0000     0. 
  -4  -3   9    161.99    8.89  0. 1.0000     0. 
  -4   3   9    158.33   10.04  0. 1.0000     0. 
   4   3  -9    166.58    9.56  0. 1.0000     0. 
   4   3  -9    169.18    7.69  0. 1.0000     0. 
  -4   3   9    154.87    7.96  0. 1.0000     0. 
   3  -3  -9     11.01    4.72  0. 1.0000     0. 
  -3  -3   9     -0.88    6.01  0. 1.0000     0. 
  -3   3   9      1.31    4.45  0. 1.0000     0. 
  -3   3   9      3.08    6.10  0. 1.0000     0. 
   3   3  -9     -2.30    7.71  0. 1.0000     0. 
   3   3  -9     10.61    4.73  0. 1.0000     0. 
  -2  -3   9    360.49   13.90  0. 1.0000     0. 
   2  -3  -9    368.26   11.84  0. 1.0000     0. 
   2  -3  -9    368.59   11.19  0. 1.0000     0. 
  -2   3   9    369.75   15.86  0. 1.0000     0. 
  -2   3   9    352.61   11.41  0. 1.0000     0. 
   2   3  -9    358.84   13.69  0. 1.0000     0. 
   2   3  -9    374.91   11.64  0. 1.0000     0. 
   1  -3  -9     15.04    5.34  0. 1.0000     0. 
   1  -3  -9     18.47    4.15  0. 1.0000     0. 
  -1  -3   9     26.62    9.12  0. 1.0000     0. 
  -1  -3   9     15.47    6.01  0. 1.0000     0. 
  -1   3   9     17.18    7.99  0. 1.0000     0. 
   1   3  -9     12.63    4.61  0. 1.0000     0. 
   1   3  -9     16.36    7.65  0. 1.0000     0. 
  -1   3   9     19.41    4.30  0. 1.0000     0. 
   0  -3  -9      3.40    3.98  0. 1.0000     0. 
   0  -3  -9     -4.37    6.88  0. 1.0000     0. 
   0  -3   9     -4.92    8.89  0. 1.0000     0. 
   0  -3   9     -8.37    6.00  0. 1.0000     0. 
   0   3  -9     -5.68    7.09  0. 1.0000     0. 
   0   3   9      2.72    4.40  0. 1.0000     0. 
   0   3   9      0.82    7.72  0. 1.0000     0. 
   0   3  -9      1.77    4.68  0. 1.0000     0. 
  -1  -3  -9    117.80    6.45  0. 1.0000     0. 
   1  -3   9    120.42    8.50  0. 1.0000     0. 
   1  -3   9    123.66   12.01  0. 1.0000     0. 
  -1   3  -9    131.60    9.69  0. 1.0000     0. 
   1   3   9    102.73   12.13  0. 1.0000     0. 
   1   3   9    122.00    6.48  0. 1.0000     0. 
  -1   3  -9    123.86    7.11  0. 1.0000     0. 
  -3   3  -9      5.80    5.83  0. 1.0000     0. 
  -6   4   9     92.03    9.44  0. 1.0000     0. 
   5  -4  -9     -0.47    6.10  0. 1.0000     0. 
  -5   4   9      5.45    7.92  0. 1.0000     0. 
   5   4  -9      4.15    9.04  0. 1.0000     0. 
   4  -4  -9      4.87    4.72  0. 1.0000     0. 
   4  -4  -9      9.68    6.03  0. 1.0000     0. 
  -4  -4   9      3.68    7.72  0. 1.0000     0. 
   4   4  -9     -0.15    9.57  0. 1.0000     0. 
  -4   4   9     -2.85    5.87  0. 1.0000     0. 
  -4   4   9     -6.35    8.26  0. 1.0000     0. 
   3  -4  -9    421.62   13.89  0. 1.0000     0. 
   3  -4  -9    420.06   12.57  0. 1.0000     0. 
  -3  -4   9    420.98   16.64  0. 1.0000     0. 
  -3   4   9    427.74   18.73  0. 1.0000     0. 
   3   4  -9    431.69   13.37  0. 1.0000     0. 
  -3   4   9    393.56   14.32  0. 1.0000     0. 
   3   4  -9    432.84   16.60  0. 1.0000     0. 
  -2  -4   9     14.64    7.03  0. 1.0000     0. 
   2  -4  -9     12.86    6.25  0. 1.0000     0. 
   2  -4  -9     13.12    5.13  0. 1.0000     0. 
  -2  -4   9     11.85   10.63  0. 1.0000     0. 
  -2   4   9     20.93    9.45  0. 1.0000     0. 
   2   4  -9     11.50    5.64  0. 1.0000     0. 
   2   4  -9      8.23    9.07  0. 1.0000     0. 
  -2   4   9      4.44    5.49  0. 1.0000     0. 
  -1  -4   9     51.93    7.88  0. 1.0000     0. 
  -1  -4   9     33.01   11.09  0. 1.0000     0. 
   1  -4  -9     39.11    5.32  0. 1.0000     0. 
   1  -4  -9     46.59    6.99  0. 1.0000     0. 
  -1   4   9     40.16   11.00  0. 1.0000     0. 
  -1   4   9     43.41    5.79  0. 1.0000     0. 
   1   4  -9     46.60   10.56  0. 1.0000     0. 
   1   4  -9     34.25    6.00  0. 1.0000     0. 
   0  -4  -9     98.00    7.38  0. 1.0000     0. 
   0  -4  -9     83.81    8.07  0. 1.0000     0. 
   0  -4   9    100.19   13.31  0. 1.0000     0. 
   0  -4   9    119.61    8.46  0. 1.0000     0. 
   0   4   9     82.68    6.63  0. 1.0000     0. 
   0   4  -9    119.93   11.09  0. 1.0000     0. 
   0   4  -9    123.92    7.13  0. 1.0000     0. 
   0   4   9     98.41   13.85  0. 1.0000     0. 
   1  -4   9     -4.53    7.94  0. 1.0000     0. 
  -1  -4  -9      5.96    5.50  0. 1.0000     0. 
  -1  -4  -9     -8.73    8.65  0. 1.0000     0. 
   1  -4   9     -3.91   10.51  0. 1.0000     0. 
   1   4   9      5.88    5.67  0. 1.0000     0. 
  -1   4  -9      4.27   10.88  0. 1.0000     0. 
  -1   4  -9     -7.76    5.92  0. 1.0000     0. 
   2  -4   9     10.46    7.90  0. 1.0000     0. 
   2  -4   9     23.56   11.72  0. 1.0000     0. 
  -2  -4  -9     24.48   10.28  0. 1.0000     0. 
  -2   4  -9     13.02   10.67  0. 1.0000     0. 
  -2   4  -9     22.04    6.87  0. 1.0000     0. 
   2   4   9     22.86    6.46  0. 1.0000     0. 
   3  -4   9     25.75    8.30  0. 1.0000     0. 
   3  -4   9      9.42    7.41  0. 1.0000     0. 
  -3   4  -9     49.54    7.54  0. 1.0000     0. 
   4   0 -10     -2.37    4.30  0. 1.0000     0. 
  -4   0  10      1.72    2.87  0. 1.0000     0. 
   3   0 -10   3848.02   89.72  0. 1.0000     0. 
  -3   0  10   4128.74  112.35  0. 1.0000     0. 
  -2   0  10     -1.08    2.88  0. 1.0000     0. 
  -2   0  10     -0.29    2.82  0. 1.0000     0. 
   2   0 -10     -0.22    2.32  0. 1.0000     0. 
  -1   0  10    727.28   21.59  0. 1.0000     0. 
   1   0 -10    696.89   17.25  0. 1.0000     0. 
   0   0 -10   4513.75  101.48  0. 1.0000     0. 
  -5   1  10     62.14    4.74  0. 1.0000     0. 
   4  -1 -10   1072.82   25.25  0. 1.0000     0. 
  -4  -1  10   1112.97   32.33  0. 1.0000     0. 
  -4   1  10   1125.67   27.02  0. 1.0000     0. 
   4   1 -10   1097.49   27.22  0. 1.0000     0. 
  -4   1  10   1086.48   33.12  0. 1.0000     0. 
   0  -1 -10   1304.67   30.73  0. 1.0000     0. 
   0   1  10   1322.59   39.81  0. 1.0000     0. 
   0   1  10   1323.39   30.93  0. 1.0000     0. 
  -1  -1 -10   1150.56   28.86  0. 1.0000     0. 
   1  -1  10   1180.91   41.98  0. 1.0000     0. 
   1   1  10   1158.69   27.60  0. 1.0000     0. 
  -1   1 -10   1155.63   27.93  0. 1.0000     0. 
  -2   1 -10    257.03    9.48  0. 1.0000     0. 
  -4  -2  10    726.60   24.08  0. 1.0000     0. 
   4  -2 -10    781.90   18.89  0. 1.0000     0. 
  -4   2  10    770.20   19.98  0. 1.0000     0. 
   4   2 -10    747.05   21.02  0. 1.0000     0. 
   4   2 -10    764.07   19.27  0. 1.0000     0. 
   3  -2 -10     22.84    4.57  0. 1.0000     0. 
  -3  -2  10     16.19    4.92  0. 1.0000     0. 
   3   2 -10     17.35    4.19  0. 1.0000     0. 
  -3   2  10     25.78    5.38  0. 1.0000     0. 
   3   2 -10     21.14    6.38  0. 1.0000     0. 
  -3   2  10     20.64    4.39  0. 1.0000     0. 
   2  -2 -10    187.86    7.66  0. 1.0000     0. 
  -2  -2  10    178.69    8.79  0. 1.0000     0. 
   2  -2 -10    181.67    6.94  0. 1.0000     0. 
  -2   2  10    192.66    9.84  0. 1.0000     0. 
  -2   2  10    185.68    6.79  0. 1.0000     0. 
   2   2 -10    183.54    7.14  0. 1.0000     0. 
   2   2 -10    182.09    9.22  0. 1.0000     0. 
  -1  -2  10    633.81   24.74  0. 1.0000     0. 
   1  -2 -10    592.93   16.15  0. 1.0000     0. 
   1  -2 -10    572.27   16.83  0. 1.0000     0. 
  -1  -2  10    597.70   18.79  0. 1.0000     0. 
   1   2 -10    613.22   15.38  0. 1.0000     0. 
  -1   2  10    565.34   22.45  0. 1.0000     0. 
  -1   2  10    585.03   15.72  0. 1.0000     0. 
   1   2 -10    601.22   16.92  0. 1.0000     0. 
   0  -2 -10     -1.11    3.27  0. 1.0000     0. 
   0  -2  10      3.46    7.95  0. 1.0000     0. 
   0  -2  10      4.64    5.23  0. 1.0000     0. 
   0   2  10      2.52    3.46  0. 1.0000     0. 
   0   2  10     -1.39    6.48  0. 1.0000     0. 
   0   2 -10      2.81    4.40  0. 1.0000     0. 
   0   2 -10      7.83    6.46  0. 1.0000     0. 
   1   2  10      2.34    3.73  0. 1.0000     0. 
  -1   2 -10      9.17    5.09  0. 1.0000     0. 
   2   2  10      3.88    3.88  0. 1.0000     0. 
  -6   3  10     40.24    6.82  0. 1.0000     0. 
   5  -3 -10    376.51   11.37  0. 1.0000     0. 
  -5  -3  10    370.32   15.44  0. 1.0000     0. 
  -5   3  10    365.64   15.03  0. 1.0000     0. 
  -5   3  10    344.21   12.64  0. 1.0000     0. 
  -3  -3  10     30.40    6.06  0. 1.0000     0. 
   3  -3 -10     21.12    4.24  0. 1.0000     0. 
   3   3 -10     25.17    5.21  0. 1.0000     0. 
   2  -3 -10    118.35    6.59  0. 1.0000     0. 
  -2  -3  10    137.26    8.15  0. 1.0000     0. 
   2  -3 -10    117.03    7.07  0. 1.0000     0. 
   2   3 -10    143.33    6.91  0. 1.0000     0. 
  -2   3  10    118.15   10.23  0. 1.0000     0. 
  -2   3  10    116.34    6.74  0. 1.0000     0. 
  -1  -3  10    168.70    9.69  0. 1.0000     0. 
   1  -3 -10    182.11    8.20  0. 1.0000     0. 
  -1   3  10    173.97    7.40  0. 1.0000     0. 
  -1   3  10    182.46   11.99  0. 1.0000     0. 
   1   3 -10    176.98    7.83  0. 1.0000     0. 
   0  -3  10     71.35    7.27  0. 1.0000     0. 
   0   3 -10     71.32    6.05  0. 1.0000     0. 
  -2   3 -10     20.26    5.59  0. 1.0000     0. 
   2   3  10     14.81    4.60  0. 1.0000     0. 
  -3   3 -10     11.20    6.16  0. 1.0000     0. 
  -6   4  10      7.77    8.71  0. 1.0000     0. 
   5  -4 -10      5.74    5.65  0. 1.0000     0. 
  -5   4  10      6.05    8.06  0. 1.0000     0. 
  -5   4  10      1.40    5.97  0. 1.0000     0. 
   5   4 -10      4.24    9.47  0. 1.0000     0. 
  -4  -4  10     -1.69    7.70  0. 1.0000     0. 
   4  -4 -10     12.75    5.90  0. 1.0000     0. 
   4  -4 -10      9.56    5.18  0. 1.0000     0. 
  -4   4  10     10.22    8.83  0. 1.0000     0. 
   4   4 -10     19.72    9.20  0. 1.0000     0. 
  -4   4  10      7.26    6.20  0. 1.0000     0. 
   4   4 -10      9.00    6.17  0. 1.0000     0. 
  -3  -4  10     21.30    8.43  0. 1.0000     0. 
   3  -4 -10      8.27    5.62  0. 1.0000     0. 
  -3  -4  10     17.72   10.81  0. 1.0000     0. 
   3  -4 -10      5.25    5.06  0. 1.0000     0. 
   3   4 -10     22.22    9.82  0. 1.0000     0. 
  -3   4  10      5.24    9.25  0. 1.0000     0. 
  -3   4  10      3.41    5.50  0. 1.0000     0. 
   3   4 -10     17.91    6.11  0. 1.0000     0. 
   2  -4 -10      8.25    5.13  0. 1.0000     0. 
  -2  -4  10      9.08   10.56  0. 1.0000     0. 
  -2  -4  10      3.47    7.62  0. 1.0000     0. 
   2  -4 -10     15.86    6.28  0. 1.0000     0. 
  -2   4  10     -8.00    9.75  0. 1.0000     0. 
   2   4 -10     14.23    5.74  0. 1.0000     0. 
   2   4 -10      0.29    9.39  0. 1.0000     0. 
  -2   4  10     23.08    5.94  0. 1.0000     0. 
  -1  -4  10     12.47    7.98  0. 1.0000     0. 
  -1  -4  10      6.59    9.67  0. 1.0000     0. 
   1  -4 -10      7.98    5.14  0. 1.0000     0. 
   1  -4 -10      4.33    6.77  0. 1.0000     0. 
  -1   4  10     15.39    5.36  0. 1.0000     0. 
   1   4 -10      4.26    5.90  0. 1.0000     0. 
  -1   4  10     19.95   10.08  0. 1.0000     0. 
   1   4 -10      7.03    9.50  0. 1.0000     0. 
   0  -4  10      1.44    9.76  0. 1.0000     0. 
   0  -4 -10      0.71    6.79  0. 1.0000     0. 
   0  -4  10     14.98    7.43  0. 1.0000     0. 
   0  -4 -10      1.94    5.53  0. 1.0000     0. 
   0   4 -10     13.93    9.26  0. 1.0000     0. 
   0   4  10     -1.32    5.19  0. 1.0000     0. 
   0   4 -10     11.56    5.87  0. 1.0000     0. 
   0   4  10    -10.63   11.19  0. 1.0000     0. 
  -1  -4 -10     12.27    5.40  0. 1.0000     0. 
   1  -4  10      2.62    8.05  0. 1.0000     0. 
   1  -4  10      1.35   10.12  0. 1.0000     0. 
  -1  -4 -10      3.56    8.30  0. 1.0000     0. 
   1   4  10     12.61    5.81  0. 1.0000     0. 
  -1   4 -10      3.72   10.69  0. 1.0000     0. 
  -1   4 -10      0.14    5.82  0. 1.0000     0. 
   2  -4  10    -13.07    7.87  0. 1.0000     0. 
  -2  -4 -10     -2.22    9.65  0. 1.0000     0. 
   2  -4  10     -1.85   11.26  0. 1.0000     0. 
   2   4  10      1.71    6.29  0. 1.0000     0. 
  -2   4 -10      2.42    6.65  0. 1.0000     0. 
   3  -4  10      2.20    7.93  0. 1.0000     0. 
  -3   4 -10      6.46    6.91  0. 1.0000     0. 
  -4   0  11      0.48    2.72  0. 1.0000     0. 
   4   0 -11      1.98    4.41  0. 1.0000     0. 
   0   0 -11     -1.37    3.39  0. 1.0000     0. 
   0   0  11      3.17    2.30  0. 1.0000     0. 
   1   0  11      0.91    2.45  0. 1.0000     0. 
  -1   0 -11      1.20    4.24  0. 1.0000     0. 
   4  -1 -11      4.39    3.72  0. 1.0000     0. 
  -4  -1  11      1.82    4.38  0. 1.0000     0. 
   4   1 -11      6.78    5.42  0. 1.0000     0. 
  -4   1  11      7.69    3.93  0. 1.0000     0. 
  -4   1  11      5.43    4.00  0. 1.0000     0. 
   3  -1 -11    159.52    6.05  0. 1.0000     0. 
  -3  -1  11    144.52    6.94  0. 1.0000     0. 
  -3   1  11    165.83    6.07  0. 1.0000     0. 
   3   1 -11    158.95    7.56  0. 1.0000     0. 
   3   1 -11    158.03    6.09  0. 1.0000     0. 
  -3   1  11    164.49    7.69  0. 1.0000     0. 
   2  -1 -11   1113.74   27.43  0. 1.0000     0. 
   2  -1 -11   1153.45   26.50  0. 1.0000     0. 
  -2  -1  11   1103.10   33.02  0. 1.0000     0. 
   2   1 -11   1114.56   28.95  0. 1.0000     0. 
  -2   1  11   1123.76   34.43  0. 1.0000     0. 
   2   1 -11   1128.76   25.95  0. 1.0000     0. 
  -2   1  11   1157.87   26.50  0. 1.0000     0. 
  -1  -1  11    295.08   14.31  0. 1.0000     0. 
   1  -1 -11    293.91    8.59  0. 1.0000     0. 
  -1  -1  11    281.99   10.45  0. 1.0000     0. 
   1  -1 -11    278.20   10.14  0. 1.0000     0. 
  -1   1  11    286.21    8.65  0. 1.0000     0. 
   1   1 -11    304.09    9.12  0. 1.0000     0. 
   1   1 -11    293.61   10.64  0. 1.0000     0. 
  -1   1  11    295.49   12.48  0. 1.0000     0. 
   0  -1 -11     22.57    3.48  0. 1.0000     0. 
   0  -1  11     21.86    6.86  0. 1.0000     0. 
   0   1  11     19.96    3.15  0. 1.0000     0. 
   0   1 -11     21.08    4.06  0. 1.0000     0. 
   0   1 -11     16.53    5.80  0. 1.0000     0. 
   0   1  11     28.46    7.08  0. 1.0000     0. 
   1  -1  11    436.89   20.44  0. 1.0000     0. 
  -2   1 -11    347.44   11.58  0. 1.0000     0. 
   5   2 -11     62.41    7.84  0. 1.0000     0. 
  -5   2  11     30.38    5.99  0. 1.0000     0. 
   4  -2 -11    523.04   14.35  0. 1.0000     0. 
  -4   2  11    525.12   15.21  0. 1.0000     0. 
  -2  -2  11      8.58    5.37  0. 1.0000     0. 
   2   2 -11      3.12    6.30  0. 1.0000     0. 
   2   2 -11      0.49    4.05  0. 1.0000     0. 
  -1  -2  11    665.23   27.72  0. 1.0000     0. 
  -1  -2  11    676.90   20.92  0. 1.0000     0. 
   1   2 -11    647.49   17.28  0. 1.0000     0. 
  -1  -2 -11     36.39    4.59  0. 1.0000     0. 
  -1   2 -11     47.83    5.69  0. 1.0000     0. 
   6  -3 -11      3.78    5.61  0. 1.0000     0. 
  -5  -3  11    130.72    9.17  0. 1.0000     0. 
   5  -3 -11    144.17    6.99  0. 1.0000     0. 
  -5   3  11    128.30    8.17  0. 1.0000     0. 
   5   3 -11    146.69   10.32  0. 1.0000     0. 
  -4  -3  11     24.27    6.73  0. 1.0000     0. 
   4  -3 -11     25.96    5.54  0. 1.0000     0. 
   4   3 -11     36.75    8.63  0. 1.0000     0. 
  -4   3  11     24.06    5.86  0. 1.0000     0. 
   4   3 -11     26.85    5.52  0. 1.0000     0. 
   3  -3 -11      0.11    5.02  0. 1.0000     0. 
  -3  -3  11     -0.36    5.82  0. 1.0000     0. 
  -3   3  11      3.61    5.18  0. 1.0000     0. 
   3   3 -11      8.88    7.75  0. 1.0000     0. 
   3   3 -11      1.04    4.84  0. 1.0000     0. 
   2  -3 -11     65.84    6.37  0. 1.0000     0. 
  -2   3  11     70.32    5.93  0. 1.0000     0. 
   1  -3 -11     20.27    5.78  0. 1.0000     0. 
  -1   3  11     30.54    4.79  0. 1.0000     0. 
   0  -3  11     83.41    7.67  0. 1.0000     0. 
   0  -3  11     63.72   11.28  0. 1.0000     0. 
   0  -3 -11     86.53    8.47  0. 1.0000     0. 
   0   3  11     88.19    5.91  0. 1.0000     0. 
   0   3 -11     80.26    6.35  0. 1.0000     0. 
   0   3 -11     81.33    9.67  0. 1.0000     0. 
  -1  -3 -11      1.02    4.66  0. 1.0000     0. 
   1  -3  11      3.92    6.37  0. 1.0000     0. 
   1  -3  11     13.76    9.24  0. 1.0000     0. 
  -1   3 -11     18.70    9.13  0. 1.0000     0. 
  -1   3 -11      7.72    5.35  0. 1.0000     0. 
   1   3  11      5.36    4.73  0. 1.0000     0. 
   2  -3  11     27.29   10.48  0. 1.0000     0. 
  -2   3 -11     28.86    6.27  0. 1.0000     0. 
   6  -4 -11     24.88    6.47  0. 1.0000     0. 
  -5  -4  11      2.15    8.77  0. 1.0000     0. 
   5  -4 -11      7.11    6.01  0. 1.0000     0. 
  -5   4  11     -0.15    6.42  0. 1.0000     0. 
  -4  -4  11     12.80    7.73  0. 1.0000     0. 
   4  -4 -11     -0.96    6.13  0. 1.0000     0. 
   4  -4 -11      0.14    5.20  0. 1.0000     0. 
   4   4 -11     -7.65    6.17  0. 1.0000     0. 
  -4   4  11     -0.28    8.96  0. 1.0000     0. 
   4   4 -11    -11.88   10.17  0. 1.0000     0. 
  -4   4  11     -0.71    5.98  0. 1.0000     0. 
   3  -4 -11     17.34    5.64  0. 1.0000     0. 
  -3  -4  11      9.88    8.06  0. 1.0000     0. 
  -3  -4  11     38.51   13.62  0. 1.0000     0. 
   3  -4 -11     12.53    5.32  0. 1.0000     0. 
   3   4 -11     11.61    8.83  0. 1.0000     0. 
   3   4 -11      7.93    6.49  0. 1.0000     0. 
  -3   4  11     16.47    9.90  0. 1.0000     0. 
  -3   4  11     17.11    5.64  0. 1.0000     0. 
  -2  -4  11      8.68   11.18  0. 1.0000     0. 
   2  -4 -11     -3.96    6.11  0. 1.0000     0. 
   2  -4 -11      1.68    5.03  0. 1.0000     0. 
  -2  -4  11      8.98    7.82  0. 1.0000     0. 
  -2   4  11    -13.18    9.53  0. 1.0000     0. 
  -2   4  11     -1.97    5.58  0. 1.0000     0. 
   2   4 -11      3.00    5.86  0. 1.0000     0. 
   2   4 -11      7.15    9.22  0. 1.0000     0. 
  -1  -4  11     15.70    8.12  0. 1.0000     0. 
   1  -4 -11     26.24    5.35  0. 1.0000     0. 
   1  -4 -11     32.49    7.12  0. 1.0000     0. 
  -1  -4  11     13.11   10.65  0. 1.0000     0. 
  -1   4  11     22.91    5.54  0. 1.0000     0. 
  -1   4  11     35.85   10.37  0. 1.0000     0. 
   1   4 -11     21.18    9.31  0. 1.0000     0. 
   1   4 -11     19.75    6.19  0. 1.0000     0. 
   0  -4  11     48.45    8.28  0. 1.0000     0. 
   0  -4  11     30.65   10.48  0. 1.0000     0. 
   0  -4 -11     54.39    6.38  0. 1.0000     0. 
   0  -4 -11     50.50    7.77  0. 1.0000     0. 
   0   4  11     43.72   10.35  0. 1.0000     0. 
   0   4 -11     47.00    6.46  0. 1.0000     0. 
   0   4 -11     50.95   10.45  0. 1.0000     0. 
   0   4  11     56.17    6.08  0. 1.0000     0. 
   1  -4  11     30.16    8.33  0. 1.0000     0. 
   1  -4  11     15.15   11.08  0. 1.0000     0. 
  -1  -4 -11     29.92    8.78  0. 1.0000     0. 
  -1  -4 -11     21.74    5.98  0. 1.0000     0. 
  -1   4 -11     19.82   10.17  0. 1.0000     0. 
  -1   4 -11     11.35    6.43  0. 1.0000     0. 
   1   4  11     37.90    6.14  0. 1.0000     0. 
   2  -4  11     29.96    8.38  0. 1.0000     0. 
  -2   4 -11     45.23    7.63  0. 1.0000     0. 
  -4   0  12   1111.95   32.39  0. 1.0000     0. 
  -3   0  12    248.97    9.64  0. 1.0000     0. 
  -3   0  12    258.51    7.84  0. 1.0000     0. 
  -2   0  12    611.77   15.56  0. 1.0000     0. 
  -2   0  12    615.04   19.35  0. 1.0000     0. 
  -5   1  12      4.52    4.31  0. 1.0000     0. 
   5   1 -12      7.02    6.10  0. 1.0000     0. 
   4  -1 -12    103.66    5.79  0. 1.0000     0. 
  -4  -1  12    111.07    6.60  0. 1.0000     0. 
  -4   1  12    104.88    6.48  0. 1.0000     0. 
   4   1 -12     97.18    7.20  0. 1.0000     0. 
  -4   1  12    114.78    6.02  0. 1.0000     0. 
   0  -1  12    160.41   10.51  0. 1.0000     0. 
   0  -1 -12    143.40    6.34  0. 1.0000     0. 
   0   1 -12    151.29    6.45  0. 1.0000     0. 
   0   1  12    131.82    9.58  0. 1.0000     0. 
   0   1  12    146.01    5.87  0. 1.0000     0. 
   0   1 -12    148.32    8.36  0. 1.0000     0. 
   1  -1  12     -0.23    6.46  0. 1.0000     0. 
   1   1  12      1.05    3.06  0. 1.0000     0. 
  -1   1 -12     -0.77    3.92  0. 1.0000     0. 
  -6   2  12     28.92    5.39  0. 1.0000     0. 
   5  -2 -12     45.40    5.52  0. 1.0000     0. 
   5   2 -12     34.50    6.98  0. 1.0000     0. 
  -5   2  12     37.95    5.13  0. 1.0000     0. 
  -5   2  12     37.85    5.81  0. 1.0000     0. 
  -4   2  12      1.69    5.49  0. 1.0000     0. 
   4   2 -12     13.13    6.73  0. 1.0000     0. 
  -3  -2  12    399.83   14.31  0. 1.0000     0. 
   3   2 -12    405.21   11.82  0. 1.0000     0. 
  -3   2  12    396.48   15.48  0. 1.0000     0. 
  -2  -2  12    131.27    8.04  0. 1.0000     0. 
   2   2 -12    135.90    6.52  0. 1.0000     0. 
  -2   2  12    146.84    9.63  0. 1.0000     0. 
  -1  -2  12    358.07   13.42  0. 1.0000     0. 
   1  -2 -12    366.65   11.15  0. 1.0000     0. 
   1   2 -12    381.96   11.32  0. 1.0000     0. 
  -1   2  12    369.02   15.88  0. 1.0000     0. 
   0  -2 -12     13.84    3.87  0. 1.0000     0. 
   0  -2  12      7.76    7.84  0. 1.0000     0. 
   0   2 -12      9.25    7.15  0. 1.0000     0. 
   0   2  12     15.45    8.11  0. 1.0000     0. 
  -1  -2 -12    565.94   15.93  0. 1.0000     0. 
   1  -2  12    554.71   25.24  0. 1.0000     0. 
  -1   2 -12    564.94   17.62  0. 1.0000     0. 
  -5  -3  12     35.70    6.81  0. 1.0000     0. 
   5  -3 -12     26.12    5.55  0. 1.0000     0. 
  -5   3  12     24.16    5.87  0. 1.0000     0. 
   5   3 -12     33.21    8.36  0. 1.0000     0. 
  -5   3  12     26.96    7.93  0. 1.0000     0. 
  -4  -3  12      1.94    6.58  0. 1.0000     0. 
   4  -3 -12     30.10    5.75  0. 1.0000     0. 
   4   3 -12      8.68    8.71  0. 1.0000     0. 
  -4   3  12     25.13    5.69  0. 1.0000     0. 
  -4   3  12     17.38    7.12  0. 1.0000     0. 
   4   3 -12      7.34    5.53  0. 1.0000     0. 
  -3  -3  12      1.95    6.25  0. 1.0000     0. 
   3  -3 -12      1.49    4.56  0. 1.0000     0. 
   3  -3 -12     -4.28    5.34  0. 1.0000     0. 
  -3   3  12     10.54    8.64  0. 1.0000     0. 
   3   3 -12     12.99    5.36  0. 1.0000     0. 
   3   3 -12      2.47    8.37  0. 1.0000     0. 
  -3   3  12     -1.35    5.20  0. 1.0000     0. 
  -2  -3  12    256.59   11.47  0. 1.0000     0. 
  -2  -3  12    234.41   16.24  0. 1.0000     0. 
   2  -3 -12    239.76    9.57  0. 1.0000     0. 
   2  -3 -12    257.13    9.74  0. 1.0000     0. 
  -2   3  12    248.26   15.36  0. 1.0000     0. 
  -2   3  12    244.10    9.59  0. 1.0000     0. 
   2   3 -12    261.26   11.52  0. 1.0000     0. 
   2   3 -12    246.29    9.37  0. 1.0000     0. 
  -1  -3  12     -9.70    6.65  0. 1.0000     0. 
   1  -3 -12      0.61    5.53  0. 1.0000     0. 
   1  -3 -12     -0.57    4.27  0. 1.0000     0. 
  -1  -3  12      6.55    9.46  0. 1.0000     0. 
  -1   3  12     -0.54    4.44  0. 1.0000     0. 
   1   3 -12      1.98    5.02  0. 1.0000     0. 
  -1   3  12     -7.42    9.38  0. 1.0000     0. 
   1   3 -12     -7.48    8.72  0. 1.0000     0. 
   0  -3 -12     12.83    5.20  0. 1.0000     0. 
   0  -3  12     -2.98    9.12  0. 1.0000     0. 
   0  -3 -12     12.84    7.81  0. 1.0000     0. 
   0  -3  12     -9.21    6.87  0. 1.0000     0. 
   0   3  12      1.03    4.77  0. 1.0000     0. 
   0   3 -12      5.82    8.37  0. 1.0000     0. 
   0   3 -12      0.39    5.33  0. 1.0000     0. 
   0   3  12     -2.29   10.75  0. 1.0000     0. 
  -1  -3 -12     16.68    4.93  0. 1.0000     0. 
   1  -3  12     19.43    6.92  0. 1.0000     0. 
   1  -3  12     15.51    9.79  0. 1.0000     0. 
  -1   3 -12     15.42    8.89  0. 1.0000     0. 
   1   3  12     15.57    5.35  0. 1.0000     0. 
  -1   3 -12     16.20    5.58  0. 1.0000     0. 
   2  -3  12    219.59   17.50  0. 1.0000     0. 
  -2   3 -12    202.05   10.04  0. 1.0000     0. 
   5  -4 -12     -9.72    5.88  0. 1.0000     0. 
  -5  -4  12    -14.01    8.57  0. 1.0000     0. 
  -5   4  12     -3.02    6.68  0. 1.0000     0. 
  -4  -4  12      3.92    8.48  0. 1.0000     0. 
   4  -4 -12     -1.32    6.04  0. 1.0000     0. 
  -4   4  12     -1.12    6.21  0. 1.0000     0. 
   4   4 -12     -3.38    6.30  0. 1.0000     0. 
   3  -4 -12      3.86    5.63  0. 1.0000     0. 
  -3  -4  12      5.83    7.91  0. 1.0000     0. 
  -3   4  12      3.75    5.58  0. 1.0000     0. 
   3   4 -12     -3.98    6.06  0. 1.0000     0. 
  -2  -4  12      6.08    8.05  0. 1.0000     0. 
  -2  -4  12      9.21   10.75  0. 1.0000     0. 
   2  -4 -12     -1.00    6.07  0. 1.0000     0. 
  -2   4  12      6.81    5.74  0. 1.0000     0. 
   2   4 -12      2.17    6.41  0. 1.0000     0. 
  -2   4  12      4.04   10.18  0. 1.0000     0. 
   2   4 -12      9.31   10.88  0. 1.0000     0. 
   1  -4 -12     10.54    6.92  0. 1.0000     0. 
  -1  -4  12     11.22    8.43  0. 1.0000     0. 
  -1   4  12     10.25    5.46  0. 1.0000     0. 
   1   4 -12      9.09    6.22  0. 1.0000     0. 
   0  -4 -12     30.67    7.20  0. 1.0000     0. 
   0  -4  12     19.14    8.16  0. 1.0000     0. 
   0   4  12     28.67    5.97  0. 1.0000     0. 
   0   4 -12     34.63    6.38  0. 1.0000     0. 
   1  -4  12     -8.00    7.89  0. 1.0000     0. 
  -1  -4 -12    -11.01    8.19  0. 1.0000     0. 
   1   4  12     -6.90    5.85  0. 1.0000     0. 
  -1   4 -12     -2.00    6.78  0. 1.0000     0. 
  -4  -1  13      0.73    4.78  0. 1.0000     0. 
   4  -1 -13      5.14    4.20  0. 1.0000     0. 
  -4   1  13      2.35    5.05  0. 1.0000     0. 
   4   1 -13      2.18    3.80  0. 1.0000     0. 
   4   1 -13      9.40    5.69  0. 1.0000     0. 
  -4   1  13     -0.10    4.56  0. 1.0000     0. 
  -3  -1  13     23.99    4.63  0. 1.0000     0. 
   3  -1 -13     25.35    4.39  0. 1.0000     0. 
  -3   1  13     34.13    5.46  0. 1.0000     0. 
  -3   1  13     26.20    4.27  0. 1.0000     0. 
   3   1 -13     12.47    5.61  0. 1.0000     0. 
   3   1 -13     23.45    3.96  0. 1.0000     0. 
   2  -1 -13     12.29    4.88  0. 1.0000     0. 
   2  -1 -13     11.50    3.43  0. 1.0000     0. 
  -2  -1  13     14.81    7.19  0. 1.0000     0. 
  -2  -1  13     11.31    4.62  0. 1.0000     0. 
  -2   1  13     10.53    6.17  0. 1.0000     0. 
  -2   1  13      9.86    3.58  0. 1.0000     0. 
   2   1 -13     13.73    3.76  0. 1.0000     0. 
   2   1 -13     22.40    5.78  0. 1.0000     0. 
  -1  -1  13     47.00    5.38  0. 1.0000     0. 
  -1  -1  13     54.54    8.55  0. 1.0000     0. 
   1  -1 -13     48.55    5.89  0. 1.0000     0. 
   1  -1 -13     49.07    3.97  0. 1.0000     0. 
   1   1 -13     41.20    6.87  0. 1.0000     0. 
   1   1 -13     52.60    4.76  0. 1.0000     0. 
  -1   1  13     51.67    4.19  0. 1.0000     0. 
  -1   1  13     47.20    7.59  0. 1.0000     0. 
   0  -1  13    209.23   12.30  0. 1.0000     0. 
   0   1 -13    196.05    9.85  0. 1.0000     0. 
  -1   1 -13    149.27    7.13  0. 1.0000     0. 
   1   1  13    142.97    6.11  0. 1.0000     0. 
  -2   1 -13    195.03    8.26  0. 1.0000     0. 
  -5  -2  13     14.69    5.95  0. 1.0000     0. 
   5  -2 -13      4.41    4.67  0. 1.0000     0. 
  -5   2  13      3.40    5.24  0. 1.0000     0. 
  -5   2  13      3.72    5.85  0. 1.0000     0. 
   5   2 -13      6.20    8.37  0. 1.0000     0. 
   4  -2 -13     63.02    5.89  0. 1.0000     0. 
  -4   2  13     68.31    6.04  0. 1.0000     0. 
   4   2 -13     62.29    8.28  0. 1.0000     0. 
  -4   2  13     74.43    7.38  0. 1.0000     0. 
   3  -2 -13      2.03    3.82  0. 1.0000     0. 
  -3   2  13     -0.81    6.42  0. 1.0000     0. 
   3   2 -13     -3.47    7.36  0. 1.0000     0. 
   2  -2 -13     23.33    4.48  0. 1.0000     0. 
  -2  -2  13     18.68    9.03  0. 1.0000     0. 
  -2   2  13     25.92    7.95  0. 1.0000     0. 
   2   2 -13     12.42    6.78  0. 1.0000     0. 
  -1  -2  13    125.91   11.52  0. 1.0000     0. 
   1  -2 -13    124.28    6.09  0. 1.0000     0. 
  -1   2  13    124.43   10.65  0. 1.0000     0. 
   1   2 -13    122.75    8.73  0. 1.0000     0. 
   0  -2  13     39.69    9.61  0. 1.0000     0. 
   0  -2 -13     28.85    8.02  0. 1.0000     0. 
   0  -2  13     34.12    6.40  0. 1.0000     0. 
   0  -2 -13     29.32    4.88  0. 1.0000     0. 
   0   2  13     28.73    5.11  0. 1.0000     0. 
   0   2  13     28.21    8.74  0. 1.0000     0. 
   0   2 -13     38.12    8.01  0. 1.0000     0. 
   0   2 -13     24.53    5.38  0. 1.0000     0. 
   1  -2  13    240.46   16.22  0. 1.0000     0. 
  -1  -2 -13    234.35    9.57  0. 1.0000     0. 
   1   2  13    232.31    8.35  0. 1.0000     0. 
  -1   2 -13    240.06   12.02  0. 1.0000     0. 
  -1   2 -13    234.04    9.43  0. 1.0000     0. 
   6  -3 -13     69.18    6.62  0. 1.0000     0. 
  -6   3  13     54.78    8.71  0. 1.0000     0. 
  -4  -3  13     65.94    7.78  0. 1.0000     0. 
   4  -3 -13     58.69    6.10  0. 1.0000     0. 
   4  -3 -13     54.67    5.40  0. 1.0000     0. 
   4   3 -13     68.93    6.30  0. 1.0000     0. 
  -4   3  13     78.51    8.57  0. 1.0000     0. 
   4   3 -13     66.40    9.07  0. 1.0000     0. 
  -4   3  13     71.65    6.36  0. 1.0000     0. 
  -3  -3  13     93.32    7.87  0. 1.0000     0. 
   3  -3 -13     92.71    6.84  0. 1.0000     0. 
   3  -3 -13     90.55    6.47  0. 1.0000     0. 
  -3  -3  13     89.11   11.80  0. 1.0000     0. 
   3   3 -13    100.15    6.75  0. 1.0000     0. 
  -3   3  13     85.64    6.91  0. 1.0000     0. 
  -3   3  13     83.25   10.12  0. 1.0000     0. 
   3   3 -13     88.46    9.98  0. 1.0000     0. 
   2  -3 -13     99.28    7.18  0. 1.0000     0. 
  -2  -3  13     87.50   12.73  0. 1.0000     0. 
   2  -3 -13     97.91    6.30  0. 1.0000     0. 
  -2  -3  13     81.53    8.18  0. 1.0000     0. 
  -2   3  13     75.50   10.93  0. 1.0000     0. 
   2   3 -13    100.25    6.77  0. 1.0000     0. 
  -2   3  13     81.97    6.63  0. 1.0000     0. 
   2   3 -13    114.29    9.59  0. 1.0000     0. 
   1  -3 -13     16.73    6.12  0. 1.0000     0. 
  -1  -3  13     11.66   10.33  0. 1.0000     0. 
   1  -3 -13     19.43    4.88  0. 1.0000     0. 
  -1  -3  13     33.95    7.17  0. 1.0000     0. 
   1   3 -13     23.40    5.53  0. 1.0000     0. 
  -1   3  13     20.25    9.40  0. 1.0000     0. 
   1   3 -13     31.69    8.64  0. 1.0000     0. 
  -1   3  13     19.96    4.85  0. 1.0000     0. 
   0  -3 -13    196.73    9.22  0. 1.0000     0. 
   0  -3  13    197.90   10.84  0. 1.0000     0. 
   0  -3  13    203.33   15.37  0. 1.0000     0. 
   0  -3 -13    183.46   10.83  0. 1.0000     0. 
   0   3 -13    212.69    8.50  0. 1.0000     0. 
   0   3  13    199.39    8.55  0. 1.0000     0. 
   0   3  13    202.97   14.26  0. 1.0000     0. 
   0   3 -13    211.37   12.40  0. 1.0000     0. 
   2  -3  13     -4.54    7.58  0. 1.0000     0. 
   2  -3  13     -8.27   10.91  0. 1.0000     0. 
  -2   3 -13    -11.36    6.46  0. 1.0000     0. 
   3   4 -13     35.45    6.72  0. 1.0000     0. 
  -2  -4  13     -6.24    8.42  0. 1.0000     0. 
   5  -1 -14     69.11    5.99  0. 1.0000     0. 
   5   1 -14     72.04    7.43  0. 1.0000     0. 
  -5   1  14     63.57    6.03  0. 1.0000     0. 
   4  -1 -14    614.76   15.99  0. 1.0000     0. 
  -4  -1  14    591.16   19.54  0. 1.0000     0. 
   4   1 -14    620.70   18.65  0. 1.0000     0. 
  -4   1  14    635.47   16.95  0. 1.0000     0. 
   4   1 -14    619.16   16.22  0. 1.0000     0. 
  -4   1  14    649.58   21.45  0. 1.0000     0. 
  -3  -1  14     -2.28    4.78  0. 1.0000     0. 
   3  -1 -14      9.04    3.52  0. 1.0000     0. 
   3  -1 -14      2.30    4.43  0. 1.0000     0. 
   3   1 -14     -1.84    3.90  0. 1.0000     0. 
  -3   1  14     -1.36    6.02  0. 1.0000     0. 
   3   1 -14      3.19    6.44  0. 1.0000     0. 
  -3   1  14      3.67    4.16  0. 1.0000     0. 
  -2  -1  14      6.04    7.27  0. 1.0000     0. 
   2  -1 -14     11.41    5.30  0. 1.0000     0. 
  -2  -1  14      3.05    4.95  0. 1.0000     0. 
   2  -1 -14     11.60    3.55  0. 1.0000     0. 
   2   1 -14      6.06    4.05  0. 1.0000     0. 
  -2   1  14     11.95    6.93  0. 1.0000     0. 
   2   1 -14     -3.99    7.21  0. 1.0000     0. 
  -2   1  14     10.39    3.78  0. 1.0000     0. 
   1  -1 -14    799.80   20.73  0. 1.0000     0. 
  -1  -1  14    823.34   24.65  0. 1.0000     0. 
  -1  -1  14    823.32   30.17  0. 1.0000     0. 
   1  -1 -14    796.57   22.05  0. 1.0000     0. 
  -1   1  14    822.73   26.80  0. 1.0000     0. 
   1   1 -14    795.75   21.32  0. 1.0000     0. 
  -1   1  14    811.09   20.81  0. 1.0000     0. 
   1   1 -14    821.49   20.23  0. 1.0000     0. 
   0  -1  14     89.45    6.71  0. 1.0000     0. 
   0  -1 -14    101.79    5.48  0. 1.0000     0. 
   0  -1  14    122.27   11.01  0. 1.0000     0. 
   0   1 -14     98.75    6.32  0. 1.0000     0. 
   0   1  14    101.42    5.24  0. 1.0000     0. 
   0   1 -14     74.25    8.17  0. 1.0000     0. 
  -1   1 -14     18.82    5.11  0. 1.0000     0. 
   1   1  14      6.87    3.82  0. 1.0000     0. 
   6  -2 -14    113.42    7.54  0. 1.0000     0. 
  -6   2  14    131.47    8.44  0. 1.0000     0. 
  -4  -2  14      5.35    6.33  0. 1.0000     0. 
   4   2 -14      5.13    4.68  0. 1.0000     0. 
   4   2 -14      1.80    7.82  0. 1.0000     0. 
   3  -2 -14     23.09    4.69  0. 1.0000     0. 
   3  -2 -14     27.36    5.83  0. 1.0000     0. 
  -3  -2  14     42.36    9.72  0. 1.0000     0. 
   3   2 -14     31.20    7.95  0. 1.0000     0. 
  -3   2  14     28.26    8.09  0. 1.0000     0. 
   3   2 -14     15.27    4.95  0. 1.0000     0. 
  -3   2  14     24.40    4.99  0. 1.0000     0. 
   2  -2 -14     13.99    5.74  0. 1.0000     0. 
   2  -2 -14      9.81    4.33  0. 1.0000     0. 
  -2  -2  14     35.64    9.93  0. 1.0000     0. 
  -2  -2  14     20.52    6.62  0. 1.0000     0. 
   2   2 -14     19.16    7.76  0. 1.0000     0. 
  -2   2  14     11.00    7.59  0. 1.0000     0. 
  -2   2  14     10.54    4.53  0. 1.0000     0. 
   2   2 -14     25.95    5.05  0. 1.0000     0. 
   1  -2 -14     21.59    4.39  0. 1.0000     0. 
   1  -2 -14     21.81    6.50  0. 1.0000     0. 
  -1  -2  14     20.55    9.97  0. 1.0000     0. 
  -1   2  14     22.60    4.51  0. 1.0000     0. 
   1   2 -14     24.28    8.13  0. 1.0000     0. 
   1   2 -14     19.48    5.60  0. 1.0000     0. 
  -1   2  14     18.03    8.35  0. 1.0000     0. 
  -1  -2 -14     53.55    5.57  0. 1.0000     0. 
   1  -2  14     29.22   10.47  0. 1.0000     0. 
  -1   2 -14     37.95    6.61  0. 1.0000     0. 
   1   2  14     51.65    5.02  0. 1.0000     0. 
  -2   2 -14      2.24    5.91  0. 1.0000     0. 
   6  -3 -14     18.86    6.42  0. 1.0000     0. 
  -6   3  14     10.81    8.21  0. 1.0000     0. 
  -5  -3  14     59.22    8.35  0. 1.0000     0. 
   5  -3 -14     66.90    6.79  0. 1.0000     0. 
   5   3 -14     64.12   10.42  0. 1.0000     0. 
  -5   3  14     59.02    8.68  0. 1.0000     0. 
   4  -3 -14    -12.90    5.94  0. 1.0000     0. 
  -4   3  14     -7.42    5.74  0. 1.0000     0. 
   0  -3 -14     59.55    5.95  0. 1.0000     0. 
   0  -3  14     51.11    7.99  0. 1.0000     0. 
   0  -3  14     42.98   11.38  0. 1.0000     0. 
   0  -3 -14     51.91    7.80  0. 1.0000     0. 
   0   3  14     60.47    5.76  0. 1.0000     0. 
   0   3  14     42.79   12.00  0. 1.0000     0. 
   0   3 -14     37.29   10.63  0. 1.0000     0. 
   0   3 -14     49.63    6.14  0. 1.0000     0. 
   1  -3  14     12.07    7.68  0. 1.0000     0. 
   1  -3  14     19.99   10.67  0. 1.0000     0. 
  -1  -3 -14      9.53    9.11  0. 1.0000     0. 
  -1  -3 -14      8.25    5.68  0. 1.0000     0. 
  -1   3 -14      8.51    6.27  0. 1.0000     0. 
  -1   3 -14     22.65    9.77  0. 1.0000     0. 
   1   3  14     11.82    5.85  0. 1.0000     0. 
   2  -3  14     13.75    7.70  0. 1.0000     0. 
   2  -3  14     -5.24    8.55  0. 1.0000     0. 
  -2   3 -14     15.85    6.84  0. 1.0000     0. 
  -6   1  15    242.05   11.05  0. 1.0000     0. 
   5  -1 -15    313.57   10.22  0. 1.0000     0. 
   4  -1 -15    148.87    7.23  0. 1.0000     0. 
  -4   1  15    151.66    7.43  0. 1.0000     0. 
  -4   1  15    142.04    9.03  0. 1.0000     0. 
   3  -1 -15     39.31    4.61  0. 1.0000     0. 
   3  -1 -15     40.87    5.25  0. 1.0000     0. 
  -3   1  15     38.99    7.42  0. 1.0000     0. 
  -3   1  15     41.91    4.98  0. 1.0000     0. 
   2  -1 -15    236.86    8.22  0. 1.0000     0. 
   2  -1 -15    214.46    9.05  0. 1.0000     0. 
  -2   1  15    222.72    8.23  0. 1.0000     0. 
  -2   1  15    249.94   12.15  0. 1.0000     0. 
   1  -1 -15    120.03    7.56  0. 1.0000     0. 
   1  -1 -15    118.40    6.13  0. 1.0000     0. 
  -1   1  15    118.16    5.78  0. 1.0000     0. 
  -1   1  15    123.95   10.69  0. 1.0000     0. 
   0  -1 -15     31.02    4.76  0. 1.0000     0. 
   0   1  15     32.94    4.71  0. 1.0000     0. 
   1   1  15     46.36    4.49  0. 1.0000     0. 
   6  -2 -15    192.23    8.54  0. 1.0000     0. 
  -6   2  15    171.29   10.54  0. 1.0000     0. 
   6   2 -15    153.36   11.74  0. 1.0000     0. 
   5  -2 -15     37.99    5.98  0. 1.0000     0. 
  -5  -2  15     43.49    7.31  0. 1.0000     0. 
  -5   2  15     40.08    6.01  0. 1.0000     0. 
  -5   2  15     42.55    7.51  0. 1.0000     0. 
  -4  -2  15     64.74    7.77  0. 1.0000     0. 
   4  -2 -15     84.79    6.42  0. 1.0000     0. 
  -4   2  15     82.38    8.29  0. 1.0000     0. 
   4   2 -15     81.36    8.43  0. 1.0000     0. 
   4   2 -15     75.36    6.13  0. 1.0000     0. 
  -4   2  15     78.67    6.45  0. 1.0000     0. 
  -3  -2  15    249.56   11.50  0. 1.0000     0. 
   3  -2 -15    242.69    9.97  0. 1.0000     0. 
  -3  -2  15    240.47   15.70  0. 1.0000     0. 
   3  -2 -15    251.25    9.44  0. 1.0000     0. 
   3   2 -15    255.21    9.36  0. 1.0000     0. 
   3   2 -15    238.28   11.90  0. 1.0000     0. 
  -3   2  15    255.03    9.51  0. 1.0000     0. 
  -3   2  15    244.14   13.37  0. 1.0000     0. 
   2  -2 -15     24.34    6.33  0. 1.0000     0. 
   2  -2 -15     24.25    4.70  0. 1.0000     0. 
  -2  -2  15     22.08    6.97  0. 1.0000     0. 
  -2  -2  15     22.16    9.80  0. 1.0000     0. 
   2   2 -15     12.95    5.30  0. 1.0000     0. 
   2   2 -15     23.94    9.09  0. 1.0000     0. 
  -2   2  15     21.33    4.70  0. 1.0000     0. 
  -2   2  15     15.22    8.26  0. 1.0000     0. 
   1  -2 -15     -0.84    3.90  0. 1.0000     0. 
  -1  -2  15      4.35    8.90  0. 1.0000     0. 
   1  -2 -15      2.19    6.02  0. 1.0000     0. 
  -1  -2  15      8.05    6.18  0. 1.0000     0. 
  -1   2  15      3.21    7.69  0. 1.0000     0. 
  -1   2  15      0.73    4.07  0. 1.0000     0. 
   1   2 -15      4.38    4.99  0. 1.0000     0. 
   1   2 -15      0.13    7.69  0. 1.0000     0. 
   0  -2 -15     38.71    5.43  0. 1.0000     0. 
   0  -2 -15     41.46    8.74  0. 1.0000     0. 
   0  -2  15     57.77   11.07  0. 1.0000     0. 
   0  -2  15     61.81    7.21  0. 1.0000     0. 
   0   2  15     37.40   10.07  0. 1.0000     0. 
   0   2 -15     52.11    8.94  0. 1.0000     0. 
   0   2  15     47.27    6.05  0. 1.0000     0. 
   0   2 -15     74.61    6.80  0. 1.0000     0. 
   1  -2  15     13.73   10.87  0. 1.0000     0. 
   1  -2  15      9.40    7.20  0. 1.0000     0. 
  -1   2 -15      6.21    6.16  0. 1.0000     0. 
   1   2  15     -0.21    4.48  0. 1.0000     0. 
  -2   2 -15     -1.65    6.14  0. 1.0000     0. 
   6  -3 -15     52.73    6.70  0. 1.0000     0. 
  -6   3  15     38.67    8.67  0. 1.0000     0. 
   6   3 -15     27.54    9.26  0. 1.0000     0. 
  -5  -3  15     -2.76    7.83  0. 1.0000     0. 
   5  -3 -15      2.43    5.96  0. 1.0000     0. 
  -5   3  15     -7.23    6.41  0. 1.0000     0. 
   5   3 -15     17.56    9.30  0. 1.0000     0. 
  -5   3  15     -0.99    8.22  0. 1.0000     0. 
  -4  -3  15     -0.16    7.92  0. 1.0000     0. 
   4  -3 -15      0.41    5.03  0. 1.0000     0. 
   4  -3 -15      5.22    5.64  0. 1.0000     0. 
   4   3 -15     -2.09    9.71  0. 1.0000     0. 
  -4   3  15     -1.42    9.06  0. 1.0000     0. 
   4   3 -15     -0.89    5.47  0. 1.0000     0. 
  -4   3  15      6.79    5.68  0. 1.0000     0. 
   3  -3 -15     38.98    6.34  0. 1.0000     0. 
  -3  -3  15     45.42   10.93  0. 1.0000     0. 
  -3  -3  15     36.72    7.49  0. 1.0000     0. 
   3  -3 -15     37.65    5.73  0. 1.0000     0. 
   3   3 -15     32.89    8.80  0. 1.0000     0. 
  -3   3  15     35.10    6.19  0. 1.0000     0. 
  -3   3  15     37.01   10.73  0. 1.0000     0. 
   3   3 -15     30.91    6.21  0. 1.0000     0. 
  -2  -3  15      0.45    7.39  0. 1.0000     0. 
   2  -3 -15     -4.27    4.87  0. 1.0000     0. 
   2  -3 -15      5.72    6.14  0. 1.0000     0. 
  -2  -3  15      4.22   10.61  0. 1.0000     0. 
   2   3 -15      3.49    9.89  0. 1.0000     0. 
  -2   3  15      8.03    5.37  0. 1.0000     0. 
   2   3 -15     10.82    5.60  0. 1.0000     0. 
  -2   3  15     -7.13    9.22  0. 1.0000     0. 
   1  -3 -15     66.85    5.42  0. 1.0000     0. 
  -1  -3  15     70.15   11.93  0. 1.0000     0. 
   1  -3 -15     68.65    7.45  0. 1.0000     0. 
  -1  -3  15     57.55    7.87  0. 1.0000     0. 
  -1   3  15     55.50   10.52  0. 1.0000     0. 
  -1   3  15     69.36    5.99  0. 1.0000     0. 
   1   3 -15     54.13   10.08  0. 1.0000     0. 
   1   3 -15     55.75    6.35  0. 1.0000     0. 
   0  -3 -15     13.45    5.37  0. 1.0000     0. 
   0  -3  15      9.67    7.63  0. 1.0000     0. 
   0  -3 -15     15.23    7.96  0. 1.0000     0. 
   0  -3  15      9.79   10.58  0. 1.0000     0. 
   0   3 -15     17.08   10.72  0. 1.0000     0. 
   0   3  15     16.42   11.46  0. 1.0000     0. 
   0   3 -15     16.16    6.04  0. 1.0000     0. 
   0   3  15     19.70    5.44  0. 1.0000     0. 
  -1  -3 -15      2.13    5.21  0. 1.0000     0. 
  -1  -3 -15     -2.38    9.14  0. 1.0000     0. 
   1  -3  15     -5.88   11.27  0. 1.0000     0. 
   1  -3  15      1.06    7.72  0. 1.0000     0. 
  -1   3 -15      4.18    6.33  0. 1.0000     0. 
   1   3  15     -2.80    5.88  0. 1.0000     0. 
   2  -3  15     22.50    8.04  0. 1.0000     0. 
   6   2 -16     71.26    9.29  0. 1.0000     0. 
   5  -2 -16     -3.96    5.71  0. 1.0000     0. 
  -5  -2  16      4.16    7.09  0. 1.0000     0. 
   5   2 -16     -0.28    8.73  0. 1.0000     0. 
  -5   2  16      4.75    5.70  0. 1.0000     0. 
  -5   2  16      6.96    7.60  0. 1.0000     0. 
  -4  -2  16      1.79    7.00  0. 1.0000     0. 
   4  -2 -16      1.15    5.58  0. 1.0000     0. 
   4  -2 -16      6.80    4.42  0. 1.0000     0. 
  -4   2  16      4.16    5.49  0. 1.0000     0. 
   4   2 -16     11.60    5.18  0. 1.0000     0. 
  -4   2  16     11.84    7.72  0. 1.0000     0. 
   4   2 -16      2.46    8.48  0. 1.0000     0. 
  -3  -2  16    609.69   28.74  0. 1.0000     0. 
  -3  -2  16    639.22   22.09  0. 1.0000     0. 
   3  -2 -16    668.43   18.64  0. 1.0000     0. 
   3  -2 -16    673.12   17.80  0. 1.0000     0. 
   3   2 -16    661.33   20.09  0. 1.0000     0. 
   3   2 -16    660.10   17.86  0. 1.0000     0. 
  -3   2  16    707.37   25.65  0. 1.0000     0. 
  -3   2  16    680.70   18.34  0. 1.0000     0. 
  -2  -2  16      9.76    7.40  0. 1.0000     0. 
  -2  -2  16      0.20    9.87  0. 1.0000     0. 
   2  -2 -16      0.12    6.42  0. 1.0000     0. 
   2  -2 -16      0.35    4.59  0. 1.0000     0. 
   2   2 -16      3.07    8.13  0. 1.0000     0. 
   2   2 -16     15.39    5.54  0. 1.0000     0. 
  -2   2  16      0.22    4.91  0. 1.0000     0. 
  -2   2  16      8.03    8.38  0. 1.0000     0. 
  -1  -2  16     18.66   10.19  0. 1.0000     0. 
  -1  -2  16     20.29    6.30  0. 1.0000     0. 
   1  -2 -16     14.78    6.52  0. 1.0000     0. 
   1  -2 -16     19.07    5.14  0. 1.0000     0. 
   1   2 -16     28.02    5.65  0. 1.0000     0. 
  -1   2  16     20.62   10.21  0. 1.0000     0. 
   1   2 -16     23.36    8.73  0. 1.0000     0. 
  -1   2  16     16.53    4.56  0. 1.0000     0. 
   0  -2 -16    354.71   14.06  0. 1.0000     0. 
   0  -2  16    334.15   19.65  0. 1.0000     0. 
   0  -2  16    342.79   13.66  0. 1.0000     0. 
   0  -2 -16    345.13   11.78  0. 1.0000     0. 
   0   2  16    335.58   11.87  0. 1.0000     0. 
   0   2 -16    356.50   14.20  0. 1.0000     0. 
   0   2 -16    345.22   11.82  0. 1.0000     0. 
  -2   2 -16     11.84    6.09  0. 1.0000     0. 
   6  -3 -16     74.43    7.15  0. 1.0000     0. 
   6   3 -16     56.12   10.81  0. 1.0000     0. 
  -6   3  16     53.45    9.69  0. 1.0000     0. 
  -5  -3  16     19.89    8.55  0. 1.0000     0. 
   5  -3 -16     28.45    6.35  0. 1.0000     0. 
   5  -3 -16     24.26    5.32  0. 1.0000     0. 
  -5   3  16     13.22    6.75  0. 1.0000     0. 
  -5   3  16     21.12    8.98  0. 1.0000     0. 
   5   3 -16     31.85   10.68  0. 1.0000     0. 
  -4  -3  16     96.19    9.70  0. 1.0000     0. 
   4  -3 -16     85.18    6.88  0. 1.0000     0. 
  -4  -3  16     76.58   12.50  0. 1.0000     0. 
   4  -3 -16     77.65    6.87  0. 1.0000     0. 
   4   3 -16     78.23    6.98  0. 1.0000     0. 
  -4   3  16     71.00   10.80  0. 1.0000     0. 
   4   3 -16    102.09   10.85  0. 1.0000     0. 
  -4   3  16     74.50    7.12  0. 1.0000     0. 
   3  -3 -16      3.87    5.99  0. 1.0000     0. 
  -3  -3  16      4.85    7.47  0. 1.0000     0. 
   3  -3 -16      0.13    5.09  0. 1.0000     0. 
  -3  -3  16     18.77   11.51  0. 1.0000     0. 
   3   3 -16      7.16    5.79  0. 1.0000     0. 
   3   3 -16      8.80    9.92  0. 1.0000     0. 
  -3   3  16      3.36    5.83  0. 1.0000     0. 
  -3   3  16     18.53   10.33  0. 1.0000     0. 
  -2  -3  16    131.12   14.65  0. 1.0000     0. 
  -2  -3  16    137.46    9.93  0. 1.0000     0. 
   2  -3 -16    149.58    8.19  0. 1.0000     0. 
   2  -3 -16    132.27    7.82  0. 1.0000     0. 
   2   3 -16    138.80    8.07  0. 1.0000     0. 
   2   3 -16    125.66   11.46  0. 1.0000     0. 
  -2   3  16    127.82   13.29  0. 1.0000     0. 
  -2   3  16    140.95    7.83  0. 1.0000     0. 
   1  -3 -16     61.50    7.75  0. 1.0000     0. 
  -1  -3  16     72.73   11.85  0. 1.0000     0. 
   1  -3 -16     62.76    6.84  0. 1.0000     0. 
  -1  -3  16     71.88    8.30  0. 1.0000     0. 
  -1   3  16     48.75   12.99  0. 1.0000     0. 
   1   3 -16     80.01    7.01  0. 1.0000     0. 
  -1   3  16     55.93    6.20  0. 1.0000     0. 
   1   3 -16     70.32   10.56  0. 1.0000     0. 
   0  -3  16      9.30   11.03  0. 1.0000     0. 
   0  -3 -16     10.65    7.37  0. 1.0000     0. 
   0  -3 -16     14.13    5.84  0. 1.0000     0. 
   0  -3  16     16.19    8.31  0. 1.0000     0. 
   0   3 -16     10.88   10.69  0. 1.0000     0. 
   0   3 -16     11.04    6.68  0. 1.0000     0. 
   0   3  16     20.90    5.30  0. 1.0000     0. 
   1  -3  16     56.75    8.81  0. 1.0000     0. 
  -1  -3 -16     54.78   10.28  0. 1.0000     0. 
   1  -3  16     87.53   14.62  0. 1.0000     0. 
  -1   3 -16     72.54    7.12  0. 1.0000     0. 
   1   3  16     57.30    6.96  0. 1.0000     0. 
   2  -3  16      2.99    7.96  0. 1.0000     0. 
  -2   3 -16     13.94    6.90  0. 1.0000     0. 
  -7   2  17     -7.60    6.95  0. 1.0000     0. 
   6  -2 -17     16.31    6.43  0. 1.0000     0. 
  -6   2  17      8.33    7.39  0. 1.0000     0. 
   6   2 -17      8.96    9.43  0. 1.0000     0. 
   5  -2 -17     85.35    7.28  0. 1.0000     0. 
  -5   2  17     88.31    7.31  0. 1.0000     0. 
  -5   2  17     75.26    9.50  0. 1.0000     0. 
   0  -2 -17    437.57   14.93  0. 1.0000     0. 
   0  -2  17    442.41   24.23  0. 1.0000     0. 
   0  -2  17    450.31   16.53  0. 1.0000     0. 
   0   2 -17    435.50   17.28  0. 1.0000     0. 
   0   2 -17    455.29   13.69  0. 1.0000     0. 
   0   2  17    437.60   13.31  0. 1.0000     0. 
   1  -2  17     79.40    8.63  0. 1.0000     0. 
   1   2  17     67.54    6.36  0. 1.0000     0. 
  -1   2 -17     78.36    7.56  0. 1.0000     0. 
   6  -3 -17     60.53    7.47  0. 1.0000     0. 
  -5  -3  17     25.40    8.73  0. 1.0000     0. 
   5  -3 -17     14.79    6.43  0. 1.0000     0. 
   5   3 -17     24.48   10.44  0. 1.0000     0. 
  -5   3  17     12.55    6.73  0. 1.0000     0. 
   4  -3 -17     58.00    6.33  0. 1.0000     0. 
  -4  -3  17     41.08    8.97  0. 1.0000     0. 
   4  -3 -17     56.50    6.90  0. 1.0000     0. 
  -4  -3  17     42.06   12.54  0. 1.0000     0. 
   4   3 -17     39.59   10.65  0. 1.0000     0. 
  -4   3  17     33.95   10.52  0. 1.0000     0. 
   4   3 -17     51.26    6.68  0. 1.0000     0. 
  -4   3  17     58.53    6.88  0. 1.0000     0. 
   3  -3 -17      2.87    6.30  0. 1.0000     0. 
   3  -3 -17      5.57    5.05  0. 1.0000     0. 
  -3  -3  17      0.30    7.67  0. 1.0000     0. 
  -3  -3  17     -8.23   11.27  0. 1.0000     0. 
   3   3 -17     -9.65   11.23  0. 1.0000     0. 
  -3   3  17     -0.32    9.80  0. 1.0000     0. 
  -3   3  17      0.14    5.90  0. 1.0000     0. 
   3   3 -17     -2.46    6.01  0. 1.0000     0. 
  -2  -3  17     37.46    8.36  0. 1.0000     0. 
  -2  -3  17     57.16   13.08  0. 1.0000     0. 
   2  -3 -17     37.00    7.50  0. 1.0000     0. 
   2  -3 -17     35.02    5.72  0. 1.0000     0. 
  -2   3  17     35.57   10.99  0. 1.0000     0. 
   2   3 -17     53.60   11.19  0. 1.0000     0. 
   2   3 -17     54.38    6.67  0. 1.0000     0. 
  -2   3  17     35.55    6.05  0. 1.0000     0. 
  -1  -3  17     42.55   12.45  0. 1.0000     0. 
  -1  -3  17     39.95    8.26  0. 1.0000     0. 
   1  -3 -17     31.15    7.68  0. 1.0000     0. 
   1   3 -17     47.94    6.83  0. 1.0000     0. 
  -1   3  17     30.11    5.95  0. 1.0000     0. 
   1   3 -17     55.79   11.08  0. 1.0000     0. 
   0  -3 -17     12.76    7.68  0. 1.0000     0. 
   0  -3  17     13.94    7.78  0. 1.0000     0. 
   0   3 -17      0.33    8.15  0. 1.0000     0. 
   0   3  17     -1.13    4.80  0. 1.0000     0. 
   0   3 -17     10.51    6.31  0. 1.0000     0. 
   1  -3  17     15.85    8.63  0. 1.0000     0. 
  -1   3 -17     28.83    6.87  0. 1.0000     0. 
  -7   2  18     34.26    8.34  0. 1.0000     0. 
   6  -2 -18     70.09    7.38  0. 1.0000     0. 
  -6   2  18     60.48    9.71  0. 1.0000     0. 
   5  -2 -18     25.42    6.79  0. 1.0000     0. 
   5  -2 -18     15.18    6.04  0. 1.0000     0. 
  -5   2  18     20.53    6.73  0. 1.0000     0. 
  -5   2  18      7.34    8.73  0. 1.0000     0. 
   4  -2 -18     -6.43    6.13  0. 1.0000     0. 
   4  -2 -18      5.16    5.15  0. 1.0000     0. 
  -4   2  18      7.49    6.22  0. 1.0000     0. 
  -4   2  18      9.02    9.04  0. 1.0000     0. 
   3  -2 -18     12.10    6.52  0. 1.0000     0. 
   3  -2 -18      6.92    4.85  0. 1.0000     0. 
  -3   2  18     -9.13    9.52  0. 1.0000     0. 
  -3   2  18      2.36    5.82  0. 1.0000     0. 
   2  -2 -18     -5.48    6.74  0. 1.0000     0. 
   2  -2 -18      0.95    4.65  0. 1.0000     0. 
  -2   2  18      4.23    5.43  0. 1.0000     0. 
  -2   2  18      7.17    9.09  0. 1.0000     0. 
   1  -2 -18     11.51    5.38  0. 1.0000     0. 
   1  -2 -18      8.56    7.03  0. 1.0000     0. 
  -1   2  18     29.40   11.48  0. 1.0000     0. 
  -1   2  18     15.14    5.28  0. 1.0000     0. 
   0  -2 -18     43.78    8.12  0. 1.0000     0. 
   0  -2 -18     47.13    6.76  0. 1.0000     0. 
   0   2  18     62.23    5.98  0. 1.0000     0. 
   1   2  18      1.07    5.80  0. 1.0000     0. 
  -5  -3  18      5.63    8.54  0. 1.0000     0. 
  -4  -3  18     17.34    8.65  0. 1.0000     0. 
   4   3 -18     25.51    6.54  0. 1.0000     0. 
   3  -3 -18     15.44    6.86  0. 1.0000     0. 
  -3  -3  18     20.35    8.17  0. 1.0000     0. 
  -3   3  18     12.88    6.52  0. 1.0000     0. 
   3   3 -18     11.01    6.78  0. 1.0000     0. 
  -2  -3  18     10.66    8.61  0. 1.0000     0. 
   2  -3 -18     -2.06    7.14  0. 1.0000     0. 
  -2   3  18     -1.40    5.70  0. 1.0000     0. 
   2   3 -18      2.80    6.93  0. 1.0000     0. 
  -1  -3  18     15.84    8.39  0. 1.0000     0. 
   1   3 -18     11.31    6.67  0. 1.0000     0. 
-512 
#   2217 reflections output 
;
loop_
_symmetry_equiv_pos_as_xyz
x,y,z
-x,-y,-z
-x,y+1/2,-z+1/2
x,-y+1/2,z+1/2
loop_
_atom_site_label
_atom_site_type_symbol
_atom_site_fract_x
_atom_site_fract_y
_atom_site_fract_z
_atom_site_U_iso_or_equiv
_atom_site_occupancy
_atom_site_adp_type
_atom_site_refinement_flags_posn
_atom_site_refinement_flags_adp
_atom_site_refinement_flags_occupancy
_atom_site_disorder_assembly
_atom_site_disorder_group
_atom_site_attached_hydrogens
S1 S 0.4450(5) 0.2930(5) 0.33863(15) 0.0381 1.0000 Uani D U . . . .
N2 N 0.3166(8) 0.1782(14) 0.2394(3) 0.0377 1.0000 Uani D U . . . .
S3 S 0.1437(4) 0.0614(5) 0.24802(11) 0.0319 1.0000 Uani D U . . . .
C4 C 0.1759(8) 0.1221(13) 0.3707(3) 0.0281 1.0000 Uani D U . . . .
C5 C 0.3283(8) 0.2431(14) 0.4163(4) 0.0293 1.0000 Uani D U . . . .
N6 N 0.3539(8) 0.2980(13) 0.5097(3) 0.0321 1.0000 Uani D U . . . .
S7 S 0.1928(4) 0.1851(4) 0.53776(12) 0.0315 1.0000 Uani D U . . . .
N8 N 0.0874(9) 0.0744(13) 0.4294(3) 0.0315 1.0000 Uani D U . . . .
loop_
_atom_site_aniso_label
_atom_site_aniso_U_11
_atom_site_aniso_U_22
_atom_site_aniso_U_33
_atom_site_aniso_U_23
_atom_site_aniso_U_13
_atom_site_aniso_U_12
S1 0.051(5) 0.0444(9) 0.0236(10) 0.0088(6) 0.0181(17) 0.0063(12)
N2 0.058(5) 0.040(2) 0.022(2) 0.0050(18) 0.022(2) -0.001(4)
S3 0.049(5) 0.0337(7) 0.0149(8) 0.0018(4) 0.0114(14) 0.0047(10)
C4 0.045(6) 0.025(2) 0.0166(17) 0.0009(15) 0.013(3) 0.001(3)
C5 0.044(6) 0.028(2) 0.018(2) 0.0029(16) 0.012(3) 0.003(3)
N6 0.049(6) 0.030(2) 0.019(2) -0.0007(15) 0.012(3) -0.005(3)
S7 0.049(5) 0.0310(7) 0.0169(9) 0.0000(4) 0.0131(18) -0.0011(9)
N8 0.048(6) 0.032(2) 0.0171(19) -0.0006(15) 0.015(2) -0.004(3)
loop_
_atom_type_symbol
_atom_type_scat_dispersion_real
_atom_type_scat_dispersion_imag
_atom_type_scat_Cromer_Mann_a1
_atom_type_scat_Cromer_Mann_b1
_atom_type_scat_Cromer_Mann_a2
_atom_type_scat_Cromer_Mann_b2
_atom_type_scat_Cromer_Mann_a3
_atom_type_scat_Cromer_Mann_b3
_atom_type_scat_Cromer_Mann_a4
_atom_type_scat_Cromer_Mann_b4
_atom_type_scat_Cromer_Mann_c
_atom_type_scat_source
C 0.0006 0.0007 2.3100 20.8439 1.0200 10.2075 1.5886 0.5687 0.8650 51.6512
0.2156 'International Tables Vol C 4.2.6.8 and 6.1.1.4'
N 0.0016 0.0014 12.2126 0.0057 3.1322 9.8933 2.0125 28.9975 1.1663 0.5826
-11.5290 'International Tables Vol C 4.2.6.8 and 6.1.1.4'
S 0.0630 0.0572 6.9053 1.4679 5.2034 22.2151 1.4379 0.2536 1.5863 56.1720
0.8669 'International Tables Vol C 4.2.6.8 and 6.1.1.4'
loop_
_geom_angle_atom_site_label_1
_geom_angle_site_symmetry_1
_geom_angle_atom_site_label_2
_geom_angle_site_symmetry_2
_geom_angle_atom_site_label_3
_geom_angle_site_symmetry_3
_geom_angle
_geom_angle_publ_flag
N2 . S1 . C5 . 97.3(4) yes
S1 . N2 . S3 . 117.7(3) yes
N2 . S3 . C4 . 97.6(3) yes
S3 . C4 . C5 . 113.4(4) yes
S3 . C4 . N8 . 132.2(5) yes
C5 . C4 . N8 . 114.4(4) yes
C4 . C5 . S1 . 114.0(4) yes
C4 . C5 . N6 . 114.1(4) yes
S1 . C5 . N6 . 131.9(5) yes
C5 . N6 . S7 . 106.3(4) yes
N6 . S7 . N8 . 98.8(3) yes
C4 . N8 . S7 . 106.4(5) yes
loop_
_geom_bond_atom_site_label_1
_geom_bond_site_symmetry_1
_geom_bond_atom_site_label_2
_geom_bond_site_symmetry_2
_geom_bond_distance
_geom_bond_publ_flag
S1 . N2 . 1.644(6) yes
S1 . C5 . 1.732(6) yes
N2 . S3 . 1.648(8) yes
S3 . C4 . 1.730(5) yes
C4 . C5 . 1.427(8) yes
C4 . N8 . 1.314(6) yes
C5 . N6 . 1.319(5) yes
N6 . S7 . 1.653(7) yes
S7 . N8 . 1.652(6) yes
loop_
_oxford_refln_omitted_index_h
_oxford_refln_omitted_index_k
_oxford_refln_omitted_index_l
_oxford_refln_omitted_flag
_oxford_refln_omitted_details
0 0 10 x .
2 2 10 x .
2 3 15 x .
