#------------------------------------------------------------------------------
#$Date: 2021-06-05 21:11:31 +0300 (Sat, 05 Jun 2021) $
#$Revision: 265960 $
#$URL: file:///home/coder/svn-repositories/cod/cif/7/24/24/7242481.cif $
#------------------------------------------------------------------------------
#
# This file is available in the Crystallography Open Database (COD),
# http://www.crystallography.net/
#
# All data on this site have been placed in the public domain by the
# contributors.
#
data_7242481
loop_
_publ_author_name
'Wu, Chao'
'Lin, Lin'
'Wu, Tianhui'
'Huang, Zhipeng'
'Zhang, Chi'
_publ_section_title
;
 Deep-ultraviolet transparent alkali metal--rare earth metal sulfate
 NaY(SO4)2&#x00B7;H2O as a nonlinear optical crystal: synthesis and
 characterization
;
_journal_issue                   16
_journal_name_full               CrystEngComm
_journal_page_first              2945
_journal_page_last               2951
_journal_paper_doi               10.1039/D1CE00226K
_journal_volume                  23
_journal_year                    2021
_chemical_formula_sum            'H6 Na3 O27 S6 Y3'
_chemical_formula_weight         966.11
_space_group_crystal_system      trigonal
_space_group_IT_number           152
_space_group_name_Hall           'P 31 2"'
_space_group_name_H-M_alt        'P 31 2 1'
_atom_sites_solution_hydrogens   difmap
_audit_creation_method           SHELXL-2017/1
_audit_update_record
;
2021-03-13 deposited with the CCDC.	2021-03-16 downloaded from the CCDC.
;
_cell_angle_alpha                90
_cell_angle_beta                 90
_cell_angle_gamma                120
_cell_formula_units_Z            1
_cell_length_a                   6.8191(3)
_cell_length_b                   6.8191(3)
_cell_length_c                   12.7035(11)
_cell_measurement_reflns_used    5183
_cell_measurement_temperature    293(2)
_cell_measurement_theta_max      27.1252
_cell_measurement_theta_min      3.4500
_cell_volume                     511.57(5)
_computing_cell_refinement       'Bruker SAINT'
_computing_data_collection       'Bruker APEX3'
_computing_data_reduction        'Bruker SAINT'
_computing_molecular_graphics    'Bruker SHELXTL'
_computing_publication_material  'Bruker SHELXTL'
_computing_structure_refinement  'SHELXL-2017/1 (Sheldrick, 2017)'
_computing_structure_solution    'SHELXL-2017/1 (Sheldrick, 2017)'
_diffrn_ambient_temperature      293(2)
_diffrn_detector_area_resol_mean 10.4167
_diffrn_measured_fraction_theta_full 1.000
_diffrn_measured_fraction_theta_max 0.998
_diffrn_measurement_device_type  'Bruker APEX-III CMOS'
_diffrn_measurement_method       'w scans'
_diffrn_radiation_type           MoK\a
_diffrn_radiation_wavelength     0.71073
_diffrn_reflns_av_R_equivalents  0.0277
_diffrn_reflns_av_unetI/netI     0.0245
_diffrn_reflns_Laue_measured_fraction_full 1.000
_diffrn_reflns_Laue_measured_fraction_max 0.998
_diffrn_reflns_limit_h_max       6
_diffrn_reflns_limit_h_min       -8
_diffrn_reflns_limit_k_max       8
_diffrn_reflns_limit_k_min       -8
_diffrn_reflns_limit_l_max       16
_diffrn_reflns_limit_l_min       -16
_diffrn_reflns_number            5660
_diffrn_reflns_point_group_measured_fraction_full 0.979
_diffrn_reflns_point_group_measured_fraction_max 0.979
_diffrn_reflns_theta_full        25.242
_diffrn_reflns_theta_max         27.124
_diffrn_reflns_theta_min         3.450
_exptl_absorpt_coefficient_mu    9.250
_exptl_absorpt_correction_T_max  0.7455
_exptl_absorpt_correction_T_min  0.4703
_exptl_absorpt_correction_type   multi-scan
_exptl_absorpt_process_details
;
 SADABS 2016/2: Krause, L., Herbst-Irmer, R., Sheldrick G.M. & Stalke D.,
 J. Appl. Cryst. 48 (2015) 3-10
;
_exptl_crystal_colour            colourless
_exptl_crystal_density_diffrn    3.136
_exptl_crystal_description       block
_exptl_crystal_F_000             468
_exptl_crystal_size_max          0.16
_exptl_crystal_size_mid          0.13
_exptl_crystal_size_min          0.10
_refine_diff_density_max         0.251
_refine_diff_density_min         -0.450
_refine_diff_density_rms         0.099
_refine_ls_abs_structure_details
;
 Flack x determined using 254 quotients [(I+)-(I-)]/[(I+)+(I-)]
 (Parsons, Flack and Wagner, Acta Cryst. B69 (2013) 249-259).
;
_refine_ls_abs_structure_Flack   0.001(5)
_refine_ls_extinction_method     none
_refine_ls_goodness_of_fit_ref   1.061
_refine_ls_hydrogen_treatment    constr
_refine_ls_matrix_type           full
_refine_ls_number_parameters     61
_refine_ls_number_reflns         746
_refine_ls_number_restraints     0
_refine_ls_restrained_S_all      1.061
_refine_ls_R_factor_all          0.0170
_refine_ls_R_factor_gt           0.0157
_refine_ls_shift/su_max          0.000
_refine_ls_shift/su_mean         0.000
_refine_ls_structure_factor_coef Fsqd
_refine_ls_weighting_details
'w=1/[\s^2^(Fo^2^)+(0.0145P)^2^+0.1933P] where P=(Fo^2^+2Fc^2^)/3'
_refine_ls_weighting_scheme      calc
_refine_ls_wR_factor_gt          0.0385
_refine_ls_wR_factor_ref         0.0389
_reflns_Friedel_coverage         0.584
_reflns_Friedel_fraction_full    0.944
_reflns_Friedel_fraction_max     0.948
_reflns_number_gt                720
_reflns_number_total             746
_reflns_threshold_expression     'I > 2\s(I)'
_cod_data_source_file            d1ce00226k2.cif
_cod_data_source_block           1
_cod_depositor_comments          'Adding full bibliography for 7242481.cif.'
_cod_original_cell_volume        511.57(6)
_cod_database_code               7242481
_shelx_shelxl_version_number     2017/1
_shelx_space_group_comment
;
The symmetry employed for this shelxl refinement is uniquely defined
by the following loop, which should always be used as a source of
symmetry information in preference to the above space-group names.
They are only intended as comments.
;
_shelx_estimated_absorpt_t_min   0.4703
_shelx_estimated_absorpt_t_max   0.7455
_shelx_res_file
;
TITL 1 in P3(1)                  New: P3121
    1.res
    created by SHELXL-2017/1 at 10:12:40 on 04-Mar-2021
CELL  0.71073    6.8191    6.8191   12.7035    90.000    90.000   120.000
ZERR        1    0.0003    0.0003    0.0011     0.000     0.000     0.000
LATT  -1
SYMM             - Y ,          X - Y ,    0.33333 + Z
SYMM         - X + Y ,            - X ,    0.66667 + Z
SYMM               Y ,              X ,            - Z
SYMM             - X ,        - X + Y ,    0.33333 - Z
SYMM           X - Y ,            - Y ,    0.66667 - Z
SFAC  H Na  O  S  Y
UNIT     6    3  27   6   3
L.S. 50
FMAP 2
PLAN -20
ACTA
BOND $H
CONF
WGHT    0.014500    0.193300
FVAR       0.63298
Y1    5    0.563257    0.000000   -0.166667    10.50000    0.00892    0.00788 =
         0.00795    0.00023    0.00012    0.00394
S1    4    0.557201    0.014051    0.074105    11.00000    0.00830    0.00733 =
         0.00763   -0.00004   -0.00012    0.00288
O1    3    0.615336   -0.124996    0.005454    11.00000    0.01816    0.01446 =
         0.01261   -0.00308    0.00025    0.01042
O1W   3    0.913176    0.000000   -0.166667    10.50000    0.02045    0.02093 =
         0.07058    0.01953    0.00977    0.01046
AFIX   3
H1    1    1.003095    0.093795   -0.200525    11.00000   -1.50000
AFIX   0
O2    3    0.756818    0.173437    0.135120    11.00000    0.00915    0.01279 =
         0.01552   -0.00440   -0.00541    0.00275
O3    3    0.484515    0.132998    0.001012    11.00000    0.01800    0.01370 =
         0.01162    0.00091   -0.00216    0.00932
O4    3    0.378359   -0.128022    0.148501    11.00000    0.01422    0.01214 =
         0.01259    0.00153    0.00390    0.00291
NA1   2    0.471135    0.471135    0.000000    10.50000    0.01844    0.01844 =
         0.02078    0.00096   -0.00096    0.01287
HKLF 4 1  0.0000 -1.0000  0.0000 1.0000  1.0000  0.0000 0.0000  0.0000  1.0000




REM  1 in P3(1)                  New: P3121
REM R1 =  0.0157 for     720 Fo > 4sig(Fo)  and  0.0170 for all     746 data
REM     61 parameters refined using      0 restraints

END

WGHT      0.0151      0.1046

REM Highest difference peak  0.251,  deepest hole -0.450,  1-sigma level  0.099
Q1    1   0.6851  0.1540 -0.2811  11.00000  0.05    0.25
Q2    1   0.5481  0.2509  0.0423  11.00000  0.05    0.24
Q3    1   0.5109 -0.2375  0.0065  11.00000  0.05    0.24
Q4    1   0.4913 -0.3120 -0.2422  11.00000  0.05    0.24
Q5    1   0.6408 -0.1575  0.0526  11.00000  0.05    0.23
Q6    1   0.7857  0.1339  0.0894  11.00000  0.05    0.23
Q7    1   0.8110  0.1299 -0.3074  11.00000  0.05    0.22
Q8    1   0.5307  0.2672 -0.1903  11.00000  0.05    0.21
Q9    1   0.8163  0.0689 -0.2386  11.00000  0.05    0.20
Q10   1   0.4077 -0.2260 -0.2083  11.00000  0.05    0.20
Q11   1   1.0971  0.2478 -0.2394  11.00000  0.05    0.19
Q12   1   0.5507 -0.2413 -0.1828  11.00000  0.05    0.19
Q13   1   0.3712  0.1769 -0.0274  11.00000  0.05    0.19
Q14   1   0.8767  0.1598  0.0307  11.00000  0.05    0.19
Q15   1   0.6772  0.3696 -0.2218  11.00000  0.05    0.19
Q16   1   0.4041  0.1571  0.0271  11.00000  0.05    0.18
Q17   1   0.2337  0.0424 -0.0035  11.00000  0.05    0.18
Q18   1   0.3833 -0.3607 -0.1853  11.00000  0.05    0.18
Q19   1   0.6734  0.3798  0.0069  11.00000  0.05    0.18
Q20   1   0.8365  0.2093 -0.2369  11.00000  0.05    0.18
;
_shelx_res_checksum              54730
_shelx_hkl_file
;
   0  -1   0 2284.49 93.4477   2
   0  -1   0 2200.71 95.5722   3
   1   0   0 2298.90 92.5750   3
  -1   1   0 2186.18 96.0335   3
   1   0   0 2210.65 93.9965   2
  -1   1   0 2131.12 93.9092   2
   0   1   0 2171.88 95.1154   3
   1  -1   0 2105.17 95.5947   3
   0   1   0 2248.44 93.4313   2
   1  -1   0 2196.88 93.9786   2
  -1   0   0 2258.73 92.5237   3
  -1   0   0 2218.99 93.9210   2
  -2   1   0 4551.85 193.980   3
  -2   1   0 4399.32 193.559   2
   1  -2   0 4581.96 197.708   3
   1   1   0 4633.59 192.665   2
   1   1   0 4558.79 191.855   3
   1  -2   0 4778.55 192.748   2
  -1  -1   0 4450.47 192.250   2
  -1   2   0 4582.92 192.553   2
   2  -1   0 4729.48 193.143   3
  -1  -1   0 4458.48 192.469   3
  -1   2   0 4464.98 197.424   3
  -2   2   0 9144.45 387.285   3
   2  -2   0 9104.34 386.052   3
  -3   1   0 806.458 37.5701   2
   1   2   0 798.536 36.1318   2
   1   2   0 776.095 36.3768   3
   2  -3   0 773.448 36.4093   2
   2  -3   0 787.569 42.7125   3
  -3   1   0 783.172 36.4440   3
  -3   1   0 789.808 34.7445   3
  -1  -2   0 610.398 34.5240   2
  -2   3   0 643.806 41.4395   3
  -1  -2   0 605.844 36.8988   3
  -2   3   0 649.815 35.6104   2
  -3   2   0 763.787 38.9615   3
   2   1   0 753.537 35.2117   2
   2   1   0 789.310 32.4634   3
  -3   2   0 773.054 36.4888   2
   1  -3   0 787.517 34.5850   2
  -1   3   0 619.748 33.5927   2
  -2  -1   0 624.775 32.4257   3
   3  -2   0 624.162 35.6412   3
  -1   3   0 623.480 39.0305   3
  -2  -1   0 606.235 34.1311   2
   3   0   0 227.768 16.2371   2
  -3   3   0 199.120 19.7415   3
   0  -3   0 241.558 20.2609   3
   3   0   0 247.162 13.0449   3
  -3   3   0 218.286 16.1527   2
   0  -3   0 238.852 14.8544   2
   0   3   0 234.837 18.6643   3
  -3   0   0 229.404 12.4648   3
   0   3   0 233.137 15.1085   2
   3  -3   0 217.788 16.0665   2
  -3   0   0 235.002 16.1964   2
   3  -3   0 215.467 19.1392   3
   3  -4   0 3631.21 162.611   3
  -4   1   0 3562.56 155.236   2
  -4   1   0 3499.56 152.600   3
  -4   1   0 3470.84 155.821   2
   1   3   0 3521.64 154.657   3
  -4   1   0 3554.77 150.310   3
   1   3   0 3487.71 153.107   2
   3  -4   0 3475.26 154.267   2
  -1  -3   0 3464.76 152.473   2
  -3   4   0 3528.28 154.381   2
  -3   4   0 3488.17 163.492   3
  -1  -3   0 3515.39 158.488   3
   2  -4   0 2661.29 117.910   2
   2   2   0 2608.53 118.092   2
   2  -4   0 2583.35 126.795   3
   2   2   0 2700.38 116.093   3
  -4   2   0 2636.41 117.902   3
  -4   2   0 2512.55 120.579   3
  -2  -2   0 2795.99 117.914   2
  -2   4   0 2761.14 127.455   3
  -2  -2   0 2712.86 118.772   3
  -2   4   0 2684.46 117.958   2
   3   1   0 3566.88 146.822   3
   1  -4   0 3409.87 150.077   2
   3   1   0 3299.16 151.840   2
   1  -4   0 3419.68 159.991   3
  -4   3   0 3467.39 158.285   3
  -3  -1   0 3504.58 151.477   2
  -1   4   0 3487.37 158.247   3
  -3  -1   0 3432.05 147.642   3
   4  -3   0 3523.48 154.686   3
  -1   4   0 3447.90 150.253   2
   4   0   0 652.018 37.1778   2
   0  -4   0 659.909 34.6303   2
   0  -4   0 703.075 43.2071   3
  -4   4   0 661.966 44.5811   3
  -4   4   0 627.412 36.6938   2
  -4   0   0 648.521 30.7996   3
   0   4   0 674.495 35.1779   2
   4  -4   0 646.386 41.0124   3
   4  -4   0 653.455 37.0297   2
   0   4   0 683.263 40.1311   3
  -4   0   0 631.591 36.2114   2
  -4   0   0 650.250 31.5060   3
  -5   1   0 2001.74 87.4212   3
  -5   1   0 1946.10 91.1891   2
  -5   1   0 1921.60 92.4706   2
  -5   1   0 1885.37 84.0476   3
   4  -5   0 1953.43 99.2747   3
   1   4   0 1972.14 91.4326   3
   1   4   0 1968.05 89.2059   2
  -1  -4   0 1791.18 87.4390   2
  -1  -4   0 1845.71 95.5400   3
  -4   5   0 1834.60 90.1629   2
  -4   5   0 1915.40 101.313   3
  -5   2   0 25.4981 8.66200   2
   2   3   0 21.7105 7.10916   2
   3  -5   0 8.13885 4.59474   2
   2   3   0 8.10636 5.28259   3
  -5   2   0 19.1107 5.85589   3
  -5   2   0 13.8113 5.20656   2
   3  -5   0 13.8205 9.04070   3
  -5   2   0 10.2937 6.14978   3
  -2  -3   0 3.37332 5.71857   3
  -3   5   0 19.7496 11.3241   3
  -2  -3   0 10.0486 5.53124   2
  -3   5   0 6.00184 5.54669   2
  -5   3   0 29.3682 10.1551   3
   2  -5   0 27.3023 10.8591   3
  -5   3   0 14.6743 7.47788   2
   3   2   0 14.0635 6.08403   2
  -5   3   0 14.5434 6.03850   3
   3   2   0 15.8926 4.61904   3
  -3  -2   0 7.21729 4.41296   2
  -2   5   0 7.60890 8.25851   3
  -2   5   0 5.82318 4.93293   2
  -3  -2   0 5.34293 4.69619   3
   4   1   0 1925.41 82.1928   3
   4   1   0 1908.97 90.1719   2
   1  -5   0 1875.04 101.324   3
   1  -5   0 1828.06 87.0027   2
  -5   4   0 2080.68 99.5496   3
  -5   4   0 1929.25 91.0761   2
  -1   5   0 1885.39 95.9835   3
  -1   5   0 1846.01 87.6376   2
   5  -4   0 1821.16 92.4255   3
  -4  -1   0 1844.50 83.2125   3
  -4  -1   0 1881.35 89.0363   2
  -5   5   0 631.019 39.0285   2
   0  -5   0 634.604 44.5683   3
  -5   5   0 666.089 47.9568   3
   5  -5   0 644.119 43.3981   3
  -5   0   0 648.409 30.4291   3
  -5   0   0 636.821 31.3417   3
   5  -5   0 689.065 39.9734   2
  -5   0   0 629.509 39.8009   2
   0   5   0 637.809 36.5729   2
   0   5   0 631.794 41.3391   3
  -6   1   0 3142.65 138.609   3
   1   5   0 3198.15 148.750   3
   1   5   0 3201.31 146.028   2
  -6   1   0 3187.31 150.260   2
  -6   1   0 3258.47 141.567   3
  -6   1   0 3211.27 148.892   2
  -5   6   0 3234.46 148.245   2
  -1  -5   0 3315.37 155.502   3
  -5   6   0 3389.74 162.431   3
  -6   2   0 757.832 41.8923   3
  -6   2   0 735.228 37.4969   3
  -6   2   0 762.750 45.4391   2
   2   4   0 751.380 41.9832   2
   2   4   0 777.376 41.3922   3
  -2  -4   0 692.131 45.0958   3
  -4   6   0 657.289 50.3984   3
  -4   6   0 669.417 41.5817   2
   3   3   0 5297.33 231.932   2
  -6   3   0 5281.69 234.906   2
   3   3   0 5208.36 226.926   3
  -6   3   0 5391.84 236.078   3
  -6   3   0 5400.00 234.587   2
  -6   3   0 5139.64 229.677   3
  -3  -3   0 5276.81 231.858   3
  -3   6   0 5466.69 244.510   3
  -3   6   0 5206.28 230.749   2
  -6   4   0 763.682 45.6468   2
   4   2   0 752.629 43.4873   2
  -6   4   0 851.765 51.2566   3
   4   2   0 765.216 36.0257   3
  -6   4   0 767.316 44.3161   3
  -2   6   0 711.320 50.6236   3
  -2   6   0 677.231 40.9627   2
  -4  -2   0 684.945 38.3797   3
   5   1   0 3120.57 150.615   2
  -6   5   0 3245.77 151.871   2
  -6   5   0 3459.41 161.719   3
  -1   6   0 3416.18 158.145   3
  -1   6   0 3231.61 147.811   2
  -6   6   0 3.93864 7.65859   2
  -6   6   0 9.35723 13.7032   3
   0   6   0 3.28520 9.53664   3
  -6   0   0 -3.7412 6.54963   2
   0   6   0 5.43813 6.34399   2
  -7   1   0 432.963 34.9780   2
   1   6   0 427.975 31.7046   2
   1   6   0 444.572 34.2710   3
  -6   7   0 468.614 44.8823   3
  -6   7   0 475.387 34.5072   2
  -7   2   0 751.605 41.3622   3
   2   5   0 736.450 44.1542   3
  -7   2   0 776.984 49.2518   2
   2   5   0 702.867 43.9607   2
  -7   2   0 717.680 37.5424   3
  -2  -5   0 798.885 50.4255   3
  -5   7   0 757.034 45.9616   2
  -5   7   0 751.155 57.4284   3
  -7   3   0 326.170 29.3831   2
  -7   3   0 306.653 26.4933   3
  -7   3   0 308.880 22.5476   3
   3   4   0 283.001 21.9751   3
   3   4   0 296.112 25.3012   2
  -7   3   0 286.145 26.7667   2
  -3  -4   0 316.668 26.4352   3
  -4   7   0 364.385 36.9632   3
  -4   7   0 331.290 26.1891   2
  -7   4   0 291.714 24.2717   3
   4   3   0 284.432 19.1053   3
   4   3   0 306.185 26.1876   2
  -7   4   0 295.294 26.8313   2
  -7   4   0 278.421 28.2247   3
  -7   4   0 305.116 28.2577   2
  -4  -3   0 337.146 23.4725   3
  -3   7   0 304.767 25.1654   2
  -3   7   0 329.370 34.9215   3
  -7   5   0 793.568 54.0023   3
  -7   5   0 753.315 48.3923   2
   5   2   0 755.350 46.8248   2
  -7   5   0 747.606 48.2746   2
  -2   7   0 732.435 43.9839   2
  -2   7   0 732.125 53.5157   3
  -7   6   0 435.649 41.9506   3
  -7   6   0 451.517 36.1051   2
  -1   7   0 427.789 31.2342   2
  -1   7   0 473.353 38.9990   3
  -7   7   0 1385.01 84.6465   3
  -7   7   0 1355.51 73.9584   2
   0   7   0 1221.59 68.2049   2
  -7   0   0 1272.50 73.3644   2
   0   7   0 1335.94 87.9259   3
  -8   1   0 444.578 38.7345   2
   1   7   0 496.492 37.4484   2
   1   7   0 463.736 37.3654   3
  -7   8   0 449.340 37.2593   2
   2   6   0 282.381 26.8024   3
   2   6   0 308.740 26.3616   2
  -8   2   0 275.803 29.3478   2
  -6   8   0 245.371 26.1586   2
  -6   8   0 225.153 36.6112   3
  -8   3   0 1521.67 72.6596   3
  -8   3   0 1498.41 83.9216   2
   3   5   0 1589.24 80.2273   2
   3   5   0 1512.36 75.6012   3
  -8   3   0 1554.71 76.3695   3
  -5   8   0 1527.35 94.7540   3
  -3  -5   0 1508.68 81.2939   3
  -5   8   0 1458.81 79.2682   2
   4   4   0 411.068 26.6972   3
   4   4   0 426.818 33.7974   2
  -8   4   0 421.464 34.5685   3
  -8   4   0 384.578 35.6480   2
  -8   4   0 401.355 30.4154   3
  -4   8   0 558.903 47.8271   3
  -4   8   0 531.448 34.8492   2
  -4  -4   0 498.278 31.9519   3
  -8   5   0 1616.83 86.5738   3
  -8   5   0 1493.19 83.4082   2
  -8   5   0 1482.99 83.1065   2
   5   3   0 1563.59 81.6506   2
  -3   8   0 1533.46 91.8919   3
  -3   8   0 1424.18 77.5032   2
  -8   6   0 330.982 34.2602   3
   6   2   0 284.072 28.7300   2
  -8   6   0 291.351 29.7385   2
  -2   8   0 253.380 24.4920   2
  -2   8   0 261.544 33.0660   3
  -8   7   0 474.576 38.8540   2
  -8   7   0 458.448 44.3586   3
  -7  -1   0 444.653 37.2619   2
  -1   8   0 442.880 34.4663   2
  -1   8   0 452.858 41.4516   3
   1  -1  -1 2618.20 106.584   2
  -1   0  -1 2501.61 106.327   2
   0   1  -1 2599.62 104.835   2
   1  -1  -1 2533.98 107.771   3
   0   1  -1 2402.30 107.270   3
  -1   0  -1 2520.62 105.930   3
   1   0   1 2426.71 106.227   2
   0  -1   1 2517.83 104.713   2
   1   0   1 2496.59 105.921   3
  -1   1   1 2495.86 107.911   3
   0  -1   1 2477.63 107.648   3
  -1   1   1 2432.46 106.401   2
  -1   1  -1 379.186 17.8639   2
  -1   1  -1 376.784 19.6404   3
   0  -1  -1 388.467 19.1930   3
  -1   0   1 377.369 17.8096   2
   0   1   1 358.853 18.8901   3
   1  -1   1 389.667 19.7428   3
   0   1   1 358.276 18.0896   2
  -1  -1  -1 436.603 22.1325   2
   2  -1  -1 448.926 22.4026   3
  -1  -1  -1 425.475 21.9722   3
   2  -1  -1 444.160 22.8647   2
   3  -2  -1 338.065 20.4329   3
  -1   3  -1 338.441 17.5504   2
  -1   3  -1 363.061 24.2604   3
  -2  -1  -1 349.363 19.1686   2
   3  -2  -1 344.616 20.0520   2
  -2  -1  -1 351.813 17.8444   3
   1  -3   1 242.427 22.3388   3
   1  -3   1 259.385 16.7503   2
   2   1   1 265.466 16.6325   3
  -3   2   1 245.347 21.0524   3
  -2   0  -1 71.9947 6.16063   3
  -2   0  -1 68.7146 7.12321   2
   0   2  -1 66.6630 8.98368   3
   2  -2  -1 68.8155 7.32644   2
   0   2  -1 73.9972 6.00936   2
   2  -2  -1 67.3483 9.20574   3
   2   0   1 74.9138 7.38595   2
   2   0   1 71.0334 6.17796   3
   0  -2   1 62.3792 9.35809   3
   0  -2   1 70.7818 5.74898   2
  -2   2   1 54.3512 9.63663   3
  -2   1  -1 314.646 17.4208   3
   1  -2  -1 312.675 17.0836   2
  -2   1  -1 315.306 17.9886   3
  -2   1  -1 306.750 17.4014   2
   1  -2  -1 324.023 20.4339   3
   1   1  -1 320.020 16.2730   2
   1   1  -1 315.379 15.9913   3
   0  -2  -1 478.679 24.1385   2
   2   0  -1 498.584 24.7595   2
  -2   2  -1 461.351 24.2327   2
  -2   2  -1 457.635 27.5982   3
   2  -2   1 455.759 24.3527   2
   0   2   1 499.126 26.6944   3
  -2   0   1 459.065 24.0468   2
   2  -2   1 480.435 27.4059   3
   0   2   1 492.140 24.3465   2
  -1  -2  -1 981.047 48.2737   3
  -1  -2  -1 938.134 46.5954   2
  -2   3  -1 949.426 52.6325   3
  -2   3  -1 985.875 46.4162   2
   1   2   1 997.739 47.2526   3
  -3   1   1 1032.69 44.7954   3
   2  -3   1 943.865 46.2478   2
  -3   1   1 1036.56 47.9439   2
   2  -3   1 1037.24 53.4271   3
   1   2   1 1029.31 47.1255   2
  -3   1   1 992.650 48.2955   2
  -3   1   1 916.124 46.6930   3
  -2  -2  -1 737.435 40.0854   3
  -2   4  -1 769.775 47.7725   3
   4  -2  -1 764.098 39.6341   3
  -2  -2  -1 717.035 39.7323   2
  -2   4  -1 750.898 39.2347   2
   2   2   1 842.612 39.3968   3
   2  -4   1 813.952 48.4623   3
  -4   2   1 871.813 43.1038   2
  -4   2   1 768.305 43.1967   3
   2   2   1 865.479 45.8454   2
   2  -4   1 816.031 39.7137   2
  -3  -2  -1 720.817 42.2694   3
  -3  -2  -1 668.879 39.3749   2
  -2   5  -1 723.721 48.0912   3
   5  -3  -1 703.076 40.4958   3
  -2   5  -1 660.436 38.3103   2
   2  -5   1 769.930 39.2524   2
   3   2   1 777.311 37.5209   3
  -5   3   1 755.468 42.8549   2
   3   2   1 770.650 41.4840   2
   2  -5   1 797.596 51.7719   3
  -5   3   1 805.579 46.9299   3
   4  -3  -1 51.6772 10.2617   3
  -3  -1  -1 51.6890 7.08122   3
  -1   4  -1 51.1911 7.92569   2
  -3  -1  -1 56.9715 8.85382   2
  -1   4  -1 52.0231 12.4807   3
   4  -3  -1 59.1937 10.1164   2
   0   3  -1 1791.61 80.1048   2
   0   3  -1 1792.28 84.7741   3
  -3   0  -1 1864.55 79.0850   3
   3  -3  -1 1797.27 86.3761   3
  -3   3   1 1794.93 82.3866   2
  -3   3   1 1733.48 88.3842   3
   3   0   1 1796.11 82.3937   2
   0  -3   1 1861.61 79.5910   2
   3   0   1 1826.04 79.0760   3
   0  -3   1 1717.64 87.3419   3
  -3   1  -1 253.599 16.5614   3
   2  -3  -1 244.568 20.2989   3
  -3   1  -1 252.121 17.1511   2
   1   2  -1 256.422 16.3166   3
  -3   1  -1 254.356 15.5801   3
   1   2  -1 239.524 15.2438   2
  -1  -2   1 327.137 19.8038   3
   2   1  -1 1038.30 43.3340   3
  -3   2  -1 970.545 48.5531   3
   2   1  -1 1008.18 46.9077   2
   1  -3  -1 987.448 46.9021   2
  -3   2  -1 1022.78 48.3847   2
   1  -3  -1 1003.15 52.7813   3
  -3   2  -1 1004.79 50.4118   3
  -1   3   1 1035.83 52.8570   3
  -2  -1   1 884.659 44.6840   3
   3  -2   1 1002.86 49.1178   3
  -1   3   1 976.884 46.8869   2
  -2  -1   1 988.946 46.3447   2
   0  -3  -1 74.3696 8.35746   2
   3   0  -1 67.3534 8.95608   2
   0  -3  -1 73.1292 11.4044   3
  -3   3  -1 64.7660 8.74104   2
  -3   3  -1 66.3962 12.0500   3
   3  -3   1 65.1571 8.75819   2
   0   3   1 76.2783 8.74820   2
   3  -3   1 71.4711 10.7317   3
   0   3   1 71.8563 10.7913   3
  -3   0   1 83.3906 8.89453   2
  -3   4  -1 128.807 11.9877   2
  -3   4  -1 146.039 18.8447   3
  -1  -3  -1 138.496 11.7636   2
  -1  -3  -1 132.404 14.1263   3
   1   3   1 96.5979 11.1834   2
  -4   1   1 102.782 12.4549   2
   1   3   1 111.310 12.5697   3
  -4   1   1 99.1163 7.95258   3
   3  -4   1 89.2537 10.5788   2
  -4   1   1 93.0740 10.2145   3
  -4   1   1 97.8419 11.4967   2
   3  -4   1 99.9100 14.8947   3
  -2  -3  -1 181.575 14.9787   2
  -3   5  -1 180.084 22.9306   3
  -2  -3  -1 170.667 16.5225   3
  -3   5  -1 154.726 14.6452   2
  -5   2   1 147.191 16.4792   2
  -5   2   1 140.105 15.4673   2
  -5   2   1 142.319 12.1577   3
   2   3   1 145.625 14.9665   2
   3  -5   1 140.567 20.2831   3
   3  -5   1 129.142 15.5467   2
  -5   2   1 154.904 16.2913   3
   2   3   1 133.493 13.8253   3
  -3   6  -1 243.656 20.8347   2
  -3   6  -1 280.655 30.0821   3
  -3  -3  -1 274.471 22.5789   3
   3   3   1 290.109 22.2827   3
  -6   3   1 282.710 25.4530   2
  -6   3   1 301.061 26.1558   3
   3   3   1 293.185 23.2067   2
  -6   3   1 282.098 21.0311   3
  -6   3   1 288.421 24.0218   2
  -4  -3  -1 609.504 37.6240   3
  -3   7  -1 585.738 37.5836   2
  -3   7  -1 643.971 49.5411   3
   4   3   1 587.165 37.7534   3
  -7   4   1 641.260 43.0086   3
  -7   4   1 616.344 38.1866   3
  -7   4   1 723.164 53.7022   2
  -7   4   1 571.382 41.4769   2
  -4  -2  -1 237.435 19.9737   2
  -2   6  -1 237.493 25.6326   3
   4   2   1 167.903 13.8978   3
  -6   4   1 180.144 18.6992   3
   4   2   1 182.133 19.1729   2
  -6   4   1 154.417 22.5439   3
  -6   4   1 162.659 19.6587   2
   5  -4  -1 756.384 41.5932   2
  -4  -1  -1 777.030 40.3882   2
   5  -4  -1 738.565 43.0531   3
  -4  -1  -1 746.545 35.3507   3
  -1   5  -1 773.823 46.2531   3
  -1   5  -1 732.995 37.6648   2
   1  -5   1 608.348 36.0059   2
  -5   4   1 629.211 45.7659   3
   4   1   1 607.845 39.1477   2
   4   1   1 659.194 34.1532   3
  -5   4   1 636.401 40.2318   2
   4  -4  -1 12.1271 5.94894   2
   0   4  -1 20.9329 5.58968   2
   4  -4  -1 25.0123 8.68716   3
   0   4  -1 19.9931 8.10514   3
  -4   0  -1 21.3604 6.85273   2
  -4   0  -1 19.8249 4.69703   3
   4   0   1 19.0822 7.14200   2
   0  -4   1 20.4428 5.18240   2
   0  -4   1 19.9057 9.04232   3
  -4   4   1 22.2827 8.09427   2
  -4   4   1 23.5917 11.6139   3
   4   0   1 22.9895 5.28698   3
  -4   1  -1 114.486 11.3758   3
  -4   1  -1 121.819 10.3660   3
   3  -4  -1 108.941 12.1653   2
  -4   1  -1 127.440 13.1741   2
   1   3  -1 122.937 12.5970   3
   3  -4  -1 116.902 15.7045   3
   1   3  -1 122.809 11.1243   2
   2   2  -1 837.524 40.7888   2
  -4   2  -1 838.913 43.1582   2
   2  -4  -1 847.471 49.0759   3
   2   2  -1 831.316 38.4439   3
  -4   2  -1 857.590 44.0914   3
   2  -4  -1 861.937 41.9068   2
  -4   2  -1 844.284 41.5352   3
  -2  -2   1 699.037 40.8742   3
  -2  -2   1 738.707 39.4601   2
  -2   4   1 746.140 47.9131   3
   1  -4  -1 100.646 10.7341   2
   3   1  -1 100.385 11.5990   2
  -4   3  -1 165.811 18.7725   2
   1  -4  -1 94.2760 14.7378   3
  -4   3  -1 109.160 13.3678   3
   3   1  -1 102.558 6.83072   3
  -1   4   1 136.400 17.1641   3
   4  -3   1 136.226 14.6168   3
  -3  -1   1 143.460 11.9758   2
  -3  -1   1 126.944 8.51481   3
  -1   4   1 123.704 11.9834   2
  -4   4  -1 521.441 31.7346   2
   0  -4  -1 524.104 36.3130   3
  -4   4  -1 559.665 39.2076   3
   0  -4  -1 552.506 30.4292   2
   0   4   1 553.488 34.8129   3
   4  -4   1 549.034 36.3608   3
   0   4   1 533.415 30.7683   2
   4  -4   1 530.322 31.9826   2
  -4   0   1 553.708 31.4210   2
  -1  -4  -1 133.214 18.1162   3
  -1  -4  -1 141.838 14.5576   2
  -4   5  -1 145.868 22.8952   3
  -5   1   1 207.137 13.9296   3
  -5   1   1 191.303 11.3098   3
  -5   1   1 192.953 18.6943   2
   1   4   1 196.752 17.1927   2
  -5   1   1 202.098 18.0942   2
   1   4   1 196.842 18.8244   3
   4  -5   1 196.397 22.7364   3
   4  -5   1 213.522 17.7710   2
  -4   6  -1 696.745 50.3401   3
  -4   6  -1 686.403 39.4122   2
  -2  -4  -1 717.166 43.7123   3
   2   4   1 640.658 38.4592   3
   2   4   1 647.335 39.2511   2
  -6   2   1 618.994 33.3069   3
  -6   2   1 655.574 37.3801   3
  -6   2   1 650.814 41.9686   2
  -4   7  -1 30.5067 16.0525   3
  -3  -4  -1 23.0962 10.4660   3
  -4   7  -1 29.9702 9.58024   2
  -7   3   1 62.4855 15.3965   2
   3   4   1 41.2277 9.82857   3
   3   4   1 34.2645 10.5593   2
  -7   3   1 33.0799 11.5150   2
  -7   3   1 39.4630 8.73858   3
  -7   3   1 46.2250 11.3596   3
  -4  -4  -1 145.890 18.5568   3
  -4   8  -1 144.655 28.9483   3
  -4   8  -1 167.852 19.5941   2
  -8   4   1 110.011 19.5368   3
   4   4   1 103.763 13.9984   3
   4   4   1 121.323 19.6386   2
  -8   4   1 117.771 21.6368   2
  -3   8  -1 186.538 29.1828   3
  -5  -3  -1 161.947 16.9532   3
  -3   8  -1 182.294 20.0984   2
   5   3   1 161.496 22.5599   2
  -8   5   1 178.840 25.4710   3
   5   3   1 152.458 13.8822   3
  -8   5   1 149.319 22.4098   2
  -2   7  -1 110.555 22.1875   3
  -2   7  -1 95.0350 14.6795   2
  -5  -2  -1 97.7123 12.0159   3
  -7   5   1 158.645 21.3241   2
   5   2   1 141.260 11.4891   3
  -7   5   1 150.804 23.5349   3
  -5  -1  -1 493.971 29.6015   3
  -1   6  -1 458.171 35.6713   2
   6  -5  -1 510.483 38.2555   3
  -1   6  -1 485.560 40.2112   3
  -6   5   1 620.077 39.0454   2
   5   1   1 662.585 38.7417   2
   5   1   1 663.537 29.9295   3
  -6   5   1 663.958 46.9214   3
   0   5  -1 423.059 26.5129   2
  -5   0  -1 409.924 23.8033   3
   0   5  -1 402.893 31.5346   3
  -5   0  -1 407.948 23.0216   3
  -5   0  -1 422.598 29.1689   2
   5  -5  -1 422.868 33.3564   3
  -5   5   1 428.668 37.2958   3
  -5   5   1 439.550 30.2004   2
   5   0   1 410.304 29.4252   2
   4  -5  -1 656.459 38.8742   2
  -5   1  -1 646.985 36.0097   3
   1   4  -1 641.649 38.8294   3
  -5   1  -1 623.072 38.9706   2
   1   4  -1 669.303 36.7510   2
   4  -5  -1 653.337 44.8343   3
  -5   1  -1 618.482 33.7483   3
  -4   5   1 767.288 40.4280   2
  -4   5   1 750.852 49.5893   3
  -1  -4   1 729.004 36.0810   2
  -1  -4   1 714.274 44.3511   3
  -5   2  -1 732.324 42.6538   2
   2   3  -1 777.084 38.7950   3
  -5   2  -1 793.326 39.6315   3
  -5   2  -1 783.156 42.3630   3
  -5   2  -1 775.624 42.6151   2
   3  -5  -1 782.497 41.1874   2
   2   3  -1 772.406 40.1035   2
   3  -5  -1 784.501 49.8979   3
  -3   5   1 737.388 50.0638   3
  -2  -3   1 674.255 41.7199   3
  -2  -3   1 695.159 38.2687   2
  -3   5   1 644.336 39.9653   2
  -5   3  -1 145.159 17.7908   3
   3   2  -1 141.709 14.5349   2
  -5   3  -1 139.450 15.8480   2
   2  -5  -1 147.464 14.1584   2
   2  -5  -1 109.931 17.5579   3
   3   2  -1 154.681 10.6897   3
  -5   3  -1 128.015 14.4068   3
  -5   3  -1 151.016 16.1488   2
  -2   5   1 184.100 22.5097   3
  -3  -2   1 158.594 12.8154   3
  -2   5   1 169.284 15.4982   2
   1  -5  -1 204.249 16.0685   2
   4   1  -1 190.904 17.1796   2
  -5   4  -1 196.909 18.4286   2
  -5   4  -1 185.966 22.7929   3
   1  -5  -1 213.124 23.0715   3
  -5   4  -1 185.577 18.6248   3
   5  -4   1 124.273 16.9893   3
  -4  -1   1 140.775 14.9700   2
  -1   5   1 160.607 20.5580   3
  -5   5  -1 5.24453 6.44697   2
   0  -5  -1 6.53732 8.13630   3
  -5   5  -1 1.09312 9.15236   3
   0  -5  -1 9.11705 6.02350   2
  -5   0   1 3.82941 6.15513   2
   0   5   1 9.12537 6.28135   2
   0   5   1 5.41381 7.23491   3
   5  -5   1 13.0654 8.79422   3
  -5   0   1 6.08571 5.28150   2
  -5   6  -1 236.197 29.0174   3
  -1  -5  -1 207.889 23.4013   3
  -5   6  -1 230.588 21.1555   2
  -6   1   1 177.352 19.6759   2
  -6   1   1 181.418 20.8262   2
   1   5   1 168.265 18.4084   2
   1   5   1 159.264 19.5308   3
  -2  -5  -1 201.763 24.8858   3
  -5   7  -1 204.013 31.2584   3
   2   5   1 262.036 23.5487   2
   2   5   1 284.040 24.3883   3
  -7   2   1 244.180 25.6285   2
  -7   2   1 288.755 21.9791   3
  -7   2   1 270.844 16.0353   3
  -5   8  -1 481.617 34.3130   2
  -3  -5  -1 512.472 37.8562   3
  -5   8  -1 551.850 48.9275   3
  -8   3   1 434.319 37.5755   2
   3   5   1 458.964 32.2335   3
  -8   3   1 459.726 33.3183   3
   3   5   1 460.305 34.7902   2
  -8   3   1 425.005 26.7995   3
  -2   8  -1 2.68729 12.0179   3
  -8   6   1 36.7638 13.5792   2
   6   2   1 29.3590 12.2454   2
  -8   6   1 35.5529 15.7038   3
  -8   6   1 36.5967 14.3233   2
  -7   6   1 309.565 34.8318   3
   6   1   1 329.760 29.7784   2
  -7   6   1 305.503 29.8127   2
   0   6  -1 -4.9069 7.36584   3
  -6   0  -1 1.99275 4.41885   3
   0   6  -1 2.90516 5.89778   2
  -6   0  -1 -0.3078 4.02342   3
  -6   6   1 1.72133 8.16598   2
   1   5  -1 625.032 39.0303   3
   1   5  -1 654.890 40.3776   2
  -6   1  -1 624.508 40.3051   2
  -6   1  -1 682.398 40.5022   2
  -6   1  -1 652.447 34.7464   3
  -5   6   1 484.759 45.3053   3
  -5   6   1 514.481 37.4202   2
   2   4  -1 164.169 16.9413   2
  -6   2  -1 182.509 20.3021   2
  -6   2  -1 173.958 15.1822   3
  -6   2  -1 161.878 17.4985   3
  -6   2  -1 179.772 19.5775   2
   2   4  -1 171.474 16.6269   3
  -4   6   1 238.049 20.4599   2
  -4   6   1 253.340 29.4632   3
  -6   3  -1 281.844 24.6652   2
  -6   3  -1 284.199 25.4128   3
   3   3  -1 282.783 18.3916   3
  -6   3  -1 278.855 22.0705   3
   3   3  -1 282.963 22.0611   2
  -6   3  -1 287.624 24.5714   2
  -3   6   1 264.336 22.3606   2
  -3   6   1 313.532 32.2828   3
   4   2  -1 634.769 39.2885   2
  -6   4  -1 584.379 40.1154   2
  -6   4  -1 656.728 45.1512   3
  -6   4  -1 648.369 40.9387   2
   4   2  -1 625.278 29.9688   3
  -6   4  -1 633.357 44.6190   3
  -2   6   1 722.557 48.8669   3
  -2   6   1 692.324 39.1822   2
  -4  -2   1 688.077 31.6189   3
  -6   5  -1 198.559 27.2714   3
   5   1  -1 168.169 19.4496   2
  -6   5  -1 182.480 20.4458   2
  -1   6   1 225.620 25.9173   3
  -1   6   1 224.234 20.0013   2
  -6   6  -1 604.342 40.5677   2
  -6   6  -1 645.499 50.2486   3
  -6   0   1 593.374 40.6646   2
   0   6   1 639.870 38.9454   2
   0   6   1 639.215 44.1252   3
  -6   7  -1 113.630 25.5919   3
  -6   7  -1 111.290 17.4597   2
  -7   1   1 81.1802 15.3015   2
   1   6   1 85.5729 15.0574   2
   1   6   1 102.489 20.0909   3
  -6   8  -1 251.253 35.9663   3
  -6   8  -1 266.658 25.7454   2
   2   6   1 180.410 21.7679   2
  -8   2   1 163.431 25.0984   2
   2   6   1 196.996 23.4464   3
  -1   8  -1 124.861 23.5358   3
  -1   8  -1 157.223 19.7207   2
  -8   7   1 194.778 25.9935   2
  -8   7   1 194.538 31.0070   3
   0   7  -1 27.2861 10.2778   2
   0   7  -1 41.4687 14.6676   3
  -7   0  -1 53.5794 15.3428   2
  -7   7   1 24.3101 12.6670   2
  -7   7   1 31.8806 16.5547   3
   1   6  -1 327.407 28.2930   3
  -7   1  -1 318.671 21.4250   3
  -7   1  -1 302.847 29.0731   2
   1   6  -1 309.035 25.2509   2
  -7   1  -1 313.830 19.3506   3
  -7   2  -1 164.729 21.8008   2
  -7   2  -1 144.556 13.8279   3
   2   5  -1 131.176 16.8796   2
  -7   2  -1 141.655 20.5007   2
   2   5  -1 143.570 17.1761   3
  -5   7   1 127.384 19.0695   2
  -5   7   1 112.057 25.6287   3
  -7   3  -1 613.583 42.3606   2
   3   4  -1 592.871 34.4954   3
  -7   3  -1 629.712 43.9708   2
  -7   3  -1 632.132 37.2111   3
  -7   3  -1 648.986 41.5661   3
   3   4  -1 602.648 38.6182   2
  -3  -4   1 633.416 39.2749   3
  -4   7   1 607.777 40.1150   2
  -4   7   1 678.244 52.5097   3
  -7   4  -1 36.5821 9.89917   2
  -7   4  -1 45.5313 11.5655   3
   4   3  -1 40.2582 6.41500   3
  -7   4  -1 40.9618 13.4727   3
   4   3  -1 34.4274 10.3565   2
  -7   4  -1 40.2772 12.0766   2
  -3   7   1 14.4642 12.3765   3
  -3   7   1 29.3338 9.53587   2
  -4  -3   1 22.7299 6.80086   3
  -7   5  -1 256.083 26.0289   2
  -7   5  -1 251.090 30.7002   3
  -7   5  -1 277.795 26.5613   2
   5   2  -1 282.514 24.8364   2
  -2   7   1 203.302 28.6326   3
  -7   6  -1 73.0061 15.8054   2
  -7   6  -1 91.8986 21.5335   3
  -1   7   1 113.336 16.2904   2
  -6  -1   1 90.4064 16.4910   2
  -1   7   1 112.114 21.4545   3
  -7   7  -1 62.9192 20.7769   3
  -7   7  -1 88.2535 17.2669   2
  -7   0   1 66.4452 13.2010   2
   0   7   1 94.3443 20.1949   3
   0   7   1 83.6369 14.4943   2
  -7   8  -1 454.010 58.5645   3
  -7   8  -1 470.209 37.1571   2
  -8   1   1 429.784 38.5789   2
   1   7   1 488.909 38.6065   3
  -8   1  -1 191.307 26.1442   2
   1   7  -1 183.434 24.5076   3
   1   7  -1 158.021 19.8504   2
  -7   8   1 153.550 23.6492   2
   2   6  -1 21.5519 10.5411   3
   2   6  -1 30.0634 10.6952   2
  -8   2  -1 31.1989 14.5439   2
  -8   2  -1 33.1046 8.25632   3
  -8   2  -1 29.4740 9.16557   3
  -6   8   1 3.88898 8.56958   2
  -6   8   1 4.70329 15.6371   3
  -8   3  -1 131.161 15.5890   3
  -8   3  -1 149.241 22.4643   2
   3   5  -1 142.494 16.7712   3
   3   5  -1 171.420 20.6806   2
  -8   3  -1 151.712 19.4132   3
  -3  -5   1 155.448 21.3302   3
  -5   8   1 154.553 30.0536   3
  -5   8   1 167.609 21.2509   2
  -8   4  -1 104.687 20.3052   2
  -8   4  -1 91.5300 18.0183   2
   4   4  -1 114.047 18.0655   2
  -8   4  -1 105.637 16.8498   3
  -8   4  -1 124.608 21.3398   3
   4   4  -1 109.041 11.9641   3
  -4   8   1 146.588 20.3628   2
  -4   8   1 132.991 26.7411   3
  -4  -4   1 110.638 14.6261   3
  -8   5  -1 437.557 53.2226   2
   5   3  -1 462.129 35.1297   2
  -3   8   1 468.869 34.3262   2
  -3   8   1 491.381 45.4012   3
  -8   6  -1 159.918 26.2225   2
  -8   6  -1 184.741 29.3884   3
  -8   6  -1 173.650 24.4128   2
  -2   8   1 244.647 23.5706   2
  -8   7  -1 460.640 38.2384   2
  -8   7  -1 431.800 44.9388   3
  -1   8   1 501.738 43.2402   3
  -7  -1   1 452.448 38.2406   2
   0   0  -2 -0.0756 1.22814   3
   0   0  -2 -0.1167 0.79514   2
   0   0   2 0.98081 1.47891   3
   0   0   2 0.12434 0.90557   2
   0   1  -2 20.4460 3.80530   3
   0   1  -2 23.5280 4.25807   3
  -1   0  -2 23.5495 3.67630   2
   0   1  -2 25.3591 1.80080   2
   1  -1  -2 25.6169 3.98139   2
  -1   0  -2 26.8101 4.15904   3
   1  -1  -2 22.1383 3.94859   3
   1   0   2 23.5723 3.64085   2
  -1   1   2 24.9065 4.45140   3
   1   0   2 22.7342 4.02055   3
  -1   1   2 27.7847 4.06838   2
   0  -1  -2 39.9702 4.57658   2
   1   0  -2 35.8665 3.17616   3
   1   0  -2 37.6965 3.75938   2
  -1   1  -2 36.6802 3.64864   2
   0  -1  -2 35.3893 4.95188   3
   0   1   2 28.7368 4.74864   3
  -1   0   2 33.1412 3.70060   2
  -1   0   2 33.6924 3.09143   3
   0   1   2 34.4945 4.37480   2
   1  -1   2 30.7275 5.08115   3
  -1  -1  -2 232.848 14.5707   2
  -1   2  -2 253.600 17.3820   3
   2  -1  -2 257.574 14.7475   3
  -1   2  -2 259.679 13.0864   2
   2  -1  -2 240.101 14.7464   2
  -1  -1  -2 248.067 15.0431   3
  -2  -1  -2 3004.55 127.660   3
  -2  -1  -2 2990.10 128.490   2
  -1   3  -2 2909.88 133.448   3
  -1   3  -2 2994.58 125.769   2
   3  -2  -2 2771.98 129.251   3
   3  -2  -2 2909.36 129.097   2
   2   1   2 3050.04 128.870   2
   1  -3   2 3003.50 125.762   2
   1  -3   2 2862.58 134.445   3
  -3   2   2 2946.04 129.240   2
  -3   2   2 2782.06 130.889   3
   2   1   2 3006.05 127.438   3
  -2   0  -2 485.032 25.3575   2
   2  -2  -2 477.010 25.3459   2
   0   2  -2 496.615 22.5870   2
   0   2  -2 477.796 26.9181   3
   2  -2  -2 469.220 27.3326   3
  -2   0  -2 469.315 24.3876   3
   2   0   2 488.704 24.6725   3
  -2   2   2 489.816 28.4335   3
   0  -2   2 481.047 27.7891   3
  -2   2   2 488.476 25.6262   2
   0  -2   2 472.916 22.1492   2
   1   1  -2 360.404 16.2083   3
   1  -2  -2 369.252 17.6845   2
  -1   2   2 261.024 16.4535   2
  -1   2   2 261.359 18.9179   3
   2  -1   2 262.349 17.1878   3
  -1  -1   2 268.092 15.2000   3
  -2   2  -2 46.1272 7.71033   3
  -2   2  -2 50.9947 8.44522   3
  -2   2  -2 47.2586 5.76737   2
   0  -2  -2 50.3107 6.44864   2
   0  -2  -2 55.1963 7.89905   3
   0   2   2 51.3173 6.50740   2
   2  -2   2 52.3563 8.31421   3
   0   2   2 50.7702 7.83848   3
  -2   0   2 49.1927 5.74427   2
  -1  -2  -2 658.296 31.2448   2
   3  -1  -2 641.748 28.0621   3
  -2   3  -2 602.432 29.1154   2
  -1  -2  -2 662.112 32.5541   3
  -2   3  -2 633.296 35.9010   3
   2  -3   2 527.962 28.7745   2
  -3   1   2 517.371 30.4751   2
  -3   1   2 539.744 28.1252   3
   2  -3   2 525.770 34.4931   3
   1   2   2 510.522 29.8081   2
   1   2   2 532.059 30.4547   3
  -4   2   2 98.8290 12.4439   3
   2  -4   2 102.414 9.84219   2
   2   2   2 105.424 11.6412   2
   2   2   2 106.075 10.7072   3
   2  -4   2 116.996 16.9553   3
  -4   2   2 106.562 12.6303   2
   1  -4   2 37.4281 11.2994   3
   3   1   2 33.1692 6.96347   2
  -4   3   2 30.9348 9.66372   3
   3   1   2 32.2759 6.38101   3
  -4   3   2 40.7435 9.07315   2
   1  -4   2 30.0191 5.47912   2
   0   3  -2 513.606 25.8159   2
   3  -3  -2 529.747 32.5874   3
  -3   0  -2 508.425 28.9217   2
  -3   0  -2 516.174 26.9702   3
   0   3  -2 533.176 31.5958   3
   3  -3  -2 523.700 29.2162   2
  -3   3   2 515.044 34.1337   3
   0  -3   2 499.750 25.1793   2
   3   0   2 524.023 27.0662   3
  -3   3   2 530.050 29.5100   2
   0  -3   2 459.266 32.2918   3
   2  -3  -2 2988.47 135.092   3
  -3   1  -2 3000.96 129.334   3
   2  -3  -2 2844.85 129.773   2
   1   2  -2 2977.43 129.454   3
  -3   1  -2 3070.78 130.604   2
   1   2  -2 2898.07 127.272   2
  -2   3   2 2937.61 136.060   3
  -1  -2   2 2877.49 130.753   3
  -1  -2   2 3003.30 126.734   2
   3  -1   2 3023.44 129.957   3
  -2   3   2 3042.86 130.276   2
  -3   2  -2 508.391 30.6881   3
   2   1  -2 534.806 27.6603   2
   1  -3  -2 528.567 30.8126   2
  -3   2  -2 522.725 29.9533   3
  -3   2  -2 532.199 29.0008   2
   1  -3  -2 521.044 32.3527   3
   2   1  -2 533.994 23.9795   3
  -3   2  -2 513.194 28.8503   2
   2   1  -2 520.067 23.7410   3
  -2  -1   2 641.302 27.7608   2
  -3   3  -2 2577.00 125.218   3
   0  -3  -2 2583.92 114.186   2
   0  -3  -2 2525.99 117.931   3
  -3   3  -2 2538.78 114.061   2
   0   3   2 2665.12 117.988   3
   0   3   2 2629.12 114.657   2
   3  -3   2 2575.54 119.155   3
  -3   0   2 2587.96 113.852   2
  -1  -3  -2 469.289 28.0892   2
  -3   4  -2 456.549 27.5010   2
  -1  -3  -2 456.601 30.4252   3
   1   3   2 507.760 32.7424   3
   3  -4   2 511.462 35.4136   3
  -4   1   2 516.676 29.3806   2
  -4   1   2 495.858 23.4196   3
   1   3   2 481.656 28.6335   2
   3  -4   2 508.931 28.3107   2
  -4   1   2 522.953 30.6979   2
  -4   1   2 516.636 24.6801   3
  -3   5  -2 323.187 29.7943   3
  -2  -3  -2 321.381 21.6086   2
  -3   5  -2 308.462 20.5047   2
  -2  -3  -2 317.993 22.9980   3
  -5   2   2 273.422 23.0789   2
   3  -5   2 268.267 19.7629   2
   3  -5   2 272.112 27.9338   3
   2   3   2 273.467 21.4048   2
  -5   2   2 268.097 21.6020   2
  -5   2   2 280.181 20.6110   3
   2   3   2 282.915 20.7988   3
  -5   2   2 282.553 17.9304   3
  -3  -3  -2 29.9304 9.07133   3
  -3  -3  -2 25.6406 8.21004   2
  -3   6  -2 31.7163 8.43422   2
  -3   6  -2 40.0738 14.9434   3
  -6   3   2 62.8639 13.4368   2
  -6   3   2 49.8301 9.53694   3
  -6   3   2 44.3867 11.4432   3
   3   3   2 48.4776 9.80519   3
  -6   3   2 40.7679 10.2455   2
   3   3   2 25.6038 8.27744   2
  -3   7  -2 21.8292 13.2464   3
  -3   7  -2 16.1739 7.45198   2
  -4  -3  -2 8.31121 7.79611   3
   4   3   2 16.5999 6.95320   3
  -7   4   2 10.3126 8.69911   2
  -7   4   2 14.2092 8.75649   2
  -7   4   2 11.0994 7.21953   3
   4   3   2 16.1450 9.01054   2
  -7   4   2 7.25010 9.14280   3
   6  -4  -2 201.062 19.8213   3
  -4  -2  -2 207.083 17.6475   3
  -2   6  -2 204.113 17.1143   2
  -2   6  -2 195.786 25.2277   3
  -4  -2  -2 212.723 19.3929   2
  -4  -1  -2 305.222 22.9459   2
  -1   5  -2 306.922 27.2689   3
  -4  -1  -2 291.109 19.3348   3
   5  -4  -2 301.344 25.2047   3
  -1   5  -2 280.219 19.4216   2
   5  -4  -2 310.203 23.9864   2
   4  -4  -2 428.943 27.5179   2
   4  -4  -2 387.169 29.7463   3
  -4   0  -2 419.771 23.9784   3
  -4   0  -2 417.456 27.1801   2
   0   4  -2 431.393 23.8238   2
   0   4  -2 397.963 28.9170   3
   4   0   2 425.433 27.2686   2
   0  -4   2 397.691 31.3868   3
  -4   4   2 422.343 27.5171   2
   4   0   2 432.412 24.1817   3
   0  -4   2 430.904 23.1399   2
  -4   4   2 386.101 33.5074   3
   1   3  -2 29.3991 7.09903   3
  -4   1  -2 35.8815 8.06825   3
   1   3  -2 28.6139 5.73433   2
   3  -4  -2 26.8084 8.26471   3
  -4   1  -2 40.8782 10.5950   2
   3  -4  -2 35.7164 7.60609   2
  -4   1  -2 33.5746 7.13894   3
  -3   4   2 8.99057 8.77413   3
  -4   2  -2 102.117 12.1888   2
  -4   2  -2 94.2819 10.8384   3
   2   2  -2 116.450 10.6321   2
  -4   2  -2 122.194 12.5676   2
  -4   2  -2 102.349 12.9834   3
   2   2  -2 101.875 8.76970   3
   2  -4  -2 115.814 11.8026   2
   3   1  -2 497.861 28.3133   2
  -4   3  -2 492.036 33.0293   3
  -4   3  -2 491.540 29.2163   2
   1  -4  -2 521.870 28.8523   2
   1  -4  -2 518.846 34.5285   3
  -4   3  -2 482.770 30.8836   3
  -1   4   2 501.862 34.0856   3
  -1   4   2 461.594 28.3575   2
  -3  -1   2 463.629 26.9835   2
   0  -4  -2 284.409 24.5064   3
   0  -4  -2 292.693 20.2294   2
  -4   4  -2 260.913 25.0653   3
  -4   4  -2 273.277 20.4116   2
  -4   0   2 285.988 20.0924   2
  -4   0   2 289.777 21.3611   2
   4  -4   2 296.055 25.0933   3
   0   4   2 289.187 20.8320   2
   0   4   2 309.322 24.2959   3
   1   4   2 44.2372 9.35183   2
  -5   1   2 36.9926 9.95656   2
   4  -5   2 51.5230 14.2743   3
  -5   1   2 19.5521 6.70083   2
   1   4   2 37.5690 9.45990   3
   4  -5   2 41.5978 9.22098   2
  -2  -4  -2 45.8770 12.1868   3
  -4   6  -2 40.7278 9.50713   2
  -4   6  -2 66.5457 17.8201   3
   2   4   2 47.4758 9.18581   2
  -6   2   2 49.3630 11.2627   2
  -6   2   2 76.5646 8.30159   3
  -6   2   2 77.3492 10.3328   3
  -6   2   2 70.4329 12.9624   2
   2   4   2 63.7779 11.8611   3
  -3  -4  -2 115.771 21.9397   3
  -4   7  -2 121.666 15.9478   2
  -4   7  -2 104.706 22.6006   3
   3   4   2 74.8404 23.0766   2
  -7   3   2 96.4865 11.6555   3
  -7   3   2 82.6388 14.1375   3
   3   4   2 78.0296 13.6756   3
  -4   8  -2 -3.8635 10.8786   3
  -4   8  -2 0.69584 6.93565   2
  -8   4   2 21.1430 7.93790   3
   4   4   2 11.9614 7.44161   3
   4   4   2 12.0623 9.78120   2
  -8   4   2 21.2020 11.6270   2
  -8   4   2 15.2148 9.54003   3
   5   3   2 141.522 14.7627   3
  -8   5   2 135.104 22.5798   3
   5   3   2 147.444 22.1288   2
  -8   5   2 136.139 22.3604   2
   5   2   2 150.459 13.7904   3
  -7   5   2 119.065 22.9084   3
   5   2   2 129.584 19.8093   2
  -7   5   2 136.577 20.6638   2
  -5  -1  -2 103.740 15.9110   2
   6  -5  -2 69.8127 12.7284   2
  -1   6  -2 93.1604 11.9688   2
   6  -5  -2 95.4548 16.8282   3
   5   1   2 38.7413 11.0327   2
  -6   5   2 56.5481 16.6312   3
  -6   5   2 36.4259 10.4893   2
   5   1   2 53.2884 8.83645   3
  -5   0  -2 17.5828 5.58735   3
   0   5  -2 18.9346 9.35484   3
  -5   0  -2 20.9865 7.90618   2
   5  -5  -2 13.7655 7.92831   3
   0   5  -2 21.7535 6.54617   2
   5  -5  -2 30.0930 9.03236   2
   5   0   2 10.0361 7.43593   2
  -5   5   2 14.3696 8.85402   2
   5   0   2 21.8218 6.77853   3
  -5   5   2 14.5818 11.6615   3
   4  -5  -2 495.176 37.4785   3
  -5   1  -2 553.164 33.4516   2
   1   4  -2 513.054 32.6414   3
  -5   1  -2 501.231 30.3098   3
   4  -5  -2 502.635 32.4782   2
   1   4  -2 525.230 29.6566   2
  -5   1  -2 521.365 28.8158   3
  -2  -3   2 87.9951 14.4630   3
   2  -5  -2 273.436 20.9459   2
   3   2  -2 276.837 20.4757   2
  -5   3  -2 279.408 22.1557   3
  -5   3  -2 261.464 22.2464   2
  -5   3  -2 264.591 24.2241   3
   3   2  -2 284.737 15.2574   3
  -5   3  -2 296.242 22.5390   2
  -3  -2   2 298.852 19.6848   2
  -2   5   2 305.486 28.0931   3
  -3  -2   2 315.315 16.6922   3
  -2   5   2 304.898 21.9756   2
   1  -5  -2 35.3662 8.14092   2
  -5   4  -2 30.3512 10.2935   3
  -5   4  -2 23.2407 10.5925   3
   1  -5  -2 17.8781 9.62812   3
   4   1  -2 26.6067 7.85030   2
  -5   4  -2 23.6944 7.07896   2
  -5   5  -2 208.940 19.7242   2
  -5   5  -2 218.526 26.7592   3
  -5   5  -2 213.732 26.6843   3
   0  -5  -2 220.426 19.0813   2
   0  -5  -2 238.364 24.6999   3
  -5   0   2 238.886 20.8959   2
  -5   0   2 226.186 19.1926   2
   5  -5   2 210.695 27.6718   3
   0   5   2 219.477 19.6738   2
   0   5   2 238.000 23.2282   3
  -1  -5  -2 93.6720 17.9801   3
   1   5   2 21.5752 9.86793   3
  -7   2   2 85.4234 16.3408   2
   2   5   2 39.5661 9.81289   2
   2   5   2 63.4371 13.4730   3
  -5   8  -2 4.95974 14.5333   3
  -5   8  -2 10.0421 8.23927   2
   3   5   2 18.7100 9.53892   3
  -8   3   2 19.4622 6.86621   3
  -8   3   2 37.7796 14.2283   2
   3   5   2 27.1392 11.0581   2
  -2   8  -2 45.1813 11.4046   2
   6   2   2 76.6448 17.2790   2
  -8   6   2 72.9062 20.4334   3
   6   2   2 79.0518 10.0916   3
  -8   6   2 77.5039 18.6908   2
  -6  -1  -2 49.9721 10.8183   3
  -1   7  -2 40.2285 9.89553   2
  -6  -1  -2 54.0722 9.26577   3
  -1   7  -2 44.2922 15.0079   3
  -7   6   2 90.2338 21.1841   3
  -7   6   2 70.9580 17.0043   2
   6   1   2 74.5839 15.0102   2
  -6   0  -2 132.108 12.6906   3
   0   6  -2 148.415 21.1512   3
  -6   0  -2 140.689 13.9918   3
   0   6  -2 142.193 15.3217   2
  -6   6   2 159.752 21.3937   2
   1   5  -2 51.4983 12.3860   3
  -6   1  -2 50.8747 9.07878   3
  -6   1  -2 51.5949 10.4335   3
   1   5  -2 55.1594 10.3318   2
  -6   1  -2 45.0747 11.6114   2
  -1  -5   2 112.649 23.5364   3
  -5   6   2 110.312 23.8839   3
  -6   2  -2 381.292 29.8294   2
  -6   2  -2 408.098 25.7490   3
   2   4  -2 406.682 25.9862   2
  -6   2  -2 387.954 29.1954   2
   4  -6  -2 347.341 27.2189   2
  -6   2  -2 377.125 27.5789   3
   2   4  -2 373.518 25.2106   3
   3   3  -2 50.5661 9.85448   2
   3   3  -2 45.0956 7.47288   3
  -6   3  -2 43.1837 11.3187   2
  -6   3  -2 40.9113 12.2810   3
   3  -6  -2 46.0902 10.4404   2
  -6   3  -2 48.7385 10.4978   3
  -6   3  -2 28.6276 8.07326   2
  -3  -3   2 26.8378 7.11674   3
  -3   6   2 22.1402 12.8227   3
  -3   6   2 38.6195 10.4748   2
  -6   4  -2 58.6821 15.2018   3
  -6   4  -2 62.4904 12.7193   3
  -6   4  -2 43.0959 9.72476   2
   4   2  -2 74.9886 12.7383   2
  -6   4  -2 76.0880 13.9368   2
  -2   6   2 36.2919 9.72987   2
  -2   6   2 46.8134 15.9275   3
  -6   5  -2 25.1033 13.0618   3
  -6   5  -2 17.8215 8.09570   2
  -6   6  -2 8.58122 11.7554   3
  -6   6  -2 5.24990 9.45480   2
   0   6   2 6.54052 11.1599   3
  -6   0   2 4.13953 6.37355   2
   0   6   2 4.13233 7.33515   2
  -7   1   2 44.0461 11.6018   2
   1   6   2 60.4673 15.2417   3
   1   6   2 43.9675 11.7308   2
  -6   8  -2 65.8236 14.6535   2
  -6   8  -2 68.9317 21.2504   3
   2   6   2 91.3986 17.4525   2
  -8   2   2 97.7000 18.5388   2
   2   6   2 85.1613 16.9236   3
  -7   0  -2 4.15618 5.21438   3
   0   7  -2 1.80564 9.62631   3
   0   7  -2 4.15829 6.71845   2
  -7   7   2 20.6724 11.3353   2
  -7   7   2 8.10583 15.0756   3
  -7   1  -2 79.2222 11.0935   3
   1   6  -2 94.4495 14.3689   2
   1   6  -2 96.0681 17.2218   3
  -7   1  -2 89.0302 15.3444   3
  -7   1  -2 93.2455 17.7112   2
  -6   7   2 44.5068 20.0210   3
   2   5  -2 142.847 16.4440   2
  -7   2  -2 123.016 18.7159   2
  -7   2  -2 135.184 17.0791   3
   2   5  -2 130.221 16.2858   3
  -7   2  -2 114.833 13.6964   3
  -7   2  -2 138.113 19.4360   2
  -7   3  -2 11.8237 10.1379   2
  -7   3  -2 15.5175 9.22036   3
  -7   3  -2 15.7271 9.67913   2
  -7   3  -2 7.89289 6.95983   3
   3   4  -2 19.9218 6.80142   3
   3   4  -2 18.9341 8.34884   2
  -3  -4   2 13.0585 7.92846   3
  -4   7   2 18.7653 11.6814   2
  -4   7   2 10.4178 12.8368   3
  -7   4  -2 92.9537 14.9692   3
   4   3  -2 107.234 16.0759   2
  -7   4  -2 90.7289 18.2469   3
  -7   4  -2 87.3749 17.1575   2
  -7   4  -2 99.4995 17.7549   2
  -3   7   2 106.809 22.0592   3
  -3   7   2 114.292 17.3983   2
   5   2  -2 66.8289 13.8875   2
  -7   5  -2 88.9854 17.7947   2
  -7   5  -2 61.8747 14.4142   2
  -7   5  -2 67.3719 18.1911   3
  -6  -1   2 193.341 21.7967   2
  -1   7   2 228.605 28.5462   3
  -1   7   2 175.384 20.7178   2
  -7   7  -2 14.5299 9.61636   2
  -7   7  -2 9.25002 13.3666   3
   0   7   2 12.2956 8.22231   2
  -7   0   2 2.99339 8.48244   2
   0   7   2 12.4154 11.2300   3
   2   6  -2 77.6820 14.5661   3
  -8   2  -2 73.9870 11.7555   3
  -8   2  -2 69.0790 13.0016   3
   2   6  -2 75.5861 14.4826   2
  -8   2  -2 69.8159 18.0070   2
  -6   8   2 39.7261 19.9474   3
  -6   8   2 57.2273 15.7779   2
  -8   3  -2 147.484 23.0311   2
  -8   3  -2 143.831 17.7247   3
   3   5  -2 149.813 15.8414   3
  -8   3  -2 170.461 20.4982   3
   3   5  -2 137.622 18.7349   2
   4   4  -2 14.6931 6.32661   3
   4   4  -2 14.8722 9.01352   2
  -8   4  -2 0.79678 9.58948   3
  -8   4  -2 9.65311 11.3782   2
   4   4  -2 16.6733 5.40094   3
  -8   4  -2 6.72403 9.15231   2
  -4   8   2 9.64104 8.20731   2
  -4   8   2 -17.619 11.8196   3
  -8   5  -2 6.93352 11.0484   2
  -8   5  -2 22.8176 11.9150   2
  -8   5  -2 28.3477 13.8449   3
   5   3  -2 21.1359 9.23575   2
  -3   8   2 -0.9609 14.0071   3
  -3   8   2 10.3043 7.69265   2
  -8   6  -2 83.1344 17.1086   2
  -8   6  -2 98.0174 22.6801   3
  -2   8   2 69.0494 20.3603   3
  -6  -2   2 54.0284 13.9969   2
  -2   8   2 63.8739 14.3555   2
   0   0  -3 1679.27 71.1328   2
   0   0   3 1657.06 71.0267   2
   0   0   3 1669.96 73.1249   3
  -1   0  -3 41.4196 5.51577   3
   1  -1  -3 49.7092 5.27557   2
   0   1  -3 41.5618 5.46087   3
  -1   0  -3 38.1999 4.85192   2
   1  -1  -3 45.0419 5.74904   3
   0  -1   3 44.8947 5.73138   3
   1   0   3 48.0346 6.12494   3
  -1   1   3 45.0707 5.83994   3
   0  -1  -3 14.4126 3.47808   2
   1   0  -3 8.58583 2.46874   3
   0  -1  -3 6.91049 3.15391   3
   1   0  -3 13.0681 2.64910   2
  -1   1  -3 8.72282 3.51792   3
  -1   1  -3 11.2668 2.36367   2
  -1   0   3 9.04706 2.57584   3
  -1   0   3 10.9917 2.50154   2
   0   1   3 10.8891 3.07952   2
   1  -1   3 12.7640 4.03502   3
   0   1   3 12.1424 3.96674   3
   2  -1  -3 365.017 19.7334   2
  -1  -1  -3 371.655 20.7455   3
   2  -1  -3 364.620 19.2612   3
  -1   2  -3 352.758 22.0429   3
  -1   2  -3 373.775 17.1304   2
  -1   2  -3 350.131 21.9771   3
   1   1   3 284.903 21.4188   2
  -1   3  -3 66.2053 11.1191   3
  -2  -1  -3 66.8259 8.62307   2
   3  -2  -3 67.3518 9.38284   3
   3  -2  -3 62.5942 8.61973   2
  -1   3  -3 65.0714 6.07047   2
  -3   2   3 77.0209 10.2808   3
  -3   2   3 80.5964 9.52619   2
   1  -3   3 88.7145 12.8494   3
   1  -3   3 67.9193 6.14494   2
   2   1   3 71.7830 8.90750   3
   0   2  -3 1283.56 60.0222   3
  -2   0  -3 1289.35 58.6393   2
   0   2  -3 1312.35 54.5075   2
  -2   0  -3 1250.17 58.4234   3
   0   2  -3 1216.54 59.5862   3
   2  -2  -3 1239.10 60.0490   3
  -2   2   3 1317.46 60.9893   3
  -2   2   3 1265.38 58.6385   2
   0  -2   3 1344.27 60.7764   3
   2   0   3 1197.10 58.0574   2
   0  -2   3 1248.31 53.6536   2
   2   0   3 1266.97 58.5182   3
  -2   1  -3 173.479 12.0834   2
  -2   1  -3 186.355 13.5099   3
   1  -2  -3 194.819 14.5716   3
   1   1  -3 182.237 10.2961   2
   1  -2  -3 173.393 12.4410   2
   1   1  -3 192.310 11.4515   3
   1   1  -3 181.215 10.8713   3
   0  -2  -3 564.961 29.1433   2
   2   0  -3 573.038 25.1049   3
  -2   2  -3 564.803 27.8414   2
  -2   2  -3 564.640 31.2945   3
  -2   2  -3 560.950 31.6368   3
   0  -2  -3 531.515 30.6651   3
  -2   0   3 566.150 27.5687   2
  -2   0   3 561.815 24.9589   3
   0   2   3 567.870 29.1063   2
   0   2   3 572.029 30.9762   3
  -2   0   3 547.644 28.1143   2
  -2   3  -3 422.307 24.0004   2
  -1  -2  -3 429.548 26.7828   3
   3  -1  -3 415.942 25.6725   2
  -2   3  -3 440.678 29.6149   3
  -1  -2  -3 416.340 25.7163   2
  -2   3  -3 399.011 28.9014   3
   3  -1  -3 422.807 23.5743   3
   1   2   3 526.498 27.7285   3
  -3   1   3 540.816 23.4635   3
   1   2   3 534.267 27.1813   2
  -3   1   3 539.987 27.4608   2
   2  -3   3 553.647 32.1411   3
  -2   4  -3 53.5610 7.28068   2
  -2  -2  -3 54.6450 9.08764   3
   4  -2  -3 44.4284 7.96382   3
  -2   4  -3 47.2181 12.0284   3
   4  -2  -3 45.8255 8.63541   2
  -2  -2  -3 58.9525 8.99216   2
   2   2   3 81.4529 10.3958   2
   2  -4   3 71.8000 13.9741   3
  -2   5  -3 254.088 26.5780   3
  -3  -2  -3 283.013 21.5096   2
   5  -3  -3 259.992 22.4474   2
  -3  -2  -3 238.588 19.7528   3
   5  -3  -3 260.653 20.5839   3
  -2   5  -3 263.724 17.9906   2
   3   2   3 275.651 23.2557   3
  -5   3   3 286.954 23.7980   3
   3   2   3 309.687 22.6851   2
  -5   3   3 317.337 23.9105   2
   2  -5   3 297.070 18.5641   2
   2  -5   3 283.086 29.1045   3
  -3  -1  -3 611.727 34.2248   2
   4  -3  -3 598.572 34.7866   2
  -1   4  -3 620.702 30.1616   2
  -1   4  -3 616.870 38.8179   3
   4  -3  -3 566.272 35.2391   3
  -3  -1  -3 606.485 32.9176   3
   1  -4   3 550.898 39.6367   3
  -4   3   3 567.822 37.5808   3
   3   1   3 624.550 34.6179   2
   1  -4   3 611.324 29.8211   2
   3   1   3 626.344 32.8738   3
  -4   3   3 604.393 35.0164   2
   0   3  -3 2.29174 2.28481   2
   3  -3  -3 1.83500 5.31351   3
  -3   0  -3 2.59542 3.29557   3
   0   3  -3 4.71617 4.81501   3
  -3   0  -3 2.34647 3.85629   2
   3  -3  -3 0.99627 3.70727   2
  -3   3   3 6.82558 5.17540   2
   3   0   3 3.63801 3.88424   2
  -3   3   3 2.03607 6.02598   3
   3   0   3 0.79264 3.90437   3
   0  -3   3 2.26877 2.28715   2
   0  -3   3 2.17838 5.19589   3
   1   2  -3 74.7180 8.62621   3
   2  -3  -3 70.5779 11.1553   3
   2  -3  -3 76.8857 9.37504   2
  -3   1  -3 75.2200 9.13962   2
  -3   1  -3 75.3904 9.22987   3
   1   2  -3 77.4902 8.95413   3
   1   2  -3 81.0122 6.87545   2
  -2   3   3 78.3520 9.55453   2
  -1  -2   3 72.6543 6.00053   2
  -2   3   3 77.5952 12.5459   3
   3  -1   3 78.6025 9.49304   3
   3  -1   3 70.1601 8.71805   2
  -1  -2   3 76.4858 8.96613   3
   2   1  -3 563.272 23.8432   3
   1  -3  -3 548.775 31.9697   3
  -3   2  -3 561.431 28.5412   2
  -3   2  -3 520.873 29.7615   3
   1  -3  -3 526.175 28.3103   2
   2   1  -3 546.273 26.7960   2
   2   1  -3 536.211 23.0669   3
  -3   2  -3 570.881 31.2077   3
  -2  -1   3 438.080 26.0439   2
  -1   3   3 464.182 30.8939   3
  -1   3   3 426.345 27.3295   2
  -2  -1   3 429.415 24.9571   2
   0  -3  -3 58.3328 8.57521   2
   0  -3  -3 46.7759 9.47898   3
  -3   3  -3 63.2166 12.3409   3
  -3   3  -3 46.3342 7.57974   2
  -3   3  -3 43.2508 9.69135   3
  -3   0   3 56.2062 8.61384   2
  -3   0   3 51.5792 7.46062   2
   0   3   3 53.0087 10.1472   3
   0   3   3 38.3761 7.32394   2
  -1  -3  -3 951.409 46.1932   2
  -3   4  -3 927.128 53.0333   3
  -1  -3  -3 925.471 48.6236   3
  -3   4  -3 922.142 44.2479   2
  -4   1   3 862.215 45.2085   2
  -4   1   3 874.722 39.3773   3
  -4   1   3 865.436 46.6804   2
   1   3   3 868.266 47.0126   3
   3  -4   3 841.816 51.6905   3
  -4   1   3 835.713 39.2021   3
  -3   5  -3 7.86198 9.58882   3
  -2  -3  -3 13.0595 6.25887   2
  -2  -3  -3 15.1506 7.35549   3
  -3   5  -3 8.72804 5.21429   2
   5  -2  -3 11.8238 4.92881   3
   2   3   3 10.8057 6.67571   2
  -5   2   3 8.16697 6.23513   2
   2   3   3 7.82833 6.36996   3
  -5   2   3 3.34293 4.24262   2
   3  -5   3 1.41540 7.03501   3
  -5   2   3 10.6617 5.10755   3
   3  -5   3 6.80193 4.46218   2
  -6   3   3 269.737 23.5824   2
  -6   3   3 264.550 24.8416   2
   3   3   3 244.671 21.0225   3
  -6   3   3 245.876 19.0729   3
   3   3   3 285.977 23.6582   2
  -6   3   3 258.773 22.0995   3
  -3   7  -3 124.912 15.2720   2
  -4  -3  -3 111.900 16.4618   3
  -3   7  -3 90.0561 21.2604   3
  -7   4   3 146.676 16.3081   3
   4   3   3 154.817 19.8822   2
  -7   4   3 149.705 19.9237   3
  -7   4   3 154.538 21.5602   2
   4   3   3 161.210 16.5129   3
  -4  -2  -3 248.949 20.2231   3
  -4  -2  -3 238.162 21.7474   2
  -2   6  -3 247.773 27.5378   3
  -2   6  -3 226.562 18.1644   2
   6  -4  -3 236.549 21.3703   3
  -5   4   3 71.2388 14.1525   2
   4   1   3 47.5461 10.0474   2
   1  -5   3 56.8713 15.1714   3
  -5   4   3 53.5947 14.6160   3
   1  -5   3 65.9502 8.30310   2
   4   1   3 64.2558 10.1448   3
   0   4  -3 47.5277 7.04901   2
  -4   0  -3 48.4000 8.19283   3
   4  -4  -3 51.5242 10.1511   2
  -4   0  -3 62.0056 10.9302   2
   0   4  -3 51.1142 11.4276   3
   4  -4  -3 44.0173 11.2091   3
   0  -4   3 44.2561 6.96660   2
   4   0   3 41.7317 8.25338   3
   4   0   3 39.2266 8.02235   2
   0  -4   3 43.2263 12.1170   3
  -4   4   3 51.0823 14.2056   3
  -4   4   3 35.6198 8.96156   2
   3  -4  -3 606.255 34.6920   2
  -4   1  -3 601.829 33.1935   3
   3  -4  -3 587.581 38.6978   3
  -4   1  -3 637.523 35.1257   2
   1   3  -3 602.189 34.2113   3
   1   3  -3 618.926 30.8556   2
  -3   4   3 590.018 40.9038   3
  -1  -3   3 580.327 35.6777   3
   4  -1   3 600.396 34.5406   2
   4  -1   3 613.459 34.0065   3
  -1  -3   3 619.869 29.6609   2
  -4   2  -3 86.8058 10.8120   2
   2   2  -3 95.5150 8.49410   3
   2   2  -3 84.5980 9.06178   2
   2   2  -3 93.5190 8.49747   3
  -4   2  -3 84.3691 11.1315   3
   2  -4  -3 90.2167 11.3491   2
   2  -4  -3 96.3386 14.3530   3
  -2   4   3 55.4602 9.90039   2
  -4   3  -3 835.657 44.9499   2
  -4   3  -3 816.777 46.9834   3
   3   1  -3 862.908 44.0213   2
   1  -4  -3 834.946 44.5853   2
  -4   3  -3 834.378 44.7494   2
   1  -4  -3 822.088 49.5275   3
  -4   3  -3 815.402 48.6307   3
  -1   4   3 928.816 50.7259   3
  -3  -1   3 932.565 43.0184   2
  -3  -1   3 941.830 44.9695   2
  -4   4  -3 10.8915 7.28553   3
  -4   4  -3 4.60381 7.09789   3
   0  -4  -3 13.1166 5.45791   2
   0  -4  -3 16.3662 7.95970   3
  -4   4  -3 9.94869 4.89743   2
   0   4   3 10.6354 6.13590   2
   0   4   3 19.6707 8.72955   3
  -4   0   3 17.7488 5.51163   2
  -1  -4  -3 131.659 17.1943   3
  -1  -4  -3 142.418 21.6698   2
  -4   5  -3 153.543 22.2572   3
  -4   5  -3 150.293 15.0096   2
   1   4   3 174.910 18.9707   3
  -5   1   3 145.353 15.3184   2
  -5   1   3 167.615 17.9031   2
   4  -5   3 166.469 21.9505   3
   1   4   3 155.875 16.3328   2
  -6   2   3 255.109 15.6906   3
   2   4   3 220.282 21.5767   2
   2   4   3 241.156 21.7266   3
  -6   2   3 252.847 22.4460   2
  -6   2   3 251.376 24.3849   2
  -6   2   3 254.646 14.9199   3
  -4   7  -3 39.8334 16.7164   3
  -3  -4  -3 60.7449 14.3455   3
  -4   7  -3 52.5133 11.0116   2
   3   4   3 69.6022 14.4523   2
  -7   3   3 75.4203 12.0640   3
   3   4   3 77.3306 13.9538   3
  -7   3   3 79.7175 10.2184   3
  -7   3   3 59.1563 15.3440   2
  -4  -4  -3 315.559 28.2844   3
  -4   8  -3 327.273 37.8110   3
  -4   8  -3 298.581 24.1301   2
  -8   4   3 215.325 27.2840   2
   4   4   3 240.013 26.6922   2
  -8   4   3 229.729 20.7057   3
   4   4   3 241.575 22.6604   3
  -8   4   3 234.360 22.5723   3
  -5  -3  -3 92.8221 16.7094   3
  -3   8  -3 84.5832 14.2075   2
  -3   8  -3 76.3021 20.8696   3
   5   3   3 148.249 21.4576   2
   5   3   3 135.837 15.0500   3
  -8   5   3 154.879 24.7100   2
  -8   5   3 146.239 21.4642   3
  -5  -2  -3 286.614 23.1377   3
  -2   7  -3 329.735 32.6985   3
  -2   7  -3 284.967 21.5489   2
   5   2   3 265.873 26.7373   2
  -7   5   3 266.645 27.2867   2
  -7   5   3 262.282 29.8238   3
   5   2   3 274.701 21.1341   3
  -5  -1  -3 359.812 28.8018   2
  -1   6  -3 362.510 32.2732   3
   6  -5  -3 367.497 31.5117   2
  -5  -1  -3 359.651 24.7910   3
  -1   6  -3 370.136 24.3890   2
   6  -5  -3 343.305 30.4155   3
  -6   5   3 464.756 37.9356   3
  -6   5   3 491.986 33.0467   2
  -5   0  -3 706.789 38.4637   3
   0   5  -3 774.503 45.7912   3
   0   5  -3 745.810 38.3358   2
   5  -5  -3 710.901 43.4266   2
   5  -5  -3 747.208 47.5545   3
  -5   0  -3 715.797 43.1824   2
  -5   5   3 680.681 50.8608   3
   5   0   3 686.728 42.6874   2
  -5   5   3 762.865 44.3528   2
  -5   1  -3 68.0372 10.0631   3
  -5   1  -3 62.3503 10.9624   3
   1   4  -3 77.7793 12.7804   3
   4  -5  -3 86.6178 13.6329   2
   4  -5  -3 71.2783 15.2747   3
   1   4  -3 57.9617 9.22230   2
  -5   1  -3 65.0068 12.4736   2
   3  -5  -3 281.347 27.0375   3
  -5   2  -3 299.321 23.1352   2
  -5   2  -3 290.598 23.1187   3
   3  -5  -3 295.786 22.1980   2
   2   3  -3 309.325 19.3669   3
  -5   2  -3 315.717 21.8463   3
   2   3  -3 296.055 19.4649   2
  -3   5   3 244.647 21.2993   2
  -2  -3   3 261.014 19.7399   3
  -3   5   3 247.002 27.9437   3
  -2  -3   3 251.488 17.3476   2
   2  -5  -3 2.23767 6.34510   3
   3   2  -3 4.59906 4.74915   2
  -5   3  -3 11.0881 6.80853   2
  -5   3  -3 16.9684 8.67692   3
  -5   3  -3 5.39258 6.13619   3
  -5   3  -3 8.01724 6.21528   2
   2  -5  -3 8.90947 5.90732   2
  -2   5   3 4.23482 6.01384   2
  -2   5   3 9.19557 9.82721   3
  -3  -2   3 10.7655 4.55798   2
   1  -5  -3 169.070 21.0141   3
  -5   4  -3 150.385 17.9683   3
  -5   4  -3 145.219 15.9802   2
  -5   4  -3 148.669 16.3406   2
  -5   4  -3 159.949 21.1246   3
  -4  -1   3 130.107 13.6142   2
  -1   5   3 150.828 16.1205   2
  -4  -1   3 150.370 15.7361   2
  -1   5   3 139.451 19.2758   3
  -5   5  -3 381.622 34.4227   3
  -5   5  -3 371.695 26.6872   2
   0  -5  -3 360.432 30.8949   3
   0  -5  -3 360.233 26.3017   2
   0   5   3 374.139 30.6904   3
   0   5   3 386.019 27.3132   2
  -5   6  -3 553.035 43.3583   3
  -6   1   3 403.187 32.1783   2
   1   5   3 435.228 31.3522   2
   1   5   3 440.437 33.5710   3
  -5   7  -3 107.579 24.2907   3
  -5   7  -3 119.531 17.2041   2
   2   5   3 181.120 20.4556   2
  -7   2   3 167.929 21.9281   2
   2   5   3 186.411 21.0774   3
  -5   8  -3 125.242 26.3834   3
  -5   8  -3 108.705 17.2690   2
   3   5   3 112.511 18.5712   3
   3   5   3 94.4230 16.2578   2
  -2   8  -3 100.029 23.6043   3
  -6  -2  -3 125.642 21.9259   3
  -8   6   3 196.211 26.2008   2
   6   2   3 196.835 16.6330   3
   6   2   3 145.190 22.8848   2
  -8   6   3 146.164 25.8834   3
  -1   7  -3 95.1898 19.3945   3
  -7   6   3 52.0491 18.4474   3
   6   1   3 56.1829 14.7147   2
   6   1   3 47.2381 9.77739   3
  -7   6   3 33.6693 12.0293   2
  -6   0  -3 22.6363 9.75922   2
  -6   0  -3 22.9012 7.31488   3
   0   6  -3 24.5764 11.2516   3
   0   6  -3 21.9600 7.42352   2
  -6   0  -3 24.7847 8.09926   3
   6   0   3 15.0484 8.98672   2
   6   0   3 22.6639 7.59157   3
  -6   6   3 27.3635 18.7204   3
  -6   6   3 26.0885 10.8161   2
  -6   1  -3 486.064 29.3639   3
   1   5  -3 526.735 29.8679   2
   5  -6  -3 485.076 33.7963   2
  -6   1  -3 483.942 31.0145   3
   1   5  -3 487.113 33.3554   3
  -6   1  -3 522.981 35.3507   2
  -5   6   3 404.267 32.8583   2
  -5   6   3 372.612 40.8284   3
  -6   2  -3 156.470 18.6979   2
  -6   2  -3 157.364 17.7738   3
  -6   2  -3 134.680 15.3477   3
   2   4  -3 146.995 14.6689   2
   4  -6  -3 131.180 16.3597   2
  -6   2  -3 151.127 18.7110   2
  -6   3  -3 264.039 23.4942   2
   3   3  -3 251.353 16.6042   3
   3  -6  -3 245.219 21.5718   2
  -6   3  -3 266.435 24.0277   2
   3   3  -3 260.104 16.0490   3
  -6   3  -3 246.829 24.7776   3
  -6   3  -3 278.120 25.1493   3
   3   3  -3 264.353 20.4673   2
  -6   4  -3 259.646 23.7184   2
   4   2  -3 250.881 21.7977   2
  -6   4  -3 240.399 23.3053   3
  -6   4  -3 268.095 23.9630   2
  -6   4  -3 276.556 27.3504   3
  -2   6   3 332.838 24.6835   2
  -6   5  -3 428.626 38.4815   3
  -6   5  -3 434.730 32.5685   2
  -6   5  -3 411.175 32.4097   2
  -5  -1   3 559.366 34.4069   2
  -1   6   3 540.925 33.7805   2
  -6   6  -3 244.766 23.3886   2
  -6   6  -3 272.836 32.7351   3
   0   6   3 232.947 26.3517   3
   0   6   3 283.745 32.7102   2
  -6   0   3 257.554 24.7112   2
  -6   7  -3 36.3115 18.7922   3
  -6   7  -3 39.3809 11.5272   2
   1   6   3 66.0392 17.0785   3
   1   6   3 65.5352 12.4284   2
  -6   8  -3 279.590 58.3717   3
  -6   8  -3 246.669 24.2199   2
   2   6   3 194.602 24.3155   3
   2   6   3 174.096 22.9231   2
  -8   2   3 170.160 25.5358   2
   0   7  -3 489.676 39.2545   3
  -7   0  -3 453.373 29.1234   3
   0   7  -3 478.992 31.5847   2
  -7   0  -3 451.357 29.3508   3
  -7   7   3 488.363 38.4409   2
  -7   7   3 505.240 48.0136   3
   1   6  -3 29.6132 8.49102   2
  -7   1  -3 35.1487 8.93624   3
  -7   1  -3 38.1338 10.4864   3
  -6   7   3 78.0927 16.1017   2
  -6   7   3 72.9050 24.3364   3
   2   5  -3 252.466 21.4740   2
  -7   2  -3 266.507 23.8552   3
   2   5  -3 257.549 22.1485   3
  -7   2  -3 246.837 26.0864   2
  -7   2  -3 245.660 20.9239   3
  -7   2  -3 256.923 26.4045   2
  -5   7   3 294.423 27.7239   2
  -5   7   3 307.895 37.4651   3
  -2  -5   3 299.932 26.1010   3
  -7   3  -3 161.347 21.0350   3
  -7   3  -3 155.195 20.1894   2
   3   4  -3 133.188 13.5420   3
  -7   3  -3 161.706 21.2410   2
   3   4  -3 150.348 16.8703   2
   3   4  -3 158.483 13.8129   3
  -7   3  -3 151.023 17.2437   3
  -4   7   3 125.619 18.6716   2
  -3  -4   3 105.861 13.5677   3
  -4   7   3 111.616 25.4717   3
  -7   4  -3 69.6411 16.6676   3
  -7   4  -3 69.0255 14.8432   2
  -7   4  -3 66.5857 14.4715   2
   4   3  -3 76.4114 12.8197   2
  -3   7   3 39.1588 18.3969   2
  -3   7   3 39.9855 15.9292   3
  -2   7   3 81.9718 14.3422   2
  -5  -2   3 117.110 16.6857   2
  -2   7   3 98.5412 21.9973   3
  -7   6  -3 65.9226 14.5170   2
  -7   6  -3 58.6922 19.1322   3
  -7   6  -3 79.3022 16.1327   2
  -1   7   3 36.5650 12.2327   2
  -6  -1   3 42.4529 12.4201   2
  -1   7   3 52.3622 17.1981   3
  -7   7  -3 284.251 36.3834   3
  -7   7  -3 302.734 27.4959   2
   0   7   3 294.658 26.8632   2
   0   7   3 255.682 29.9441   3
  -7   0   3 274.705 28.0285   2
   2   6  -3 178.924 20.2274   3
  -8   2  -3 215.342 25.4388   2
  -8   2  -3 161.778 20.2223   3
  -6   8   3 130.089 31.4749   3
  -6   8   3 142.663 24.1669   2
  -8   3  -3 106.070 21.8590   2
   3   5  -3 137.465 15.3791   3
  -8   3  -3 128.555 18.7549   3
  -8   3  -3 120.570 19.1963   3
  -8   3  -3 127.643 22.4537   2
   3   5  -3 115.514 17.1560   2
   3   5  -3 127.506 15.2849   3
  -5   8   3 96.2127 26.0084   3
  -5   8   3 88.5570 18.2626   2
  -8   4  -3 224.663 26.5134   2
  -8   4  -3 217.342 30.8189   2
   4   4  -3 222.901 23.4450   2
  -8   4  -3 250.695 27.7232   3
  -4   8   3 291.620 27.4794   2
  -4   8   3 314.731 37.4278   3
   5   3  -3 108.228 18.3862   2
  -8   5  -3 132.563 22.1794   2
  -8   5  -3 104.701 21.4234   3
  -8   5  -3 105.479 20.2173   2
  -3   8   3 124.256 27.7761   3
  -3   8   3 131.654 20.1610   2
  -5  -3   3 143.768 18.9588   2
  -8   6  -3 154.950 28.0556   3
  -8   6  -3 165.298 23.9466   2
  -2   8   3 234.401 32.2749   3
  -6  -2   3 222.332 24.0157   2
  -2   8   3 208.517 24.0646   2
   0   0  -4 7.22571 3.37453   3
   0   0  -4 2.25593 1.85926   2
   0   0   4 -0.0855 2.47574   3
   0   0   4 1.75303 1.61330   2
   1  -1  -4 9999.99 453.640   1
   1   0   4 9846.32 452.551   1
  -1   1  -4 3035.45 135.144   3
   0  -1  -4 3240.43 133.501   2
   1   0  -4 3098.43 132.855   3
   1   0  -4 3152.62 131.708   2
  -1   1  -4 3149.72 131.573   2
  -1   0   4 3086.17 132.902   3
   0   1   4 3258.95 135.750   3
  -1   0   4 3019.38 131.258   2
   0   1   4 3155.42 133.408   2
   1  -1   4 3025.69 135.093   3
   1  -1   4 2964.19 131.006   2
  -1  -1  -4 942.594 48.1533   3
  -1   2  -4 957.995 49.5440   3
  -1   2  -4 935.880 43.4160   2
   2  -1  -4 933.362 46.1942   3
  -1   2  -4 921.033 49.0316   3
   2  -1  -4 953.685 46.5978   2
  -1  -1  -4 961.200 47.1776   2
   1   1   4 1122.44 48.0674   2
   1   1   4 1138.49 49.5170   3
  -2   1   4 1133.62 46.9044   3
  -1   3  -4 1163.34 51.3454   2
  -2  -1  -4 1152.62 56.2379   2
  -1   3  -4 1163.37 59.7946   3
  -1   3  -4 1164.86 60.1022   3
   3  -2  -4 1178.05 56.8435   3
   3  -2  -4 1196.86 56.5823   2
  -2  -1  -4 1172.42 56.7013   3
  -3   2   4 1152.95 56.4511   2
  -3   2   4 1170.27 56.5845   3
   2   1   4 1184.45 56.7252   3
   2   1   4 1171.65 56.5277   2
   2  -2  -4 1397.42 62.1381   2
   0   2  -4 1305.78 62.7920   3
  -2   0  -4 1297.41 62.3255   3
  -2   0  -4 1342.74 61.8411   2
   0   2  -4 1334.88 56.4100   2
   0   2  -4 1347.67 63.1413   3
   2   0   4 1361.83 62.6830   3
  -2   2   4 1299.94 63.3071   3
   2   0   4 1323.71 61.5577   2
  -2   1  -4 1140.36 48.9462   2
   1   1  -4 1156.40 47.8432   3
  -2   1  -4 1124.90 50.9845   3
   1  -2  -4 1113.71 49.5587   2
   1  -2  -4 1116.01 51.6163   3
  -1  -1   4 1009.40 47.7555   3
  -1  -1   4 963.878 44.7113   2
  -1  -1   4 966.880 44.8528   2
   2  -1   4 982.385 50.3285   3
  -1   2   4 939.173 48.6497   2
  -1   2   4 961.838 50.9444   3
  -2   2  -4 28.5936 4.96018   2
   0  -2  -4 21.3835 5.69695   3
   0  -2  -4 37.6606 6.79916   2
   2   0  -4 30.7157 4.27740   3
  -2   2  -4 26.4843 6.48724   3
   2   0  -4 35.6019 5.38841   2
  -2   2  -4 24.8152 6.95228   3
   0   2   4 24.6083 5.68515   2
  -2   0   4 32.9103 4.85512   2
   0   2   4 25.5153 6.44755   3
  -2   0   4 27.5246 4.82195   2
  -2   0   4 28.2727 4.17031   3
   2  -2   4 24.2197 6.53522   3
  -2   3  -4 8972.23 393.877   3
  -1  -2  -4 9107.01 391.051   3
   3  -1  -4 9039.14 388.789   2
   3  -1  -4 8986.09 386.450   3
  -1  -2  -4 9604.62 390.006   2
  -2   3  -4 8866.79 393.755   3
  -2   3  -4 9250.20 386.103   2
   1   2   4 9463.58 391.126   3
  -3   1   4 9296.33 385.613   3
   1   2   4 9581.78 389.897   2
  -2   4  -4 1014.81 46.3852   2
   4  -2  -4 977.901 50.6028   2
  -2   4  -4 953.588 55.7774   3
   4  -2  -4 1009.22 49.2592   3
  -2  -2  -4 997.886 51.0985   3
  -2   4  -4 986.889 56.2110   3
  -2  -2  -4 1050.02 51.0623   2
   2   2   4 969.169 50.6706   2
   2   2   4 986.549 50.8916   3
  -4   2   4 963.456 51.1472   2
  -4   2   4 968.863 48.3661   3
   2  -4   4 982.646 57.3262   3
  -3  -2  -4 3726.32 164.620   3
  -2   5  -4 3680.84 159.430   2
  -2   5  -4 3797.48 173.600   3
  -3  -2  -4 3855.85 165.626   2
   5  -3  -4 3599.89 164.014   3
   5  -3  -4 3705.16 166.191   2
   3   2   4 3733.62 163.889   3
   2  -5   4 3660.79 159.855   2
  -5   3   4 3672.29 165.402   3
   2  -5   4 3552.53 175.431   3
   3   2   4 3696.92 165.574   2
  -5   3   4 3641.41 166.452   2
   4  -3  -4 635.819 35.7619   2
  -3  -1  -4 608.012 34.8247   2
  -3  -1  -4 595.526 34.1576   3
  -1   4  -4 610.729 29.8332   2
  -1   4  -4 607.144 39.1586   3
   4  -3  -4 589.323 36.4829   3
  -4   3   4 608.660 38.0389   3
   1  -4   4 609.191 41.0045   3
  -4   3   4 652.123 36.2701   2
   1  -4   4 615.473 29.4455   2
   0   3  -4 8858.06 392.517   3
   0   3  -4 8571.48 391.993   3
  -3   0  -4 9247.55 390.118   3
   3  -3  -4 8856.99 393.129   3
  -3   0  -4 9604.99 391.020   2
   3  -3  -4 9405.09 390.852   2
   0   3  -4 9577.59 384.647   2
   0  -3   4 9224.60 393.843   3
   3   0   4 9388.39 390.524   2
   3   0   4 9667.59 390.585   3
  -3   3   4 8965.94 399.613   3
  -3   3   4 9190.50 390.540   2
   1   2  -4 1181.86 52.3130   2
  -3   1  -4 1159.31 56.5734   2
  -3   1  -4 1195.73 57.5232   3
   1   2  -4 1132.41 55.7183   3
   2  -3  -4 1180.14 56.8904   2
   1   2  -4 1138.58 55.0010   3
   2  -3  -4 1153.57 59.6930   3
  -2   3   4 1184.26 65.9417   3
  -2   3   4 1201.71 57.0402   2
  -1  -2   4 1194.98 50.8884   2
  -1  -2   4 1220.11 51.7136   2
   3  -1   4 1160.58 56.0453   2
   3  -1   4 1202.02 57.6100   3
   2   1  -4 9153.39 389.981   3
  -3   2  -4 9053.99 393.785   2
  -3   2  -4 9367.81 396.763   3
   1  -3  -4 9292.10 398.353   3
   2   1  -4 9498.21 389.203   3
   1  -3  -4 9604.71 394.758   2
  -2  -1   4 9283.31 391.729   2
  -1   3   4 9484.63 394.768   2
  -1   3   4 9306.54 398.705   3
  -2  -1   4 9325.12 390.541   2
  -3   3  -4 432.280 28.6114   3
   0  -3  -4 432.643 25.6138   2
  -3   3  -4 404.953 23.8246   2
  -3   3  -4 419.402 29.3326   3
   0  -3  -4 417.136 28.0934   3
  -3   0   4 428.768 25.0079   2
   0   3   4 424.222 28.2770   3
   0   3   4 409.102 25.5112   2
  -3   0   4 403.960 23.2524   2
  -3   4  -4 1279.28 62.6247   2
  -1  -3  -4 1242.85 67.1992   3
  -3   4  -4 1245.24 70.2477   3
  -3   4  -4 1312.60 71.4600   3
  -1  -3  -4 1321.62 65.5341   2
   4  -1  -4 1288.24 58.9072   3
   1   3   4 1438.70 67.8729   3
  -4   1   4 1458.60 58.7581   3
   1   3   4 1466.55 66.5757   2
  -4   1   4 1399.94 64.9073   2
  -2  -3  -4 605.763 34.7642   2
  -3   5  -4 508.766 39.3205   3
   5  -2  -4 551.351 29.1571   3
  -2  -3  -4 543.577 34.9005   3
  -3   5  -4 550.348 30.4458   2
  -3   5  -4 484.387 38.9157   3
  -5   2   4 538.898 45.3240   2
   2   3   4 570.149 34.6853   2
   3  -5   4 600.452 43.0020   3
  -5   2   4 557.311 29.0350   3
  -5   2   4 556.137 35.3162   2
   2   3   4 539.101 34.2438   3
   6  -3  -4 42.6003 9.15265   3
  -3  -3  -4 33.4777 10.7899   3
  -3  -3  -4 47.8208 11.3633   2
  -3   6  -4 40.9245 14.4009   3
   3   3   4 77.3805 13.5514   3
  -6   3   4 37.5607 9.30089   2
   3   3   4 48.4735 10.1676   2
  -6   3   4 62.6682 12.8101   2
  -3   7  -4 1456.46 70.2937   2
  -3   7  -4 1600.59 87.9328   3
   7  -4  -4 1458.89 72.5096   3
  -4  -3  -4 1533.54 76.1641   3
   4   3   4 1369.71 76.2523   2
  -7   4   4 1326.04 73.5620   3
   4   3   4 1367.09 72.3694   3
  -2   6  -4 1016.73 62.0178   3
   6  -4  -4 996.720 53.8209   3
  -2   6  -4 958.116 48.0857   2
   6  -4  -4 1002.91 55.5130   2
  -4  -2  -4 939.878 51.5960   3
  -4  -2  -4 995.374 54.2728   2
   4   2   4 879.564 53.5116   2
   4   2   4 893.539 50.6027   3
  -6   4   4 970.183 56.2263   3
  -6   4   4 960.364 55.8693   2
  -4  -1  -4 1137.12 56.7203   3
  -1   5  -4 1141.16 52.6264   2
  -4  -1  -4 1094.58 58.3778   2
   5  -4  -4 1105.63 59.4247   2
   5  -4  -4 1076.09 60.4739   3
  -1   5  -4 1098.96 63.8147   3
   1  -5   4 1127.48 51.9302   2
   4   1   4 1171.34 56.8573   3
  -5   4   4 1164.47 64.5849   3
   4   1   4 1088.49 58.9263   2
  -5   4   4 1122.66 59.9614   2
   1  -5   4 1022.71 66.0080   3
  -4   0  -4 96.9959 11.5383   3
  -4   0  -4 102.757 13.4141   2
   4  -4  -4 88.2119 14.3828   3
   0   4  -4 96.7260 14.8394   3
   0   4  -4 96.9808 8.90340   2
   4  -4  -4 102.910 13.2494   2
   0  -4   4 86.6785 15.6860   3
  -4   4   4 75.9897 15.7932   3
   4   0   4 92.3115 11.9442   3
   4   0   4 97.5184 13.3811   2
  -4   4   4 97.5676 13.8740   2
   3  -4  -4 631.285 39.9042   3
  -4   1  -4 601.519 35.5070   2
   1   3  -4 621.824 35.4194   3
   1   3  -4 616.185 34.9805   3
   3  -4  -4 608.189 35.5422   2
  -4   1  -4 649.974 35.0318   3
   1   3  -4 626.383 30.7774   2
  -1  -3   4 614.479 29.0671   2
   4  -1   4 614.407 35.4767   3
  -3   4   4 633.556 35.9752   2
  -3   4   4 608.246 41.5620   3
   4  -1   4 607.249 35.1779   2
   2   2  -4 937.244 46.3842   3
  -4   2  -4 960.459 51.1581   3
   2   2  -4 941.929 45.4123   3
   2  -4  -4 984.754 50.6780   2
   2   2  -4 975.421 47.1563   2
  -4   2  -4 926.871 51.9363   3
  -4   2  -4 969.089 50.5719   2
   2  -4  -4 970.260 55.0726   3
  -2   4   4 1083.80 58.1486   3
  -2  -2   4 1045.03 47.5553   2
  -2   4   4 1044.98 51.1344   2
  -2  -2   4 1025.55 45.6645   2
  -4   3  -4 1444.46 67.0691   2
   1  -4  -4 1465.24 67.8053   2
  -4   3  -4 1461.44 72.2384   3
  -4   3  -4 1418.17 70.3421   3
  -4   3  -4 1451.41 67.4766   2
   1  -4  -4 1423.40 72.3209   3
  -3  -1   4 1336.55 65.6982   2
  -1   4   4 1316.99 72.0591   3
  -1   4   4 1263.50 66.7046   2
  -3  -1   4 1271.85 63.3772   2
  -4   4  -4 3370.29 150.432   2
  -4   4  -4 3362.85 157.162   3
  -4   4  -4 3308.46 158.570   3
   0  -4  -4 3428.17 151.964   2
   0  -4  -4 3418.13 163.676   3
   0   4   4 3509.65 156.649   3
   0   4   4 3434.57 152.202   2
  -4   0   4 3462.70 152.464   2
  -4   0   4 3365.49 150.153   2
  -4   5  -4 1226.91 74.6961   3
  -1  -4  -4 1223.50 70.0873   3
  -1  -4  -4 1331.38 67.5856   2
  -4   5  -4 1296.30 64.8809   2
   1   4   4 1435.76 70.6713   3
  -5   1   4 1380.74 69.4054   2
   1   4   4 1420.64 68.3853   2
  -5   1   4 1395.66 66.9971   2
  -4   6  -4 2788.39 129.949   2
  -4   6  -4 2617.94 136.992   3
  -2  -4  -4 2588.75 129.951   2
  -2  -4  -4 2410.39 126.350   3
   2   4   4 2746.84 125.677   2
  -6   2   4 2693.55 127.367   2
  -6   2   4 2688.03 114.258   3
  -6   2   4 2760.80 114.294   3
   2   4   4 2704.33 125.308   3
  -4   7  -4 308.721 36.2904   3
  -4   7  -4 297.018 23.6077   2
  -7   3   4 347.793 22.6139   3
   3   4   4 304.405 28.0075   2
  -7   3   4 348.980 30.7952   2
  -7   3   4 314.833 21.1451   3
   3   4   4 356.602 27.8349   3
  -4   8  -4 601.249 36.6171   2
  -4   8  -4 585.886 51.7298   3
   4   4   4 553.421 42.0275   2
  -8   4   4 585.982 35.7462   3
   4   4   4 568.093 38.3745   3
  -8   4   4 577.979 44.0801   2
  -8   4   4 582.984 34.5604   3
  -3   8  -4 52.2481 10.8562   2
  -5  -3  -4 77.0959 16.5357   3
  -3   8  -4 54.7382 18.5098   3
  -8   5   4 53.8105 17.2814   2
   5   3   4 40.6948 11.1163   3
   5   3   4 51.3920 15.8206   2
  -8   5   4 49.8228 14.6535   3
  -5  -2  -4 911.301 51.5605   3
  -2   7  -4 939.902 48.3849   2
  -2   7  -4 910.247 61.1891   3
  -7   5   4 896.532 58.0586   3
  -7   5   4 915.931 56.7115   2
   5   2   4 916.878 55.7968   2
   5   2   4 962.345 50.5141   3
  -5  -1  -4 378.923 25.5602   3
  -1   6  -4 387.060 23.0517   2
   6  -5  -4 384.689 35.6931   3
  -5  -1  -4 391.147 28.9558   2
   6  -5  -4 402.540 29.6771   2
  -1   6  -4 428.748 34.1475   3
   5   1   4 279.885 27.3866   2
  -6   5   4 325.133 29.5352   2
   5   1   4 285.692 23.7890   3
  -6   5   4 282.856 32.3643   3
   0   5  -4 3641.13 166.984   3
   0   5  -4 3731.33 157.092   2
  -5   0  -4 3607.11 160.143   3
   5  -5  -4 3607.31 169.431   3
   5  -5  -4 3589.85 164.527   2
  -5   0  -4 3822.37 165.362   2
   5   0   4 3593.50 164.068   2
   5   0   4 3762.09 161.020   3
   0  -5   4 3451.95 171.120   3
  -5   5   4 3292.89 171.862   3
  -5   1  -4 1130.36 57.1457   3
   1   4  -4 1137.64 58.9919   3
   4  -5  -4 1038.16 63.9323   3
   4  -5  -4 1147.11 59.9376   2
   1   4  -4 1135.38 53.9997   2
  -5   1  -4 1203.96 60.9125   2
  -1  -4   4 1133.38 52.0209   2
  -4   5   4 1149.34 60.0805   2
  -4   5   4 1078.52 68.2306   3
  -1  -4   4 1085.89 60.5251   3
   5  -1   4 1176.37 58.7513   3
   2   3  -4 3710.78 160.160   3
  -5   2  -4 3667.95 165.139   2
   2   3  -4 3670.54 159.852   2
  -5   2  -4 3630.38 163.832   3
  -5   2  -4 3696.14 165.828   3
   2   3  -4 3707.01 167.099   3
   3  -5  -4 3440.23 170.882   3
   3  -5  -4 3687.65 164.533   2
  -2  -3   4 3658.03 157.653   2
  -3   5   4 3744.43 174.704   3
  -3   5   4 3784.74 164.982   2
  -5   3  -4 506.187 33.2702   2
  -5   3  -4 564.436 35.2860   3
   3   2  -4 573.593 31.7037   2
   2  -5  -4 507.099 38.2189   3
  -5   3  -4 530.468 36.4366   3
   2  -5  -4 542.367 33.6826   2
  -5   3  -4 548.117 34.1219   2
  -2   5   4 548.538 41.0519   3
  -3  -2   4 535.385 29.2248   2
  -2   5   4 547.718 33.8839   2
  -3  -2   4 577.262 32.0944   2
  -5   4  -4 1313.24 73.4398   3
   1  -5  -4 1478.13 71.0229   2
   1  -5  -4 1347.31 81.2779   3
  -5   4  -4 1437.38 68.4604   2
  -5   4  -4 1303.15 67.0847   2
  -5   4  -4 1297.67 70.6767   3
  -4  -1   4 1264.87 66.7162   2
  -1   5   4 1303.85 67.6684   2
  -1   5   4 1343.03 74.3339   3
   0  -5  -4 284.507 22.8139   2
  -5   5  -4 265.955 22.1178   2
  -5   5  -4 285.809 30.0378   3
  -5   0   4 268.549 23.7258   2
   0   5   4 285.531 23.7773   2
   0   5   4 281.182 26.6753   3
  -5   6  -4 272.458 22.8160   2
  -5   6  -4 270.414 32.2957   3
   1   5   4 303.805 25.5666   2
  -6   1   4 269.703 25.9750   2
   1   5   4 306.232 27.8026   3
  -5   7  -4 580.124 38.4179   2
  -5   7  -4 606.152 52.2264   3
  -7   2   4 695.812 45.8848   2
   2   5   4 672.035 43.2265   2
   2   5   4 687.495 43.9916   3
  -5   8  -4 201.754 33.2410   3
  -5   8  -4 186.291 21.6546   2
   3   5   4 266.792 27.2582   2
  -8   3   4 238.037 27.9570   2
   3   5   4 292.675 26.8425   3
  -2   8  -4 181.836 28.2475   3
  -2   8  -4 169.952 17.3858   2
   6   2   4 137.981 22.0433   2
  -8   6   4 137.250 25.4649   3
   6   2   4 142.510 16.7943   3
  -8   6   4 157.642 26.7572   2
  -1   7  -4 1431.09 79.0985   3
  -1   7  -4 1416.42 66.0102   2
  -6  -1  -4 1374.79 67.6636   3
  -7   6   4 1192.63 78.8443   3
  -7   6   4 1309.60 74.6534   2
   6   1   4 1279.49 66.2310   3
   6   1   4 1250.97 72.8763   2
  -6   0  -4 -1.7240 7.27548   2
  -6   0  -4 5.91539 6.56783   3
   0   6  -4 10.1282 6.03176   2
   6  -6  -4 13.9826 10.3828   2
   0   6  -4 3.59329 9.15232   3
  -6   6   4 -5.4949 10.9796   3
   6   0   4 9.71931 8.11530   2
  -6   6   4 6.71408 9.53746   2
   6   0   4 13.4364 7.13131   3
   1   5  -4 262.898 24.1813   3
  -6   1  -4 307.381 26.5176   2
   1   5  -4 286.132 20.4218   2
  -6   1  -4 246.599 21.4599   3
  -6   1  -4 273.861 23.3399   3
   5  -6  -4 276.023 25.2636   2
  -1  -5   4 369.246 31.2858   3
   2   4  -4 905.882 46.8057   2
   2   4  -4 826.522 47.4859   3
  -6   2  -4 882.776 51.2922   3
   4  -6  -4 837.203 50.7415   2
  -6   2  -4 878.581 49.7365   3
  -6   2  -4 924.832 52.4857   2
  -4   6   4 967.366 84.9276   3
  -4   6   4 1011.93 53.0437   2
  -6   3  -4 69.2995 13.2005   3
  -6   3  -4 52.2467 10.9962   2
  -6   3  -4 79.0185 15.6014   3
   3   3  -4 79.4160 14.6332   2
   3   3  -4 74.1273 7.84840   3
   3   3  -4 70.5101 7.70229   3
   3  -6  -4 45.5351 9.27506   2
  -6   3  -4 48.9103 10.7368   2
  -3   6   4 65.0598 30.6040   3
  -3   6   4 42.0239 11.5624   2
  -6   4  -4 2745.85 124.519   2
  -6   4  -4 2661.98 129.486   3
  -6   4  -4 2713.62 125.062   2
  -2   6   4 2580.84 123.220   2
  -2   6   4 2545.38 142.100   3
  -4  -2   4 2531.32 121.315   2
  -6   5  -4 284.580 35.2901   3
  -6   5  -4 308.760 25.1840   2
  -6   5  -4 279.405 25.0387   2
  -1   6   4 261.608 24.3722   2
  -1   6   4 286.165 30.1077   3
  -5  -1   4 289.631 24.7006   2
  -6   6  -4 2969.46 147.051   3
  -6   6  -4 2858.71 132.938   2
   0   6   4 2615.45 138.947   2
   0   6   4 2927.42 140.000   3
  -6   7  -4 142.347 27.7832   3
  -6   7  -4 170.193 20.5450   2
   1   6   4 149.295 22.3398   3
  -7   1   4 167.874 22.7614   2
   1   6   4 139.783 20.2230   2
  -6   8  -4 1112.22 79.6291   3
  -8   2   4 1181.42 70.5580   2
   2   6   4 1156.32 67.0377   2
   2   6   4 1205.18 68.4039   3
   0   7  -4 233.850 27.6059   3
  -7   0  -4 243.100 21.7983   3
  -7   0  -4 215.965 21.0985   3
   0   7  -4 223.249 19.9782   2
  -7   7   4 239.233 33.8080   3
  -7   7   4 192.214 40.8918   2
  -7   1  -4 1284.84 68.3054   3
   1   6  -4 1263.40 71.1984   3
   1   6  -4 1278.66 65.6337   2
  -6   7   4 1416.05 74.7355   2
  -6   7   4 1389.97 86.8810   3
   2   5  -4 911.755 49.5698   3
   2   5  -4 884.370 48.4702   2
  -7   2  -4 904.578 55.7303   2
   2   5  -4 897.346 51.0252   3
  -7   2  -4 909.832 50.3623   3
  -7   2  -4 889.144 55.8281   2
  -7   2  -4 881.570 52.4198   3
  -5   7   4 925.415 55.1418   2
  -5   7   4 963.905 68.5765   3
  -7   3  -4 1378.62 75.8319   2
   3   4  -4 1281.23 64.9338   3
  -7   3  -4 1364.28 75.5430   3
   3   4  -4 1369.08 69.8554   2
   3   4  -4 1353.68 64.7506   3
  -7   3  -4 1376.03 75.5184   2
  -4   7   4 1601.77 90.2283   3
  -4   7   4 1504.93 75.5267   2
  -7   4  -4 338.253 32.5577   3
  -7   4  -4 328.267 29.1244   2
   4   3  -4 363.661 26.6939   2
  -7   4  -4 346.587 29.6490   2
  -3   7   4 328.609 28.8865   2
  -4  -3   4 281.475 24.8703   2
  -3   7   4 322.896 36.1143   3
  -7   5  -4 637.111 42.9228   2
  -7   5  -4 649.125 47.7397   3
  -7   5  -4 674.001 42.8889   2
  -5  -2   4 579.412 39.2363   2
  -2   7   4 585.109 40.9808   2
  -2   7   4 611.670 49.7101   3
  -7   6  -4 155.160 20.7386   2
  -7   6  -4 160.001 27.7108   3
  -7   6  -4 133.090 20.2760   2
  -6  -1   4 176.337 21.2508   2
  -1   7   4 182.009 26.4149   3
  -1   7   4 173.602 21.2352   2
  -7   7  -4 80.8335 16.1957   2
  -7   7  -4 109.181 24.6178   3
  -7   7  -4 137.940 19.6268   2
   0   7   4 134.454 21.1360   2
   0   7   4 124.024 23.3318   3
   2   6  -4 140.631 18.8755   3
  -8   2  -4 128.092 19.7333   3
  -8   2  -4 143.756 26.9013   3
  -8   2  -4 158.518 24.3574   2
   2   6  -4 161.087 17.7853   2
  -6   8   4 176.460 24.3860   2
  -6   8   4 201.216 40.1541   3
  -8   3  -4 46.6603 13.6068   3
  -8   3  -4 44.6671 14.1376   2
   3   5  -4 37.1357 9.12557   3
  -8   3  -4 55.8640 15.3103   2
   3   5  -4 42.1324 10.9739   2
  -5   8   4 97.1446 27.5088   3
  -5   8   4 68.8320 16.2520   2
  -8   4  -4 522.479 41.5776   2
  -8   4  -4 513.104 40.7078   2
  -8   4  -4 559.833 42.7928   3
   4   4  -4 555.384 37.1149   2
  -4   8   4 653.791 55.0387   3
  -4  -4   4 538.556 36.3999   2
  -4   8   4 533.379 39.9943   2
  -8   5  -4 287.165 28.4446   2
  -8   5  -4 264.635 30.4841   3
  -3   8   4 210.799 33.5898   3
  -3   8   4 186.397 24.9175   2
  -5  -3   4 201.962 22.9039   2
  -8   6  -4 1149.19 74.4168   3
  -8   6  -4 1175.08 67.2299   2
  -2   8   4 1070.38 64.7835   2
   0   0  -5 3.06927 3.45382   3
   0   0  -5 0.85266 2.07227   2
   0   0   5 -1.1602 1.64206   2
   0   0   5 0.35116 2.62890   3
  -1   0  -5 53.3198 7.53288   3
   1  -1  -5 48.2844 7.23224   3
   0   1  -5 47.8153 3.71610   2
   0   1  -5 44.0649 7.22281   3
   1  -1  -5 44.4669 5.95211   2
  -1   0  -5 50.0867 6.19119   2
   0  -1   5 55.3143 7.70121   3
   1   0   5 53.9695 6.12274   2
   1   0   5 45.8612 7.94508   3
  -1   1   5 45.2557 7.37294   3
  -1   1  -5 1252.40 54.8822   2
  -1   1  -5 1233.22 59.0870   3
   1   0  -5 1248.30 55.0736   2
   0  -1  -5 1195.22 58.8053   3
   0  -1  -5 1279.04 57.1118   2
   1   0  -5 1232.93 57.0106   3
  -1   0   5 1274.74 57.2684   3
  -1   0   5 1249.83 54.5928   2
   1  -1   5 1265.62 54.5018   2
   1  -1   5 1189.74 58.8956   3
   0   1   5 1261.09 59.5262   3
  -1   2  -5 955.966 47.8505   3
  -1   2  -5 970.815 40.8289   2
  -1  -1  -5 955.130 45.2633   2
   2  -1  -5 952.423 44.5915   3
  -1  -1  -5 924.040 46.5008   3
  -1   2  -5 928.952 47.3589   3
   2  -1  -5 1006.44 44.5858   2
   1   1   5 883.491 46.6106   3
  -2   1   5 906.263 44.4624   3
  -2   1   5 847.814 43.5979   2
   1   1   5 876.240 44.6568   2
   1  -2   5 903.076 47.1991   3
   3  -2  -5 1168.89 55.7446   2
  -2  -1  -5 1151.61 56.6072   3
  -1   3  -5 1176.41 49.6101   2
  -1   3  -5 1145.43 59.0295   3
  -2  -1  -5 1203.44 56.1975   2
   3  -2  -5 1165.92 56.0385   3
  -1   3  -5 1170.32 59.3180   3
  -3   2   5 1099.63 55.3838   3
   2   1   5 1081.45 56.4088   3
   2   1   5 1096.61 55.5423   2
  -3   2   5 1072.84 55.1154   2
   2  -2  -5 1097.44 54.4651   3
  -2   0  -5 1122.49 53.0599   2
   0   2  -5 1078.84 53.8737   3
   2  -2  -5 1130.55 53.2728   2
  -2   0  -5 1087.04 54.2637   3
   0   2  -5 1152.69 54.7699   3
   2   0   5 1101.18 54.5032   3
   2   0   5 1117.37 52.8161   2
  -2   2   5 1117.75 53.1697   2
  -2   2   5 1104.96 54.8443   3
  -2   1  -5 908.143 46.0969   2
   1   1  -5 882.862 43.1555   3
   1  -2  -5 852.471 44.1484   2
  -2   1  -5 881.264 46.3233   3
   1  -2  -5 889.258 46.5760   3
  -1  -1   5 953.251 43.8909   3
  -1   2   5 904.566 46.7870   3
  -1   2   5 966.556 44.8037   2
   2  -1   5 931.427 46.6491   3
   2  -1   5 978.516 43.5626   2
   2   0  -5 30.6353 4.97574   3
   0  -2  -5 21.3568 4.85685   2
   0  -2  -5 25.3562 6.95213   3
   2   0  -5 33.2340 5.62732   2
  -2   2  -5 29.2409 5.23224   2
  -2   2  -5 24.0889 6.97391   3
   0   2   5 29.9540 6.46549   2
  -2   0   5 27.1521 4.80179   3
  -2   0   5 28.4389 5.04867   2
   3  -1  -5 289.134 16.8583   3
  -1  -2  -5 294.079 20.8791   3
   3  -1  -5 317.961 18.8451   2
  -1  -2  -5 284.399 19.4599   2
  -2   3  -5 305.037 22.4271   3
  -2   3  -5 290.793 22.2994   3
  -2   3  -5 289.959 15.6437   2
   1   2   5 230.122 19.7797   3
   1   2   5 217.694 17.8435   2
  -3   1   5 221.145 17.3020   2
  -3   1   5 219.545 15.3820   3
   4  -2  -5 846.918 46.2026   2
  -2  -2  -5 854.573 47.4028   3
  -2   4  -5 819.159 50.9498   3
  -2   4  -5 812.563 51.1702   3
  -2  -2  -5 852.828 46.4516   2
  -2   4  -5 843.348 41.3228   2
  -4   2   5 936.986 47.7553   2
  -4   2   5 938.319 44.6092   3
   2   2   5 952.291 48.0920   3
   2   2   5 976.500 47.9447   2
   5  -3  -5 497.454 31.7569   2
  -2   5  -5 499.893 25.3087   2
  -3  -2  -5 480.407 31.1314   3
  -2   5  -5 460.594 36.7399   3
  -2   5  -5 501.338 37.3847   3
  -3  -2  -5 505.521 31.4168   2
   5  -3  -5 472.082 30.4250   3
   3   2   5 438.476 30.7036   2
   3   2   5 395.776 29.4432   3
  -5   3   5 396.237 30.6621   2
  -3  -1  -5 189.629 17.2557   2
  -1   4  -5 185.282 11.5384   2
  -1   4  -5 206.653 20.7837   3
   4  -3  -5 182.442 17.0786   2
  -3  -1  -5 176.412 16.3707   3
  -1   4  -5 195.137 20.6653   3
   4  -3  -5 202.965 18.6610   3
   3   1   5 199.956 17.2747   3
   3   1   5 179.777 16.9035   2
  -4   3   5 177.328 17.6669   2
  -4   3   5 178.568 18.0222   3
  -3   0  -5 264.782 19.3690   2
   0   3  -5 239.434 20.0447   3
   3  -3  -5 268.568 19.4962   2
   0   3  -5 256.712 20.4309   3
   0   3  -5 275.182 13.3886   2
  -3   0  -5 245.190 18.9933   3
   3  -3  -5 255.130 20.9984   3
   3   0   5 277.024 19.9747   3
   3   0   5 247.936 18.6369   2
  -3   3   5 259.117 19.3228   2
  -3   3   5 253.751 22.0480   3
   1   2  -5 1063.97 53.5279   3
  -3   1  -5 1113.06 56.7641   3
   2  -3  -5 1134.17 55.7885   2
   2  -3  -5 1052.82 57.8212   3
  -3   1  -5 1157.43 55.6680   2
   1   2  -5 1125.38 54.8747   3
   1   2  -5 1142.90 50.3841   2
   3  -1   5 1211.10 57.5530   3
  -2   3   5 1218.69 56.2739   2
  -2   3   5 1164.85 59.3484   3
   3  -1   5 1114.05 54.5831   2
  -3   2  -5 226.359 19.6329   3
   1  -3  -5 228.986 17.9461   2
   2   1  -5 243.540 15.0880   3
   1  -3  -5 227.865 20.1378   3
  -3   2  -5 211.827 18.6023   2
   2   1  -5 223.790 14.1685   3
   3  -2   5 296.603 21.6860   3
  -2  -1   5 309.230 14.8738   2
  -2  -1   5 297.659 15.6945   2
  -1   3   5 311.724 22.8758   3
   3   0  -5 2309.31 96.5548   3
   0  -3  -5 2267.51 103.498   2
  -3   3  -5 2165.56 106.299   3
  -3   3  -5 2287.61 107.686   3
   0  -3  -5 2229.88 106.127   3
  -3   3  -5 2195.92 100.315   2
  -3   3  -5 2292.45 101.133   2
   0   3   5 2291.13 103.254   2
  -3   0   5 2234.26 96.1619   3
   0   3   5 2305.59 106.467   3
  -3   0   5 2304.96 100.162   2
  -3   0   5 2221.85 101.226   2
  -1  -3  -5 190.354 18.6670   3
  -3   4  -5 173.129 19.9914   3
  -3   4  -5 196.453 21.2333   3
  -3   4  -5 184.098 14.2337   2
   4  -1  -5 201.165 12.8151   3
  -1  -3  -5 203.378 17.7646   2
  -4   1   5 205.591 16.1452   2
  -4   1   5 201.504 11.8662   3
   1   3   5 207.261 19.4590   3
   1   3   5 206.582 17.8111   2
  -2  -3  -5 915.168 50.8258   2
  -3   5  -5 882.639 57.3757   3
  -3   5  -5 915.639 46.0247   2
   5  -2  -5 892.894 45.4491   3
   2   3   5 967.118 51.6625   2
   2   3   5 962.051 51.9464   3
  -5   2   5 989.839 52.6604   2
  -5   2   5 949.969 44.9638   3
  -3   6  -5 19.6129 13.9540   3
  -3  -3  -5 17.0315 7.57064   2
  -3   6  -5 19.5681 5.92602   2
   6  -3  -5 15.3124 6.78146   3
  -3  -3  -5 19.3761 9.22305   3
  -6   3   5 2.96339 5.44678   3
  -6   3   5 4.66717 7.33734   2
   3   3   5 8.52801 7.22144   3
   3   3   5 5.70751 6.44002   2
   7  -4  -5 71.9059 12.7027   3
  -3   7  -5 73.1779 11.1175   2
  -3   7  -5 81.9270 19.7815   3
  -7   4   5 34.1398 11.3746   2
   4   3   5 97.0901 21.6945   2
  -7   4   5 59.3565 12.7703   3
   4   3   5 54.5282 12.4447   3
   6  -4  -5 746.868 46.1099   2
   6  -4  -5 693.988 43.7832   3
  -2   6  -5 723.621 38.0210   2
  -4  -2  -5 724.958 44.0775   3
  -4  -2  -5 663.394 44.0884   2
  -2   6  -5 742.492 52.7385   3
  -6   4   5 774.072 46.4511   3
  -6   4   5 763.687 46.9091   2
   4   2   5 805.084 46.5038   2
   4   2   5 805.673 44.3341   3
   5  -4  -5 190.048 19.9275   3
  -1   5  -5 198.413 22.3811   3
  -1   5  -5 161.635 22.0022   3
  -4  -1  -5 195.756 17.9463   3
  -4  -1  -5 205.328 19.4959   2
  -1   5  -5 191.407 13.0698   2
   5  -4  -5 203.885 19.5978   2
   1  -5   5 150.045 23.0364   3
  -5   4   5 155.588 20.3803   3
  -5   4   5 168.338 19.5248   2
   4   1   5 155.494 17.0052   3
  -4   0  -5 765.388 43.9325   2
   0   4  -5 754.425 36.4682   2
   4  -4  -5 798.450 47.2984   3
   4  -4  -5 823.055 44.5332   2
   0   4  -5 767.665 45.8404   3
  -4   0  -5 773.790 42.7557   3
   0   4  -5 757.084 45.8768   3
   4   0   5 770.993 42.7836   3
  -4   4   5 745.732 48.3831   3
   4   0   5 791.873 43.7687   2
   1   3  -5 176.670 16.0318   3
   1   3  -5 177.567 12.1279   2
  -4   1  -5 180.072 17.1216   2
   1   3  -5 184.335 16.9272   3
   3  -4  -5 173.345 19.2882   3
  -4   1  -5 190.303 16.8224   3
   3  -4  -5 177.181 16.7337   2
  -3   4   5 207.858 18.1831   2
  -3   4   5 216.654 22.7377   3
   4  -1   5 191.457 16.6599   2
   4  -1   5 210.537 17.9481   3
  -4   2  -5 961.193 48.0172   2
   2   2  -5 916.158 42.5061   3
   2  -4  -5 960.653 48.1260   2
  -4   2  -5 940.350 49.2060   3
   2   2  -5 954.184 44.2864   3
   2   2  -5 991.689 44.0967   2
  -2   4   5 878.634 53.0156   3
  -2   4   5 828.285 47.1315   2
  -2  -2   5 827.505 42.2648   2
  -2  -2   5 830.265 40.8028   2
   4  -2   5 807.109 48.4145   3
  -4   3  -5 194.436 19.3683   3
   1  -4  -5 214.237 18.0449   2
   1  -4  -5 199.950 22.4199   3
  -4   3  -5 206.864 17.0329   2
  -4   3  -5 210.748 17.1082   2
  -4   3  -5 187.563 19.6695   3
  -1   4   5 203.001 21.4822   3
  -3  -1   5 200.738 15.9197   2
  -3  -1   5 194.964 15.0883   2
  -1   4   5 202.302 18.2110   2
  -4   4  -5 32.4208 7.71092   2
   0  -4  -5 19.7529 9.44453   3
  -4   4  -5 29.8286 11.8668   3
  -4   4  -5 21.0315 9.24404   3
  -4   4  -5 28.2059 7.00527   2
   0  -4  -5 27.6536 7.55819   2
  -4   0   5 27.7999 6.75456   2
   0   4   5 36.4633 11.2798   3
   0   4   5 31.7157 9.41405   2
  -4   0   5 28.9899 7.87748   2
  -1  -4  -5 661.070 38.0618   2
  -4   5  -5 623.734 44.7131   3
  -1  -4  -5 590.972 40.2092   3
  -4   5  -5 635.464 34.7501   2
   1   4   5 592.177 37.5116   2
   1   4   5 559.785 38.7044   3
  -4   6  -5 167.619 26.0422   3
   2   4   5 262.405 23.9800   2
  -6   2   5 260.091 14.0778   3
   2   4   5 272.737 24.8946   3
  -6   2   5 274.237 25.0261   2
  -4   7  -5 947.899 65.2846   3
  -4   7  -5 859.670 48.0525   2
  -7   3   5 935.838 44.9365   3
   3   4   5 877.545 54.3297   2
   3   4   5 906.865 53.1016   3
  -7   3   5 903.475 55.9151   2
  -4   8  -5 247.986 28.7219   2
  -4   8  -5 242.182 34.6512   3
   4   4   5 305.853 31.7289   3
  -8   4   5 269.730 38.7972   2
   4   4   5 243.434 28.3001   2
  -8   4   5 245.615 20.8367   3
  -8   4   5 289.420 22.0500   3
  -3   8  -5 260.228 33.2153   3
  -3   8  -5 223.536 26.0344   2
   5   3   5 240.656 23.4783   3
  -8   5   5 264.425 26.5969   3
  -8   5   5 212.712 28.8354   2
   5   3   5 259.403 28.3260   2
  -2   7  -5 408.664 24.9579   2
  -5  -2  -5 405.355 29.9559   3
   7  -5  -5 357.974 40.1134   2
  -2   7  -5 445.713 38.5527   3
  -7   5   5 356.257 33.0810   3
   5   2   5 360.111 32.1865   2
  -7   5   5 386.779 34.1428   2
   5   2   5 342.197 27.5402   3
  -1   6  -5 11.6485 10.8066   3
   6  -5  -5 8.61673 6.74902   2
  -5  -1  -5 10.9447 7.23717   2
  -1   6  -5 10.9499 5.54040   2
  -6   5   5 14.0763 11.6845   3
   5   1   5 20.7984 8.00488   3
   5   1   5 26.1398 9.85724   2
  -6   5   5 17.4058 9.60738   2
   0   5  -5 115.123 11.1745   2
  -5   0  -5 95.3903 13.6904   3
   5  -5  -5 126.277 16.6322   2
  -5   0  -5 131.030 16.7032   2
   0   5  -5 99.7381 17.2174   3
   0   5  -5 105.810 17.4275   3
  -5   5   5 114.472 17.2562   2
   5   0   5 83.7845 16.1647   2
   0  -5   5 121.718 19.4271   3
  -5   5   5 99.6064 20.7752   3
   5   0   5 124.396 15.2629   3
  -5   1  -5 156.451 18.1684   2
   1   4  -5 154.141 17.3384   3
   4  -5  -5 161.303 17.9827   2
  -5   1  -5 139.675 16.3440   3
   4  -5  -5 175.080 25.4931   3
   1   4  -5 169.591 13.0971   2
   1   4  -5 158.449 17.4697   3
  -1  -4   5 190.878 10.9241   2
  -4   5   5 198.993 26.2052   3
  -4   5   5 191.168 19.7560   2
   5  -1   5 195.274 19.1555   2
   5  -1   5 202.280 18.9116   3
   2   3  -5 432.033 25.6970   2
  -5   2  -5 395.965 29.7190   3
   2   3  -5 417.373 26.9166   3
   2   3  -5 412.795 26.3923   3
  -5   2  -5 430.129 30.3417   2
   3  -5  -5 407.946 29.7979   2
  -5   2  -5 388.157 30.3531   3
   5  -2   5 510.292 32.3827   3
  -2  -3   5 482.587 25.3951   2
  -3   5   5 524.290 32.1896   2
  -3   5   5 511.919 39.4252   3
  -2  -3   5 501.046 23.5268   2
  -5   3  -5 947.886 51.5223   2
  -5   3  -5 1003.14 55.7625   3
  -5   3  -5 1005.42 52.3463   2
  -5   3  -5 922.497 53.0375   3
   2  -5  -5 966.952 51.7548   2
  -2   5   5 894.429 58.3664   3
  -2   5   5 911.330 51.7367   2
  -5   4  -5 600.500 37.2258   2
  -5   4  -5 601.908 36.8749   2
  -5   4  -5 594.665 42.8598   3
   1  -5  -5 609.029 37.6835   2
  -4  -1   5 623.548 36.9682   2
  -1   5   5 641.437 38.4197   2
  -1   5   5 673.555 44.5578   3
   0  -5  -5 395.759 29.1695   2
  -5   5  -5 417.106 28.6626   2
  -5   5  -5 391.524 35.0446   3
  -5   5  -5 394.059 27.5779   2
  -5   0   5 398.292 29.6433   2
   0   5   5 429.855 30.2895   2
   0   5   5 376.053 32.5860   3
  -5   6  -5 331.898 34.9548   3
  -5   6  -5 340.249 25.6654   2
   1   5   5 368.038 34.2044   3
   1   5   5 361.371 28.7056   2
  -5   7  -5 166.585 28.4329   3
  -5   7  -5 136.270 16.9977   2
  -7   2   5 176.303 22.6467   2
   2   5   5 161.565 22.7405   2
   2   5   5 160.293 21.4027   3
  -5   8  -5 9.22776 18.5561   3
  -8   3   5 3.05958 10.3264   2
   3   5   5 0.17875 9.60821   3
  -1   7  -5 24.1648 13.7092   3
  -7   6   5 43.9864 14.3504   2
  -7   6   5 61.8333 19.2376   3
   6   1   5 45.1605 13.5683   2
   6   1   5 57.6637 12.0389   3
   0   6  -5 569.256 31.6286   2
  -6   0  -5 525.216 34.3470   3
   6  -6  -5 558.347 39.6875   2
  -6   0  -5 527.755 38.8797   2
   0   6  -5 540.386 40.0854   3
  -6   6   5 590.897 40.5821   2
  -6   6   5 463.445 45.2203   3
   6   0   5 557.327 35.7152   3
   6   0   5 581.597 39.9752   2
   1   5  -5 26.5615 8.83977   3
   1   5  -5 15.1189 8.19762   3
   1   5  -5 23.6854 6.54360   2
  -6   1  -5 13.5728 9.00290   3
   5  -6  -5 15.0420 7.92394   2
  -6   1  -5 19.3419 8.53438   3
  -6   1  -5 20.0712 9.64372   2
  -5   6   5 10.0623 14.4523   3
   6  -1   5 15.0553 8.20743   3
  -5   6   5 15.4216 9.15251   2
  -6   2  -5 778.471 47.0916   3
  -6   2  -5 774.321 45.0024   3
   2   4  -5 735.894 41.7328   3
   4  -6  -5 792.762 46.9119   2
   2   4  -5 804.285 49.3937   3
   2   4  -5 793.628 40.8211   2
  -4   6   5 767.534 56.8963   3
  -4   6   5 691.106 45.6298   2
  -6   3  -5 11.5438 9.13427   3
  -6   3  -5 7.19544 8.67888   3
  -6   3  -5 -3.6363 5.58736   2
   3   3  -5 7.66839 3.70896   3
   3   3  -5 7.97423 3.87798   3
   3  -6  -5 -0.9720 6.54570   2
   3   3  -5 3.42922 5.34902   2
  -6   3  -5 9.89595 7.02417   2
  -3  -3   5 16.5941 6.07113   2
  -3   6   5 19.8283 12.4945   3
  -3   6   5 11.7512 7.92142   2
  -6   4  -5 250.119 26.7643   3
  -6   4  -5 266.817 23.5016   2
   2  -6  -5 298.406 30.5295   2
  -6   4  -5 263.093 23.4786   2
  -4  -2   5 178.798 30.0894   2
  -2   6   5 188.956 27.8723   3
  -2   6   5 171.302 20.9720   2
  -6   5  -5 387.900 35.5101   3
  -6   5  -5 353.167 28.3769   2
  -6   5  -5 351.811 27.6906   2
  -5  -1   5 364.212 28.1770   2
  -1   6   5 318.667 32.9860   3
  -1   6   5 380.891 29.6061   2
  -6   6  -5 143.118 26.7656   3
  -6   6  -5 148.669 18.4165   2
  -6   6  -5 166.067 19.4313   2
   0   6   5 178.522 21.4443   2
  -6   0   5 164.231 21.2883   2
   0   6   5 161.639 24.1905   3
  -6   7  -5 455.735 44.5139   3
  -6   7  -5 420.664 31.6337   2
   1   6   5 434.451 34.4143   2
   1   6   5 423.319 36.2736   3
  -7   0  -5 96.1969 16.2526   3
  -7   0  -5 63.4395 13.5622   3
   0   7  -5 70.7033 17.7776   3
   0   7  -5 93.3200 20.5269   2
  -7   7   5 78.6551 18.7221   2
  -7   7   5 71.5851 22.9211   3
   1   6  -5 62.1869 10.6748   2
   1   6  -5 60.3323 14.1167   3
  -7   1  -5 46.7545 15.1248   2
  -7   1  -5 58.5868 13.3074   3
  -7   1  -5 49.9816 12.5985   3
  -6   7   5 41.3132 20.1550   3
  -6   7   5 40.6624 12.8678   2
   2   5  -5 324.212 25.9757   3
  -7   2  -5 364.120 30.2508   3
  -7   2  -5 346.334 31.4608   2
   2   5  -5 331.470 25.8435   3
   2   5  -5 330.435 24.3960   2
  -5   7   5 451.517 44.8480   3
  -5   7   5 447.502 33.4073   2
   3   4  -5 50.9965 8.87465   3
   3   4  -5 44.8590 10.5866   2
  -7   3  -5 51.0793 14.7196   3
   3   4  -5 52.5150 9.35332   3
  -7   3  -5 46.0720 12.7629   2
  -7   3  -5 39.6147 11.8409   2
  -3  -4   5 88.0623 12.5745   2
  -4   7   5 64.4457 20.6869   3
  -4   7   5 65.9648 14.0646   2
  -7   4  -5 908.771 54.3342   2
  -7   4  -5 896.304 57.8132   3
  -4  -3   5 887.822 49.3596   2
  -3   7   5 861.389 53.1740   2
  -3   7   5 861.818 62.6764   3
  -7   5  -5 147.437 20.9267   2
  -7   5  -5 164.891 20.8151   2
  -7   5  -5 185.277 26.1807   3
  -2   7   5 144.049 19.9546   2
  -2   7   5 138.778 26.5620   3
  -5  -2   5 105.352 20.1589   2
  -7   6  -5 424.746 40.7198   3
  -7   6  -5 406.591 33.9654   2
  -7   6  -5 454.270 33.6706   2
  -1   7   5 418.557 34.0504   2
  -6  -1   5 445.343 34.5371   2
  -1   7   5 428.772 40.2101   3
  -7   7  -5 27.4705 16.2852   3
  -7   7  -5 20.2521 10.1287   2
  -7   0   5 6.80529 12.0995   2
   0   7   5 30.1730 15.5160   3
   0   7   5 7.76292 8.96541   2
  -8   2  -5 309.124 28.6439   3
   3   5  -5 253.210 21.2799   3
  -8   3  -5 222.306 26.1184   3
  -8   3  -5 265.938 28.5580   2
   3   5  -5 234.005 27.3724   2
  -5   8   5 245.195 27.7261   2
  -8   4  -5 271.747 29.0479   2
   4   4  -5 288.866 34.8660   2
  -8   4  -5 292.173 31.1111   3
  -4   8   5 214.318 27.5732   2
  -4   8   5 284.864 60.8984   3
  -8   5  -5 1.89185 8.59690   2
  -8   5  -5 -7.0391 10.2508   3
  -3   8   5 17.1063 11.6553   2
  -5  -3   5 1.16956 14.3087   2
   0   0  -6 8142.14 348.617   3
   0   0   6 8170.64 348.846   3
   0   0   6 8372.84 344.448   2
   0   1  -6 100.940 10.6051   3
  -1   0  -6 111.849 10.8756   2
   0   1  -6 111.473 6.73612   2
   1  -1  -6 97.6133 10.3361   2
   1  -1  -6 105.712 11.0409   3
  -1   1   6 103.378 9.20473   2
   1   0   6 111.713 12.0621   3
   0  -1   6 104.389 10.9773   3
   1   0   6 115.813 9.25486   2
  -1   1   6 103.854 11.2670   3
  -1   1  -6 208.304 16.6566   3
  -1   1  -6 219.637 12.7207   2
   1   0  -6 209.753 12.6716   2
   0  -1  -6 198.796 15.9033   3
   0  -1  -6 201.877 14.3222   2
   1  -1   6 214.558 12.0225   2
  -1   0   6 209.582 15.0278   3
   0   1   6 224.281 17.1567   3
   1  -1   6 216.956 16.9079   3
  -1   0   6 226.502 12.3916   2
  -1   2  -6 232.816 19.0089   3
   2  -1  -6 262.667 16.8680   2
  -1   2  -6 265.228 13.5195   2
  -1  -1  -6 254.975 19.3866   3
  -1  -1  -6 247.748 17.5869   2
   2  -1  -6 261.218 17.8535   3
   1   1   6 274.981 20.1965   3
   1  -2   6 297.799 23.7372   3
  -2   1   6 279.423 18.0739   3
  -2   1   6 269.389 16.8341   2
   1   1   6 289.233 18.2056   2
  -1   3  -6 128.756 15.4008   3
  -2  -1  -6 142.252 14.5988   3
  -1   3  -6 148.031 7.92233   2
   3  -2  -6 141.922 13.2873   2
  -2  -1  -6 145.642 13.7606   2
  -1   3  -6 134.429 15.6179   3
   3  -2  -6 144.623 13.9129   3
   2  -2  -6 1138.59 56.7671   3
   0   2  -6 1130.09 56.2869   3
  -2   0  -6 1135.53 54.9662   2
  -2   0  -6 1165.09 57.5753   3
   0   2  -6 1151.72 56.7208   3
   2  -2  -6 1146.24 55.0735   2
  -2   2   6 1154.58 54.9876   2
   2   0   6 1159.44 55.2283   2
   0  -2   6 1160.97 56.8011   3
   2   0   6 1171.25 57.6061   3
  -2   2   6 1080.25 56.4014   3
  -2   1  -6 282.212 17.3262   2
   1  -2  -6 289.127 18.3631   2
  -2   1  -6 289.756 20.5785   3
   1   1  -6 271.304 17.3585   3
   1   1  -6 283.429 14.1311   2
   2  -1   6 250.692 19.6156   3
   2  -1   6 266.873 16.5596   2
  -1   2   6 255.634 19.9983   3
  -1   2   6 267.974 17.9522   2
  -1  -1   6 241.433 17.0923   3
   0  -2  -6 199.563 15.4815   2
   0  -2  -6 187.323 16.6629   3
  -2   2  -6 185.962 17.2457   3
   2   0  -6 197.064 13.5374   3
  -2   2  -6 197.952 13.1561   2
   2   0  -6 209.659 13.3592   2
  -2   0   6 197.965 13.7248   3
   0   2   6 199.856 17.7592   3
   2  -2   6 201.674 17.9352   3
  -2   0   6 199.552 12.8151   2
   0   2   6 205.870 15.5927   2
  -1  -2  -6 78.6331 10.9401   2
  -1  -2  -6 89.2399 12.5066   3
   3  -1  -6 83.3825 11.5662   2
   3  -1  -6 89.9837 9.33834   3
  -2   3  -6 69.9139 12.5880   3
  -2   3  -6 89.4451 7.70339   2
  -2   3  -6 77.9802 13.4500   3
  -2   3  -6 88.6230 8.18161   2
  -2  -2  -6 263.739 21.1951   2
   4  -2  -6 272.679 20.8134   2
  -2   4  -6 263.942 25.0090   3
  -2  -2  -6 274.480 21.9771   3
  -2   4  -6 297.124 26.1263   3
   4  -2  -6 282.365 20.0500   3
  -2   4  -6 278.173 16.0182   2
   5  -3  -6 83.3591 13.5097   2
  -3  -2  -6 58.4217 12.3333   3
  -3  -2  -6 80.8744 13.5067   2
  -2   5  -6 85.1740 8.60623   2
  -2   5  -6 99.3750 19.0210   3
   5  -3  -6 89.6114 13.3671   3
  -1   4  -6 119.440 16.8790   3
  -1   4  -6 120.675 8.10322   2
  -1   4  -6 128.809 17.0628   3
  -3  -1  -6 127.518 14.7867   3
   4  -3  -6 137.104 15.5891   3
   4  -3  -6 121.700 14.3845   2
  -4   3   6 106.176 13.8612   2
   3   1   6 118.358 14.2711   2
   3   1   6 124.658 15.1810   3
  -4   3   6 114.421 15.3580   3
   3  -3  -6 306.011 23.7934   3
  -3   0  -6 287.067 21.4358   2
   0   3  -6 299.673 22.6999   3
  -3   0  -6 309.236 22.8335   3
   3  -3  -6 304.845 21.7964   2
   0   3  -6 310.805 23.5408   3
   3   0   6 331.199 23.5965   3
  -3   3   6 318.237 22.2621   2
   3   0   6 329.324 22.0466   2
  -3   3   6 305.461 24.2842   3
  -3   1  -6 231.516 18.7943   3
  -3   1  -6 226.549 17.0499   2
   1   2  -6 211.405 16.4857   3
   2  -3  -6 201.206 18.4184   3
   2  -3  -6 211.176 17.0036   2
   1   2  -6 200.506 15.7454   3
  -2  -1   6 87.5501 8.81073   3
  -2  -1   6 78.5351 9.06401   2
  -1   3   6 90.1554 11.4688   2
   3  -2   6 76.5372 12.8280   3
  -1   3   6 91.3857 13.9509   3
  -2  -1   6 78.3841 6.59549   2
  -3   3  -6 123.035 11.5631   2
   3   0  -6 123.438 9.24918   3
  -3   3  -6 131.843 15.3993   3
   0  -3  -6 117.841 14.7780   3
  -3   3  -6 128.121 16.6625   3
  -3   3  -6 120.282 11.0875   2
   0  -3  -6 142.049 17.9803   2
  -3   0   6 106.697 10.1593   2
   0   3   6 111.540 13.2218   2
  -3   0   6 127.189 9.33294   3
   0   3   6 100.251 14.1685   3
  -3   0   6 127.809 11.8624   2
  -1  -3  -6 153.597 17.3252   3
   4  -1  -6 157.027 12.0248   3
  -3   4  -6 153.354 12.3828   2
  -3   4  -6 145.214 18.0096   3
  -3   4  -6 168.687 19.8286   3
  -3   4  -6 166.514 13.5855   2
  -1  -3  -6 159.806 16.1662   2
  -4   1   6 131.063 13.2254   2
  -4   1   6 135.408 14.8063   2
   1   3   6 147.120 16.0048   2
   1   3   6 133.419 16.9732   3
  -4   1   6 153.315 10.9138   3
  -2  -3  -6 25.0830 8.59597   2
  -3   5  -6 34.3653 7.01059   2
  -3   5  -6 17.3722 10.5387   3
  -2  -3  -6 27.5326 9.89582   3
   5  -2  -6 30.7890 7.16065   3
  -5   2   6 61.1373 12.8728   2
  -5   2   6 50.8145 8.59619   3
   2   3   6 60.4277 12.6292   2
   2   3   6 48.4422 11.2361   3
   6  -3  -6 467.804 29.7611   3
  -3  -3  -6 505.006 34.4047   2
  -3   6  -6 500.750 28.0035   2
  -3   6  -6 527.431 42.5872   3
  -6   3   6 484.196 35.5148   2
   3   3   6 502.249 34.2726   3
   3   3   6 453.639 33.8997   2
  -6   3   6 444.756 33.3584   3
  -3   7  -6 9.74684 11.9732   3
  -3   7  -6 26.3339 7.46999   2
   7  -4  -6 14.1085 7.89159   3
  -7   4   6 24.8203 12.2819   2
   4   3   6 9.37925 9.21269   3
  -7   4   6 15.5432 8.92913   3
   4   3   6 2.07667 8.87614   2
  -2   6  -6 107.038 10.7281   2
  -2   6  -6 135.437 22.2168   3
  -4  -2  -6 113.498 16.6694   2
  -4  -2  -6 121.198 16.6104   3
   6  -4  -6 132.656 17.7067   2
   6  -4  -6 110.265 15.7972   3
   4   2   6 82.2092 15.1956   3
   4   2   6 88.1091 15.4260   2
  -6   4   6 122.873 19.1458   2
  -6   4   6 93.5592 16.8745   3
  -4  -1  -6 168.544 17.7376   3
  -1   5  -6 130.169 20.2239   3
  -1   5  -6 143.887 20.9079   3
  -1   5  -6 152.264 11.0768   2
  -4  -1  -6 151.201 17.8398   2
   5  -4  -6 165.432 18.3514   2
  -4   0  -6 30.7385 8.73615   3
   0   4  -6 36.5862 5.07156   2
   4  -4  -6 30.6242 8.63829   2
  -4   0  -6 32.6034 8.83026   2
   0   4  -6 31.0190 9.84256   3
   0   4  -6 31.0227 9.97931   3
  -4   4   6 28.5582 8.01951   2
   4   0   6 26.5343 8.10200   2
   4   0   6 26.0765 8.81394   3
  -4   4   6 37.4223 12.1380   3
  -4   1  -6 118.562 14.7493   3
   1   3  -6 115.628 12.8327   3
   1   3  -6 108.987 8.88858   2
   1   3  -6 105.899 13.8837   3
   3  -4  -6 98.0762 15.2349   3
  -4   1  -6 106.270 13.8213   2
   3  -4  -6 122.938 14.2974   2
  -3   4   6 137.879 15.5513   2
   4  -1   6 122.941 15.0442   3
  -3   4   6 124.460 18.5162   3
   4  -1   6 124.617 13.4454   2
   2   2  -6 132.793 11.5345   3
   2  -4  -6 145.520 15.2723   2
  -4   2  -6 143.128 16.3920   3
   2   2  -6 144.233 12.8118   3
  -4   2  -6 153.828 15.1578   2
   2  -4  -6 142.124 17.3951   3
   1  -4  -6 157.954 18.6982   3
  -4   3  -6 149.514 18.9441   3
   3   1  -6 143.748 10.1396   3
  -4   3  -6 133.520 17.5645   3
   1  -4  -6 155.237 16.1766   2
  -4   3  -6 156.781 14.9716   2
   3   1  -6 156.473 9.61983   3
  -4   3  -6 151.586 15.1013   2
  -1   4   6 182.612 20.9670   3
  -3  -1   6 169.757 13.6534   2
  -3  -1   6 164.166 11.8767   2
  -1   4   6 179.710 17.1953   2
  -4   4  -6 7.25194 5.02063   2
   0  -4  -6 15.4727 8.87429   3
  -4   4  -6 12.5911 10.3925   3
  -4   4  -6 9.48599 8.38931   3
   0  -4  -6 9.57200 6.13911   2
  -4   4  -6 12.0368 5.73210   2
  -4   0   6 8.37185 6.18126   2
   0   4   6 14.0814 9.17237   3
  -4   0   6 11.5574 5.62965   2
   0   4   6 14.3843 7.23944   2
  -4   5  -6 44.1170 8.48569   2
  -4   5  -6 25.2796 11.6311   3
  -1  -4  -6 36.3233 10.0550   2
   1   4   6 47.1154 12.5713   3
  -5   1   6 46.2826 10.6144   2
   1   4   6 35.5084 9.20372   2
  -4   6  -6 204.397 26.8724   3
  -2  -4  -6 214.739 21.8431   2
  -4   6  -6 240.307 18.6115   2
   2   4   6 227.236 23.9404   3
  -6   2   6 242.388 13.6363   3
  -6   2   6 226.413 23.4000   2
   2   4   6 226.671 23.0656   2
  -4   7  -6 12.3646 13.2717   3
  -4   7  -6 5.50045 5.20553   2
  -7   3   6 16.1627 6.27783   3
   3   4   6 19.6358 10.8417   3
  -7   3   6 5.76344 9.28539   2
   3   4   6 13.7678 9.79464   2
  -4   8  -6 134.702 35.1448   3
  -8   4   6 52.7419 10.5372   3
  -8   4   6 37.8654 15.0083   2
   4   4   6 65.9808 17.5302   2
   4   4   6 66.7182 15.8367   3
  -3   8  -6 24.5142 7.96344   2
  -3   8  -6 26.0250 20.7411   3
   5   3   6 50.3763 13.4791   3
   5   3   6 32.7937 13.0290   2
  -8   5   6 48.3534 13.8617   3
  -8   5   6 58.9403 18.1415   2
  -7   5   6 208.734 25.9983   2
  -7   5   6 178.448 23.8641   3
   5   2   6 166.796 20.9605   3
   5   2   6 203.592 24.2379   2
  -5  -1  -6 139.796 17.7268   3
  -1   6  -6 160.698 13.6039   2
  -5  -1  -6 153.585 23.9573   2
   6  -5  -6 235.166 30.4797   2
  -6   5   6 215.030 28.3946   2
   5   1   6 207.507 22.5883   2
  -6   5   6 210.417 26.3073   3
   5   1   6 199.871 20.2814   3
  -5   0  -6 43.4301 11.0315   3
   0   5  -6 65.5436 15.1477   3
   5  -5  -6 50.0520 11.9770   2
   0   5  -6 59.1579 8.68673   2
   0   5  -6 53.9683 13.3042   3
  -5   0  -6 56.9701 12.8113   2
  -5   5   6 59.5322 15.9513   2
  -5   5   6 52.3151 16.6691   3
   5   0   6 53.7000 11.9187   3
   5   0   6 44.7526 12.2816   2
   4  -5  -6 309.648 24.8975   2
   1   4  -6 291.008 17.7443   2
   1   4  -6 296.746 24.4845   3
   1   4  -6 284.476 23.2566   3
  -5   1  -6 272.403 22.8948   3
   2   3  -6 145.597 13.6135   3
   3  -5  -6 174.954 18.0130   2
  -5   2  -6 178.061 18.2701   2
   2   3  -6 163.687 13.7344   2
   2   3  -6 156.877 15.1569   3
  -5   2  -6 159.075 18.2052   3
  -5   2  -6 164.989 19.5563   3
   3   2  -6 54.1525 6.31121   3
  -5   3  -6 42.2913 10.9729   3
   3   2  -6 58.5863 5.85782   3
  -5   3  -6 57.6986 13.6928   3
  -5   3  -6 48.3293 10.7763   2
  -5   3  -6 75.6529 13.3337   2
   2  -5  -6 65.0911 12.8397   2
  -2   5   6 25.1263 11.3505   3
  -3  -2   6 36.9411 8.32075   2
   1  -5  -6 40.4294 9.12282   2
  -5   4  -6 51.1370 14.9285   3
  -5   4  -6 43.5764 9.02864   2
  -5   4  -6 43.2850 9.14519   2
  -1   5   6 50.0631 14.4980   3
  -4  -1   6 36.6407 9.51553   2
  -1   5   6 35.1015 10.8326   2
   0  -5  -6 52.3299 12.3151   2
  -5   5  -6 45.9569 9.69514   2
  -5   5  -6 63.0443 12.0040   2
  -5   5  -6 54.8245 15.8558   3
   0   5   6 53.8710 12.9714   2
  -5   0   6 45.6703 11.5702   2
  -5   6  -6 293.566 32.3885   3
   1   5   6 210.579 23.2087   2
   1   5   6 198.343 24.0699   3
  -6   1   6 192.301 22.5424   2
  -5   7  -6 66.2214 20.8335   3
  -5   7  -6 96.6977 14.4007   2
  -7   2   6 101.723 19.9702   2
   2   5   6 115.415 19.7053   3
  -5   8  -6 48.8779 11.7861   2
  -5   8  -6 45.1478 19.3124   3
   3   5   6 78.3498 18.4796   2
   3   5   6 69.2592 16.2498   3
  -8   3   6 64.9932 18.3735   2
  -1   7  -6 54.2495 17.0357   3
  -7   6   6 5.79142 12.2219   3
   6   1   6 7.16371 9.13473   2
   6   1   6 19.8608 9.55299   3
  -7   6   6 12.5370 11.2359   2
  -6   0  -6 13.1683 10.4397   2
   6  -6  -6 8.56185 8.68999   2
   0   6  -6 15.4966 10.9299   3
   0   6  -6 11.9523 5.50432   2
  -6   6   6 7.67765 14.2549   3
  -6   6   6 11.9505 8.68494   2
   6   0   6 9.32391 8.14506   3
   6   0   6 12.9203 9.74090   2
   1   5  -6 226.913 22.3881   3
   1   5  -6 219.953 15.8808   2
   1   5  -6 204.667 21.6908   3
  -6   1  -6 188.002 22.3507   2
   5  -6  -6 198.283 21.8095   2
   6  -1   6 145.586 19.5370   3
  -5   6   6 162.721 22.0644   2
  -6   2  -6 104.520 16.9715   2
   2   4  -6 91.6486 12.7356   3
   2   4  -6 92.7876 11.9958   2
   4  -6  -6 111.872 16.7929   2
  -6   2  -6 111.704 18.4278   3
   2   4  -6 105.350 13.5188   3
  -2  -4   6 110.624 9.52494   2
  -4   6   6 112.137 23.5479   3
  -4   6   6 121.599 18.4443   2
  -6   3  -6 458.301 34.1091   2
  -6   3  -6 480.965 34.5368   2
   3  -6  -6 513.589 34.9677   2
   3   3  -6 483.347 24.8590   3
   3   3  -6 479.513 25.2551   3
  -6   3  -6 492.970 37.7827   3
  -3  -3   6 451.494 28.1908   2
  -3   6   6 497.970 35.0478   2
  -3   6   6 559.947 45.2733   3
  -6   4  -6 271.466 24.7014   2
  -6   4  -6 252.062 23.3836   2
   2  -6  -6 233.781 22.9117   2
  -4  -2   6 235.649 20.7496   2
  -2   6   6 230.289 23.5796   2
  -2   6   6 246.958 29.4568   3
  -6   5  -6 185.056 27.4679   3
  -6   5  -6 202.246 21.2970   2
  -6   5  -6 199.426 21.8745   2
  -5  -1   6 271.611 23.0280   2
  -1   6   6 297.580 31.6977   3
  -6   6  -6 2.20168 11.2359   3
  -6   6  -6 3.61786 7.15740   2
  -6   6  -6 8.77431 7.75198   2
  -6   0   6 -4.0062 6.86658   2
   0   6   6 -2.7924 9.61502   3
   0   6   6 6.05419 9.11351   2
   1   6   6 37.7292 12.2745   2
   1   6   6 53.4419 16.3340   3
  -7   1   6 30.4786 11.3838   2
   0   7  -6 122.870 22.4535   3
   0   7  -6 124.108 14.2324   2
   7   0   6 145.370 19.9304   3
  -7   7   6 136.463 28.5243   3
  -7   7   6 156.152 24.5442   2
   1   6  -6 11.9368 6.38533   2
  -7   1  -6 18.9477 10.8292   3
  -7   1  -6 -6.8044 9.96976   2
   1   6  -6 13.6852 10.5960   3
  -6   7   6 46.8639 20.1240   3
  -6   7   6 55.3578 15.1278   2
   2   5  -6 120.498 15.6153   3
  -7   2  -6 144.194 20.8385   3
  -7   2  -6 148.693 21.9108   2
  -5   7   6 93.0183 19.1029   2
  -5   7   6 65.3550 23.0815   3
   3   4  -6 22.2461 7.64781   2
   3   4  -6 12.5782 5.62226   3
  -7   3  -6 10.4698 8.05471   2
  -7   3  -6 7.76822 9.73250   3
  -7   3  -6 -0.8513 8.31397   2
  -4   7   6 17.7398 10.5171   2
  -4   7   6 13.5364 16.4615   3
  -3  -4   6 23.1532 7.08951   2
  -7   4  -6 16.7519 11.6795   3
  -7   4  -6 14.3046 10.3913   2
  -7   4  -6 9.33391 8.98277   2
  -4  -3   6 7.89609 7.33392   2
  -3   7   6 11.0243 9.31370   2
  -3   7   6 14.0197 13.2159   3
  -7   5  -6 115.039 19.2057   2
  -7   5  -6 126.594 24.2003   3
  -7   5  -6 73.7195 14.8234   2
  -2   7   6 84.2445 21.0564   3
  -2   7   6 85.1338 22.2510   2
  -5  -2   6 103.605 16.6521   2
  -7   6  -6 55.4030 13.1330   2
  -7   6  -6 45.4361 13.7790   2
  -7   6  -6 56.0796 18.3160   3
  -1   7   6 111.950 24.1779   3
  -6  -1   6 67.3261 25.4549   2
  -1   7   6 75.1747 14.2413   2
  -7   7  -6 113.291 25.6346   2
  -7   7  -6 146.947 32.2746   3
   0   7   6 93.6185 21.2198   3
   0   7   6 83.9535 17.0794   2
   3   5  -6 36.8069 10.0413   2
  -8   3  -6 40.6978 14.3604   3
  -8   3  -6 24.7869 12.8962   2
  -5   8   6 27.3112 20.6847   3
  -5   8   6 24.2726 11.9640   2
  -8   4  -6 66.2214 18.7827   3
  -8   4  -6 48.7029 15.2349   2
  -8   5  -6 90.9548 20.6643   3
  -8   5  -6 64.8740 14.6259   2
  -3   8   6 47.5878 19.8942   3
  -3   8   6 28.2483 11.2464   2
   0   0  -7 -0.3584 2.32214   2
   0   0  -7 2.61283 4.14650   3
   0   0   7 1.84068 2.37706   2
  -1   0  -7 1222.97 55.4462   2
  -1   0  -7 1174.86 59.0976   3
   0   1  -7 1210.58 51.8154   2
   0   1  -7 1176.77 57.8862   3
   1  -1  -7 1206.77 55.2980   2
   1  -1  -7 1158.22 58.0479   3
   0  -1   7 1133.20 58.2311   3
   1   0   7 1160.96 54.7166   2
   1   0   7 1163.00 59.0832   3
  -1   1   7 1200.92 55.0564   2
  -1   1  -7 73.2002 10.7727   3
   0  -1  -7 73.5837 10.1761   3
   1   0  -7 67.3835 9.51151   3
   0  -1  -7 66.7548 8.58239   2
  -1   1  -7 80.5368 7.34841   2
   1   0  -7 73.8691 7.25754   2
  -1   0   7 66.6531 6.59493   2
   0   1   7 80.4440 9.93940   2
   1  -1   7 76.5157 6.58022   2
   0   1   7 67.4475 10.3533   3
  -1   0   7 73.6198 9.87315   3
   1  -1   7 72.8920 10.5466   3
   2  -1  -7 141.930 12.2257   2
  -1  -1  -7 137.913 14.9979   3
  -1  -1  -7 154.818 13.7472   2
  -1   2  -7 144.263 15.3310   3
  -1   2  -7 147.886 9.27302   2
   2  -1  -7 141.238 13.2436   3
  -2   1   7 194.799 14.8151   3
   1   1   7 174.582 16.9244   3
  -2   1   7 180.727 12.8631   2
   1   1   7 177.118 14.1211   2
   1  -2   7 189.612 17.1166   3
  -2  -1  -7 106.506 13.3190   3
  -2  -1  -7 108.543 13.0423   2
   3  -2  -7 111.561 12.1135   2
   3  -2  -7 119.169 13.1065   3
  -1   3  -7 120.811 14.9389   3
  -1   3  -7 125.875 15.6939   3
   2  -2  -7 2.12739 5.18850   3
   0   2  -7 3.24955 5.14036   3
  -2   0  -7 4.33931 4.41919   2
  -2   0  -7 2.96300 4.99709   3
   2  -2  -7 6.04447 3.97878   2
   0  -2   7 2.45360 4.96137   3
  -2   2   7 3.04185 5.04999   3
  -2   2   7 -0.3532 1.37320   2
   2   0   7 8.07705 5.92117   3
  -2   1  -7 187.264 13.3425   2
   1   1  -7 177.836 14.0674   3
   1  -2  -7 182.053 14.3616   2
   1   1  -7 193.067 10.3510   2
   1  -2  -7 190.879 16.7636   3
  -1   2   7 134.623 15.7452   3
  -1   2   7 152.873 13.6401   2
   2  -1   7 140.618 15.3683   3
   2  -1   7 136.393 11.6750   2
  -1  -1   7 135.083 13.0491   3
  -2   2  -7 82.3187 12.4968   3
   0  -2  -7 60.8657 9.44550   2
   0  -2  -7 71.2703 11.0683   3
   2   0  -7 63.5813 8.61845   3
  -2   2  -7 75.7795 8.01114   2
   2   0  -7 79.7285 8.24590   2
   0   2   7 67.1420 12.1168   3
   2  -2   7 73.7528 12.4214   3
   0   2   7 69.3076 10.0915   2
  -2   0   7 69.9850 7.45256   2
  -2   0   7 72.6332 9.13216   3
   3  -1  -7 93.4384 10.8317   2
  -2   3  -7 104.437 15.2046   3
  -2   3  -7 91.7948 14.3741   3
  -1  -2  -7 114.300 12.9447   2
   3  -1  -7 108.605 10.8748   3
  -2   3  -7 94.0719 8.28357   2
  -2   3  -7 106.283 9.09865   2
  -1  -2  -7 109.546 14.1438   3
  -2   4  -7 127.972 17.7554   3
   4  -2  -7 142.369 14.5219   3
  -2   4  -7 140.579 9.87920   2
  -2   4  -7 134.326 18.1915   3
  -2   4  -7 157.020 15.6928   2
   4  -2  -7 128.918 14.2470   2
  -2  -2  -7 132.516 16.0915   3
  -3  -2  -7 164.787 18.3976   2
   5  -3  -7 158.162 17.7953   2
  -2   5  -7 183.460 11.5193   2
  -3  -2  -7 183.294 19.3301   3
  -2   5  -7 169.717 22.0889   3
   5  -3  -7 167.270 17.5023   3
  -5   3   7 111.427 16.5179   2
   3   2   7 126.012 17.2971   2
  -1   4  -7 28.9603 10.3132   3
  -3  -1  -7 16.2436 6.60641   2
   4  -3  -7 26.5082 8.23642   3
  -3  -1  -7 25.7474 8.78167   3
  -1   4  -7 18.3748 9.16906   3
   4  -3  -7 31.9500 8.59534   2
  -4   3   7 54.3726 10.0469   2
   0   3  -7 279.455 22.7949   3
   0   3  -7 306.962 23.5418   3
  -3   0  -7 307.744 22.1087   2
   3  -3  -7 291.617 23.5466   3
   3  -3  -7 310.631 22.2972   2
  -3   0  -7 320.854 23.9264   3
   3   0   7 307.785 21.8722   2
   3   0   7 293.220 23.7993   3
  -3   3   7 288.196 23.9935   3
  -3   3   7 297.919 22.0201   2
   1   2  -7 64.2926 9.56994   3
   2  -3  -7 53.2307 9.32802   2
   2  -3  -7 52.4972 10.8946   3
  -3   1  -7 62.6948 10.2027   2
   1   2  -7 59.1796 10.3577   3
  -3   1  -7 68.0676 11.9665   3
  -1   3   7 107.960 13.2805   2
  -2  -1   7 99.1118 7.22561   2
  -2  -1   7 107.403 10.8212   3
  -1   3   7 102.536 15.1638   3
   3  -2   7 92.7955 14.4774   3
  -2  -1   7 105.821 7.66526   2
   0  -3  -7 259.599 20.3286   2
  -3   3  -7 250.371 17.4499   2
   0  -3  -7 226.041 21.7582   3
   3   0  -7 242.053 15.7118   3
  -3   3  -7 242.851 23.3715   3
  -3   3  -7 224.514 21.5669   3
   0   3   7 238.307 19.9450   2
  -3   0   7 259.403 17.1023   2
   0   3   7 264.603 22.8966   3
  -3   0   7 248.598 15.7055   3
  -3   0   7 242.488 15.8937   2
   4  -1  -7 24.1896 6.83054   2
   4  -1  -7 22.5173 5.82205   3
  -3   4  -7 13.4335 9.87901   3
  -1  -3  -7 24.0375 9.86746   3
  -3   4  -7 23.8215 5.84050   2
  -3   4  -7 13.5118 10.5532   3
  -1  -3  -7 16.9337 7.16944   2
  -3   4  -7 21.0468 6.01117   2
   5  -2  -7 221.073 17.5049   3
  -2  -3  -7 239.061 21.4193   2
  -3   5  -7 230.374 15.7098   2
  -3   5  -7 235.769 26.8679   3
   5  -2  -7 216.852 20.0257   2
  -5   2   7 183.274 15.3969   3
   2   3   7 206.487 20.8815   2
   2   3   7 198.435 21.8164   3
   6  -3  -7 19.5445 9.21407   2
  -3   6  -7 27.9665 6.39854   2
  -3  -3  -7 12.0898 8.33318   2
   6  -3  -7 33.9960 8.32083   3
  -3   6  -7 27.9681 12.0843   3
   3   3   7 37.8042 11.7130   3
  -6   3   7 40.7143 9.14437   3
  -6   3   7 43.1365 12.2843   2
   3   3   7 34.7171 10.5210   2
   7  -4  -7 345.912 25.8078   3
  -3   7  -7 344.611 20.8683   2
  -3   7  -7 331.106 35.3129   3
  -7   4   7 246.362 29.4019   2
  -7   4   7 267.436 23.4046   3
   4   3   7 247.651 26.4503   3
   4   3   7 249.985 28.0649   2
   6  -4  -7 77.4863 14.6973   3
   6  -4  -7 62.5077 12.9914   2
  -2   6  -7 50.7319 15.7475   3
  -2   6  -7 62.1360 8.36895   2
  -6   4   7 114.278 18.3577   2
   4   2   7 117.041 18.0566   2
  -6   4   7 96.1023 15.9781   3
  -4  -1  -7 554.559 36.0299   2
  -4  -1  -7 503.986 34.8192   3
  -1   5  -7 522.347 38.4672   3
   5  -4  -7 607.613 43.1126   2
   5  -4  -7 528.477 36.9262   3
  -1   5  -7 518.788 25.1117   2
   4   1   7 490.592 34.6502   3
   4   1   7 493.010 34.6838   2
  -5   4   7 467.048 34.5605   2
  -5   4   7 511.606 36.6312   3
   0   4  -7 0.46362 7.04035   3
   4  -4  -7 2.97948 5.98391   2
  -4   0  -7 2.67696 6.59824   3
  -4   0  -7 3.14205 6.33555   2
   0   4  -7 2.86642 6.18717   3
   4  -4  -7 -5.4409 6.36169   3
  -4   4   7 0.43428 6.38681   2
   4   0   7 6.92642 6.66573   2
  -4   4   7 1.02247 7.79125   3
   4   0   7 0.23921 6.02576   3
   1   3  -7 66.3949 11.8819   3
   1   3  -7 76.8919 11.9703   3
  -4   1  -7 73.8227 12.2008   2
  -4   1  -7 72.3349 13.0591   3
   3  -4  -7 63.9869 13.7219   3
   2   2  -7 364.645 22.7269   3
  -4   2  -7 340.395 27.0803   3
   2   2  -7 339.261 21.1099   3
  -4   2  -7 346.292 24.5740   2
   2  -4  -7 328.613 27.4897   3
   2  -4  -7 358.673 25.6004   2
   1  -4  -7 55.9557 11.1110   2
   1  -4  -7 48.1476 16.6285   3
   3   1  -7 56.2384 7.45340   3
  -4   3  -7 67.2730 13.9541   3
  -4   3  -7 60.5630 10.5254   2
  -4   3  -7 62.0177 14.4601   3
   3   1  -7 59.5852 7.13170   3
  -1   4   7 34.6235 11.4601   3
   0  -4  -7 119.203 15.1835   2
  -4   4  -7 116.607 19.2266   3
  -4   4  -7 125.702 13.7368   2
  -4   4  -7 115.491 12.5502   2
  -4   0   7 129.485 14.5367   2
   0   4   7 126.145 19.1991   3
   0   4   7 95.0368 16.8019   2
  -4   5  -7 87.2233 12.0880   2
  -4   5  -7 79.2363 18.8813   3
  -1  -4  -7 90.5230 14.2671   2
  -4   5  -7 74.0338 10.9554   2
   6  -2  -7 160.172 12.0617   3
  -4   6  -7 172.633 15.7967   2
  -2  -4  -7 147.896 19.6362   2
  -4   6  -7 187.357 27.1919   3
  -6   2   7 215.293 12.2087   3
   2   4   7 217.099 24.2480   3
   2   4   7 220.314 22.6149   2
  -4   7  -7 56.1338 9.62331   2
  -4   7  -7 58.2283 19.8506   3
   3   4   7 26.1687 11.7599   2
   3   4   7 30.7643 12.7328   3
  -7   3   7 28.1388 11.8758   2
  -7   3   7 25.4987 6.78137   3
  -2   7  -7 34.2316 7.26576   2
   7  -5  -7 6.64749 9.17705   2
  -2   7  -7 28.2006 15.9156   3
   5   2   7 19.9498 10.8106   3
  -7   5   7 19.8594 11.2291   2
  -7   5   7 29.0229 13.0723   3
   5   2   7 7.40398 9.89874   2
  -1   6  -7 119.600 22.0317   3
  -1   6  -7 127.453 11.1330   2
  -5  -1  -7 170.325 27.5122   2
   6  -5  -7 134.757 19.2986   2
  -6   5   7 147.973 23.2407   3
   5   1   7 163.997 21.4222   2
  -6   5   7 195.866 23.7155   2
   5   1   7 176.778 20.5482   3
   0   5  -7 163.658 11.4003   2
   5  -5  -7 164.935 19.5774   2
   0   5  -7 140.486 19.7802   3
   0   5  -7 182.133 21.8264   3
  -5   5   7 178.749 21.0213   2
   5   0   7 155.262 19.4169   2
  -5   5   7 155.506 23.9147   3
   5   0   7 148.814 19.5531   3
   1   4  -7 470.657 32.0455   3
   1   4  -7 520.689 34.6786   3
   1   4  -7 487.832 25.8078   2
   4  -5  -7 497.169 34.5941   2
  -5   1  -7 485.957 34.9051   2
   5  -1   7 538.745 34.1079   2
  -4   5   7 497.069 34.8613   2
  -4   5   7 498.820 40.9628   3
   5  -1   7 522.132 35.8542   3
  -5   2  -7 120.880 16.4910   2
   2   3  -7 111.135 12.3340   3
   2   3  -7 106.611 13.4585   3
   3  -5  -7 187.337 25.6782   2
  -3   5   7 167.418 19.2582   2
  -3   5   7 164.208 23.3628   3
   3   2  -7 190.647 12.7230   3
  -5   3  -7 200.300 23.4881   3
   3   2  -7 188.851 13.6889   3
  -5   3  -7 199.749 19.3946   2
   2  -5  -7 172.459 19.2605   2
  -2   5   7 228.843 21.4230   2
  -2   5   7 232.798 26.3052   3
  -3  -2   7 218.586 14.7166   2
  -5   4  -7 20.0877 10.7953   2
  -1   5   7 108.407 23.1306   3
  -1   5   7 101.214 16.6859   2
  -5   5  -7 122.780 15.2608   2
  -5   5  -7 107.800 15.2039   2
  -5   5  -7 127.514 22.7125   3
   0  -5  -7 131.705 17.4623   2
   0   5   7 140.589 20.1631   3
   0   5   7 126.419 18.6277   2
  -5   0   7 122.516 16.7256   2
  -5   6  -7 82.0055 19.9209   3
   1   5   7 43.3839 11.5040   2
  -6   1   7 50.4755 12.5549   2
   1   5   7 56.4744 14.6346   3
  -5   7  -7 235.086 22.1822   2
  -5   7  -7 256.910 34.2571   3
  -5   7  -7 245.858 20.5530   2
   2   5   7 190.282 24.4044   2
   2   5   7 189.482 25.2021   3
  -1   7  -7 152.972 24.8254   3
  -1   7  -7 135.249 13.4325   2
   7  -6  -7 133.626 23.9066   2
  -7   6   7 161.419 26.5963   3
  -7   6   7 148.982 24.1442   2
   6   1   7 181.946 23.7671   2
   6   1   7 184.600 21.8209   3
   0   6  -7 181.255 13.9435   2
   6  -6  -7 165.792 22.0588   2
  -6   0  -7 178.617 25.8659   2
   6   0   7 173.149 21.6633   2
  -6   6   7 189.643 28.7719   3
   6   0   7 187.375 21.8526   3
  -6   6   7 181.744 24.5061   2
   1   5  -7 188.563 14.1249   2
   1   5  -7 198.408 21.5855   3
   5  -6  -7 199.541 22.3666   2
  -6   1  -7 184.918 21.9689   2
   1   5  -7 173.083 20.1471   3
   6  -1   7 133.659 19.6325   3
  -5   6   7 128.718 26.9102   3
  -5   6   7 128.809 20.1449   2
   2   4  -7 98.8601 12.7685   3
   4  -6  -7 79.6706 14.1745   2
   2   4  -7 95.8075 13.4873   3
  -6   2  -7 105.993 18.6930   3
  -6   2  -7 85.5004 18.3521   2
   6  -2   7 71.8001 16.3536   3
  -4   6   7 69.3253 14.7438   2
  -4   6   7 51.9666 18.1570   3
  -6   3  -7 37.6472 9.98234   2
  -6   3  -7 31.2448 9.96187   2
   3  -6  -7 33.2930 10.7841   2
   3   3  -7 38.6839 6.71375   3
   3   3  -7 34.6335 6.67404   3
  -3  -3   7 30.0541 6.08447   2
  -3   6   7 25.0053 11.5062   2
  -3   6   7 21.9263 15.2721   3
  -6   4  -7 220.696 21.5866   2
  -6   4  -7 214.731 22.3857   2
  -6   4  -7 206.003 25.7103   3
   2  -6  -7 200.045 21.5600   2
  -4  -2   7 163.751 16.4574   2
  -2   6   7 174.659 27.3324   3
  -2   6   7 163.860 21.5504   2
  -6   5  -7 66.7855 13.7936   2
  -6   5  -7 65.0615 13.6132   2
  -6   5  -7 63.1351 18.7400   3
  -1   6   7 92.7668 20.7803   3
  -5  -1   7 107.032 16.6828   2
  -1   6   7 82.7650 14.6878   2
  -6   6  -7 317.250 25.8907   2
  -6   6  -7 318.383 27.7052   2
  -6   6  -7 323.947 35.9373   3
  -6   0   7 293.075 27.8903   2
   0   6   7 320.358 33.3173   3
   0   6   7 327.561 30.2605   2
  -6   7  -7 24.2494 10.9717   2
  -6   7  -7 7.84297 19.6122   3
  -6   7  -7 11.0248 8.27853   2
  -7   1   7 32.9137 13.9684   2
   1   6   7 37.9417 15.4091   3
   1   6   7 32.4862 11.0041   2
   1   6  -7 167.916 15.0779   2
  -7   1  -7 193.630 23.9924   3
  -7   1  -7 134.297 32.4750   2
   1   6  -7 188.804 22.5527   3
  -6   7   7 103.642 26.3845   3
  -6   7   7 125.246 22.5305   2
   7  -1   7 132.264 21.1108   3
   2   5  -7 19.0243 9.43875   3
   2   5  -7 26.3598 7.63413   2
  -7   2  -7 16.4248 11.1514   3
  -7   2  -7 -2.9616 9.62784   2
  -5   7   7 28.0955 13.3992   2
  -5   7   7 24.4185 16.4403   3
  -7   3  -7 241.301 26.4646   2
   3   4  -7 242.497 17.4557   3
   3   4  -7 261.843 21.9873   3
  -7   3  -7 266.011 28.1042   2
  -7   3  -7 240.509 27.5810   3
  -4   7   7 327.980 29.2809   2
  -7   4  -7 32.8478 11.5972   2
  -7   4  -7 14.5293 9.99559   2
  -7   4  -7 34.2427 14.5612   3
  -3   7   7 65.9923 16.3311   2
  -4  -3   7 51.0410 10.2882   2
  -3   7   7 55.5305 21.3887   3
  -7   5  -7 202.626 24.1412   2
  -7   5  -7 247.460 30.6760   3
  -7   5  -7 190.881 22.8333   2
  -5  -2   7 202.939 21.7405   2
  -2   7   7 265.649 35.3053   3
  -7   6  -7 33.9953 16.7716   3
  -7   6  -7 33.5326 10.4715   2
  -7   6  -7 57.8724 16.1011   2
  -1   7   7 6.62220 13.3405   3
  -1   7   7 9.01223 10.5862   2
  -6  -1   7 4.88010 10.5248   2
   0   0  -8 -1.0574 4.44088   3
   0   0  -8 3.92600 2.92317   2
   0   0   8 -1.1162 5.28774   3
   0   0   8 0.84752 2.73582   2
  -1   0  -8 503.258 32.7411   3
   0   1  -8 528.702 25.7602   2
   1  -1  -8 546.666 32.3806   3
   0   1  -8 553.745 32.1562   3
  -1   0  -8 553.049 29.3685   2
   1  -1  -8 545.026 29.0930   2
  -1   1   8 531.199 32.4917   3
   0  -1   8 524.874 32.2374   3
  -1   1   8 543.386 28.7971   2
   1   0   8 542.764 28.6191   2
   1   0  -8 2404.26 103.249   2
  -1   1  -8 2320.79 109.447   3
   1   0  -8 2352.27 107.402   3
  -1   1  -8 2365.21 103.057   2
   0  -1  -8 2307.33 109.243   3
   0  -1  -8 2323.62 105.459   2
  -1   0   8 2366.48 107.699   3
   0   1   8 2412.28 105.419   2
   0   1   8 2412.55 110.331   3
  -1   0   8 2444.02 102.381   2
   1  -1   8 2315.28 109.760   3
   1  -1   8 2349.67 102.021   2
   2  -1  -8 1398.53 65.3691   2
  -1   2  -8 1432.11 61.2949   2
  -1   2  -8 1395.37 70.3902   3
  -1  -1  -8 1401.34 67.0431   2
   2  -1  -8 1383.87 67.6372   3
  -1  -1  -8 1337.56 69.7846   3
  -2   1   8 1428.18 68.0945   3
   1   1   8 1414.53 70.9777   3
  -2   1   8 1395.42 64.8645   2
   1  -2   8 1420.81 70.6982   3
  -1   3  -8 4685.90 230.816   3
   3  -2  -8 4998.76 217.037   2
  -2  -1  -8 5018.58 218.233   2
  -1   3  -8 5022.42 222.169   3
  -2  -1  -8 4684.47 220.174   3
   3  -2  -8 5065.82 218.872   3
  -3   2   8 5118.46 218.944   3
  -3   2   8 4961.32 216.893   2
   2   1   8 5148.97 218.225   2
   2   1   8 5298.01 222.650   3
   2  -2  -8 764.457 39.9272   2
  -2   0  -8 741.160 39.7546   2
   2  -2  -8 727.855 42.1731   3
  -2   0  -8 800.723 48.6094   3
   0   2  -8 730.344 41.6784   3
  -2   2   8 739.192 42.7000   3
   0  -2   8 736.742 42.3828   3
   2   0   8 774.062 39.6078   2
  -2   1  -8 1400.35 70.9921   3
   1  -2  -8 1446.28 67.6741   2
   1  -2  -8 1401.82 70.7273   3
   1   1  -8 1450.00 67.9461   3
   1   1  -8 1412.46 62.1837   2
  -2   1  -8 1468.14 66.2103   2
   2  -1   8 1362.70 64.8425   2
   2  -1   8 1446.23 71.8110   3
  -1   2   8 1334.09 70.7987   3
   2   0  -8 287.138 17.8795   2
   2   0  -8 290.194 19.6278   3
   0  -2  -8 296.523 20.8723   2
  -2   2  -8 301.976 17.9484   2
   0   2   8 292.669 23.5394   3
   0   2   8 301.801 21.0967   2
   2  -2   8 303.857 23.9495   3
  -2   0   8 276.235 19.7326   3
  -2   0   8 280.118 16.6621   2
   3  -1  -8 375.552 24.0850   3
  -2   3  -8 382.511 20.5321   2
  -2   3  -8 381.968 29.6403   3
   3  -1  -8 356.879 23.4361   2
  -1  -2  -8 346.914 27.6414   3
  -2   3  -8 360.040 20.0136   2
  -2   3  -8 363.967 28.7984   3
  -1  -2  -8 376.903 25.9987   2
   1   2   8 391.272 25.7758   2
  -3   1   8 402.035 23.8862   2
   1   2   8 397.270 29.0929   3
  -3   1   8 399.519 24.3868   3
   4  -2  -8 1537.64 75.0600   2
  -2  -2  -8 1532.37 84.6410   3
  -2   4  -8 1636.01 67.7399   2
  -2   4  -8 1631.69 68.4855   2
   4  -2  -8 1606.74 75.3193   3
  -2   4  -8 1599.03 82.3996   3
   2   2   8 1438.94 78.4949   3
  -4   2   8 1416.44 74.6909   2
  -4   2   8 1456.60 73.4632   3
   5  -3  -8 408.277 29.5932   3
   5  -3  -8 412.038 29.6579   2
  -2   5  -8 424.953 22.2930   2
  -3  -2  -8 444.532 31.1380   2
  -2   5  -8 406.280 20.6477   2
  -2   5  -8 379.529 34.4375   3
  -5   3   8 414.461 30.5905   2
  -5   3   8 404.519 28.3718   3
   3   2   8 394.923 30.2433   2
   3   2   8 419.113 32.1517   3
  -3  -1  -8 542.009 34.6215   2
  -1   4  -8 552.895 38.6475   3
   4  -3  -8 549.094 35.8416   3
  -1   4  -8 561.827 38.5498   3
  -3  -1  -8 560.353 37.1103   3
   4  -3  -8 560.569 34.6044   2
   3   1   8 565.960 35.1138   2
   3   1   8 535.532 36.4363   3
  -4   3   8 549.315 34.8064   2
  -4   3   8 541.042 35.4648   3
   3  -3  -8 146.437 15.3932   2
   0   3  -8 146.112 17.0580   3
  -3   0  -8 144.205 17.3424   3
  -3   0  -8 150.132 15.7297   2
   0   3  -8 146.248 16.7377   3
   3  -3  -8 153.553 17.7813   3
   3   0   8 163.842 18.8721   3
  -3   3   8 142.833 17.6862   3
   3   0   8 154.849 15.4454   2
  -3   3   8 152.695 16.2380   2
   1   2  -8 5180.83 219.042   3
   1   2  -8 5169.20 219.828   3
  -3   1  -8 4939.73 222.811   3
   2  -3  -8 4992.49 223.468   3
  -3   1  -8 5062.99 218.814   2
   2  -3  -8 5194.98 219.998   2
   3  -1   8 5052.41 223.287   3
  -2   3   8 4952.77 223.956   3
   3  -1   8 4979.37 217.719   2
  -2   3   8 4861.95 219.216   2
  -3   2  -8 394.445 24.0849   2
   1  -3  -8 384.739 25.8932   2
   2   1  -8 385.400 23.0736   3
   1  -3  -8 384.801 28.7561   3
  -3   2  -8 347.396 27.8081   3
  -2  -1   8 368.983 17.9424   2
  -2  -1   8 351.803 22.9930   3
   3  -2   8 363.243 28.7204   3
  -1   3   8 364.970 28.6914   3
  -1   3   8 371.138 25.3465   2
  -3   3  -8 7051.67 292.746   2
  -3   3  -8 6714.83 301.269   3
   0  -3  -8 7065.35 297.004   2
   3   0  -8 6885.37 292.273   2
   0  -3  -8 6689.13 300.372   3
  -3   3  -8 6826.58 301.623   3
   3   0  -8 6829.12 291.495   3
   0   3   8 7051.07 296.811   2
  -3   0   8 6719.20 290.344   2
  -3   0   8 6902.02 291.627   2
   3  -3   8 6752.69 301.260   3
  -3   0   8 6816.04 291.284   3
   0   3   8 6962.50 301.470   3
  -3   4  -8 813.334 40.3346   2
  -3   4  -8 841.795 52.3026   3
  -3   4  -8 821.488 41.6279   2
  -1  -3  -8 852.375 46.9988   2
   4  -1  -8 839.761 44.2919   2
   4  -1  -8 830.530 41.8918   3
   1   3   8 808.204 49.9167   3
  -4   1   8 785.816 43.9247   2
  -4   1   8 773.136 40.5050   3
   1   3   8 809.227 46.5057   2
   5  -2  -8 2342.09 109.808   3
  -2  -3  -8 2430.31 115.011   2
   5  -2  -8 2356.55 113.100   2
  -3   5  -8 2389.30 105.962   2
  -3   5  -8 2488.12 122.890   3
  -3   5  -8 2457.07 108.191   2
  -5   2   8 2555.22 108.584   3
   2   3   8 2566.29 118.431   3
  -5   2   8 2465.02 114.628   2
   2   3   8 1998.17 122.545   2
  -3  -3  -8 3.28925 7.90403   2
   6  -3  -8 15.4612 7.99813   2
   6  -3  -8 7.94663 6.46663   3
  -3   6  -8 2.60120 10.2039   3
  -3   6  -8 -0.1050 4.66272   2
  -3   6  -8 6.56197 4.41230   2
  -6   3   8 7.70845 8.00125   2
   3   3   8 0.28333 6.63580   2
  -6   3   8 3.29056 6.13502   3
   3   3   8 -1.1497 9.23048   3
  -3   7  -8 311.923 35.4428   3
   7  -4  -8 308.866 27.4711   3
  -3   7  -8 295.778 19.6977   2
  -7   4   8 337.022 26.0751   3
  -7   4   8 326.481 31.7024   2
   4   3   8 305.212 30.7976   2
   4   3   8 299.916 29.5153   3
  -2   6  -8 1597.22 90.2338   3
   6  -4  -8 1524.92 82.0864   3
  -4  -2  -8 1521.15 85.6425   2
   6  -4  -8 1696.58 90.7340   2
  -2   6  -8 1601.99 70.5623   2
  -6   4   8 1602.37 84.3835   2
   4   2   8 1537.16 83.2152   2
   4   2   8 1656.85 87.3395   3
  -6   4   8 1624.06 81.7054   3
  -4  -1  -8 1248.50 65.8856   2
   5  -4  -8 1099.69 63.4706   2
  -1   5  -8 1078.03 67.8223   3
   5  -4  -8 1094.02 65.6274   3
  -5   4   8 1257.53 65.7746   2
   4   1   8 1249.58 65.2232   2
   4   1   8 1285.27 66.8161   3
  -5   4   8 1270.06 67.2238   3
  -4   0  -8 2868.46 132.625   2
   4  -4  -8 2803.31 135.329   3
   0   4  -8 2846.32 134.671   3
   4  -4  -8 2829.45 132.056   2
   0   4  -8 2759.00 133.188   3
   4   0   8 2854.26 131.490   2
  -4   4   8 2898.27 132.547   2
   4   0   8 2862.12 134.129   3
  -4   4   8 2914.85 136.916   3
   1   3  -8 525.989 33.2724   3
   3  -4  -8 583.916 35.8534   2
  -4   1  -8 573.609 35.3227   2
   1   3  -8 546.887 34.9649   3
  -3   4   8 581.291 40.7333   3
  -3   4   8 547.123 35.4645   2
   4  -1   8 602.444 38.2351   3
   4  -1   8 531.985 33.3842   2
   2   2  -8 1466.00 72.2173   3
  -4   2  -8 1506.22 74.7495   2
   2   2  -8 1412.38 70.4133   3
   2  -4  -8 1439.21 75.1972   2
  -2   4   8 1612.03 82.2108   3
  -2   4   8 1613.45 76.3279   2
   4  -2   8 1609.88 79.8996   3
  -4   3  -8 846.862 45.2662   2
   3   1  -8 801.461 40.6741   3
   1  -4  -8 793.914 46.5704   2
   3   1  -8 813.610 40.0193   3
  -4   3  -8 838.938 51.6524   3
   4  -3   8 845.905 51.4382   3
  -1   4   8 814.850 47.0702   2
  -3  -1   8 828.556 39.7576   2
  -1   4   8 844.090 52.2554   3
   4   0  -8 157.059 11.3144   3
  -4   4  -8 147.856 14.7149   2
  -4   4  -8 163.986 22.6506   3
   0  -4  -8 165.836 18.1696   2
  -4   4  -8 153.481 15.5519   2
  -4   0   8 154.023 23.7626   2
  -4   0   8 148.094 11.0529   3
   0   4   8 164.992 22.0733   3
  -1  -4  -8 554.563 36.6752   2
  -4   5  -8 580.188 44.3872   3
  -4   5  -8 533.083 31.1406   2
   5  -1  -8 550.578 27.2819   3
  -4   5  -8 587.004 33.7619   2
  -5   1   8 528.834 26.3606   3
   1   4   8 542.981 37.2978   2
   1   4   8 537.968 39.6699   3
  -5   1   8 534.915 35.8874   2
   6  -2  -8 413.613 22.3956   3
  -4   6  -8 399.620 39.1898   3
  -4   6  -8 407.874 27.3008   2
  -4   6  -8 386.052 24.9984   2
  -2  -4  -8 373.316 31.1033   2
   2   4   8 415.545 34.2781   3
  -6   2   8 394.507 21.1723   3
  -6   2   8 391.092 32.1805   2
   2   4   8 386.066 31.8364   2
  -4   7  -8 988.666 53.4218   2
  -4   7  -8 974.981 69.5785   3
   7  -3  -8 977.119 49.5726   3
  -4   7  -8 986.920 50.4962   2
   3   4   8 1025.89 61.4527   3
  -7   3   8 981.370 61.8435   2
  -7   3   8 1037.30 48.4844   3
   3   4   8 980.506 60.1948   2
  -2   7  -8 221.751 31.2654   3
  -2   7  -8 252.780 16.9263   2
  -7   5   8 284.288 28.7922   3
  -7   5   8 274.384 30.3715   2
   5   2   8 304.215 28.4509   3
   5   2   8 300.373 29.1412   2
  -5  -1  -8 152.987 22.0485   2
  -1   6  -8 171.571 24.7551   3
   6  -5  -8 148.453 20.9495   2
  -6   5   8 193.740 24.1715   2
   5   1   8 237.620 24.7110   3
   5   1   8 221.026 23.8935   2
  -6   5   8 226.371 27.4030   3
  -5   0  -8 1.59309 6.11667   2
   0   5  -8 11.3905 9.67151   3
   5  -5  -8 12.1840 8.85223   2
   5   0   8 7.10690 7.89231   2
  -5   5   8 23.5331 11.1512   2
  -5   5   8 6.39372 11.4007   3
   5   0   8 -1.3395 8.16708   3
   1   4  -8 1206.95 64.0094   3
  -5   1  -8 1282.95 66.9782   2
   4  -5  -8 1246.14 66.7159   2
   1   4  -8 1286.94 66.4504   3
   5  -1   8 1237.44 67.5957   3
   5  -1   8 1135.64 63.8889   2
  -4   5   8 1135.58 65.3842   2
  -4   5   8 1277.18 95.4763   3
   2   3  -8 419.881 34.0287   3
  -5   2  -8 431.720 30.8972   2
   2   3  -8 400.015 25.7218   3
   3  -5  -8 410.816 30.5842   2
  -3   5   8 436.550 31.3690   2
   5  -2   8 388.418 32.8007   3
  -3   5   8 432.349 43.5903   3
   3   2  -8 2499.27 109.152   3
  -5   3  -8 2558.84 118.614   2
   3   2  -8 2489.33 110.886   3
  -5   3  -8 2401.48 136.070   3
   2  -5  -8 2563.48 119.340   2
  -3  -2   8 2515.94 110.005   2
  -2   5   8 2454.60 125.132   2
  -2   5   8 2527.18 127.312   3
  -5   4  -8 526.584 34.4959   2
   1  -5  -8 560.345 37.6316   2
  -5   4  -8 542.982 42.4548   3
  -5   4  -8 537.305 35.9881   2
  -1   5   8 584.529 43.3938   3
  -4  -1   8 571.376 32.5699   2
  -1   5   8 611.154 38.9145   2
  -5   5  -8 1812.28 87.0776   2
  -5   5  -8 1806.65 99.9736   3
   0  -5  -8 1751.09 91.6257   2
  -5   5  -8 1780.59 89.1611   2
  -5   0   8 1861.41 92.5549   2
   0   5   8 1885.13 98.2554   3
   0   5   8 1852.89 92.5734   2
  -5   6  -8 253.960 32.3199   3
  -5   6  -8 284.180 23.5319   2
  -5   6  -8 280.696 21.1653   2
   1   5   8 213.306 24.3210   2
  -6   1   8 199.704 23.1484   2
   1   5   8 215.000 27.6237   3
  -5   7  -8 392.579 30.6943   2
  -5   7  -8 430.488 29.9689   2
  -5   7  -8 413.104 43.7753   3
   2   5   8 496.746 39.6637   3
   2   5   8 431.556 35.8968   2
  -7   2   8 438.062 37.6034   2
  -1   7  -8 165.834 26.6261   3
  -1   7  -8 163.986 12.3952   2
  -7   6   8 158.498 26.4337   3
   6   1   8 115.251 21.1160   2
  -7   6   8 171.434 27.2993   2
   6   1   8 152.111 21.8421   3
   0   6  -8 1578.22 86.7798   3
  -6   0  -8 1486.40 87.8796   2
   6  -6  -8 1621.41 85.3697   2
  -6   6   8 1527.57 91.9877   3
  -6   6   8 1586.39 85.7541   2
   6   0   8 1581.93 84.0705   2
   6   0   8 1581.77 83.6546   3
  -6   1  -8 176.626 23.1930   2
   1   5  -8 179.885 21.1755   3
   1   5  -8 203.951 22.4125   3
   5  -6  -8 202.255 25.5003   2
  -5   6   8 146.537 22.4914   2
   6  -1   8 193.816 23.4081   3
  -5   6   8 174.163 29.7033   3
  -6   2  -8 1615.87 85.3633   2
  -6   2  -8 1662.82 87.8654   3
   2   4  -8 1546.74 77.2725   3
   2   4  -8 1621.78 80.1459   3
  -4   6   8 1692.66 97.2430   3
   6  -2   8 1659.51 86.8798   3
  -4   6   8 1587.66 84.9756   2
   3   3  -8 -1.7363 5.24648   3
  -6   3  -8 3.30337 10.2161   3
  -6   3  -8 -3.3082 6.81610   2
   3   3  -8 7.16609 4.94663   3
   3  -6  -8 7.98026 8.87509   2
  -3   6   8 9.33669 9.43002   2
  -3   6   8 5.73478 11.8274   3
  -6   4  -8 374.470 30.9166   2
   2  -6  -8 393.759 32.2375   2
  -6   4  -8 416.947 37.1844   3
  -6   4  -8 402.376 30.8061   2
  -4  -2   8 429.197 26.5360   2
  -2   6   8 426.489 39.6918   3
  -6   5  -8 201.163 21.9142   2
  -6   5  -8 209.690 29.7661   3
  -6   5  -8 215.495 23.1447   2
  -1   6   8 303.223 26.7910   2
  -5  -1   8 262.605 22.6021   2
  -1   6   8 273.056 32.1739   3
  -6   6  -8 29.3901 16.4395   3
  -6   6  -8 35.8455 10.4747   2
  -6   6  -8 26.3898 10.5050   2
  -6   0   8 20.2913 12.0046   2
   0   6   8 45.6878 17.4713   3
   0   6   8 30.3230 11.3915   2
  -6   7  -8 1024.30 58.0276   2
  -6   7  -8 960.180 53.6653   2
  -6   7  -8 1030.06 70.9948   3
   1   6   8 948.933 64.3482   3
   1   6   8 870.859 58.7389   2
   1   6  -8 166.902 16.3849   2
  -7   1  -8 156.127 24.2741   3
  -6   7   8 156.792 25.3854   2
   7  -1   8 188.830 24.3959   3
  -6   7   8 176.760 33.8601   3
  -7   2  -8 307.720 31.1996   3
   2   5  -8 249.881 27.4676   3
   2   5  -8 299.957 24.2452   3
  -5   7   8 208.703 35.1940   3
  -5   7   8 235.607 28.3041   2
   3   4  -8 324.650 20.7524   3
   3   4  -8 317.249 20.0957   3
  -7   3  -8 355.497 34.4346   3
  -7   3  -8 316.749 35.9587   2
  -7   3  -8 317.787 30.1308   2
  -4   7   8 303.280 30.4073   2
  -4   7   8 297.530 40.4760   3
  -7   4  -8 992.359 59.7899   2
  -7   4  -8 1047.12 66.3594   3
  -7   4  -8 995.792 61.2208   2
  -3   7   8 980.654 61.5446   2
  -3   7   8 1090.20 74.8601   3
  -7   5  -8 434.732 40.8403   3
  -7   5  -8 434.803 36.2674   2
  -7   5  -8 435.284 33.4598   2
  -2   7   8 420.253 44.3252   3
  -5  -2   8 383.008 29.0624   2
  -2   7   8 355.602 36.1896   2
  -7   6  -8 921.826 59.8990   2
  -1   7   8 1035.72 62.8315   2
  -1   7   8 1057.65 70.3604   3
   0   0  -9 782.073 44.7348   3
   0   0  -9 785.340 39.3250   2
   0   0   9 803.504 45.1929   3
   0   0   9 833.210 38.8664   2
   0   1  -9 88.9358 7.72737   2
   1  -1  -9 94.4714 13.0995   3
   1  -1  -9 85.5158 9.89960   2
  -1   0  -9 72.5726 13.3132   3
   0   1  -9 98.4181 12.7439   3
  -1   0  -9 100.713 10.6744   2
   1   0   9 93.3018 14.4010   3
  -1   1   9 94.1913 13.7436   3
   0  -1   9 86.4074 5.81129   2
  -1   1   9 91.6056 10.0036   2
   1   0   9 87.9861 9.66907   2
   0  -1   9 87.2814 13.6555   3
  -1   1  -9 26.9157 5.53184   2
   1   0  -9 24.9454 7.02331   3
   1   0  -9 27.3429 5.64525   2
   0  -1  -9 27.5663 6.54692   2
   0   1   9 27.1192 9.39943   3
   1  -1   9 28.1041 9.10027   3
   1  -1   9 26.9039 6.06860   2
  -1   0   9 24.1513 8.17308   3
   0   1   9 35.5691 7.27538   2
  -1   0   9 25.9560 6.09414   2
  -1  -1  -9 478.233 32.3116   3
   2  -1  -9 485.278 27.4714   2
  -1   2  -9 516.084 23.8355   2
  -1  -1  -9 479.135 29.0230   2
   2  -1  -9 518.440 30.9177   3
  -1   2  -9 495.191 33.2732   3
   1  -2   9 446.020 32.1873   3
  -2   1   9 465.129 30.3683   3
   1   1   9 477.201 33.4361   3
  -2   1   9 432.686 26.3973   2
  -1   3  -9 261.108 23.9383   3
   3  -2  -9 271.927 20.5180   2
   3  -2  -9 285.447 22.2951   3
  -2  -1  -9 268.695 21.6390   2
  -1   3  -9 290.349 25.3972   3
  -3   2   9 273.641 20.4902   2
   2   1   9 275.841 21.4483   2
  -3   2   9 281.683 22.8556   3
   2   1   9 299.840 25.4310   3
  -2   0  -9 1636.79 79.2077   2
   0   2  -9 1639.09 82.0929   3
  -2   0  -9 1687.11 84.2221   3
   2  -2  -9 1697.59 82.7421   3
   2  -2  -9 1699.81 79.3188   2
   2   0   9 1674.77 84.3344   3
   2   0   9 1678.30 78.6318   2
  -2   2   9 1697.90 79.1351   2
  -2   2   9 1642.35 82.6266   3
   0  -2   9 1752.82 83.1708   3
   1  -2  -9 441.702 28.1603   2
   1  -2  -9 453.146 31.4395   3
  -2   1  -9 421.297 31.2786   3
  -2   1  -9 455.736 26.9824   2
   1   1  -9 457.188 23.4632   2
   1   1  -9 467.999 29.1791   3
   2  -1   9 505.352 26.4941   2
  -1  -1   9 479.484 29.8578   3
   2  -1   9 511.780 33.2827   3
  -1   2   9 496.365 32.5851   3
   2   0  -9 1149.01 58.2933   3
   0  -2  -9 1182.43 63.2083   3
   2   0  -9 1172.73 55.4817   2
  -2   2  -9 1211.47 55.4395   2
   0  -2  -9 1178.86 59.4873   2
  -2   2  -9 1136.52 63.2446   3
  -2   0   9 1179.91 53.9747   2
   2  -2   9 1208.51 64.2189   3
  -2   0   9 1184.50 58.9706   3
   0   2   9 1189.66 63.6119   3
   0   2   9 1205.80 59.2464   2
   3  -1  -9 774.431 39.5869   2
  -2   3  -9 782.996 46.8735   3
  -2   3  -9 727.549 50.7216   3
   3  -1  -9 755.649 40.4905   3
  -1  -2  -9 752.243 41.9909   2
   2  -3   9 731.880 46.1642   3
   1   2   9 698.973 41.1853   2
   1   2   9 695.268 45.0053   3
  -3   1   9 712.571 38.4737   2
  -3   1   9 706.623 40.1250   3
  -2   4  -9 273.223 15.0743   2
   4  -2  -9 273.193 21.4871   2
  -2  -2  -9 271.016 23.4789   2
  -2   4  -9 270.222 14.8580   2
  -2   4  -9 273.887 27.6069   3
   4  -2  -9 262.055 21.8041   3
   2   2   9 303.732 23.7920   2
  -4   2   9 289.408 22.1586   3
   2   2   9 296.670 26.6169   3
  -4   2   9 285.242 22.3504   2
  -3  -2  -9 142.270 18.6770   2
  -2   5  -9 144.512 22.1148   3
   5  -3  -9 141.320 18.2855   3
   5  -3  -9 156.237 17.8442   2
   3   2   9 184.537 22.1475   3
   3   2   9 163.546 19.6764   2
  -5   3   9 152.785 18.3522   3
   4  -3  -9 1131.34 59.9180   3
  -3  -1  -9 1089.40 58.5519   2
  -1   4  -9 1106.96 62.6937   3
   4  -3  -9 1073.43 57.1797   2
   3   1   9 1032.59 60.2465   3
   3   1   9 1003.01 56.9888   2
  -4   3   9 1045.44 64.1983   2
  -4   3   9 1140.51 59.8873   3
   0   3  -9 57.2182 12.7496   3
   3  -3  -9 35.2873 10.9754   3
   3  -3  -9 36.5651 8.36944   2
  -3   0  -9 34.6182 9.37287   2
   0   3  -9 29.5667 9.56626   3
  -3   3   9 40.2062 11.5467   3
  -3   3   9 42.0773 10.1164   2
   3   0   9 43.3085 12.6841   3
   3   0   9 32.9179 11.2673   2
   1   2  -9 284.122 22.2036   3
   1   2  -9 269.937 21.2046   3
   2  -3  -9 269.226 23.9527   3
   2  -3  -9 257.223 20.9679   2
  -3   1  -9 273.374 21.5323   2
  -2   3   9 259.634 21.2407   2
   3  -1   9 287.279 20.1105   2
   3  -1   9 277.528 24.5577   3
  -2   3   9 276.598 25.5829   3
  -1  -2   9 281.507 22.2741   3
   1  -3  -9 694.587 42.0132   2
   2   1  -9 719.005 40.0662   3
  -3   2  -9 720.129 39.9870   2
  -1   3   9 803.325 43.1795   2
   3  -2   9 766.287 46.8918   3
  -2  -1   9 783.108 41.5875   3
  -1   3   9 814.229 48.0485   3
   3   0  -9 303.141 20.5694   3
   0  -3  -9 299.332 23.4228   2
  -3   3  -9 285.415 27.6263   3
   3   0  -9 299.078 20.1765   2
  -3   3  -9 303.723 20.4502   2
  -3   0   9 325.363 21.1627   3
   0   3   9 322.382 24.4541   2
  -3   0   9 311.833 19.1427   2
   0   3   9 320.051 27.7987   3
   3  -3   9 287.938 27.1290   3
  -3   4  -9 1471.31 70.8729   2
   4  -1  -9 1486.60 70.1832   3
  -1  -3  -9 1554.19 75.5730   2
  -3   4  -9 1512.50 86.5328   3
   4  -1  -9 1410.31 71.1110   2
  -3   4  -9 1484.74 67.7344   2
   1   3   9 1443.13 78.1492   3
  -4   1   9 1442.29 68.9362   3
  -4   1   9 1411.97 71.1809   2
   1   3   9 1453.46 74.5706   2
  -3   5  -9 341.823 20.6784   2
  -2  -3  -9 323.848 27.4658   2
  -3   5  -9 324.020 19.0523   2
  -3   5  -9 366.288 34.0578   3
   5  -2  -9 327.804 25.1766   2
   5  -2  -9 311.373 23.1419   3
   2   3   9 321.019 29.8955   3
   2   3   9 301.305 26.8134   2
  -5   2   9 306.381 25.9572   2
  -5   2   9 306.994 22.3314   3
  -3   6  -9 751.976 38.9728   2
  -3   6  -9 748.969 36.7763   2
  -3  -3  -9 769.133 48.8858   2
   6  -3  -9 762.402 47.0044   2
  -3   6  -9 781.210 55.3910   3
   6  -3  -9 728.388 43.6477   3
  -6   3   9 747.407 42.3321   3
   3   3   9 761.406 50.2559   3
   3   3   9 775.687 48.8882   2
  -3   7  -9 54.0154 18.8878   3
  -3   7  -9 68.3487 11.0306   2
  -3   7  -9 61.3902 8.67859   2
   4   3   9 71.4457 17.5738   2
  -7   4   9 46.0747 16.0886   2
   4   3   9 61.1035 15.4354   3
  -7   4   9 55.6888 12.7932   3
   6  -4  -9 111.770 17.9983   2
  -2   6  -9 97.2616 20.8930   3
  -4  -2  -9 103.329 18.0688   2
   6  -4  -9 113.983 21.8385   3
   4   2   9 59.7225 13.8477   2
   4   2   9 77.8598 16.5881   3
  -6   4   9 64.9617 15.6761   2
  -6   4   9 57.6322 13.4185   3
  -4  -1  -9 320.880 27.4601   2
   5  -4  -9 278.749 25.4801   2
  -5   4   9 326.666 27.9214   2
   4   1   9 321.168 27.0805   2
  -5   4   9 312.001 28.6877   3
   4   1   9 348.087 29.7932   3
   0   4  -9 122.074 18.8273   3
  -4   0  -9 152.754 17.8462   2
   0   4  -9 122.680 17.7441   3
   4  -4  -9 141.577 17.0643   2
   4   0   9 124.309 16.1429   2
  -4   4   9 117.085 16.9488   2
  -4   4   9 131.840 20.8998   3
   4   0   9 122.009 18.6055   3
   1   3  -9 1045.78 58.2531   3
   3  -4  -9 1031.15 58.1233   2
   1   3  -9 1039.92 56.6057   3
  -4   1  -9 1013.03 57.2170   2
  -3   4   9 1169.53 59.4327   2
  -3   4   9 1127.36 64.3494   3
   4  -1   9 1186.56 62.8720   3
   2   2  -9 316.295 22.2206   3
  -4   2  -9 323.124 23.6387   2
   2   2  -9 281.882 20.3521   3
  -2   4   9 267.827 24.0553   2
  -2   4   9 264.025 28.2342   3
   4  -2   9 271.040 26.7335   3
   1  -4  -9 1469.37 76.0700   2
   3   1  -9 1492.06 70.1571   3
   3   1  -9 1470.91 69.4141   3
  -4   3  -9 1411.98 86.8095   3
  -4   3  -9 1463.47 73.5314   2
  -1   4   9 1749.91 109.178   3
  -1   4   9 1478.87 76.1267   2
  -3  -1   9 1453.81 66.2724   2
   4  -3   9 1608.26 85.4857   3
  -4   4  -9 227.808 18.3816   2
  -4   4  -9 226.024 19.4833   2
   0  -4  -9 254.203 22.7185   2
   4   0  -9 232.556 16.2451   3
  -4   4  -9 228.840 25.7147   3
   0   4   9 232.179 27.1979   3
  -4   0   9 252.652 18.9229   2
  -4   0   9 233.032 16.0055   3
   0   4   9 247.946 23.0739   2
  -4   5  -9 323.661 20.4463   2
   5  -1  -9 298.609 18.1943   3
  -4   5  -9 348.892 33.2038   3
  -1  -4  -9 299.329 26.1206   2
  -4   5  -9 326.219 23.9089   2
   1   4   9 252.204 28.3500   3
  -5   1   9 229.851 22.2570   2
   1   4   9 212.495 24.1177   2
  -5   1   9 226.729 16.0899   3
   6  -2  -9 102.611 14.2784   3
  -4   6  -9 124.130 12.5995   2
  -4   6  -9 131.035 25.8289   3
  -4   6  -9 101.862 13.5684   2
  -2  -4  -9 122.212 19.5682   2
  -6   2   9 83.8753 15.3505   2
   2   4   9 93.5713 19.3170   3
   2   4   9 84.8878 17.4469   2
  -6   2   9 104.728 10.4055   3
  -4   7  -9 21.0660 7.98972   2
  -4   7  -9 21.1399 8.44732   2
  -4   7  -9 12.8292 23.4373   3
   3   4   9 51.0765 15.6949   3
   3   4   9 50.3539 15.7275   2
  -2   7  -9 273.758 34.7815   3
  -7   5   9 314.589 30.8639   3
   5   2   9 341.059 31.8744   3
  -7   5   9 345.332 34.4568   2
   5   2   9 321.315 31.7642   2
  -5  -1  -9 492.028 39.2114   2
   6  -5  -9 541.062 39.5525   2
  -1   6  -9 548.504 54.7793   3
  -6   5   9 546.286 42.1275   3
   5   1   9 592.027 40.9717   2
   5   1   9 563.713 56.8858   3
  -6   5   9 545.956 41.5600   2
  -5   0  -9 321.934 28.8480   2
   0   5  -9 314.275 29.9680   3
   5  -5  -9 277.659 26.9429   2
  -5   5   9 301.033 28.1198   2
  -5   5   9 338.715 33.8312   3
   5   0   9 320.024 27.5509   2
   5   0   9 311.118 29.5646   3
  -5   1  -9 308.410 27.1497   2
   1   4  -9 328.223 27.4603   3
   4  -5  -9 308.967 27.1967   2
   1   4  -9 293.495 24.7169   3
   5  -1   9 328.242 29.4685   3
  -4   5   9 352.045 34.8765   3
  -4   5   9 278.182 26.5772   2
   5  -1   9 301.699 25.2058   2
   2   3  -9 139.208 16.4097   3
   2   3  -9 162.260 15.4506   3
  -5   2  -9 176.475 19.7217   2
   3  -5  -9 141.348 18.0314   2
   5  -2   9 172.693 22.4065   3
  -3   5   9 137.060 19.1115   2
  -3   5   9 135.405 24.4316   3
   2  -5  -9 298.555 26.7475   2
   3   2  -9 307.537 19.8295   3
  -5   3  -9 321.472 26.1205   2
  -5   3  -9 322.751 31.0353   3
   3   2  -9 316.298 21.2485   3
   5  -3   9 334.798 31.0130   3
  -2   5   9 334.351 28.2206   2
  -2   5   9 375.467 34.7102   3
   1  -5  -9 223.675 23.3853   2
  -5   4  -9 227.029 20.4187   2
  -5   4  -9 191.914 26.6616   3
  -5   4  -9 222.929 21.6318   2
  -1   5   9 295.365 25.5483   2
  -5   5  -9 480.097 30.9597   2
  -5   5  -9 457.556 32.6105   2
  -5   5  -9 471.430 42.3458   3
  -5   0   9 474.083 32.2346   2
   0   5   9 503.590 41.8066   3
   0   5   9 485.819 36.4851   2
  -5   6  -9 596.461 37.8760   2
  -5   6  -9 598.414 34.8065   2
  -5   6  -9 622.324 50.1210   3
   1   5   9 566.752 45.5498   3
   1   5   9 538.714 40.8704   2
  -6   1   9 534.768 39.7841   2
  -5   7  -9 359.017 41.0520   3
  -5   7  -9 371.543 25.5955   2
  -5   7  -9 388.201 28.9512   2
   2   5   9 314.422 32.1611   2
   2   5   9 358.302 35.5716   3
   0   6  -9 68.6570 17.4440   3
   6   0   9 57.1993 15.3015   3
  -6   6   9 70.4620 17.5880   2
  -6   6   9 63.0119 19.9807   3
   1   5  -9 563.560 39.9742   3
  -6   1  -9 547.886 40.7675   2
  -5   6   9 557.676 48.6131   3
   6  -1   9 541.441 45.4964   3
  -5   6   9 519.478 40.1318   2
  -6   2  -9 64.3618 14.9249   2
   2   4  -9 74.5909 12.6498   3
   4  -6  -9 48.8976 14.4976   2
   2   4  -9 75.2240 13.3243   3
  -4   6   9 78.6974 14.5768   2
  -4   6   9 135.753 27.1788   3
   6  -2   9 121.797 20.7046   3
   3   3  -9 727.099 38.7213   3
  -6   3  -9 786.630 49.1291   2
  -6   3  -9 828.342 54.7135   3
   3  -6  -9 733.416 48.7682   2
   3   3  -9 760.290 40.3409   3
  -3   6   9 794.866 50.0311   2
  -3   6   9 827.540 59.9955   3
   2  -6  -9 105.049 18.9069   2
  -6   4  -9 99.9173 22.0096   3
  -6   4  -9 101.842 16.8803   2
  -6   4  -9 104.851 17.3534   2
  -2   6   9 98.3832 16.5563   2
  -2   6   9 118.479 24.8637   3
  -6   5  -9 514.530 38.5471   2
  -6   5  -9 544.654 47.2123   3
  -6   5  -9 549.800 37.1177   2
  -1   6   9 584.874 41.7514   2
  -1   6   9 655.311 50.5170   3
  -6   6  -9 15.8330 15.2014   3
  -6   6  -9 8.43209 9.44548   2
  -6   6  -9 6.13205 8.98761   2
   0   6   9 10.0728 14.0019   3
   0   6   9 8.18967 8.55118   2
  -6   0   9 -0.2526 10.5088   2
  -7   2  -9 338.207 33.1869   3
   2   5  -9 314.578 25.7855   3
  -5   7   9 222.728 39.0874   3
  -5   7   9 239.700 29.2752   2
  -7   3  -9 63.8811 19.1353   3
  -7   3  -9 39.6601 11.7702   2
   3   4  -9 53.8378 9.37689   3
  -4   7   9 68.5848 16.1610   2
  -4   7   9 45.0959 25.2401   3
  -7   4  -9 41.1908 12.0371   2
  -7   4  -9 31.4738 15.0637   3
  -3   7   9 17.3577 23.7501   3
  -3   7   9 14.9453 11.1878   2
  -7   5  -9 297.617 37.3738   3
  -2   7   9 376.102 34.6598   2
  -2   7   9 420.572 43.2619   3
   0   0 -10 1.46307 3.42757   2
   0   0 -10 -0.6796 5.67227   3
   0   0  10 2.85481 3.01249   2
   0   0  10 -0.6934 6.51037   3
   1  -1 -10 777.854 40.7379   2
  -1   0 -10 779.302 46.8378   3
   1  -1 -10 763.993 45.2041   3
  -1   0 -10 814.347 41.3640   2
   0   1 -10 766.487 44.9899   3
   0   1 -10 816.146 37.6709   2
   1   0  10 822.108 47.8775   3
   1   0  10 794.197 40.2383   2
  -1   1  10 782.314 40.2360   2
  -1   1  10 765.096 45.9540   3
   0  -1  10 798.401 45.9388   3
   0  -1 -10 121.141 15.6527   3
  -1   1 -10 109.496 15.6527   3
   1   0 -10 135.484 11.4929   2
  -1   1 -10 127.504 11.4237   2
   0  -1 -10 139.904 13.3475   2
   1   0 -10 111.809 14.7585   3
  -1   0  10 122.215 15.3360   3
   0   1  10 145.226 13.1778   2
   0   1  10 125.243 16.5501   3
  -1   0  10 126.548 10.0262   2
   1  -1  10 136.845 9.98798   2
   1  -1  10 132.496 17.7752   3
   1  -2  10 106.989 16.5146   3
   1   1  10 120.306 17.7096   3
  -2   1  10 132.030 16.1133   3
  -2   1  10 118.740 11.8610   2
   1   1  10 125.417 13.1843   2
  -1   3 -10 89.3428 16.0590   3
   3  -2 -10 67.7468 10.9737   2
   3  -2 -10 85.1964 14.1689   3
  -2  -1 -10 104.890 14.0984   2
  -3   2  10 63.4548 12.9600   3
   2   1  10 76.2033 12.0191   2
  -3   2  10 70.4773 11.3267   2
   2   1  10 69.2409 14.6526   3
   2  -2 -10 108.239 15.6133   3
  -2   0 -10 108.747 15.5297   2
   0   2 -10 130.173 15.9038   3
   2  -2 -10 123.568 13.3472   2
  -2   2  10 119.713 16.3836   3
   2   0  10 125.595 17.9275   3
   0  -2  10 122.562 16.3947   3
  -2   2  10 129.825 14.0377   2
   2   0  10 127.048 13.2079   2
   0  -2 -10 18.8234 6.53373   2
   2   0 -10 31.1484 6.34904   2
  -2   2 -10 29.2302 6.37358   2
   2   0 -10 29.4448 8.37541   3
  -2   0  10 21.4373 4.73972   2
   2  -2  10 24.7011 9.81170   3
   0   2  10 27.1060 10.8375   3
  -2   0  10 29.2106 8.76944   3
  -2   3 -10 366.384 31.3391   3
   3  -1 -10 351.100 24.0637   2
  -2   3 -10 350.952 20.3433   2
   3  -1 -10 338.389 25.3608   3
  -1  -2 -10 352.501 26.8093   2
  -3   1  10 413.124 27.0329   3
  -3   1  10 397.154 23.9903   2
   1   2  10 410.476 27.4035   2
   2  -3  10 409.903 32.2087   3
   1   2  10 407.178 31.8182   3
  -2   4 -10 21.8653 3.70610   2
   4  -2 -10 22.8682 7.27571   2
  -2  -2 -10 21.9366 8.15770   2
   4  -2 -10 24.7446 8.83508   3
  -4   2  10 13.9001 7.65413   3
  -4   2  10 6.75151 5.85441   2
   2   2  10 9.79912 7.92107   2
   2   2  10 10.8002 9.31005   3
   5  -3 -10 164.957 18.3851   2
  -2   5 -10 175.239 24.0068   3
  -3  -2 -10 159.510 20.5503   2
   5  -3 -10 145.903 18.6163   3
  -5   3  10 112.598 17.8883   2
   3   2  10 129.398 20.7675   3
  -5   3  10 123.248 17.7407   3
   3   2  10 116.723 18.0123   2
  -1   4 -10 34.7981 12.1115   3
   4  -3 -10 34.8329 11.1292   3
  -3  -1 -10 30.9047 9.20547   2
   4  -3 -10 32.0347 9.42165   2
  -3   0 -10 390.353 28.0429   2
   3  -3 -10 413.590 28.2241   2
   0   3 -10 401.795 30.9538   3
   0   3 -10 373.233 29.7632   3
   3   0  10 418.543 32.8846   3
  -3   3  10 407.378 31.7904   3
   1   2 -10 70.6288 12.0585   3
   2  -3 -10 63.5235 11.5489   2
  -3   1 -10 68.2279 12.0684   2
   1   2 -10 72.9567 13.0970   3
   3  -1  10 91.1426 17.2535   3
   3  -1  10 71.3514 10.3858   2
  -2   3  10 82.0263 12.7779   2
  -2   3  10 81.0604 16.2206   3
  -1  -2  10 78.1564 13.7292   3
   2   1 -10 415.501 21.5438   2
   1  -3 -10 398.613 27.5949   2
  -3   2 -10 395.884 24.8000   2
   2   1 -10 378.214 25.3295   3
  -2  -1  10 357.156 25.7729   3
  -1   3  10 346.261 26.1386   2
  -1   3  10 336.094 30.4958   3
   3  -2  10 342.934 30.5109   3
   3   0 -10 43.2414 9.16462   3
  -3   3 -10 51.8013 8.63209   2
   0  -3 -10 33.5625 9.24783   2
   3   0 -10 40.6421 7.57033   2
   0   3  10 30.8309 8.07838   2
  -3   0  10 47.5768 9.71275   3
  -3   0  10 42.3976 7.22507   2
   4  -1 -10 6.15789 5.67418   3
  -3   4 -10 9.32498 4.72051   2
  -3   4 -10 6.57319 4.62450   2
  -1  -3 -10 4.21197 6.57156   2
   4  -1 -10 12.0021 5.88886   2
  -3   4 -10 14.6909 9.92141   3
  -4   1  10 24.0441 7.40971   3
   1   3  10 20.4557 9.61245   2
   1   3  10 16.5240 10.4068   3
   5  -2 -10 40.2943 10.1906   3
  -3   5 -10 56.7041 8.46308   2
   5  -2 -10 39.9784 10.4012   2
  -3   5 -10 54.3589 7.70835   2
  -3   5 -10 53.6599 16.3495   3
  -2  -3 -10 45.7954 12.5557   2
   2   3  10 97.6162 18.9869   3
  -5   2  10 79.9201 13.6680   2
  -3  -3 -10 54.2939 15.5307   2
   6  -3 -10 53.3684 12.6575   3
  -3   6 -10 58.9950 9.40381   2
  -3   6 -10 60.3427 18.8507   3
  -3   6 -10 39.8734 6.54720   2
   6  -3 -10 46.1893 10.5053   2
  -6   3  10 57.5872 11.3103   3
   3   3  10 76.6946 16.4986   2
   3   3  10 64.6044 17.3002   3
  -6   3  10 53.0129 13.1307   2
  -4  -2 -10 117.260 19.8211   2
  -2   6 -10 88.7467 20.8766   3
   6  -4 -10 86.1784 15.3334   2
  -6   4  10 69.2294 15.1723   3
  -6   4  10 74.9550 17.8613   2
   4   2  10 49.3625 13.7829   2
   4   2  10 75.0942 16.6767   3
  -4  -1 -10 133.563 19.2347   2
   5  -4 -10 120.558 17.6577   2
  -1   5 -10 135.771 21.4246   3
  -5   4  10 86.5068 16.8333   2
   4   1  10 95.6899 18.6829   3
   4   1  10 72.3275 13.7821   2
  -5   4  10 84.1232 17.8323   3
   0   4 -10 72.9380 15.2236   3
   4  -4 -10 50.6702 10.9177   2
  -4   0 -10 73.9210 14.5824   2
   4   0  10 70.7583 13.1808   2
  -4   4  10 69.1299 16.2436   3
  -4   4  10 57.7959 11.8895   2
   4   0  10 66.9547 16.0422   3
   3  -4 -10 97.1214 14.9438   2
  -4   1 -10 88.6680 14.1756   2
   1   3 -10 110.925 16.7369   3
   1   3 -10 101.279 14.7695   3
   2  -4 -10 13.2760 7.47970   2
  -4   2 -10 5.42773 5.91237   2
   2   2 -10 10.3721 6.74771   3
   2   2 -10 10.3632 7.00905   3
   4  -2  10 28.2884 11.4647   3
  -2   4  10 18.5981 7.82953   2
  -2   4  10 13.4070 11.2447   3
  -4   3 -10 13.6399 11.5465   3
  -4   3 -10 23.0616 7.86390   2
   3   1 -10 19.3489 6.65326   3
   1  -4 -10 15.7497 7.46321   2
  -1   4  10 1.51545 6.98770   2
   4  -3  10 15.3052 10.5130   3
  -1   4  10 11.0299 10.8564   3
  -4   4 -10 211.932 17.9788   2
   0  -4 -10 212.786 21.9159   2
   4   0 -10 229.348 16.9433   3
  -4   4 -10 217.127 18.9312   2
  -4   4 -10 231.518 27.4543   3
   0   4  10 240.836 28.0264   3
  -4   0  10 218.480 16.4780   3
  -4   0  10 224.465 17.7326   2
   0   4  10 196.165 21.9389   2
  -1  -4 -10 24.7869 10.7450   2
  -4   5 -10 33.5123 8.35199   2
  -4   5 -10 35.0649 7.69924   2
   5  -1 -10 20.8691 7.76592   3
  -4   5 -10 26.9178 12.6092   3
   1   4  10 77.8987 18.3175   3
  -4   6 -10 163.884 14.3863   2
   6  -2 -10 133.010 14.4285   3
  -4   6 -10 142.069 15.9201   2
  -4   6 -10 180.216 29.1279   3
  -6   2  10 201.191 14.6956   3
   2   4  10 215.133 26.7818   3
  -6   2  10 188.408 23.0847   2
  -5  -1 -10 -2.9382 10.7175   2
  -1   6 -10 5.09568 10.6731   3
  -6   5  10 7.89738 11.8718   3
   5   1  10 15.7770 11.8216   3
   5   1  10 12.2016 10.0233   2
  -6   5  10 11.2154 11.2979   2
  -5   0 -10 190.108 23.9446   2
   0   5 -10 207.017 25.6470   3
   5  -5 -10 183.923 22.2589   2
   5   0  10 207.963 22.7415   2
  -5   5  10 228.877 28.3148   3
   5   0  10 209.655 24.9879   3
  -5   5  10 201.374 24.1288   2
   1   4 -10 86.1030 16.0562   3
   4  -5 -10 80.5954 16.0574   2
   1   4 -10 75.2550 14.5405   3
  -5   1 -10 50.6785 12.0445   2
   5  -1  10 128.602 16.8029   2
  -4   5  10 139.165 24.1153   3
  -4   5  10 126.370 18.5288   2
  -5   2 -10 113.698 17.8421   2
   3  -5 -10 118.178 17.6572   2
   2   3 -10 133.331 15.1530   3
   2   3 -10 118.164 15.9564   3
  -3   5  10 143.229 19.3709   2
   5  -2  10 192.886 24.5351   3
  -3   5  10 176.288 27.1033   3
  -5   3 -10 101.345 16.2069   2
   2  -5 -10 105.999 17.6006   2
   3   2 -10 92.8252 11.5790   3
   3   2 -10 105.556 13.0210   3
  -5   3 -10 91.4305 19.1808   3
   4   1 -10 64.1398 8.43356   3
  -5   4 -10 97.4852 14.1069   2
  -5   4 -10 82.8997 19.7573   3
   1  -5 -10 80.3892 16.3419   2
  -5   4 -10 71.2338 13.7733   2
   4   1 -10 74.5851 8.93677   3
  -1   5  10 46.7757 16.8854   3
  -5   5 -10 3.01087 6.49139   2
   0  -5 -10 -1.0417 7.60796   2
  -5   5 -10 5.12966 5.79557   2
  -5   5 -10 2.46668 11.4782   3
   0   5  10 -2.2751 8.80158   2
  -5   0  10 9.67283 6.91267   2
   0   5  10 -1.8057 10.4731   3
  -5   6 -10 212.960 21.2678   2
  -5   6 -10 268.837 33.7073   3
  -5   6 -10 209.048 18.1146   2
   1   5  10 200.778 28.2730   3
   1   5  10 156.832 22.7056   2
  -6   1  10 164.169 22.6249   2
   5  -6 -10 16.6763 11.3832   2
   1   5 -10 14.8495 10.6501   3
  -5   6  10 1.87968 9.38586   2
   6  -1  10 8.34857 11.5866   3
  -5   6  10 7.84439 13.7322   3
   2   4 -10 62.5819 12.9241   3
  -6   2 -10 65.2487 16.0522   2
   2   4 -10 71.2470 14.2563   3
   6  -2  10 116.780 21.5424   3
  -4   6  10 121.121 26.6114   3
   3   3 -10 62.1946 10.6809   3
   3   3 -10 52.2552 9.19322   3
  -6   3 -10 55.9210 13.6421   2
  -6   3 -10 80.6156 20.0511   3
   3  -6 -10 79.9844 15.7941   2
  -3   6  10 31.7642 12.6760   2
  -3   6  10 39.9459 17.6907   3
  -6   4 -10 188.428 21.5158   2
   2  -6 -10 191.200 24.2574   2
  -6   4 -10 218.808 29.3552   3
  -6   4 -10 198.415 23.0283   2
  -2   6  10 140.095 21.8027   2
  -2   6  10 113.207 25.2052   3
  -6   5 -10 192.142 23.2652   2
  -6   5 -10 187.043 20.7357   2
  -6   5 -10 184.757 30.0748   3
  -1   6  10 220.752 25.8422   2
  -1   6  10 218.740 32.2707   3
   0   0 -11 3.44177 4.43419   2
   0   0  11 1.99399 7.38815   3
   0   0  11 3.04041 3.31042   2
   0   1 -11 54.5194 12.0158   3
   1  -1 -11 35.6111 7.52003   2
  -1   0 -11 39.4060 8.21238   2
   1  -1 -11 28.8533 11.4186   3
   0   1 -11 39.4350 6.49439   2
  -1   1  11 37.7752 7.99542   2
  -1   1  11 43.8304 11.7291   3
   1   0  11 35.2863 7.23242   2
   1   0  11 38.0727 11.4662   3
   0  -1  11 32.3877 10.6392   3
   1   0 -11 107.793 15.6324   3
   0  -1 -11 114.112 12.9345   2
   1   0 -11 109.819 10.8983   2
  -1   1 -11 119.086 11.1925   2
   0   1  11 113.211 17.7496   3
  -1   0  11 104.355 9.54449   2
   1  -1  11 116.391 18.4702   3
   0   1  11 114.924 12.3789   2
  -1   0  11 111.801 15.8837   3
   1  -1  11 108.013 9.44818   2
  -2   1  11 67.0863 13.2312   3
   1   1  11 58.6549 13.2931   3
   1   1  11 71.0853 11.0935   2
   1  -2  11 67.8512 14.9128   3
  -2   1  11 73.6290 9.99866   2
   2   1  11 95.8975 17.8232   3
  -3   2  11 68.2923 11.1688   2
   1  -3  11 49.1714 13.2968   3
  -3   2  11 77.4105 14.6959   3
   2  -2 -11 426.829 28.7386   2
  -2   0 -11 494.620 30.4455   2
   0   2 -11 455.387 37.5455   3
   2   0  11 436.299 28.2167   2
  -2   2  11 463.673 33.6482   3
   2   0  11 494.510 40.1607   3
  -2   2  11 450.591 28.9208   2
   0  -2  11 472.749 33.5088   3
   1   1 -11 72.9029 13.3374   3
   1   1 -11 67.6241 8.15417   2
  -2   1 -11 81.5868 11.2083   2
   1  -2 -11 79.2166 11.9576   2
   2  -1  11 120.931 17.6400   3
   2  -1  11 113.918 11.7954   2
  -1   2  11 113.070 18.0364   3
  -1   2  11 100.239 12.6179   2
  -1  -1  11 120.734 16.3547   3
   0  -2 -11 3.56572 5.10428   2
   2   0 -11 2.41023 6.67093   3
   2   0 -11 6.93132 4.42235   2
  -2   2 -11 5.16560 4.00596   2
   0   2  11 9.08744 8.79908   3
  -2   0  11 4.17594 3.44628   2
   2  -2  11 2.70214 8.07084   3
  -2   0  11 6.84624 6.82357   3
   3  -1 -11 27.9642 7.22658   2
   3  -1 -11 23.4580 9.21577   3
  -1  -2 -11 7.51336 6.29050   2
  -2   3 -11 23.7871 12.0112   3
   1   2  11 -0.2588 5.28905   2
  -3   1  11 0.93054 6.60598   3
  -3   1  11 -0.1610 4.33860   2
   2  -3  11 -0.3650 8.87261   3
   1   2  11 6.69518 8.52460   3
  -2  -2 -11 144.321 18.8562   2
   4  -2 -11 138.318 16.2505   2
   4  -2 -11 151.990 18.4440   3
  -2   4 -11 153.217 22.7717   3
   2   2  11 209.926 24.1526   3
  -4   2  11 180.006 19.4681   3
  -4   2  11 169.484 17.5389   2
   2   2  11 172.686 18.6143   2
   5  -3 -11 53.4447 12.4860   2
  -3  -2 -11 44.8891 13.0012   2
  -2   5 -11 58.3025 17.4295   3
   3   2  11 54.3541 12.3663   2
  -5   3  11 66.7047 12.8044   2
   3   2  11 101.369 19.8705   3
  -5   3  11 77.6679 14.8064   3
   3   1  11 28.6083 8.91401   2
  -4   3  11 47.4576 12.0645   2
   3   1  11 46.0222 14.7937   3
  -4   3  11 54.7429 13.4955   3
   3  -3 -11 93.0529 13.6959   2
  -3   0 -11 84.5774 13.7819   2
   0   3 -11 114.320 17.6302   3
  -3   3  11 100.787 15.3870   2
   3   0  11 86.0098 17.0377   3
  -3   3  11 110.489 19.3111   3
   3   0  11 96.0798 13.6902   2
  -3   1 -11 66.0531 11.4745   2
  -2   3  11 12.5907 9.91442   3
   3  -1  11 11.4092 10.8578   3
   2   1 -11 2.85094 5.92297   3
   1  -3 -11 3.97351 6.54333   2
  -3   2 -11 7.75651 5.28544   2
   3  -2  11 32.1796 13.1238   3
  -1   3  11 33.1148 12.4497   3
  -2  -1  11 17.4508 7.38691   3
  -1   3  11 24.6081 8.85215   2
  -3   3 -11 133.483 15.0094   2
  -3   3 -11 148.293 22.2448   3
   3   0 -11 135.859 13.0674   2
   0  -3 -11 124.470 16.5484   2
   3   0 -11 142.162 15.2231   3
   3  -3  11 130.266 21.4307   3
  -3   0  11 134.338 15.7215   3
   0   3  11 132.049 16.8116   2
   0   3  11 151.675 21.9103   3
  -3   0  11 132.426 11.1847   2
   4  -1 -11 11.0755 7.25631   3
  -1  -3 -11 -1.0903 7.19240   2
  -3   4 -11 7.89584 4.56062   2
  -3   4 -11 6.59903 4.23060   2
   4  -1 -11 16.2112 6.60973   2
  -3   4 -11 28.3386 13.3473   3
   1   3  11 43.2255 11.2093   2
  -2  -3 -11 58.1294 12.5700   2
  -3   5 -11 81.9769 8.41548   2
   5  -2 -11 70.2668 13.1132   3
  -3   5 -11 82.2141 20.5866   3
  -3   5 -11 75.0695 8.06592   2
   5  -2 -11 77.1671 13.7562   2
  -3   6 -11 44.3014 17.5475   3
   6  -3 -11 41.4202 12.8678   2
   6  -3 -11 47.1210 16.4121   3
   3   3  11 42.3521 15.5897   3
  -6   3  11 50.7773 15.2753   2
   3   3  11 32.1477 11.0155   2
  -6   3  11 31.6538 10.1855   3
   4   2  11 44.0686 13.0193   2
   4   2  11 55.4702 16.6247   3
  -1   5 -11 24.7584 13.7766   3
  -4  -1 -11 31.1150 11.2272   2
   5  -4 -11 16.4286 8.75458   2
  -5   4  11 13.8040 12.0365   3
   4   1  11 8.57964 10.8680   3
  -5   4  11 18.6823 10.2081   2
   4   1  11 19.9443 9.74832   2
   0   4 -11 170.604 22.5059   3
   4  -4 -11 175.481 20.4212   2
  -4   0 -11 157.262 20.0403   2
   4   0  11 191.680 24.0720   3
   4   0  11 171.385 18.9637   2
  -4   4  11 160.797 23.3544   3
  -4   4  11 144.376 19.2945   2
   3  -4 -11 41.7353 11.3149   2
   1   3 -11 44.6152 12.6070   3
   1   3 -11 28.5510 10.6041   3
  -4   1 -11 45.7780 11.5260   2
  -4   2 -11 182.248 18.5226   2
   2  -4 -11 186.607 19.8447   2
   2   2 -11 200.211 19.3470   3
   2   2 -11 202.334 19.1625   3
  -2   4  11 134.182 17.8881   2
  -2   4  11 143.763 23.9161   3
   4  -2  11 147.879 23.1507   3
   1  -4 -11 39.1915 11.2595   2
   3   1 -11 39.8388 9.26722   3
  -4   3 -11 41.0080 14.6553   3
   3   1 -11 32.8466 9.27096   3
  -4   3 -11 31.7888 9.07938   2
  -1   4  11 13.2670 10.6137   3
  -4   4 -11 29.0996 8.54613   2
  -4   4 -11 35.7543 7.97557   2
   4   0 -11 23.5565 7.71889   3
   0  -4 -11 8.15998 9.21248   2
  -4   4 -11 30.8088 14.4332   3
   0   4  11 27.0781 12.6981   3
   0   4  11 22.7715 9.98610   2
  -4   0  11 31.8389 9.28919   3
  -4   0  11 17.1167 5.98331   2
  -4   5 -11 136.244 13.3085   2
  -4   5 -11 137.894 14.3216   2
  -1  -4 -11 123.256 18.8842   2
  -4   5 -11 148.483 24.0968   3
   5  -1 -11 126.803 14.4436   3
   1   4  11 75.7323 19.4411   3
  -4   6 -11 3.20957 6.02407   2
  -4   6 -11 3.09246 4.71000   2
  -4   6 -11 0.35204 18.7247   3
   2   4  11 11.5404 13.6065   3
   2   4  11 19.2013 9.82782   2
  -1   6 -11 78.3883 19.9589   3
   5   1  11 40.6442 12.7264   2
  -6   5  11 45.0360 16.8647   3
   5   1  11 57.0323 16.9220   3
  -6   5  11 47.1075 15.2348   2
   5  -5 -11 2.69294 8.44880   2
   0   5 -11 5.88653 10.1611   3
  -5   0 -11 9.00066 9.43908   2
   5   0  11 13.0159 11.4037   3
  -5   5  11 8.49762 9.24670   2
  -5   5  11 17.5873 13.5974   3
   5   0  11 2.32111 7.78520   2
  -5   1 -11 26.0495 10.6754   2
   4  -5 -11 30.9058 10.9470   2
   1   4 -11 26.8910 11.2915   3
  -4   5  11 18.9423 13.5200   3
  -4   5  11 21.4287 10.7691   2
   5  -1  11 19.9333 12.5141   3
  -5   2 -11 63.6780 12.1307   2
   2   3 -11 61.9256 12.2502   3
   2   3 -11 73.0657 13.6503   3
   3  -5 -11 73.6804 15.5830   2
  -3   5  11 44.7607 17.8614   3
  -3   5  11 52.0093 14.7414   2
   5  -2  11 50.7958 15.1116   3
   2  -5 -11 170.873 21.1313   2
  -5   3 -11 200.019 26.5614   3
   3   2 -11 163.768 15.5801   3
   3   2 -11 186.975 17.5250   3
  -5   3 -11 166.242 20.3075   2
  -2   5  11 113.623 20.4473   2
  -5   4 -11 87.1881 14.6130   2
  -5   4 -11 78.1243 20.3213   3
  -5   4 -11 95.1698 15.9536   2
   1  -5 -11 66.5129 13.4774   2
   4   1 -11 88.9230 10.9696   3
  -1   5  11 108.722 20.7936   2
  -1   5  11 129.112 24.4702   3
  -5   5 -11 7.52510 6.97313   2
  -5   5 -11 6.78225 12.3892   3
  -5   5 -11 12.8510 9.00953   2
   0  -5 -11 7.66782 9.82502   2
   0   5  11 9.39624 13.0972   3
   0   5  11 21.1919 11.6619   2
  -5   0  11 5.40922 7.74817   2
  -5   6 -11 151.877 16.1218   2
  -5   6 -11 159.791 28.9183   3
  -5   6 -11 147.354 18.8314   2
   1   5  11 211.444 25.2217   2
   1   5 -11 34.7986 13.3824   3
   6  -1  11 58.3119 17.7198   3
  -5   6  11 83.8001 22.7510   3
  -5   6  11 67.0500 18.9720   2
  -4   6  11 142.104 23.2677   2
  -4   6  11 122.644 27.2509   3
   6  -2  11 186.427 26.6219   3
   3   3 -11 52.8990 10.5762   3
   3  -6 -11 20.9291 11.3323   2
  -6   3 -11 37.0897 13.0808   2
  -6   3 -11 39.1118 16.8178   3
  -3   6  11 66.9990 23.3617   3
  -3   6  11 41.4004 13.1552   2
  -6   4 -11 19.9109 10.7511   2
   2  -6 -11 18.5787 14.3349   2
  -6   4 -11 48.8617 18.3223   3
  -6   4 -11 22.0378 11.2366   2
  -2   6  11 3.15330 10.2995   2
  -6   5 -11 202.874 20.8756   2
  -6   5 -11 198.770 24.0374   2
  -6   5 -11 199.849 31.8379   3
  -1   6  11 154.598 23.8392   2
  -1   6  11 140.130 28.0936   3
   0   0 -12 4544.22 196.365   2
   0   0  12 4537.73 205.899   3
   0   0  12 4521.55 194.730   2
  -1   0 -12 277.282 20.4328   2
   0   1 -12 282.264 17.4090   2
   1  -1 -12 255.416 19.9888   2
  -1   1  12 294.693 26.3310   3
   1   0  12 297.844 32.6769   3
   0  -1  12 289.710 26.1420   3
  -1   1  12 266.008 20.1096   2
   1   0 -12 325.193 20.4411   2
   0  -1 -12 297.142 22.4367   2
  -1   1 -12 290.852 19.7529   2
   0   1  12 313.179 21.7196   2
  -1   0  12 312.022 18.3592   2
  -1   0  12 310.839 27.3105   3
   1  -1  12 346.609 33.7884   3
   1  -1  12 304.028 18.0040   2
  -1   2 -12 912.988 42.5429   2
   2  -1 -12 901.911 47.0416   2
  -2   1  12 883.923 52.4130   3
   1   1  12 942.615 56.1704   3
  -2   1  12 902.272 45.6403   2
   1   1  12 874.243 48.0810   2
  -1   3 -12 226.755 24.5350   3
   3  -2 -12 197.671 18.2145   2
  -2  -1 -12 207.251 20.2539   2
   1  -3  12 150.475 21.9413   3
  -3   2  12 172.606 21.4302   3
  -3   2  12 149.795 16.2558   2
   2   1  12 135.643 16.6433   2
   2   1  12 148.446 22.7666   3
   2  -2 -12 2477.91 119.231   2
  -2   0 -12 2599.68 119.933   2
   0   2 -12 2661.60 110.932   2
   0  -2  12 2672.67 125.974   3
   2   0  12 2483.56 118.060   2
  -2   2  12 2533.37 118.866   2
  -2   2  12 2690.91 126.537   3
   2   0  12 2720.38 128.848   3
   1  -2 -12 921.564 53.6244   2
  -2   1 -12 921.362 47.4855   2
   1   1 -12 928.347 43.3048   2
  -1   2  12 898.559 56.5264   3
  -1  -1  12 898.029 52.2487   3
   2  -1  12 857.016 45.0785   2
   2  -1  12 925.177 56.5551   3
  -1   2  12 892.677 48.4767   2
   2   0 -12 1775.01 82.0457   2
   0  -2 -12 1780.93 87.1697   2
   2   0 -12 1793.23 88.3841   3
  -2   2 -12 1742.76 90.1723   2
  -2   0  12 1745.59 78.8093   2
   0   2  12 1739.76 85.9181   2
   2  -2  12 1802.69 94.3000   3
  -2   0  12 1810.53 88.7521   3
   0   2  12 1881.64 95.2178   3
   3  -1 -12 635.380 40.4167   3
  -2   3 -12 690.050 47.4866   3
   3  -1 -12 666.717 37.3642   2
  -2   3 -12 629.038 32.0108   2
  -1  -2 -12 622.011 40.0920   2
  -3   1  12 647.577 35.8718   2
   2  -3  12 657.853 46.4794   3
  -3   1  12 652.447 40.9215   3
   1   2  12 678.881 47.2453   3
  -2  -2 -12 629.539 41.7577   2
  -2   4 -12 701.000 48.7183   3
   4  -2 -12 666.379 39.3854   2
  -4   2  12 652.243 41.7290   3
   2   2  12 649.478 47.4112   3
  -4   2  12 609.931 40.2087   2
   2   2  12 588.698 40.4278   2
  -2   5 -12 140.071 25.0456   3
  -3  -2 -12 136.028 21.5183   2
   5  -3 -12 151.600 18.3996   2
  -5   3  12 138.087 19.7235   2
  -5   3  12 162.997 20.7670   3
   3   2  12 171.276 25.2065   3
   3   2  12 157.089 20.4040   2
  -3  -1 -12 1322.35 68.7919   2
   4  -3 -12 1180.27 64.7540   2
  -1   4 -12 1243.50 72.1111   3
   3   1  12 1241.51 65.8653   2
   3   1  12 1238.15 72.7047   3
  -4   3  12 1154.53 64.6745   2
  -4   3  12 1227.28 74.9125   3
   0   3 -12 19.2691 10.8404   3
  -3   0 -12 16.5073 8.15118   2
   3  -3 -12 26.2009 7.84267   2
  -3   3  12 12.8508 7.94807   2
  -3   3  12 23.1140 11.6907   3
   3   0  12 11.4869 7.10767   2
   3   0  12 8.15464 10.1874   3
   2  -3 -12 159.485 18.6834   2
  -3   1 -12 140.947 16.9394   2
  -2   3  12 219.415 21.8106   2
  -2   3  12 241.514 25.9657   3
   3  -1  12 213.883 25.5022   3
   3  -1  12 200.171 17.2420   2
  -1  -2  12 183.066 21.1216   3
   1  -3 -12 655.758 40.5177   2
  -3   2 -12 648.202 36.8446   2
   2   1 -12 674.230 32.9601   2
   2   1 -12 612.147 38.9021   3
  -1   3  12 521.990 43.1651   2
  -1   3  12 679.097 46.9995   3
  -2  -1  12 644.667 40.3422   3
   3  -2  12 665.115 46.7368   3
  -3   3 -12 23.6377 7.01405   2
   3   0 -12 20.8195 8.90425   3
   3   0 -12 28.9978 6.95583   2
   0  -3 -12 12.5358 8.08371   2
   3  -3  12 34.2718 13.1431   3
   0   3  12 18.7103 7.62499   2
   0   3  12 21.4138 13.0782   3
  -3   0  12 22.6321 5.37789   2
  -3   0  12 13.9776 8.15745   3
  -3   4 -12 1470.14 83.5768   3
   4  -1 -12 1421.37 70.7142   2
   4  -1 -12 1475.28 72.8070   3
  -3   4 -12 1439.26 65.4783   2
  -1  -3 -12 1465.01 77.2120   2
  -3   4 -12 1429.84 65.2278   2
   1   3  12 1342.78 74.2483   2
   1   3  12 1409.67 81.5246   3
  -4   1  12 1359.24 70.8847   3
  -4   1  12 1379.85 68.8927   2
  -3   5 -12 57.3597 17.9205   3
  -2  -3 -12 55.2845 14.1430   2
   5  -2 -12 48.2667 10.4103   2
   5  -2 -12 48.8997 12.2428   3
  -5   2  12 19.1987 10.1110   2
   2   3  12 24.8084 8.88916   2
  -5   2  12 34.3635 10.6690   3
   2   3  12 28.0367 14.1280   3
   5  -4 -12 464.822 37.9515   2
  -1   5 -12 489.654 41.3781   3
   4   1  12 478.976 36.3883   2
  -5   4  12 498.949 39.1213   3
   4   1  12 515.727 41.5735   3
   4  -4 -12 262.932 24.8652   2
   0   4 -12 285.847 28.7903   3
  -4   0 -12 268.589 26.0560   2
   4   0  12 276.674 30.7670   3
  -4   4  12 277.518 29.8581   3
  -4   4  12 247.743 31.2387   2
  -4   1 -12 1294.50 68.4187   2
   3  -4 -12 1267.92 67.9267   2
   1   3 -12 1226.82 68.2677   3
  -3   4  12 1269.52 68.1609   2
  -3   4  12 1227.73 74.1199   3
   4  -1  12 1187.69 63.9940   2
   4  -1  12 1235.75 73.3675   3
   2   2 -12 620.159 39.4668   3
  -4   2 -12 590.243 39.0721   2
   2   2 -12 627.495 40.2629   3
   2  -4 -12 636.418 41.8152   2
  -2   4  12 685.403 42.4075   2
   4  -2  12 693.908 48.3053   3
  -2   4  12 669.661 49.4883   3
   3   1 -12 1362.64 70.5499   3
   1  -4 -12 1402.66 75.8916   2
  -4   3 -12 1398.41 71.3036   2
  -4   3 -12 1441.19 83.5673   3
   3   1 -12 1352.08 70.9831   3
   4  -3  12 1486.43 83.3238   3
  -1   4  12 1444.06 83.1177   3
  -3  -1  12 1485.42 71.8402   3
  -1   4  12 1453.96 75.7682   2
   0  -4 -12 191.591 23.7963   2
   4   0 -12 203.271 18.3645   3
  -4   4 -12 206.678 28.8232   3
  -4   4 -12 215.461 17.9680   2
  -4   4 -12 216.521 18.4709   2
  -4   0  12 212.744 18.5637   2
  -4   0  12 217.065 18.8764   3
   0   4  12 229.209 29.5972   3
   0   4  12 190.297 22.4631   2
  -1  -4 -12 481.939 40.3972   2
   5  -1 -12 440.988 38.0180   3
  -4   5 -12 527.294 30.0086   2
  -4   5 -12 546.971 31.1355   2
  -4   5 -12 496.621 45.8446   3
  -5   1  12 555.970 31.7498   3
   1   4  12 554.568 40.0352   2
   1   4  12 607.567 46.8856   3
  -5   1  12 544.495 34.6200   2
   0   5 -12 258.468 29.5152   3
   5   0  12 267.561 26.9343   2
  -5   5  12 268.198 31.3792   3
  -5   5  12 274.477 29.7683   2
   5   0  12 279.981 31.6530   3
   4  -5 -12 513.398 55.3546   2
  -5   1 -12 461.037 37.4139   2
  -4   5  12 461.151 36.7770   2
   5  -1  12 450.501 34.0881   2
   5  -1  12 490.730 40.8929   3
  -4   5  12 473.753 43.0503   3
   3  -5 -12 174.235 22.2073   2
   2   3 -12 154.901 19.5852   3
  -5   2 -12 126.870 19.3684   2
   2   3 -12 164.655 19.2999   3
  -3   5  12 133.645 20.5040   2
  -3   5  12 131.604 25.2628   3
   5  -2  12 173.138 25.8672   3
   2  -5 -12 32.1893 11.5087   2
   3   2 -12 29.1198 9.41725   3
  -5   3 -12 32.4037 10.2625   2
  -5   3 -12 50.7862 18.0454   3
   3   2 -12 28.3911 8.82006   3
  -2   5  12 43.0620 12.4643   2
  -2   5  12 64.7523 20.4476   3
   5  -3  12 42.7749 16.5158   3
  -5   4 -12 577.091 38.1062   2
  -5   4 -12 566.931 36.6130   2
  -5   4 -12 601.223 48.9321   3
   1  -5 -12 611.045 45.2901   2
  -1   5  12 542.278 48.4444   3
  -1   5  12 519.412 40.4557   2
   5   0 -12 62.3676 12.3476   3
  -5   5 -12 80.4295 14.5891   2
  -5   5 -12 50.6963 18.1473   3
  -5   5 -12 72.6473 12.7025   2
   0   5  12 63.7490 20.2701   3
   0   5  12 74.8188 18.7858   2
   0   0 -13 22.7923 6.49981   2
   0   0  13 13.3523 4.87704   2
   0   0  13 7.72539 9.90540   3
   0   1 -13 1511.87 69.7840   2
  -1   0 -13 1558.55 74.1115   2
   1  -1 -13 1490.66 73.4505   2
  -1   1  13 1507.57 81.5035   3
   0  -1  13 1586.72 82.5545   3
  -1   1  13 1457.45 71.8066   2
   1   0  13 1516.54 72.1509   2
   1   0  13 1574.53 84.0613   3
   0  -1 -13 305.308 23.0846   2
   1   0 -13 324.940 21.0572   2
  -1   1 -13 330.478 25.5220   2
   0   1  13 301.492 22.1449   2
  -1   0  13 289.924 18.2458   2
   0   1  13 306.344 30.0519   3
   1  -1  13 321.125 30.3811   3
  -1   0  13 315.751 33.2102   3
  -1   2 -13 744.423 35.9375   2
  -1  -1 -13 768.468 43.3733   2
   2  -1 -13 722.830 40.4838   2
   1   1  13 729.037 41.6053   2
   1  -2  13 728.251 49.1866   3
  -2   1  13 703.215 38.6095   2
  -2   1  13 757.050 48.1511   3
   1   1  13 688.533 49.1750   3
  -2  -1 -13 55.7248 12.0840   2
  -1   3 -13 61.7219 16.3328   3
   3  -2 -13 45.2836 10.0324   2
   2   1  13 73.8251 13.2026   2
   2   1  13 80.3163 17.7530   3
   1  -3  13 70.6556 16.6698   3
  -3   2  13 71.1270 16.3528   3
  -3   2  13 72.8545 14.8819   2
   2  -2 -13 87.9384 13.3469   2
   0   2 -13 87.5058 7.31897   2
  -2   0 -13 72.1513 12.6057   2
   2   0  13 99.7289 19.5836   3
   2   0  13 81.3181 13.0549   2
  -2   2  13 66.9720 11.5808   2
  -2   2  13 78.0904 17.7793   3
   0  -2  13 78.1536 16.5299   3
   1   1 -13 719.691 36.2135   2
   1  -2 -13 713.216 42.2588   2
  -2   1 -13 717.280 40.3576   2
  -1   2  13 699.218 41.3598   2
  -1   2  13 744.161 50.1519   3
   2  -1  13 698.010 37.9329   2
   2  -1  13 803.523 51.5831   3
  -1  -1  13 752.335 46.6363   3
   2   0 -13 418.862 25.5552   2
  -2   2 -13 429.965 25.4356   2
   0  -2 -13 417.583 30.2016   2
   0   2  13 447.010 37.4422   3
  -2   0  13 398.933 21.7482   2
   2  -2  13 428.837 36.9224   3
  -2   0  13 394.469 31.4727   3
   0   2  13 409.523 29.1201   2
  -1  -2 -13 472.698 34.9032   2
  -2   3 -13 504.522 41.3614   3
   3  -1 -13 558.851 32.6040   2
  -2   3 -13 521.178 26.7294   2
  -3   1  13 479.122 29.5307   2
   1   2  13 500.865 40.6981   2
   2  -3  13 542.940 42.3385   3
  -3   1  13 513.217 36.5618   3
   1   2  13 520.150 41.8730   3
   4  -2 -13 384.177 28.6435   2
  -2  -2 -13 409.488 32.7972   2
  -2   4 -13 436.894 38.9244   3
   2   2  13 471.754 39.7138   3
   2   2  13 385.357 30.8102   2
  -4   2  13 402.990 28.8964   2
  -4   2  13 412.901 32.2425   3
  -2   5 -13 611.527 49.0856   3
   3   2  13 630.203 66.1289   3
   3   2  13 577.261 42.4011   2
  -5   3  13 624.948 42.5648   3
   4  -3 -13 2.09695 6.85396   2
  -3  -1 -13 -9.8912 5.99128   2
  -1   4 -13 -1.6111 9.19501   3
  -4   3  13 11.9525 8.70246   2
   3   1  13 7.67440 11.8763   3
  -4   3  13 7.66569 10.9205   3
   0   3 -13 1117.02 72.1246   3
   3  -3 -13 1090.69 60.0658   2
  -3   0 -13 1166.59 62.5752   2
  -3   3  13 1108.69 66.5352   3
   3   0  13 1058.92 58.4455   2
   3   0  13 1144.99 68.8269   3
  -3   3  13 1055.78 59.3844   2
  -3   1 -13 81.0614 12.9855   2
   2  -3 -13 61.9275 11.5371   2
  -1  -2  13 53.2096 14.1349   3
   3  -1  13 41.8792 9.32062   2
  -2   3  13 57.0618 12.2674   2
   3  -1  13 52.2858 15.6906   3
  -2   3  13 58.9260 17.2525   3
   1  -3 -13 497.195 34.9736   2
   2   1 -13 498.228 27.4270   2
  -3   2 -13 492.368 31.3621   2
  -2  -1  13 526.190 36.1896   3
   3  -2  13 553.760 43.2020   3
  -1   3  13 508.981 41.9884   3
  -3   3 -13 32.4942 7.73253   2
   3   0 -13 29.3766 7.28075   2
   0  -3 -13 25.9231 9.65145   2
   0   3  13 18.4672 11.9298   3
   3  -3  13 14.2129 12.3547   3
   0   3  13 35.4790 10.2931   2
  -3   0  13 34.5880 10.2642   3
  -3   4 -13 181.971 27.4546   3
   4  -1 -13 149.322 23.5845   3
   4  -1 -13 150.889 16.6697   2
  -3   4 -13 170.242 13.0706   2
  -3   4 -13 166.176 13.0951   2
  -4   1  13 130.302 17.7357   3
   1   3  13 126.929 18.9764   2
   1   3  13 156.262 26.0780   3
  -3   5 -13 351.960 51.6276   3
   5  -2 -13 309.180 26.7848   2
  -5   2  13 364.388 28.3018   3
   2   3  13 356.206 55.1791   3
   2   3  13 330.794 31.3431   2
   4  -4 -13 272.397 32.3380   2
   0   4 -13 331.062 31.9446   3
  -4   0 -13 332.275 32.2456   2
  -4   4  13 356.812 37.7578   2
   4   0  13 365.604 36.2297   3
  -4   4  13 332.079 33.3261   3
   4   0  13 307.745 27.6815   2
   3  -4 -13 8.38933 8.18315   2
   1   3 -13 19.1853 10.6930   3
  -4   1 -13 3.97799 7.06869   2
   4  -1  13 -6.2975 10.3340   3
   4  -1  13 5.19676 6.58505   2
  -3   4  13 1.19654 10.8691   3
   2  -4 -13 421.171 33.0145   2
   2   2 -13 443.184 32.8731   3
  -4   2 -13 445.641 31.1052   2
  -2   4  13 409.962 39.0321   3
  -2   4  13 377.247 31.5495   2
   4  -2  13 417.749 38.9633   3
   1  -4 -13 146.062 23.5549   2
   3   1 -13 148.267 18.0954   3
   3   1 -13 118.853 17.1025   3
  -4   3 -13 128.692 24.5745   3
  -1   4  13 184.573 27.8050   3
   4  -3  13 190.278 26.8937   3
  -1   4  13 142.908 19.4133   2
  -3  -1  13 167.077 18.4637   3
  -4   4 -13 716.550 53.5047   3
  -4   4 -13 629.983 37.2819   2
  -4   4 -13 636.422 36.8346   2
   0   4  13 584.172 43.1844   2
   0   4  13 724.094 53.5081   3
  -4   0  13 644.718 38.9650   3
   2   3 -13 612.892 41.4682   3
  -3   5  13 622.578 44.3478   2
  -3   5  13 622.409 51.8512   3
   3   2 -13 360.760 27.3811   3
  -5   3 -13 337.138 29.0859   2
  -5   3 -13 366.506 43.6518   3
  -2   5  13 335.851 58.8569   3
   5  -3  13 323.408 40.7751   3
  -2   5  13 286.067 30.0611   2
   0   0 -14 3.15019 4.85382   2
   0   0  14 0.54794 9.92204   3
   0   0  14 -0.5169 4.37891   2
  -1   0 -14 11.2503 6.42070   2
   0   1 -14 8.47632 5.03994   2
   1  -1 -14 5.99334 5.57924   2
  -1   1  14 0.30816 5.04023   2
   0  -1  14 17.5552 10.9772   3
   1   0  14 6.83081 5.69114   2
   1   0  14 5.92475 11.2611   3
  -1   1  14 7.29117 10.2932   3
   0  -1 -14 84.6857 12.8779   2
  -1   1 -14 94.0284 11.4169   2
   1   0 -14 99.2702 11.8613   2
   0   1  14 80.7007 12.4296   2
   0   1  14 86.0113 19.6144   3
  -1   0  14 84.5788 17.4237   3
   1  -1  14 74.3875 17.1817   3
  -1   0  14 73.3853 8.49226   2
  -1   2 -14 58.1727 8.28949   2
  -1  -1 -14 43.9839 11.0027   2
   2  -1 -14 64.6793 11.2959   2
   1   1  14 80.1079 13.2903   2
   1   1  14 78.7876 18.5650   3
  -2   1  14 92.9352 11.3792   2
   1  -2  14 92.8549 19.3036   3
  -2   1  14 115.063 20.2250   3
  -1   3 -14 205.649 27.8731   3
   3  -2 -14 218.642 20.6093   2
  -2  -1 -14 179.230 21.4969   2
  -3   2  14 273.123 27.0223   3
  -3   2  14 200.228 20.0961   2
   2   1  14 276.526 31.0980   3
   1  -3  14 264.400 29.3410   3
   2   1  14 239.407 22.3243   2
   0   2 -14 77.4653 8.23903   2
  -2   0 -14 60.4299 11.9292   2
   2  -2 -14 64.1435 12.1222   2
  -2   2  14 69.9444 12.5678   2
   2   0  14 61.3248 17.8890   3
  -2   2  14 79.9567 17.9902   3
   2   0  14 68.4150 12.3361   2
   0  -2  14 66.9261 16.7616   3
  -2   1 -14 84.2203 12.1647   2
  -1  -1  14 49.1673 13.9256   3
  -1   2  14 56.4140 16.8234   3
   2  -1  14 57.4026 9.40711   2
   2  -1  14 53.7324 15.9078   3
  -1   2  14 29.0746 8.75398   2
   2   0 -14 5.86714 4.60805   2
   0  -2 -14 9.40156 7.29745   2
  -2   2 -14 2.20642 4.94354   2
   2  -2  14 16.5411 12.3507   3
   0   2  14 -4.8367 5.29077   2
   0   2  14 3.00996 10.7112   3
  -2   0  14 -2.9853 8.45940   3
  -2   3 -14 21.8863 13.2373   3
   3  -1 -14 26.3178 7.81409   2
  -2   3 -14 18.7775 5.24144   2
  -1  -2 -14 21.5645 9.33439   2
   1   2  14 21.6369 9.81236   2
   1   2  14 13.7487 12.9776   3
  -3   1  14 8.58442 6.40204   2
   2  -3  14 37.0075 14.3972   3
  -3   1  14 15.0136 10.8066   3
   4  -2 -14 70.3065 13.3006   2
  -2   4 -14 63.9823 17.8473   3
  -4   2  14 65.0536 17.3333   2
  -4   2  14 70.8476 16.4470   3
  -1   4 -14 31.1652 15.4377   3
   3   1  14 5.47342 14.5906   3
  -4   3  14 7.85130 11.0251   3
   3   1  14 10.4358 10.5358   2
  -3   0 -14 -4.2962 6.89728   2
   0   3 -14 -5.8368 16.2655   3
   3   0  14 -3.5913 6.18367   2
  -3   3  14 -4.7061 7.77212   2
   3   0  14 2.90145 11.6972   3
  -3   3  14 -6.3739 10.1555   3
  -3   1 -14 231.585 21.9282   2
   2  -3 -14 244.006 22.5985   2
   3  -1  14 242.091 29.5968   3
  -2   3  14 208.568 21.9856   2
   3  -1  14 212.276 19.4707   2
  -2   3  14 224.556 27.7494   3
  -1  -2  14 251.048 27.1859   3
   1  -3 -14 17.4524 9.26791   2
  -3   2 -14 21.1505 8.32555   2
   2   1 -14 16.4063 5.51651   2
  -1   3  14 22.9174 13.8686   3
  -1   3  14 5.76251 7.61246   2
   3  -2  14 21.5738 14.3309   3
  -3   3 -14 450.128 41.7003   3
   0  -3 -14 401.776 32.8025   2
   3   0 -14 431.032 27.0325   2
  -3   3 -14 422.694 26.5738   2
  -3   0  14 421.981 32.5617   3
   3  -3  14 465.055 41.2494   3
   0   3  14 403.338 39.1905   3
  -3   4 -14 116.442 11.0549   2
   4  -1 -14 113.765 15.2485   2
  -3   4 -14 115.151 10.8083   2
  -4   1  14 107.245 17.8192   3
   1   3  14 122.386 25.4314   3
   1   3  14 119.645 20.5172   2
  -4   1 -14 -1.2499 14.0130   2
   1   3 -14 13.5934 11.2523   3
  -3   4  14 13.5098 10.5622   2
   4  -1  14 19.6697 16.3046   3
  -3   4  14 10.8017 12.8822   3
  -4   2 -14 63.7807 13.7323   2
  -2   4  14 61.6419 19.3503   3
  -2   4  14 24.5197 14.9726   2
   3   1 -14 113.629 18.1151   3
  -4   3 -14 111.924 24.1001   3
  -4   3 -14 115.882 15.9850   2
  -1   4  14 103.402 19.4439   2
  -3  -1  14 120.954 17.7547   3
   4  -3  14 129.299 25.4623   3
  -1   4  14 99.6717 25.4519   3
   0   0 -15 127.339 14.1069   2
   0   0  15 99.0734 11.6150   2
   0   0  15 142.946 22.6724   3
   0   1 -15 4.72745 5.17541   2
   1  -1 -15 -1.9479 5.88090   2
  -1   0 -15 1.23825 6.27019   2
   1   0  15 -5.8396 4.95414   2
   1   0  15 2.62143 11.5294   3
   0  -1  15 -1.7939 10.0750   3
  -1   1  15 0.03395 10.5042   3
  -1   1  15 -4.2730 5.64778   2
  -1   1 -15 20.4052 6.69592   2
   0  -1 -15 14.8736 8.09378   2
   1   0 -15 30.3221 7.26119   2
  -1   0  15 28.1226 12.6029   3
   1  -1  15 26.5486 14.4865   3
   0   1  15 14.2878 8.14261   2
   0   1  15 15.6723 13.5957   3
  -1  -1 -15 33.6817 9.83177   2
   1   1  15 8.86848 12.6073   3
  -2   1  15 1.25255 5.53400   2
   1  -2  15 14.2343 12.6065   3
   1   1  15 -0.0015 7.18736   2
  -2   1  15 4.25536 10.7654   3
  -1   3 -15 22.3600 14.3927   3
   3  -2 -15 32.1709 9.74761   2
   2   1  15 7.33212 12.5112   3
  -3   2  15 11.4653 11.3074   3
   1  -3  15 24.7136 13.8418   3
   2  -2 -15 28.2696 9.29783   2
  -2   0 -15 25.2631 8.76709   2
  -2   2  15 16.2757 8.96582   2
  -2   2  15 37.5913 14.2510   3
   2   0  15 43.4411 15.4401   3
   2   0  15 21.5596 9.27331   2
   0  -2  15 44.0718 15.4469   3
   1  -2 -15 14.8320 7.78174   2
  -1  -1  15 45.7154 14.2897   3
   2  -1  15 29.0653 8.43608   2
  -1   2  15 49.6555 11.8201   2
  -1   2  15 31.4078 15.1266   3
   2  -1  15 40.2313 16.5887   3
   2   0 -15 50.7060 9.59265   2
  -2   2 -15 33.3794 7.78856   2
   0  -2 -15 52.1026 12.3200   2
   0   2  15 48.6311 17.3661   3
   2  -2  15 62.2746 18.8987   3
  -2   0  15 43.0954 14.5389   3
   0   2  15 38.8084 10.7691   2
  -2   3 -15 82.8730 9.06740   2
   3  -1 -15 78.0114 13.0741   2
  -2   3 -15 78.8676 21.1774   3
  -3   1  15 61.9278 16.0426   3
   2  -3  15 59.5196 17.6295   3
   1   2  15 62.7750 17.9440   3
   1   2 -15 6.18623 11.4034   3
  -3   1 -15 12.8732 9.11881   2
   3  -1  15 31.0120 15.7256   3
  -1  -2  15 33.9624 13.5933   3
  -2   3  15 44.6243 17.6199   3
  -3   2 -15 55.6872 11.0411   2
  -2  -1  15 75.3876 16.7065   3
   3  -2  15 91.4283 21.4086   3
   0   0 -16 -5.1624 4.50821   2
   0   0  16 1.80406 12.5932   3
   0   1 -16 1255.28 59.2424   2
   1  -1 -16 1186.41 63.9565   2
  -1   1  16 1241.59 74.4491   3
   0  -1  16 1236.70 73.9053   3
   1   0  16 1076.54 94.2054   3
   0  -1 -16 269.382 23.9710   2
  -1   1 -16 284.709 21.5748   2
   1   0 -16 280.075 21.7582   2
   1  -1  16 312.809 48.6170   3
  -1   0  16 294.877 31.5826   3
   0   0   0    0.00    0.00   0

 _exptl_absorpt_process_details
)
 SADABS 2016/2: Krause, L., Herbst-Irmer, R., Sheldrick G.M. & Stalke D.,
 J. Appl. Cryst. 48 (2015) 3-10
)
 _exptl_absorpt_correction_type   multi-scan
 _exptl_absorpt_correction_T_max  0.7455
 _exptl_absorpt_correction_T_min  0.4703
 _exptl_special_details
)
 The following wavelength and cell were deduced by SADABS from the
 direction cosines etc. They are given here for emergency use only:
 CELL 0.71076    6.822    6.822   12.704   90.011   90.002  120.003
)

;
_shelx_hkl_checksum              24935
loop_
_space_group_symop_operation_xyz
'x, y, z'
'-y, x-y, z+1/3'
'-x+y, -x, z+2/3'
'y, x, -z'
'-x, -x+y, -z+1/3'
'x-y, -y, -z+2/3'
loop_
_atom_site_label
_atom_site_type_symbol
_atom_site_fract_x
_atom_site_fract_y
_atom_site_fract_z
_atom_site_U_iso_or_equiv
_atom_site_adp_type
_atom_site_occupancy
_atom_site_site_symmetry_order
_atom_site_calc_flag
_atom_site_refinement_flags_posn
_atom_site_refinement_flags_adp
_atom_site_refinement_flags_occupancy
_atom_site_disorder_assembly
_atom_site_disorder_group
Y1 Y 0.56326(6) 0.000000 -0.166667 0.00836(12) Uani 1 2 d S T P . .
S1 S 0.55720(14) 0.01405(14) 0.07410(5) 0.00821(17) Uani 1 1 d . . . . .
O1 O 0.6153(4) -0.1250(4) 0.00545(16) 0.0141(5) Uani 1 1 d . . . . .
O1W O 0.9132(7) 0.000000 -0.166667 0.0373(12) Uani 1 2 d S T P . .
H1 H 1.003095 0.093795 -0.200525 0.056 Uiso 1 1 d R U . . .
O2 O 0.7568(4) 0.1734(4) 0.13512(17) 0.0137(5) Uani 1 1 d . . . . .
O3 O 0.4845(4) 0.1330(4) 0.00101(14) 0.0138(5) Uani 1 1 d . . . . .
O4 O 0.3784(4) -0.1280(4) 0.14850(17) 0.0146(6) Uani 1 1 d . . . . .
Na1 Na 0.4711(3) 0.4711(3) 0.000000 0.0176(4) Uani 1 2 d S T P . .
loop_
_atom_site_aniso_label
_atom_site_aniso_U_11
_atom_site_aniso_U_22
_atom_site_aniso_U_33
_atom_site_aniso_U_23
_atom_site_aniso_U_13
_atom_site_aniso_U_12
Y1 0.00892(18) 0.0079(3) 0.00795(19) 0.00023(18) 0.00012(9) 0.00394(14)
S1 0.0083(4) 0.0073(4) 0.0076(3) 0.0000(3) -0.0001(3) 0.0029(3)
O1 0.0182(13) 0.0145(12) 0.0126(10) -0.0031(9) 0.0003(9) 0.0104(11)
O1W 0.0205(17) 0.021(3) 0.071(3) 0.020(2) 0.0098(12) 0.0105(14)
O2 0.0091(13) 0.0128(12) 0.0155(11) -0.0044(9) -0.0054(9) 0.0028(10)
O3 0.0180(14) 0.0137(13) 0.0116(11) 0.0009(9) -0.0022(9) 0.0093(11)
O4 0.0142(11) 0.0121(14) 0.0126(9) 0.0015(9) 0.0039(9) 0.0029(10)
Na1 0.0184(7) 0.0184(7) 0.0208(9) 0.0010(4) -0.0010(4) 0.0129(9)
loop_
_atom_type_symbol
_atom_type_description
_atom_type_scat_dispersion_real
_atom_type_scat_dispersion_imag
_atom_type_scat_source
H H 0.0000 0.0000 'International Tables Vol C Tables 4.2.6.8 and 6.1.1.4'
Na Na 0.0362 0.0249 'International Tables Vol C Tables 4.2.6.8 and 6.1.1.4'
O O 0.0106 0.0060 'International Tables Vol C Tables 4.2.6.8 and 6.1.1.4'
S S 0.1246 0.1234 'International Tables Vol C Tables 4.2.6.8 and 6.1.1.4'
Y Y -2.7962 3.5667 'International Tables Vol C Tables 4.2.6.8 and 6.1.1.4'
loop_
_geom_angle_atom_site_label_1
_geom_angle_atom_site_label_2
_geom_angle_atom_site_label_3
_geom_angle
_geom_angle_site_symmetry_1
_geom_angle_site_symmetry_3
_geom_angle_publ_flag
O2 Y1 O2 78.37(11) 3_664 4_545 ?
O2 Y1 O1W 140.81(6) 3_664 . ?
O2 Y1 O1W 140.82(6) 4_545 . ?
O2 Y1 O4 144.79(9) 3_664 3_654 ?
O2 Y1 O4 73.25(8) 4_545 3_654 ?
O1W Y1 O4 70.05(6) . 3_654 ?
O2 Y1 O4 73.25(8) 3_664 4_655 ?
O2 Y1 O4 144.79(9) 4_545 4_655 ?
O1W Y1 O4 70.05(6) . 4_655 ?
O4 Y1 O4 140.11(13) 3_654 4_655 ?
O2 Y1 O1 84.94(8) 3_664 6_554 ?
O2 Y1 O1 125.83(7) 4_545 6_554 ?
O1W Y1 O1 71.30(5) . 6_554 ?
O4 Y1 O1 95.00(8) 3_654 6_554 ?
O4 Y1 O1 72.18(7) 4_655 6_554 ?
O2 Y1 O1 125.83(7) 3_664 . ?
O2 Y1 O1 84.94(8) 4_545 . ?
O1W Y1 O1 71.30(5) . . ?
O4 Y1 O1 72.18(7) 3_654 . ?
O4 Y1 O1 95.00(8) 4_655 . ?
O1 Y1 O1 142.59(11) 6_554 . ?
O2 Y1 O3 69.09(7) 3_664 . ?
O2 Y1 O3 74.75(8) 4_545 . ?
O1W Y1 O3 113.57(6) . . ?
O4 Y1 O3 121.06(8) 3_654 . ?
O4 Y1 O3 75.93(8) 4_655 . ?
O1 Y1 O3 143.51(7) 6_554 . ?
O1 Y1 O3 56.81(7) . . ?
O2 Y1 O3 74.75(8) 3_664 6_554 ?
O2 Y1 O3 69.09(7) 4_545 6_554 ?
O1W Y1 O3 113.57(6) . 6_554 ?
O4 Y1 O3 75.93(8) 3_654 6_554 ?
O4 Y1 O3 121.06(8) 4_655 6_554 ?
O1 Y1 O3 56.81(7) 6_554 6_554 ?
O1 Y1 O3 143.51(7) . 6_554 ?
O3 Y1 O3 132.86(11) . 6_554 ?
O2 Y1 S1 79.87(6) 3_664 6_554 ?
O2 Y1 S1 97.50(6) 4_545 6_554 ?
O1W Y1 S1 91.670(17) . 6_554 ?
O4 Y1 S1 83.58(6) 3_654 6_554 ?
O4 Y1 S1 97.57(5) 4_655 6_554 ?
O1 Y1 S1 28.46(5) 6_554 6_554 ?
O1 Y1 S1 153.88(5) . 6_554 ?
O3 Y1 S1 148.90(5) . 6_554 ?
O3 Y1 S1 28.41(5) 6_554 6_554 ?
O2 Y1 S1 97.51(6) 3_664 . ?
O2 Y1 S1 79.88(6) 4_545 . ?
O1W Y1 S1 91.670(17) . . ?
O4 Y1 S1 97.57(5) 3_654 . ?
O4 Y1 S1 83.57(6) 4_655 . ?
O1 Y1 S1 153.88(5) 6_554 . ?
O1 Y1 S1 28.46(5) . . ?
O3 Y1 S1 28.41(5) . . ?
O3 Y1 S1 148.90(5) 6_554 . ?
S1 Y1 S1 176.66(3) 6_554 . ?
O2 Y1 Na1 143.36(6) 3_664 1_545 ?
O2 Y1 Na1 70.03(6) 4_545 1_545 ?
O1W Y1 Na1 72.70(2) . 1_545 ?
O4 Y1 Na1 37.94(5) 3_654 1_545 ?
O4 Y1 Na1 125.86(6) 4_655 1_545 ?
O1 Y1 Na1 128.67(6) 6_554 1_545 ?
O1 Y1 Na1 35.36(5) . 1_545 ?
O3 Y1 Na1 84.76(5) . 1_545 ?
O3 Y1 Na1 109.21(6) 6_554 1_545 ?
S1 Y1 Na1 121.50(2) 6_554 1_545 ?
S1 Y1 Na1 59.653(18) . 1_545 ?
O4 S1 O2 107.86(13) . . ?
O4 S1 O3 111.94(15) . . ?
O2 S1 O3 111.59(14) . . ?
O4 S1 O1 110.98(14) . . ?
O2 S1 O1 109.82(14) . . ?
O3 S1 O1 104.65(12) . . ?
O4 S1 Y1 130.17(10) . . ?
O2 S1 Y1 121.92(10) . . ?
O3 S1 Y1 53.17(8) . . ?
O1 S1 Y1 51.64(9) . . ?
O4 S1 Na1 46.99(9) . 2_655 ?
O2 S1 Na1 60.88(9) . 2_655 ?
O3 S1 Na1 127.94(9) . 2_655 ?
O1 S1 Na1 126.88(9) . 2_655 ?
Y1 S1 Na1 176.88(3) . 2_655 ?
S1 O1 Na1 131.26(13) . 1_545 ?
S1 O1 Y1 99.91(11) . . ?
Na1 O1 Y1 108.98(8) 1_545 . ?
Y1 O1W H1 112.7 . . ?
Y1 O1W H1 112.701(1) . 6_554 ?
H1 O1W H1 134.6 . 6_554 ?
S1 O2 Y1 142.45(14) . 2_655 ?
S1 O2 Na1 92.71(11) . 2_655 ?
Y1 O2 Na1 104.17(8) 2_655 2_655 ?
S1 O3 Na1 137.06(13) . . ?
S1 O3 Y1 98.41(11) . . ?
Na1 O3 Y1 118.42(8) . . ?
S1 O4 Y1 145.25(14) . 2_545 ?
S1 O4 Na1 108.09(13) . 2_655 ?
Y1 O4 Na1 106.66(9) 2_545 2_655 ?
O3 Na1 O3 123.85(16) . 4 ?
O3 Na1 O1 157.37(12) . 1_565 ?
O3 Na1 O1 78.72(8) 4 1_565 ?
O3 Na1 O1 78.72(8) . 4_655 ?
O3 Na1 O1 157.37(12) 4 4_655 ?
O1 Na1 O1 78.80(12) 1_565 4_655 ?
O3 Na1 O4 80.87(8) . 5_665 ?
O3 Na1 O4 112.18(7) 4 5_665 ?
O1 Na1 O4 89.01(9) 1_565 5_665 ?
O1 Na1 O4 69.99(8) 4_655 5_665 ?
O3 Na1 O4 112.18(7) . 3_664 ?
O3 Na1 O4 80.87(8) 4 3_664 ?
O1 Na1 O4 69.99(8) 1_565 3_664 ?
O1 Na1 O4 89.01(9) 4_655 3_664 ?
O4 Na1 O4 153.10(14) 5_665 3_664 ?
O3 Na1 O2 62.24(7) . 3_664 ?
O3 Na1 O2 98.71(8) 4 3_664 ?
O1 Na1 O2 120.55(7) 1_565 3_664 ?
O1 Na1 O2 90.45(7) 4_655 3_664 ?
O4 Na1 O2 141.27(7) 5_665 3_664 ?
O4 Na1 O2 51.33(7) 3_664 3_664 ?
O3 Na1 O2 98.71(8) . 5_665 ?
O3 Na1 O2 62.24(7) 4 5_665 ?
O1 Na1 O2 90.45(7) 1_565 5_665 ?
O1 Na1 O2 120.55(7) 4_655 5_665 ?
O4 Na1 O2 51.33(7) 5_665 5_665 ?
O4 Na1 O2 141.27(7) 3_664 5_665 ?
O2 Na1 O2 140.98(12) 3_664 5_665 ?
O3 Na1 S1 87.85(5) . 3_664 ?
O3 Na1 S1 89.77(5) 4 3_664 ?
O1 Na1 S1 94.51(6) 1_565 3_664 ?
O1 Na1 S1 89.40(6) 4_655 3_664 ?
O4 Na1 S1 158.02(7) 5_665 3_664 ?
O4 Na1 S1 24.93(6) 3_664 3_664 ?
O2 Na1 S1 26.41(4) 3_664 3_664 ?
O2 Na1 S1 150.02(7) 5_665 3_664 ?
O3 Na1 S1 89.77(5) . 5_665 ?
O3 Na1 S1 87.85(5) 4 5_665 ?
O1 Na1 S1 89.40(6) 1_565 5_665 ?
O1 Na1 S1 94.51(6) 4_655 5_665 ?
O4 Na1 S1 24.93(6) 5_665 5_665 ?
O4 Na1 S1 158.02(7) 3_664 5_665 ?
O2 Na1 S1 150.02(7) 3_664 5_665 ?
O2 Na1 S1 26.41(4) 5_665 5_665 ?
S1 Na1 S1 174.95(7) 3_664 5_665 ?
O3 Na1 Y1 70.94(6) . 2_655 ?
O3 Na1 Y1 146.19(5) 4 2_655 ?
O1 Na1 Y1 89.11(7) 1_565 2_655 ?
O1 Na1 Y1 35.66(5) 4_655 2_655 ?
O4 Na1 Y1 35.40(6) 5_665 2_655 ?
O4 Na1 Y1 124.47(8) 3_664 2_655 ?
O2 Na1 Y1 114.51(5) 3_664 2_655 ?
O2 Na1 Y1 86.73(4) 5_665 2_655 ?
S1 Na1 Y1 122.84(3) 3_664 2_655 ?
S1 Na1 Y1 60.329(18) 5_665 2_655 ?
O3 Na1 Y1 146.19(5) . 1_565 ?
O3 Na1 Y1 70.94(6) 4 1_565 ?
O1 Na1 Y1 35.66(5) 1_565 1_565 ?
O1 Na1 Y1 89.11(7) 4_655 1_565 ?
O4 Na1 Y1 124.47(8) 5_665 1_565 ?
O4 Na1 Y1 35.40(6) 3_664 1_565 ?
O2 Na1 Y1 86.73(4) 3_664 1_565 ?
O2 Na1 Y1 114.51(5) 5_665 1_565 ?
S1 Na1 Y1 60.329(18) 3_664 1_565 ?
S1 Na1 Y1 122.84(3) 5_665 1_565 ?
Y1 Na1 Y1 115.21(5) 2_655 1_565 ?
loop_
_geom_bond_atom_site_label_1
_geom_bond_atom_site_label_2
_geom_bond_distance
_geom_bond_site_symmetry_2
_geom_bond_publ_flag
Y1 O2 2.360(2) 3_664 ?
Y1 O2 2.360(2) 4_545 ?
Y1 O1W 2.386(4) . ?
Y1 O4 2.390(3) 3_654 ?
Y1 O4 2.390(3) 4_655 ?
Y1 O1 2.436(2) 6_554 ?
Y1 O1 2.436(2) . ?
Y1 O3 2.477(2) . ?
Y1 O3 2.477(2) 6_554 ?
Y1 S1 3.0611(7) 6_554 ?
Y1 S1 3.0611(7) . ?
Y1 Na1 3.9519(10) 1_545 ?
S1 O4 1.462(2) . ?
S1 O2 1.468(2) . ?
S1 O3 1.472(2) . ?
S1 O1 1.481(2) . ?
S1 Na1 3.2974(7) 2_655 ?
O1 Na1 2.418(3) 1_545 ?
O1W H1 0.7602 . ?
O1W H1 0.7602 6_554 ?
O2 Na1 2.884(2) 2_655 ?
O3 Na1 2.353(3) . ?
O4 Na1 2.536(2) 2_655 ?
loop_
_geom_torsion_atom_site_label_1
_geom_torsion_atom_site_label_2
_geom_torsion_atom_site_label_3
_geom_torsion_atom_site_label_4
_geom_torsion
_geom_torsion_site_symmetry_1
_geom_torsion_site_symmetry_2
_geom_torsion_site_symmetry_3
_geom_torsion_site_symmetry_4
_geom_torsion_publ_flag
O4 S1 O1 Na1 -1.1(2) . . . 1_545 ?
O2 S1 O1 Na1 118.11(17) . . . 1_545 ?
O3 S1 O1 Na1 -121.99(16) . . . 1_545 ?
Y1 S1 O1 Na1 -126.3(2) . . . 1_545 ?
Na1 S1 O1 Na1 50.2(2) 2_655 . . 1_545 ?
O4 S1 O1 Y1 125.27(12) . . . . ?
O2 S1 O1 Y1 -115.56(12) . . . . ?
O3 S1 O1 Y1 4.34(16) . . . . ?
Na1 S1 O1 Y1 176.54(5) 2_655 . . . ?
O4 S1 O2 Y1 -118.5(2) . . . 2_655 ?
O3 S1 O2 Y1 4.8(3) . . . 2_655 ?
O1 S1 O2 Y1 120.4(2) . . . 2_655 ?
Y1 S1 O2 Y1 64.0(2) . . . 2_655 ?
Na1 S1 O2 Y1 -117.6(2) 2_655 . . 2_655 ?
O4 S1 O2 Na1 -0.91(15) . . . 2_655 ?
O3 S1 O2 Na1 122.44(11) . . . 2_655 ?
O1 S1 O2 Na1 -121.97(11) . . . 2_655 ?
Y1 S1 O2 Na1 -178.41(5) . . . 2_655 ?
O4 S1 O3 Na1 85.6(2) . . . . ?
O2 S1 O3 Na1 -35.4(3) . . . . ?
O1 S1 O3 Na1 -154.14(19) . . . . ?
Y1 S1 O3 Na1 -149.9(3) . . . . ?
Na1 S1 O3 Na1 33.8(3) 2_655 . . . ?
O4 S1 O3 Y1 -124.55(12) . . . . ?
O2 S1 O3 Y1 114.45(13) . . . . ?
O1 S1 O3 Y1 -4.26(16) . . . . ?
Na1 S1 O3 Y1 -176.34(4) 2_655 . . . ?
O2 S1 O4 Y1 -178.0(2) . . . 2_545 ?
O3 S1 O4 Y1 58.9(3) . . . 2_545 ?
O1 S1 O4 Y1 -57.7(3) . . . 2_545 ?
Y1 S1 O4 Y1 -0.8(3) . . . 2_545 ?
Na1 S1 O4 Y1 -179.1(3) 2_655 . . 2_545 ?
O2 S1 O4 Na1 1.08(18) . . . 2_655 ?
O3 S1 O4 Na1 -122.06(13) . . . 2_655 ?
O1 S1 O4 Na1 121.42(13) . . . 2_655 ?
Y1 S1 O4 Na1 178.31(5) . . . 2_655 ?
