#------------------------------------------------------------------------------
#$Date: 2021-09-06 13:30:01 +0300 (Mon, 06 Sep 2021) $
#$Revision: 268676 $
#$URL: file:///home/coder/svn-repositories/cod/cif/7/24/25/7242595.cif $
#------------------------------------------------------------------------------
#
# This file is available in the Crystallography Open Database (COD),
# http://www.crystallography.net/
#
# All data on this site have been placed in the public domain by the
# contributors.
#
data_7242595
loop_
_publ_author_name
'Sasaki, Toshiyuki'
'Ranjan, Subham'
'Takamizawa, Satoshi'
_publ_section_title
;
 A photoluminescent organosuperelastic crystal of 7-amino-4-methylcoumarin
;
_journal_issue                   34
_journal_name_full               CrystEngComm
_journal_page_first              5801
_journal_page_last               5804
_journal_paper_doi               10.1039/D1CE00359C
_journal_volume                  23
_journal_year                    2021
_chemical_formula_sum            'C10 H9 N O2'
_chemical_formula_weight         175.18
_chemical_name_systematic        7-Amino-4-methylcoumarin
_space_group_crystal_system      triclinic
_space_group_IT_number           2
_space_group_name_Hall           '-P 1'
_space_group_name_H-M_alt        'P -1'
_atom_sites_solution_hydrogens   geom
_audit_creation_method           SHELXL-2018/3
_audit_update_record
;
2021-03-10 deposited with the CCDC.	2021-04-05 downloaded from the CCDC.
;
_cell_angle_alpha                71.825(3)
_cell_angle_beta                 84.915(3)
_cell_angle_gamma                69.902(3)
_cell_formula_units_Z            2
_cell_length_a                   6.9361(7)
_cell_length_b                   7.1569(6)
_cell_length_c                   9.5654(9)
_cell_measurement_reflns_used    991
_cell_measurement_temperature    296
_cell_measurement_theta_max      24.948
_cell_measurement_theta_min      2.2415
_cell_volume                     423.58(7)
_computing_cell_refinement       'APEX3 v2019.11 (Bruker AXS)'
_computing_data_collection
'Bruker Instrument Service V6.2.14 (Bruker AXS Inc., 2016)'
_computing_data_reduction        'SAINT V8.40B (Bruker AXS Inc., 2013)'
_computing_structure_refinement  'SHELXL-2018/3 (Sheldrick, 2018)'
_computing_structure_solution    'SHELXT 2014/5 (Sheldrick, 2014)'
_diffrn_ambient_temperature      296
_diffrn_measured_fraction_theta_full 0.978
_diffrn_measured_fraction_theta_max 0.978
_diffrn_measurement_device_type  'Bruker D8 goniometer'
_diffrn_measurement_method       'phi and omega scans'
_diffrn_radiation_type           MoK\a
_diffrn_radiation_wavelength     0.71073
_diffrn_reflns_av_R_equivalents  0.0449
_diffrn_reflns_av_unetI/netI     0.0424
_diffrn_reflns_Laue_measured_fraction_full 0.978
_diffrn_reflns_Laue_measured_fraction_max 0.978
_diffrn_reflns_limit_h_max       8
_diffrn_reflns_limit_h_min       -8
_diffrn_reflns_limit_k_max       8
_diffrn_reflns_limit_k_min       -8
_diffrn_reflns_limit_l_max       11
_diffrn_reflns_limit_l_min       -11
_diffrn_reflns_number            5247
_diffrn_reflns_point_group_measured_fraction_full 0.978
_diffrn_reflns_point_group_measured_fraction_max 0.978
_diffrn_reflns_theta_full        25.013
_diffrn_reflns_theta_max         25.013
_diffrn_reflns_theta_min         2.241
_diffrn_source                   'micro focus sealed tube'
_exptl_absorpt_coefficient_mu    0.097
_exptl_absorpt_correction_T_max  0.7455
_exptl_absorpt_correction_T_min  0.6549
_exptl_absorpt_correction_type   multi-scan
_exptl_absorpt_process_details
;
 SADABS 2016/2: Krause, L., Herbst-Irmer, R., Sheldrick G.M. & Stalke D.,
 J. Appl. Cryst. 48 (2015) 3-10
;
_exptl_crystal_colour            yellow
_exptl_crystal_density_diffrn    1.374
_exptl_crystal_description       platelet
_exptl_crystal_F_000             184
_exptl_crystal_recrystallization_method
'Re-crystallisation from solvent: acetone'
_exptl_crystal_size_max          0.171
_exptl_crystal_size_mid          0.115
_exptl_crystal_size_min          0.082
_refine_diff_density_max         0.281
_refine_diff_density_min         -0.225
_refine_diff_density_rms         0.062
_refine_ls_extinction_method     none
_refine_ls_goodness_of_fit_ref   1.060
_refine_ls_hydrogen_treatment    constr
_refine_ls_matrix_type           full
_refine_ls_number_parameters     119
_refine_ls_number_reflns         1473
_refine_ls_number_restraints     0
_refine_ls_restrained_S_all      1.060
_refine_ls_R_factor_all          0.0803
_refine_ls_R_factor_gt           0.0632
_refine_ls_shift/su_max          0.000
_refine_ls_shift/su_mean         0.000
_refine_ls_structure_factor_coef Fsqd
_refine_ls_weighting_details
'w=1/[\s^2^(Fo^2^)+(0.1148P)^2^+0.0358P] where P=(Fo^2^+2Fc^2^)/3'
_refine_ls_weighting_scheme      calc
_refine_ls_wR_factor_gt          0.1731
_refine_ls_wR_factor_ref         0.1973
_reflns_Friedel_coverage         0.000
_reflns_number_gt                1044
_reflns_number_total             1473
_reflns_threshold_expression     'I > 2\s(I)'
_cod_data_source_file            d1ce00359c5.cif
_cod_data_source_block           Daughter
_cod_depositor_comments
'Adding full bibliography for 7242594--7242595.cif.'
_cod_database_code               7242595
_shelx_shelxl_version_number     2018/3
_shelx_space_group_comment
;
The symmetry employed for this shelxl refinement is uniquely defined
by the following loop, which should always be used as a source of
symmetry information in preference to the above space-group names.
They are only intended as comments.
;
_shelx_res_file
;
TITL 20200925_AMC_D_0_a.res in P-1
    20200925_AMC_D_0_a.res
    created by SHELXL-2018/3 at 17:45:58 on 26-Sep-2020
CELL  0.71073   6.9361   7.1569   9.5654   71.825   84.915   69.902
ZERR    2.000   0.0007   0.0006   0.0009    0.003    0.003    0.003
LATT 1
SFAC C  H  N  O
UNIT 20  18  2  4
L.S. 10
ACTA
BOND $H
FMAP 2
PLAN 5
TEMP 23.000
WGHT    0.114800    0.035800
FVAR       1.62025
O1    4    0.645505    0.721677    0.659032    11.00000    0.06784    0.04276 =
         0.03542   -0.01918    0.00302   -0.01449
O2    4    0.610523    0.696487    0.893182    11.00000    0.11609    0.06540 =
         0.04301   -0.03102    0.01126   -0.03044
N1    3    0.672062    0.834998    0.145164    11.00000    0.07855    0.06365 =
         0.03394   -0.01617   -0.00202   -0.01851
AFIX  93
H1A   2    0.626347    0.967387    0.131729    11.00000   -1.20000
H1B   2    0.698388    0.787684    0.070743    11.00000   -1.20000
AFIX   0
C9    1    0.772101    0.419337    0.573269    11.00000    0.04177    0.04196 =
         0.03853   -0.01587    0.00233   -0.01396
C8    1    0.694788    0.634591    0.545165    11.00000    0.04523    0.04277 =
         0.03477   -0.01773    0.00160   -0.01267
C6    1    0.702772    0.700251    0.284313    11.00000    0.04312    0.05392 =
         0.03772   -0.01574    0.00001   -0.01414
C3    1    0.802132    0.288394    0.724755    11.00000    0.04712    0.04218 =
         0.04316   -0.01399    0.00227   -0.01699
C2    1    0.748777    0.380412    0.832218    11.00000    0.06238    0.04863 =
         0.03725   -0.01047    0.00074   -0.01993
AFIX  43
H2    2    0.766376    0.296382    0.929628    11.00000   -1.20000
AFIX   0
C5    1    0.780827    0.483291    0.309480    11.00000    0.05420    0.05515 =
         0.04087   -0.02643    0.00325   -0.01223
AFIX  43
H5    2    0.810459    0.430569    0.229738    11.00000   -1.20000
AFIX   0
C7    1    0.661151    0.773574    0.406184    11.00000    0.05008    0.03851 =
         0.03892   -0.01380   -0.00230   -0.00784
AFIX  43
H7    2    0.610710    0.916287    0.393474    11.00000   -1.20000
AFIX   0
C4    1    0.813941    0.348380    0.449294    11.00000    0.05235    0.04384 =
         0.04884   -0.02251    0.00143   -0.00966
AFIX  43
H4    2    0.865668    0.205581    0.462422    11.00000   -1.20000
AFIX   0
C1    1    0.666519    0.601026    0.802981    11.00000    0.06690    0.05336 =
         0.03519   -0.01924    0.00424   -0.02178
C10   1    0.888230    0.056841    0.760625    11.00000    0.07349    0.04239 =
         0.05428   -0.01292    0.00097   -0.01498
AFIX 137
H10A  2    0.890971   -0.005183    0.865383    11.00000   -1.50000
H10B  2    1.025270    0.017379    0.724384    11.00000   -1.50000
H10C  2    0.803896    0.009207    0.715208    11.00000   -1.50000
AFIX   0
HKLF 4




REM  20200925_AMC_D_0_a.res in P-1
REM wR2 = 0.197343, GooF = S = 1.05959, Restrained GooF = 1.05959 for all data
REM R1 = 0.063216 for 1044 Fo > 4sig(Fo) and 0.080271 for all 1473 data
REM 119 parameters refined using 0 restraints

END

WGHT      0.1148      0.0358

REM Highest difference peak  0.281,  deepest hole -0.225,  1-sigma level  0.062
Q1    1   0.4666  0.7078  0.2820  11.00000  0.05    0.28
Q2    1   0.4503  0.6550  0.5459  11.00000  0.05    0.28
Q3    1   1.0557  0.3556  0.4542  11.00000  0.05    0.25
Q4    1   0.8534  0.3133  0.0993  11.00000  0.05    0.24
Q5    1   1.0152  0.2969  0.7166  11.00000  0.05    0.24
;
_shelx_res_checksum              16352
_shelx_hkl_file
;
  -1   0   0 1096.89   41.20
   1   0   0 1051.79   39.80
  -2   0   0 7819.22  236.48
   2   0   0 9999.00  254.07
  -3   0   0  748.93   24.70
  -3   0   0  761.92   25.70
   3   0   0  763.92   25.90
  -4   0   0   44.80    7.20
  -4   0   0   56.99    7.80
  -5   0   0    1.50    1.30
  -5   0   0    7.00    3.10
   5   0   0    3.20    2.40
  -6   0   0   48.90    8.50
  -6   0   0   59.59    9.40
  -6   0   0   53.59    8.00
   6   0   0   58.79   10.20
  -7   0   0   48.10    8.10
  -7   0   0   33.80    7.90
  -7   0   0   45.20   10.00
   7   0   0   38.20    8.80
   7  -1   0   27.10    7.60
  -7   1   0   40.10    8.60
  -7   1   0   43.30    9.50
  -7   1   0   42.60    9.20
  -7   1   0   40.70    7.30
   6  -1   0   29.90    7.30
  -6   1   0    8.80    3.20
  -6   1   0   20.50    4.80
  -6   1   0   18.30    5.50
  -6   1   0   20.50    5.90
   5  -1   0  377.06   19.50
  -5   1   0  354.66   17.90
  -5   1   0  361.66   16.30
  -5   1   0  357.86   19.70
   4  -1   0  234.68   13.80
  -4   1   0  263.67   12.20
  -4   1   0  262.07   13.10
  -4   1   0  251.87   14.20
   3  -1   0  296.17   13.90
  -3   1   0  298.77   12.60
  -3   1   0  284.97   11.70
  -3   1   0  300.07   14.00
   2  -1   0 1386.96   38.00
  -2   1   0 1401.96   38.20
  -2   1   0 1410.56   36.00
   1  -1   0 2237.48   69.99
  -1   1   0 2129.99   68.59
   0  -1   0 4126.59  100.09
   0   1   0 4047.50   99.89
  -1  -1   0  479.05   14.20
  -1  -1   0  494.65   14.20
  -3  -1   0  458.45   17.70
   3   1   0  458.45   18.40
  -4  -1   0 2681.63   74.99
  -4  -1   0 2865.21   74.89
   4   1   0 2777.62   75.89
  -5  -1   0   64.09    8.90
  -5  -1   0   81.09   10.60
   5   1   0   93.09   11.80
  -6  -1   0   33.00    6.90
  -6  -1   0   59.49    9.30
  -7  -1   0   -0.50    1.30
   7   1   0   -0.70    0.90
   8   1   0   -0.40    1.50
   6  -2   0   -0.60    1.00
  -6   2   0    2.30    1.90
  -6   2   0    0.10    1.00
  -6   2   0    0.50    1.60
  -6   2   0    2.70    2.20
   5  -2   0   32.10    6.60
  -5   2   0   41.10    7.80
  -5   2   0   25.40    5.10
  -5   2   0   29.80    5.30
  -5   2   0   54.89    9.80
   4  -2   0   19.90    4.70
  -4   2   0   15.40    3.40
  -4   2   0   21.30    5.10
  -4   2   0   21.80    4.40
  -4   2   0   23.50    5.40
   3  -2   0 1275.07   38.00
  -3   2   0 1224.88   37.60
  -3   2   0 1239.38   34.60
  -3   2   0 1257.57   38.10
  -3   2   0 1273.27   35.10
   2  -2   0  799.32   22.90
  -2   2   0  782.12   24.10
  -2   2   0  800.72   22.80
  -2   2   0  756.62   24.20
  -2   2   0  792.52   21.30
  -1   2   0 1873.21   66.29
  -1   2   0 1937.81   65.29
   0  -2   0 1936.01   58.59
   0   2   0 1952.90   58.79
  -1  -2   0  598.54   18.00
  -1  -2   0  625.44   17.80
  -1  -2   0  599.74   17.30
   1   2   0  597.74   17.70
   1   2   0  609.44   18.30
  -2  -2   0  133.49    7.50
  -2  -2   0  137.59    7.70
   2   2   0  143.69    7.80
  -3  -2   0   25.60    4.90
  -3  -2   0   28.70    5.30
   3   2   0   17.80    4.10
  -4  -2   0 1270.57   40.70
   4   2   0 1288.87   41.40
  -5  -2   0   50.59    8.60
  -5  -2   0   78.69   10.80
   5   2   0   47.70    8.20
  -6  -2   0  350.76   20.20
  -6  -2   0  337.77   20.60
   6   2   0  349.27   20.90
  -7  -2   0    1.70    2.70
   7   2   0    0.00    1.70
  -6   3   0   -0.10    1.10
  -6   3   0    0.10    1.40
  -6   3   0    1.80    1.90
  -6   3   0    0.60    1.90
  -5   3   0    0.20    0.80
  -5   3   0   -0.30    0.70
  -5   3   0   -0.20    1.00
  -5   3   0    1.90    2.10
  -4   3   0    8.70    2.50
  -4   3   0   10.20    3.00
  -4   3   0    9.60    3.50
  -4   3   0    7.40    3.10
  -3   3   0    5.60    2.10
  -3   3   0    9.70    3.30
  -3   3   0    6.20    2.20
  -3   3   0    8.10    1.90
   2  -3   0    8.00    2.20
  -2   3   0   10.00    2.60
  -2   3   0   10.30    2.60
  -2   3   0    8.00    2.30
   1  -3   0  757.22   22.50
  -1   3   0  774.92   22.30
  -1   3   0  772.32   21.80
  -1   3   0  755.72   24.70
   0  -3   0 1922.51   49.00
  -1  -3   0  800.72   24.60
  -1  -3   0  856.71   23.40
  -1  -3   0  835.72   23.50
   1   3   0  829.62   25.40
   1   3   0  822.42   24.90
  -2  -3   0  357.66   14.40
  -2  -3   0  371.86   14.30
  -2  -3   0  364.96   14.60
   2   3   0  372.56   14.50
  -3  -3   0    3.90    2.00
  -3  -3   0    3.20    1.70
  -3  -3   0    3.00    1.70
   3   3   0    3.20    1.70
  -4  -3   0    8.50    3.10
  -4  -3   0    4.50    2.70
   4   3   0    3.10    2.10
  -5  -3   0    1.30    1.20
  -5  -3   0    6.30    3.30
   5   3   0    6.70    3.70
  -6  -3   0   28.40    6.80
   6   3   0   50.09    8.80
   7   3   0    4.40    3.00
   8   3   0   13.80    5.50
  -5   4   0   30.70    6.80
  -5   4   0   24.20    6.20
  -5   4   0   24.40    5.20
  -4   4   0   10.00    3.70
  -4   4   0   17.50    4.00
  -4   4   0    9.30    3.30
   3  -4   0    2.90    2.00
  -3   4   0    7.80    2.80
  -3   4   0    2.80    1.80
  -3   4   0    4.70    2.20
   2  -4   0   26.60    4.50
  -2   4   0   21.40    4.30
  -2   4   0   18.80    3.80
  -2   4   0   20.70    3.80
   1  -4   0    3.60    1.70
  -1   4   0    2.30    1.20
  -1   4   0    3.60    1.70
   0  -4   0    4.20    1.40
   0  -4   0    2.00    1.10
   0   4   0    4.70    1.70
   0   4   0    4.50    1.40
  -1  -4   0   23.60    3.30
  -1  -4   0   27.30    3.60
  -1  -4   0   28.30    4.50
   1   4   0   31.60    4.30
   1   4   0   24.70    4.50
  -2  -4   0  601.94   19.80
  -2  -4   0  568.24   20.80
  -2  -4   0  556.44   19.90
   2   4   0  516.15   19.60
  -3  -4   0   -0.70    0.70
  -3  -4   0    2.20    1.70
  -3  -4   0    1.70    1.50
   3   4   0   -0.50    0.70
  -4  -4   0   39.20    6.30
  -4  -4   0   53.99    8.20
  -4  -4   0   46.90    7.70
   4   4   0   52.89    7.80
  -5  -4   0    0.70    1.50
  -5  -4   0    2.10    1.90
  -5  -4   0    1.70    1.30
   5   4   0    4.70    3.00
  -6  -4   0   -0.60    0.90
   6   4   0   -0.60    0.90
   7   4   0    1.20    2.60
   8   4   0    1.80    2.60
  -4   5   0    1.50    1.50
  -4   5   0    2.60    1.70
  -4   5   0    0.60    1.50
   3  -5   0   16.50    3.90
  -3   5   0   14.10    3.70
  -3   5   0   19.40    4.20
  -3   5   0   11.70    3.50
   2  -5   0    9.00    2.90
  -2   5   0   21.70    3.80
  -2   5   0   15.00    3.80
  -1   5   0    1.00    1.20
  -1   5   0    1.20    1.00
   0  -5   0   14.10    2.60
   0   5   0   17.90    3.70
   0   5   0   14.00    2.70
  -1  -5   0   25.40    3.40
  -1  -5   0   19.90    4.30
  -1  -5   0   32.30    4.30
   1   5   0   19.60    4.20
   1   5   0   21.40    3.50
  -2  -5   0    2.40    1.50
  -2  -5   0    6.80    2.20
  -2  -5   0    3.10    2.00
   2   5   0    6.30    2.50
  -3  -5   0    6.70    2.80
  -3  -5   0    4.70    2.50
   3   5   0    6.70    2.80
  -4  -5   0   57.39    8.30
  -4  -5   0   64.09    9.50
  -4  -5   0   61.09    8.80
   4   5   0   43.70    7.30
  -5  -5   0    9.10    4.40
  -5  -5   0   13.30    4.70
   5   5   0   16.10    5.00
  -6  -5   0   17.90    6.10
   6   5   0    9.90    4.90
   7   5   0    1.90    2.30
   3  -6   0   15.00    4.40
  -3   6   0    5.80    2.10
  -3   6   0   17.20    4.80
  -3   6   0   17.10    4.40
   2  -6   0    3.20    1.80
  -2   6   0    0.30    1.00
   1  -6   0    0.30    0.80
  -1   6   0    2.70    2.10
   0  -6   0    1.10    1.20
   0   6   0    5.60    2.60
  -1  -6   0   10.30    2.70
  -1  -6   0    9.90    3.40
   1   6   0    8.50    2.30
  -2  -6   0    1.80    1.20
  -2  -6   0    2.40    1.40
  -2  -6   0    2.50    1.70
   2   6   0    1.00    1.20
  -3  -6   0   10.20    3.70
  -3  -6   0    8.80    2.90
  -3  -6   0    3.70    2.30
   3   6   0   16.10    4.60
  -4  -6   0    1.00    1.90
  -4  -6   0    5.10    4.20
  -4  -6   0    7.30    3.10
   4   6   0    7.60    3.20
  -5  -6   0    2.30    2.30
  -5  -6   0    0.20    2.00
  -5  -6   0    5.40    3.30
   5   6   0    1.50    2.30
   7   6   0    2.30    2.70
   1  -7   0   16.80    4.40
  -1   7   0    4.10    2.50
   0  -7   0   -0.10    1.10
   0   7   0   -0.70    0.90
  -1  -7   0    0.70    1.40
   1   7   0    6.00    2.00
  -2  -7   0    2.00    1.50
  -2  -7   0    4.80    3.50
  -2  -7   0   -0.40    0.70
   2   7   0    1.60    1.30
  -3  -7   0   11.40    4.20
  -3  -7   0   12.80    3.70
  -3  -7   0   23.00    5.00
   3   7   0   11.70    3.70
  -4  -7   0    0.20    1.20
  -4  -7   0   -0.10    1.40
   4   7   0   -0.40    1.10
  -5  -7   0   -0.70    1.30
   5   7   0    3.20    2.80
   6   7   0    0.10    1.40
   2   8   0    0.40    1.20
  -3  -8   0   -0.30    1.10
  -3  -8   0    1.50    1.70
   3   8   0    1.50    1.80
   5   7  -1    1.40    1.90
  -5  -7   1    1.20    2.20
   4   7  -1   17.70    5.10
  -4  -7   1   10.60    3.70
   3   7  -1    3.30    2.40
  -3  -7   1    6.20    2.70
  -3  -7   1    7.40    3.50
   2   7  -1    0.00    0.70
  -2  -7   1    1.50    1.30
  -2  -7   1    1.20    2.10
  -2  -7   1    1.80    1.70
   1   7  -1    3.10    2.40
   1   7  -1    0.10    0.70
  -1  -7   1   -0.10    1.20
  -1  -7   1    2.00    1.60
   0   7  -1    0.30    1.00
   0   7  -1    2.80    2.50
   0  -7   1    2.10    2.00
  -1   7  -1    0.00    1.20
  -1   7  -1    2.40    2.50
   1  -7   1    2.10    2.00
   6   6  -1    3.90    3.30
   5   6  -1    1.40    1.70
  -5  -6   1    7.00    3.50
   4   6  -1   15.20    5.10
  -4  -6   1    9.70    3.80
  -4  -6   1   15.60    5.20
  -4  -6   1    3.20    2.40
   3   6  -1    6.30    2.80
  -3  -6   1   12.50    4.10
  -3  -6   1   11.10    4.80
  -3  -6   1    9.40    3.40
   2   6  -1   22.20    4.90
  -2  -6   1   26.70    4.70
  -2  -6   1   26.90    5.20
  -2  -6   1   18.20    4.90
   1   6  -1   30.40    5.20
   1   6  -1   28.60    5.70
  -1  -6   1   24.00    4.40
  -1  -6   1   43.20    7.10
   0   6  -1    7.60    3.20
   0   6  -1    5.50    2.40
   0  -6   1    2.70    1.60
   0  -6   1    1.10    1.30
  -1   6  -1    6.60    2.70
  -1   6  -1   -0.20    0.90
  -1   6  -1    4.10    2.10
   1  -6   1    7.40    3.10
  -2   6  -1    0.20    1.30
  -2   6  -1    1.80    1.50
  -2   6  -1    0.30    1.00
   2  -6   1    1.70    1.70
   7   5  -1    1.90    2.70
   6   5  -1    1.90    2.60
  -6  -5   1   -0.70    1.10
   5   5  -1    1.50    2.10
  -5  -5   1    0.60    1.30
  -5  -5   1    0.30    1.20
   4   5  -1   42.90    8.00
  -4  -5   1   27.60    6.20
  -4  -5   1   41.00    7.70
  -4  -5   1   24.50    5.20
   3   5  -1    1.40    1.70
  -3  -5   1   -0.50    0.60
  -3  -5   1   -0.40    0.80
  -3  -5   1    4.00    2.60
   2   5  -1    7.10    3.10
   2   5  -1    9.20    3.20
  -2  -5   1    5.00    2.20
  -2  -5   1   14.80    3.80
  -2  -5   1    7.50    3.20
   1   5  -1    0.70    0.90
   1   5  -1   -1.30    0.60
  -1  -5   1   -1.10    0.50
  -1  -5   1    0.40    1.00
  -1  -5   1    1.60    1.30
   0   5  -1   11.10    3.00
   0   5  -1   14.40    4.00
   0  -5   1   10.30    2.70
   0  -5   1   16.20    3.90
  -1   5  -1   30.00    4.80
  -1   5  -1   35.90    5.30
  -1   5  -1   35.80    6.10
   1  -5   1   38.10    5.90
   1  -5   1   34.10    5.20
  -2   5  -1    5.60    2.50
   2  -5   1    3.60    2.30
  -3   5  -1   18.90    4.60
  -3   5  -1   18.00    4.20
   3  -5   1   19.00    4.60
  -4   5  -1    0.10    1.50
  -4   5  -1    0.80    1.30
  -4   5  -1    1.30    1.60
   6   4  -1    2.80    2.00
  -6  -4   1   -0.70    0.80
  -6  -4   1   -0.40    0.90
   5   4  -1   -0.50    0.70
  -5  -4   1    1.40    1.40
  -5  -4   1    2.20    1.70
  -5  -4   1    3.80    2.80
   4   4  -1    0.00    0.70
  -4  -4   1    2.10    1.70
  -4  -4   1   -0.10    0.50
  -4  -4   1    0.50    1.30
   3   4  -1   34.80    6.60
  -3  -4   1   31.90    6.60
  -3  -4   1   39.30    6.60
  -3  -4   1   23.00    4.60
   2   4  -1   16.90    4.20
   2   4  -1   23.30    4.70
  -2  -4   1   24.60    4.30
  -2  -4   1   33.10    5.80
  -2  -4   1   24.00    4.90
   1   4  -1   54.59    6.60
   1   4  -1   64.49    7.70
  -1  -4   1   66.99    5.30
  -1  -4   1   61.89    4.60
  -1  -4   1   62.79    8.20
   0   4  -1   17.10    3.30
   0   4  -1   19.70    4.10
   0  -4   1   13.90    3.10
   0  -4   1   21.10    3.60
  -1   4  -1   28.90    4.20
  -1   4  -1   19.20    4.10
   1  -4   1   25.70    5.20
  -2   4  -1    3.80    1.90
  -2   4  -1    2.50    1.50
  -2   4  -1    1.50    1.20
   2  -4   1    3.40    1.90
  -3   4  -1    4.20    2.10
  -3   4  -1    1.80    1.70
  -3   4  -1    0.20    1.20
   3  -4   1    0.20    0.80
  -4   4  -1    2.00    1.70
  -4   4  -1    0.50    1.40
  -4   4  -1   -0.10    0.90
  -5   4  -1   10.60    3.70
  -5   4  -1   10.40    5.00
   8   3  -1    3.10    3.50
   7   3  -1   -0.20    1.10
   6   3  -1    7.50    3.50
  -6  -3   1    2.40    2.30
   5   3  -1    8.30    5.10
  -5  -3   1    6.10    3.10
  -5  -3   1   10.80    4.30
  -5  -3   1    7.80    3.10
   4   3  -1    4.30    2.60
  -4  -3   1    9.50    3.70
  -4  -3   1   13.80    3.80
  -4  -3   1    7.50    2.80
   3   3  -1   10.80    3.70
  -3  -3   1    3.50    1.90
   2   3  -1   30.60    5.00
   2   3  -1   27.00    4.90
  -2  -3   1   22.30    3.90
  -2  -3   1   30.60    4.90
  -2  -3   1   21.90    4.30
   1   3  -1  330.87   12.10
   1   3  -1  322.07   13.40
   1   3  -1  322.37   12.90
  -1  -3   1  321.57   12.50
  -1  -3   1  317.57   13.30
  -1  -3   1  328.57   12.00
   0   3  -1  115.89    7.20
   0   3  -1  114.09    6.50
   0   3  -1  118.39    4.90
   0  -3   1  113.19    7.00
   0  -3   1  108.29    6.30
  -1   3  -1  326.17   13.40
   1  -3   1  310.67   12.80
   1  -3   1  315.87   12.90
  -2   3  -1    6.60    2.20
  -2   3  -1   13.80    3.30
  -2   3  -1   10.60    2.90
   2  -3   1   10.70    2.80
  -3   3  -1    0.40    0.70
  -3   3  -1    0.90    1.20
  -3   3  -1    2.00    1.80
   3  -3   1    0.60    1.10
  -4   3  -1    6.20    2.10
  -4   3  -1    7.50    3.50
  -4   3  -1    2.60    2.10
  -4   3  -1    6.30    2.60
  -5   3  -1    0.60    2.00
  -5   3  -1    3.80    2.10
  -5   3  -1    7.20    3.60
  -5   3  -1    1.10    1.10
  -6   3  -1   -0.40    1.60
  -6   3  -1    0.70    1.60
  -6   3  -1   -0.70    1.00
  -6   3  -1    1.50    1.70
   8   2  -1    3.80    3.60
   7   2  -1   -0.10    1.30
   6   2  -1   17.60    5.80
  -6  -2   1   13.40    4.70
  -6  -2   1    6.60    3.20
   5   2  -1   11.40    4.00
  -5  -2   1    1.60    1.50
  -5  -2   1    5.40    3.00
   4   2  -1  169.18   11.60
  -4  -2   1  148.99   10.70
  -4  -2   1  151.88   11.20
   3   2  -1   28.40    4.80
   3   2  -1   24.10    4.70
  -3  -2   1   29.30    5.00
  -3  -2   1   23.00    4.20
  -3  -2   1   21.10    4.80
   2   2  -1   83.69    8.50
   2   2  -1   70.39    7.20
  -2  -2   1   64.79    6.10
  -2  -2   1   70.09    7.00
  -2  -2   1   67.59    5.50
   1   2  -1  104.49    5.90
   1   2  -1  122.19    6.60
  -1  -2   1  111.79    6.30
  -1  -2   1  117.09    6.30
  -1  -2   1  119.89    6.10
   0   2  -1  503.55   16.40
   0   2  -1  513.55   14.10
   0   2  -1  513.95   15.80
   0  -2   1  492.75   16.10
   0  -2   1  514.25   15.80
   0  -2   1  505.15   14.10
  -1   2  -1  125.29    6.70
  -1   2  -1  141.19    8.30
   1  -2   1  137.79    7.10
   1  -2   1  136.79    6.90
  -2   2  -1  275.17   12.70
  -2   2  -1  269.07   12.10
  -2   2  -1  295.07   11.90
   2  -2   1  258.97   11.40
  -3   2  -1   45.60    5.90
  -3   2  -1   52.39    5.80
  -3   2  -1   59.09    7.90
  -3   2  -1   50.19    6.80
   3  -2   1   48.50    6.10
  -4   2  -1   65.59    9.00
  -4   2  -1   60.99    7.30
  -4   2  -1   48.80    6.60
  -5   2  -1    0.50    1.20
  -5   2  -1    3.00    2.40
  -5   2  -1    0.00    0.80
  -6   2  -1    1.70    2.10
  -6   2  -1    0.10    1.10
  -6   2  -1   -0.50    1.00
  -6   2  -1    2.10    3.70
  -7  -1   1   18.70    6.50
   6   1  -1   13.10    5.50
  -6  -1   1    6.90    3.60
  -6  -1   1   13.10    4.60
   5   1  -1   25.50    6.50
  -5  -1   1   28.30    6.20
  -5  -1   1   26.00    5.90
   4   1  -1   -1.20    1.50
  -4  -1   1   -1.40    0.90
  -4  -1   1    1.20    1.50
   3   1  -1    4.70    2.10
   3   1  -1    5.80    2.10
  -3  -1   1    1.20    1.30
  -3  -1   1    9.90    3.30
   2   1  -1  694.03   22.10
   2   1  -1  687.33   22.10
  -2  -1   1  662.93   20.50
  -2  -1   1  683.93   22.00
   1   1  -1  637.64   18.60
   1   1  -1  630.54   18.40
   1   1  -1  622.74   17.90
  -1  -1   1  614.14   18.20
  -1  -1   1  624.54   18.00
  -1  -1   1  622.84   18.40
   0   1  -1   49.60    3.30
   0   1  -1   51.79    2.80
   0   1  -1   50.99    3.20
   0  -1   1   58.19    3.40
   0  -1   1   48.70    2.80
   0  -1   1   46.00    3.10
  -1   1  -1   15.50    2.40
  -1   1  -1   20.40    2.40
  -1   1  -1   22.20    3.00
   1  -1   1   21.60    2.90
   1  -1   1   22.50    3.30
  -2   1  -1  147.69    8.20
  -2   1  -1  149.39    8.30
  -2   1  -1  134.29    8.00
   2  -1   1  137.39    7.10
  -3   1  -1    0.00    0.80
  -3   1  -1    2.20    1.30
  -3   1  -1    4.80    2.40
   3  -1   1    2.90    1.90
  -4   1  -1  141.89    9.00
  -4   1  -1  125.19    8.90
  -4   1  -1  158.98   11.10
  -4   1  -1  147.39   11.00
   4  -1   1  155.28   11.10
  -5   1  -1   27.30    5.30
  -5   1  -1   32.20    6.80
  -5   1  -1   27.10    5.80
  -5   1  -1   20.30    5.40
   5  -1   1   36.70    7.60
  -6   1  -1   22.80    6.00
  -6   1  -1   45.30    8.70
  -6   1  -1   33.50    6.30
  -6   1  -1   24.30    5.70
   6  -1   1   31.40    7.20
  -7   1  -1   -0.90    1.50
  -7   1  -1    2.10    3.80
  -7   1  -1   11.10    4.60
  -7   1  -1    4.50    3.60
   7  -1   1   -0.40    1.40
   7   0  -1   -0.30    1.30
  -7   0   1   -0.80    1.30
  -7   0   1    1.50    1.90
   6   0  -1    0.70    1.50
  -6   0   1    1.30    1.60
  -6   0   1    0.90    1.80
   5   0  -1   21.80    5.80
  -5   0   1   12.30    3.80
  -5   0   1   19.10    5.30
  -4   0   1   70.99    8.60
  -4   0   1   74.79    9.20
   3   0  -1  211.48   11.00
   3   0  -1  229.48   12.00
  -3   0   1  211.68   11.50
  -3   0   1  212.38   11.00
   2   0  -1  860.41   26.00
  -2   0   1  887.51   25.60
  -2   0   1  887.11   26.00
   1   0  -1  305.37   10.50
   1   0  -1  316.47   10.50
  -1   0   1  330.17    9.50
  -1   0   1  320.87   10.50
   0   0  -1 2526.65   74.39
  -1   0  -1 1403.86   53.79
  -2   0  -1  648.94   20.90
  -2   0  -1  634.94   20.80
  -2   0  -1  639.24   19.20
   2   0   1  619.74   20.50
  -3   0  -1   48.30    7.10
  -3   0  -1   26.30    4.30
   3   0   1   32.60    5.20
  -4   0  -1   -0.60    0.50
  -4   0  -1    1.00    1.10
  -4   0  -1    0.50    1.20
  -4   0  -1    0.90    1.20
   4   0   1    0.30    1.00
  -5   0  -1    1.30    1.30
  -5   0  -1   -0.10    1.10
  -5   0  -1    0.00    0.70
  -5   0  -1   -0.40    0.60
   5   0   1    0.60    1.30
  -6   0  -1   61.29   10.10
  -6   0  -1   53.19    8.80
  -6   0  -1   63.99    8.90
  -6   0  -1   65.29   10.90
   6   0   1   60.89    9.90
  -7   0  -1   27.10    7.00
  -7   0  -1   24.60    5.70
   7   0   1   18.60    5.90
   7  -1  -1    0.40    1.80
  -7   1   1    1.40    1.50
  -7   1   1   12.30    4.70
  -7   1   1    0.80    1.90
   6  -1  -1    9.70    4.20
  -6   1   1    6.00    2.40
  -6   1   1    6.30    3.60
  -6   1   1    1.20    1.30
   5  -1  -1    3.90    2.70
  -5   1   1    0.20    1.40
  -5   1   1    0.70    1.50
  -5   1   1    0.50    1.10
   4  -1  -1   27.60    6.00
  -4   1   1   15.50    4.00
  -4   1   1   15.60    4.10
  -4   1   1   17.80    4.20
   3  -1  -1    8.10    2.70
  -3   1   1   11.10    3.00
  -3   1   1    6.90    2.30
   2  -1  -1   20.60    3.50
   2  -1  -1   16.20    3.30
  -2   1   1   16.30    3.00
  -2   1   1   16.90    2.90
   1  -1  -1  201.68    7.30
   1  -1  -1  193.18    7.20
  -1   1   1  199.18    7.20
  -1   1   1  208.98    7.40
  -1   1   1  196.78    5.80
   0  -1  -1 3417.56   82.59
   0   1   1 3385.76   82.49
  -1  -1  -1  911.51   37.60
   1   1   1  938.91   38.30
  -2  -1  -1 8856.21  239.28
  -3  -1  -1  334.17   15.30
   3   1   1  355.76   15.40
  -4  -1  -1 1691.83   50.79
   4   1   1 1669.73   50.39
  -5  -1  -1   38.50    7.80
  -5  -1  -1   61.39    9.20
   5   1   1   50.49    8.70
  -6  -1  -1    2.30    2.10
  -6  -1  -1    3.00    2.30
   6   1   1    0.90    2.10
  -7  -1  -1    5.30    3.20
  -7  -1  -1    4.50    3.60
  -7  -1  -1    1.80    2.10
   7   1   1    3.80    2.90
  -8  -1  -1    2.10    1.90
   8   1   1    8.20    5.80
   6  -2  -1   13.20    4.90
  -6   2   1    4.70    3.10
  -6   2   1   10.00    3.70
  -6   2   1    8.20    3.50
  -6   2   1    8.90    3.20
   5  -2  -1   50.69    8.60
  -5   2   1   34.50    6.20
  -5   2   1   38.80    7.30
  -5   2   1   37.70    5.50
  -5   2   1   54.29    8.30
   4  -2  -1   22.80    5.00
  -4   2   1   18.80    4.80
  -4   2   1   19.80    4.10
  -4   2   1   26.80    4.90
   3  -2  -1  177.28   10.20
  -3   2   1  193.18   10.40
  -3   2   1  172.58    8.90
   2  -2  -1   11.00    2.20
   2  -2  -1    9.00    2.30
  -2   2   1   10.70    2.20
  -2   2   1   11.50    1.90
  -2   2   1    8.60    2.30
   1  -2  -1  341.57   10.00
   1  -2  -1  337.27   10.30
  -1   2   1  334.17    9.80
  -1   2   1  330.87   10.00
  -1  -2  -1   33.40    2.50
   1   2   1   32.40    2.60
  -2  -2  -1  139.09    7.60
  -3  -2  -1  833.02   28.00
   3   2   1  867.31   28.30
  -4  -2  -1 3484.25   91.29
  -5  -2  -1   33.10    6.60
  -5  -2  -1   31.50    6.20
   5   2   1   34.90    7.10
  -6  -2  -1  959.70   38.00
  -6  -2  -1  910.51   36.90
   6   2   1  944.41   38.00
  -7  -2  -1   11.50    5.30
   7   2   1    5.40    3.40
  -6   3   1    0.90    1.50
  -6   3   1    1.50    2.20
  -6   3   1    0.90    1.30
  -6   3   1    2.40    2.80
   5  -3  -1    0.70    1.40
  -5   3   1    3.10    2.50
  -5   3   1    3.60    2.20
  -5   3   1    3.40    2.50
  -5   3   1    0.90    1.10
   4  -3  -1    9.50    3.40
  -4   3   1    9.10    3.40
  -4   3   1    6.60    2.20
  -4   3   1    4.20    1.80
  -4   3   1    4.20    2.00
  -3   3   1   40.40    4.60
  -3   3   1   40.80    4.70
  -3   3   1   36.70    5.60
  -3   3   1   50.09    6.60
   2  -3  -1   29.10    3.60
  -2   3   1   25.50    3.70
  -2   3   1   19.40    3.30
  -2   3   1   22.90    3.10
   1  -3  -1 1478.85   36.90
  -1   3   1 1453.05   37.10
   0  -3  -1    8.00    1.40
   0  -3  -1   10.20    2.00
   0   3   1    7.40    1.80
  -1  -3  -1 2704.33   81.19
   1   3   1 2637.34   81.29
  -2  -3  -1 1122.39   31.30
   2   3   1 1087.79   31.50
  -3  -3  -1    0.20    0.90
   3   3   1   -0.10    0.90
  -4  -3  -1   33.20    5.70
  -4  -3  -1   33.50    6.10
   4   3   1   24.80    5.10
  -5  -3  -1  143.09   14.90
   5   3   1  149.79   12.00
  -6  -3  -1  570.74   27.80
   6   3   1  533.85   27.00
   7   3   1    4.20    2.50
   8   3   1  245.28   20.00
  -5   4   1   20.40    5.30
  -5   4   1   21.00    4.00
  -5   4   1   14.00    4.50
  -4   4   1    1.40    1.20
  -4   4   1    0.40    1.00
  -4   4   1    4.10    2.00
  -3   4   1    0.60    1.00
  -3   4   1    2.10    1.20
  -3   4   1    1.00    1.10
   2  -4  -1   -0.20    0.50
  -2   4   1    0.50    0.60
  -2   4   1    0.20    0.80
   1  -4  -1   21.90    3.20
  -1   4   1   18.90    4.10
   0  -4  -1    1.00    0.80
   0   4   1    2.30    1.20
  -1  -4  -1 1029.60   26.70
  -1  -4  -1 1044.90   30.20
   1   4   1 1030.20   27.40
  -2  -4  -1   39.40    5.30
  -2  -4  -1   44.40    5.10
  -2  -4  -1   38.70    5.60
   2   4   1   40.50    6.10
  -3  -4  -1 1472.45   43.60
  -3  -4  -1 1466.95   44.00
   3   4   1 1486.55   43.40
  -4  -4  -1  373.76   18.00
  -4  -4  -1  370.86   18.40
   4   4   1  369.26   18.30
  -5  -4  -1   26.10    6.20
  -5  -4  -1   15.90    4.40
   5   4   1   31.80    7.30
  -6  -4  -1    5.30    2.60
   6   4   1   21.60    5.80
   7   4   1    1.60    2.00
   8   4   1   29.70    7.80
  -4   5   1    0.00    0.90
  -4   5   1    0.30    1.20
  -4   5   1    1.20    1.40
  -3   5   1  117.19    7.50
  -3   5   1  121.99    7.80
   2  -5  -1   14.30    3.10
   1  -5  -1   19.80    3.50
  -1   5   1   24.10    4.10
   0  -5  -1    1.70    1.20
  -1  -5  -1   52.99    4.20
  -1  -5  -1   58.99    6.70
  -2  -5  -1   17.00    3.20
  -2  -5  -1   12.40    3.30
  -2  -5  -1   13.80    3.50
   2   5   1   13.40    3.00
  -3  -5  -1  121.69    8.50
  -3  -5  -1  139.59    9.70
   3   5   1  132.19    9.10
  -4  -5  -1   51.89    8.40
  -4  -5  -1   31.50    5.70
  -4  -5  -1   47.40    7.20
   4   5   1   44.10    7.80
  -5  -5  -1  242.38   15.30
  -5  -5  -1  228.78   15.30
  -5  -5  -1  251.77   16.60
   5   5   1  243.78   16.10
  -6  -5  -1   62.89   10.70
   6   5   1   57.79   10.60
  -3   6   1   24.70    4.50
  -2   6   1    8.70    2.80
  -1   6   1  162.68    9.70
   0  -6  -1   60.59    7.10
  -1  -6  -1   65.49    8.10
  -2  -6  -1    6.50    2.00
  -2  -6  -1    7.60    2.50
  -2  -6  -1    4.50    2.10
   2   6   1    5.20    1.90
  -3  -6  -1    9.30    3.40
  -3  -6  -1    2.90    2.10
  -3  -6  -1    1.60    1.30
   3   6   1    2.60    1.90
  -4  -6  -1    0.50    1.00
  -4  -6  -1    5.20    2.60
  -4  -6  -1    9.10    3.80
   4   6   1    1.20    1.70
  -5  -6  -1    6.30    3.60
  -5  -6  -1    1.00    1.50
  -5  -6  -1    0.20    1.00
   5   6   1    1.70    1.90
   6   6   1   10.30    4.60
   7   6   1   13.30    5.40
   1  -7  -1   22.50    4.70
   0  -7  -1   20.50    4.40
  -1  -7  -1   90.49   10.20
  -2  -7  -1   32.50    5.00
  -2  -7  -1   26.10    5.70
   2   7   1   20.20    3.90
  -3  -7  -1   37.90    5.80
  -3  -7  -1   39.40    6.90
  -3  -7  -1   33.60    7.00
   3   7   1   44.50    6.90
  -4  -7  -1    3.40    2.40
  -4  -7  -1    2.30    1.70
   4   7   1    4.50    2.50
  -5  -7  -1    8.30    4.10
   5   7   1    6.20    3.30
   6   7   1    4.40    2.70
  -1  -8  -1    4.00    3.10
  -2  -8  -1    6.10    2.90
  -3  -8  -1   20.90    7.30
  -3  -8  -1   11.10    3.30
  -3  -8  -1   15.90    3.40
   3   8   1   30.20    5.70
  -4  -8  -1    1.40    1.90
  -4  -8  -1    1.80    1.70
   4   8   1    0.80    1.30
   5   7  -2    5.50    3.60
  -4  -7   2    4.70    2.90
   3   7  -2    1.80    2.00
  -3  -7   2    2.20    2.10
   2   7  -2    9.90    3.90
  -2  -7   2    6.60    2.40
  -2  -7   2    9.50    3.60
   1   7  -2   21.30    5.40
   1   7  -2    9.60    4.20
  -1  -7   2   35.20    6.50
   0   7  -2   30.10    7.10
   0   7  -2   15.60    4.10
   0  -7   2   25.00    5.00
   6   6  -2  133.19   16.00
   5   6  -2    0.50    1.70
  -5  -6   2    0.80    1.80
   4   6  -2  407.56   22.00
  -4  -6   2  402.16   20.90
  -4  -6   2  387.66   20.80
   3   6  -2    4.00    2.80
  -3  -6   2    4.40    2.60
  -3  -6   2    3.50    2.30
  -3  -6   2    4.40    2.70
   2   6  -2   82.29   10.70
   2   6  -2   85.39   11.10
  -2  -6   2   70.19   10.10
  -2  -6   2   80.69    9.90
  -2  -6   2   87.99    9.00
   1   6  -2   10.30    3.50
   1   6  -2    7.80    3.30
  -1  -6   2    8.80    3.10
   0   6  -2    0.10    1.00
   0   6  -2    0.70    1.30
   0  -6   2    2.10    1.90
  -1   6  -2    0.90    1.50
  -1   6  -2   -0.30    0.90
  -1   6  -2    0.70    1.30
   1  -6   2    0.40    1.40
   1  -6   2    0.50    1.60
  -2   6  -2    3.60    2.70
  -2   6  -2    7.40    3.00
  -2   6  -2    8.80    3.40
   2  -6   2    7.80    3.60
   7   5  -2    0.20    1.90
   5   5  -2    1.40    1.70
  -5  -5   2    1.60    2.00
  -5  -5   2   -0.20    1.30
   4   5  -2  147.59   12.30
  -4  -5   2  153.98   12.00
  -4  -5   2  188.18   20.20
  -4  -5   2  120.39   15.00
   3   5  -2   12.30    4.00
  -3  -5   2   18.20    5.00
  -3  -5   2    9.30    3.20
  -3  -5   2   10.70    3.70
   2   5  -2  483.05   21.90
  -2  -5   2  469.25   21.20
  -2  -5   2  452.65   18.70
  -2  -5   2  480.65   20.10
   1   5  -2    2.70    1.90
  -1  -5   2    6.10    3.10
  -1  -5   2    7.70    2.60
  -1  -5   2    5.70    2.70
   0   5  -2  227.68   12.60
   0  -5   2  244.38   12.60
   0  -5   2  236.28   13.70
  -1   5  -2   11.90    3.90
  -1   5  -2    9.70    3.00
   1  -5   2    6.50    2.80
   1  -5   2    4.90    2.50
  -2   5  -2   16.20    4.40
  -2   5  -2    6.90    2.60
  -2   5  -2    7.70    3.40
   2  -5   2   12.90    4.10
  -3   5  -2    1.80    1.60
  -3   5  -2    0.60    1.20
  -3   5  -2    4.40    2.80
   3  -5   2   -0.40    1.10
   7   4  -2   24.90    7.70
   6   4  -2   37.90    9.00
  -6  -4   2   17.00    5.40
   5   4  -2    4.60    2.50
  -5  -4   2    3.10    2.30
  -5  -4   2    2.60    2.50
   4   4  -2    5.10    2.70
  -4  -4   2    4.80    2.70
  -4  -4   2    4.30    2.80
  -4  -4   2    6.20    3.20
   3   4  -2    3.00    1.80
   3   4  -2    3.80    2.10
  -3  -4   2    5.10    2.40
  -3  -4   2   11.40    3.80
  -3  -4   2    7.10    3.10
   2   4  -2    5.50    2.60
   2   4  -2   12.80    3.70
   2   4  -2    4.60    2.20
  -2  -4   2    3.80    2.10
  -2  -4   2   10.40    3.30
  -2  -4   2    6.50    2.60
   1   4  -2   73.59    5.80
   1   4  -2   93.59    9.90
   1   4  -2   88.69    9.60
  -1  -4   2   89.99    9.50
  -1  -4   2   79.39    6.60
  -1  -4   2   76.89    5.70
   0   4  -2   98.69    7.40
   0   4  -2  121.69    8.80
   0   4  -2  102.69    5.60
   0  -4   2  107.29    5.50
   0  -4   2  104.69   10.10
   0  -4   2   82.99    6.80
  -1   4  -2    7.50    2.60
  -1   4  -2    5.90    2.60
   1  -4   2    2.80    1.80
  -2   4  -2  136.59    9.80
  -2   4  -2  121.29   10.20
  -2   4  -2  139.99   10.00
   2  -4   2  123.29    9.40
   2  -4   2  140.79    9.70
  -3   4  -2   26.90    5.60
  -3   4  -2   35.70    7.10
  -3   4  -2   28.70    6.60
   3  -4   2   43.10    7.10
  -4   4  -2   11.70    4.00
  -4   4  -2   18.70    5.70
  -4   4  -2   12.30    4.10
   7   3  -2    3.90    3.20
   6   3  -2   25.00    7.50
  -6  -3   2   26.90    5.80
  -6  -3   2   36.10    8.30
   5   3  -2   18.20    5.60
  -5  -3   2   18.00    4.60
  -5  -3   2   10.00    3.80
  -5  -3   2   18.80    5.00
   4   3  -2   48.40    8.30
   4   3  -2   52.29    9.10
  -4  -3   2   34.10    5.80
  -4  -3   2   38.10    6.90
  -4  -3   2   35.80    6.50
   3   3  -2   11.50    3.80
   3   3  -2   11.00    3.30
  -3  -3   2   11.00    3.40
  -3  -3   2    8.70    2.90
   2   3  -2   32.20    5.50
   2   3  -2   40.40    6.10
   2   3  -2   43.00    6.30
  -2  -3   2   36.10    5.80
  -2  -3   2   33.60    5.30
   1   3  -2   31.40    5.00
   1   3  -2   30.00    5.10
  -1  -3   2   25.70    4.70
  -1  -3   2   40.10    5.60
  -1  -3   2   32.20    4.70
   0   3  -2   75.89    5.90
   0   3  -2   87.39    8.50
   0   3  -2   73.89    4.60
   0  -3   2   74.69    5.80
   0  -3   2   69.19    4.40
   0  -3   2   67.59    7.40
  -1   3  -2   41.90    5.70
  -1   3  -2   50.29    6.60
   1  -3   2   50.19    6.30
  -2   3  -2   15.90    4.00
  -2   3  -2   26.90    5.10
  -2   3  -2   17.20    4.10
   2  -3   2   18.70    4.40
   2  -3   2    9.60    2.90
  -3   3  -2    0.50    1.20
  -3   3  -2    0.70    0.70
  -3   3  -2    0.60    1.10
  -3   3  -2    0.40    0.50
   3  -3   2    0.20    0.90
  -4   3  -2   17.80    3.50
  -4   3  -2   27.50    6.40
  -4   3  -2   12.40    4.00
  -4   3  -2   17.30    5.40
  -4   3  -2   16.80    3.50
  -5   3  -2   12.40    4.80
  -5   3  -2   16.50    5.70
  -5   3  -2   11.30    3.30
  -5   3  -2   12.00    3.40
  -5   3  -2    7.30    3.30
   7   2  -2    2.60    2.90
   6   2  -2    3.00    2.90
  -6  -2   2    2.20    2.30
  -6  -2   2    1.50    1.80
  -6  -2   2    0.60    1.50
   5   2  -2    3.20    1.80
  -5  -2   2    2.40    1.90
  -5  -2   2    2.50    2.30
  -5  -2   2    3.60    2.20
   4   2  -2  133.89   10.50
   4   2  -2  113.89   12.60
  -4  -2   2  120.49   12.50
  -4  -2   2  117.19    9.90
  -4  -2   2  126.19    8.90
   3   2  -2   64.49    8.80
   3   2  -2   86.49    8.90
  -3  -2   2  103.29   10.10
  -3  -2   2   98.29   10.40
  -3  -2   2   89.49   10.50
   2   2  -2   93.39    7.10
   2   2  -2   86.79    6.40
   2   2  -2   81.99    6.50
  -2  -2   2   79.79    6.10
  -2  -2   2   91.39    6.60
  -2  -2   2   77.89    6.30
   1   2  -2   11.00    2.80
   1   2  -2   11.80    2.90
   1   2  -2   11.30    2.80
  -1  -2   2   13.10    3.10
  -1  -2   2   10.60    2.50
  -1  -2   2    8.10    2.40
   0   2  -2  222.28    9.00
   0   2  -2  232.38   10.50
   0   2  -2  235.48   10.40
   0  -2   2  222.08   10.20
   0  -2   2  226.68   10.30
   0  -2   2  224.78    8.90
  -1   2  -2    7.40    1.80
  -1   2  -2    5.60    1.90
  -1   2  -2    4.70    2.20
   1  -2   2    5.30    2.10
   1  -2   2    5.90    2.10
  -2   2  -2   17.90    2.90
  -2   2  -2   21.50    4.10
  -2   2  -2   21.30    4.20
  -2   2  -2   15.10    3.80
   2  -2   2   13.10    3.40
   2  -2   2   13.90    3.20
  -3   2  -2   17.00    4.00
  -3   2  -2    7.10    3.00
  -3   2  -2   15.20    3.80
   3  -2   2   16.20    3.90
  -4   2  -2   11.90    3.30
  -4   2  -2   11.60    4.40
  -4   2  -2   18.70    5.00
  -4   2  -2   16.30    4.40
  -5   2  -2   -0.70    0.80
  -5   2  -2    0.90    1.80
  -5   2  -2    2.50    1.90
  -5   2  -2    1.30    2.10
  -6   2  -2   -0.70    1.20
  -6   2  -2    1.40    1.80
  -6   2  -2   -0.70    1.20
  -6   2  -2   -0.90    1.40
   7   1  -2   -0.70    1.00
  -7  -1   2    0.60    1.60
   6   1  -2   -0.20    0.80
  -6  -1   2    4.70    3.20
   5   1  -2    9.00    4.00
  -5  -1   2   10.50    4.10
  -5  -1   2   11.40    3.80
   4   1  -2   77.99   10.50
   4   1  -2   64.39    8.80
  -4  -1   2   68.19    7.90
  -4  -1   2   45.60    8.20
  -4  -1   2   44.20    6.70
   3   1  -2   22.20    4.50
   3   1  -2   21.00    4.40
  -3  -1   2   36.20    6.50
  -3  -1   2   24.70    4.70
  -3  -1   2   28.30    4.20
   2   1  -2   14.70    3.50
   2   1  -2   12.30    3.00
  -2  -1   2   13.40    3.20
  -2  -1   2    9.80    2.70
  -2  -1   2   13.20    3.00
   1   1  -2 1031.90   29.40
  -1  -1   2 1047.40   28.30
  -1  -1   2 1001.70   29.00
  -1  -1   2 1022.30   28.90
   0   1  -2  155.38    7.40
   0   1  -2  173.58    7.90
   0   1  -2  174.58    7.40
   0  -1   2  170.58    7.80
   0  -1   2  162.38    7.50
   0  -1   2  151.18    6.90
  -1   1  -2    7.40    1.80
  -1   1  -2    5.20    1.80
  -1   1  -2   10.20    2.50
   1  -1   2    4.10    1.60
   1  -1   2    3.40    1.50
  -2   1  -2    8.00    2.80
  -2   1  -2    8.80    2.40
  -2   1  -2    9.90    2.90
   2  -1   2    9.20    2.50
   2  -1   2   10.00    3.00
  -3   1  -2    0.30    0.70
  -3   1  -2   -0.60    0.70
  -3   1  -2   -0.10    0.80
   3  -1   2    1.60    1.20
  -4   1  -2    1.70    1.40
  -4   1  -2    2.40    1.80
  -4   1  -2    1.70    1.50
  -5   1  -2   31.70    6.20
  -5   1  -2   37.20    7.80
  -5   1  -2   30.50    6.60
  -6   1  -2    0.40    1.60
  -6   1  -2    1.50    2.30
  -6   1  -2    2.60    2.30
  -6   1  -2    0.30    1.10
  -7   1  -2    4.70    2.70
  -7   1  -2   -0.80    1.50
  -7   1  -2    0.20    2.20
  -7   1  -2    4.60    3.60
   7   0  -2   -0.50    1.10
  -7   0   2    0.50    2.70
   6   0  -2   -0.80    1.00
  -6   0   2    0.80    1.90
  -6   0   2    1.30    1.50
   5   0  -2   22.80    6.00
  -5   0   2   16.90    4.80
  -5   0   2   22.10    5.40
   4   0  -2   21.30    5.50
   4   0  -2   23.00    5.40
  -4   0   2   14.70    4.30
  -4   0   2   11.40    3.40
   3   0  -2    0.30    1.00
  -3   0   2   -0.20    0.60
  -3   0   2    0.40    0.80
   2   0  -2  225.48   10.70
   2   0  -2  229.08   10.70
  -2   0   2  229.98   10.70
  -2   0   2  235.38    9.00
  -2   0   2  241.58   11.00
   1   0  -2   53.69    3.40
   1   0  -2   60.79    4.30
   1   0  -2   58.59    4.40
  -1   0   2   55.49    4.10
  -1   0   2   58.49    4.40
  -1   0   2   62.09    3.60
   0   0  -2 2320.27   76.29
   0   0   2 2213.68   75.39
  -1   0  -2  510.95   15.50
  -1   0  -2  485.25   15.80
  -1   0  -2  506.25   16.30
   1   0   2  491.65   16.20
   1   0   2  497.85   15.40
  -2   0  -2   96.29    6.60
  -2   0  -2   77.39    6.20
  -2   0  -2   81.49    5.50
   2   0   2   81.99    5.60
   2   0   2   83.99    6.20
  -3   0  -2   23.20    4.70
  -3   0  -2   19.10    3.80
  -3   0  -2   16.80    4.30
   3   0   2   26.80    5.50
  -4   0  -2   61.99    9.70
  -4   0  -2   53.09    7.10
  -4   0  -2   40.30    7.80
   4   0   2   46.30    7.80
  -5   0  -2    1.20    2.00
  -5   0  -2   -0.20    0.90
  -5   0  -2    3.30    2.10
  -5   0  -2   -0.40    0.70
   5   0   2    0.20    1.10
  -6   0  -2    0.00    1.00
  -6   0  -2   -0.20    0.90
  -6   0  -2    1.50    1.60
  -6   0  -2   -0.20    1.00
   6   0   2    1.40    1.80
  -7   0  -2    2.00    3.10
  -7   0  -2    3.20    2.30
  -7   0  -2    6.90    3.80
  -7   0  -2    1.40    2.40
   7   0   2    1.00    1.80
   7  -1  -2    0.90    2.30
  -7   1   2    1.10    2.50
  -7   1   2    5.10    2.70
   6  -1  -2    0.90    1.70
  -6   1   2    0.20    1.00
  -6   1   2    0.60    1.60
  -6   1   2   -0.30    1.20
   5  -1  -2    4.70    2.90
  -5   1   2    6.00    3.00
  -5   1   2    2.90    1.80
   4  -1  -2    0.00    0.80
   4  -1  -2    1.80    1.60
  -4   1   2    0.40    1.00
   3  -1  -2   97.89    7.60
   3  -1  -2  129.69    8.40
  -3   1   2  104.99    7.40
  -3   1   2  109.59    8.00
   2  -1  -2    3.70    1.70
   2  -1  -2    1.10    1.10
  -2   1   2    1.30    1.00
  -2   1   2    0.70    1.00
   1  -1  -2  726.33   21.20
  -1   1   2  735.33   20.70
  -1   1   2  716.03   21.30
  -1   1   2  737.43   17.90
   0  -1  -2    0.60    0.50
   0  -1  -2   -0.30    0.50
   0  -1  -2    0.80    0.60
   0   1   2    2.40    0.70
   0   1   2    3.10    1.00
   0   1   2    0.80    0.60
  -1  -1  -2  286.07   10.70
  -1  -1  -2  288.47    9.60
  -1  -1  -2  273.57   10.10
   1   1   2  268.07   10.20
  -2  -1  -2 1422.76   77.69
  -3  -1  -2    6.60    2.30
  -3  -1  -2    6.40    2.70
   3   1   2    7.40    2.50
  -4  -1  -2  110.59   10.80
  -4  -1  -2   92.59   10.10
  -4  -1  -2  105.99   11.10
   4   1   2  113.39   12.20
  -5  -1  -2    5.10    3.00
  -5  -1  -2   15.90    4.30
  -5  -1  -2   11.10    4.30
   5   1   2    9.70    3.90
  -6  -1  -2    7.10    3.20
  -6  -1  -2   -0.10    1.00
  -6  -1  -2    2.80    2.40
  -6  -1  -2    1.30    1.70
   6   1   2    4.70    3.00
  -7  -1  -2    3.40    2.90
  -7  -1  -2    0.00    1.20
  -7  -1  -2   -0.10    1.40
   7   1   2    0.90    1.40
   6  -2  -2    8.00    3.50
  -6   2   2    5.10    2.00
  -6   2   2   10.70    4.60
  -6   2   2    6.80    3.70
   5  -2  -2   12.20    4.60
  -5   2   2    9.50    3.70
  -5   2   2    8.80    3.70
  -5   2   2   13.20    3.30
   4  -2  -2    1.70    1.40
  -4   2   2    0.00    0.90
  -4   2   2    0.90    1.00
  -4   2   2    0.50    1.30
   3  -2  -2   78.09    6.30
   3  -2  -2   88.59    7.00
  -3   2   2   96.59    7.20
  -3   2   2   92.79    6.70
  -3   2   2   91.49    5.00
   2  -2  -2   17.40    3.20
   2  -2  -2   13.60    2.90
  -2   2   2   13.80    2.90
  -2   2   2   25.90    4.10
  -2   2   2   15.40    1.80
   1  -2  -2   52.89    3.30
   1  -2  -2   55.79    3.90
  -1   2   2   56.99    3.90
   0  -2  -2   -0.20    0.50
   0  -2  -2    0.70    0.40
   0   2   2    0.60    0.80
  -1  -2  -2 1065.29   44.20
  -1  -2  -2 1069.39   43.20
  -2  -2  -2  126.29    7.40
  -2  -2  -2  122.39    7.20
   2   2   2  142.79    7.60
  -3  -2  -2  124.49    8.70
  -4  -2  -2   12.50    3.90
   4   2   2    9.10    3.60
  -5  -2  -2   37.50    7.50
   5   2   2   35.50    6.60
  -6  -2  -2    0.50    1.20
  -6  -2  -2    1.50    2.20
  -6  -2  -2    3.60    2.90
   6   2   2    1.90    2.30
  -7  -2  -2    4.30    3.50
   7   2   2    0.10    1.30
  -8  -2  -2    3.40    3.90
  -8  -2  -2   -0.20    1.40
   8   2   2   -0.20    1.50
   6  -3  -2   10.00    4.10
  -6   3   2   12.00    3.30
  -6   3   2    8.60    3.40
   5  -3  -2    6.00    3.20
  -5   3   2    4.90    2.70
  -5   3   2    1.40    1.20
  -5   3   2    6.10    3.30
  -5   3   2    1.40    1.60
   4  -3  -2   55.89    7.70
  -4   3   2   71.99    4.90
  -4   3   2   48.20    6.60
  -4   3   2   49.10    7.00
   3  -3  -2   -0.90    0.60
  -3   3   2   -0.60    0.50
  -3   3   2    0.90    0.60
  -3   3   2    1.40    1.00
   2  -3  -2   44.80    3.80
   2  -3  -2   51.29    5.10
  -2   3   2   46.50    5.00
  -2   3   2   42.40    4.60
   1  -3  -2   72.59    4.30
  -1   3   2   74.69    4.40
   0  -3  -2    6.10    1.30
   0  -3  -2    4.20    1.40
  -1  -3  -2  340.77   10.50
  -1  -3  -2  334.57   10.40
   1   3   2  330.07   10.60
  -2  -3  -2    1.10    1.00
   2   3   2    0.30    0.90
  -3  -3  -2  148.49    9.20
   3   3   2  120.39    8.40
  -4  -3  -2   28.20    6.10
   4   3   2   23.90    5.30
  -5  -3  -2    0.40    0.90
   5   3   2    0.00    0.90
  -6  -3  -2   66.29   10.10
  -6  -3  -2   71.79   11.30
   6   3   2   93.09   13.40
   7   3   2   21.70    6.80
  -8  -3  -2   38.10    9.50
   8   3   2   34.70    8.40
  -5   4   2   -0.20    1.00
  -5   4   2    2.60    1.40
  -5   4   2    1.90    1.90
  -5   4   2    1.00    1.30
  -4   4   2    3.70    1.40
  -4   4   2    2.10    1.50
  -4   4   2    1.80    1.50
  -4   4   2    3.50    1.70
  -3   4   2   18.30    2.80
  -3   4   2   16.20    3.60
  -3   4   2   13.70    3.30
  -3   4   2   20.70    3.10
  -2   4   2   59.89    4.20
  -2   4   2   59.99    3.80
   1  -4  -2   15.20    2.20
  -1   4   2   17.90    2.50
   0  -4  -2  325.17   11.10
   0  -4  -2  316.07   11.10
  -1  -4  -2   28.50    4.00
  -2  -4  -2    0.10    0.50
  -2  -4  -2   -0.30    0.50
   2   4   2   -0.40    0.50
  -3  -4  -2    5.00    2.20
   3   4   2    0.40    0.80
  -4  -4  -2   12.60    3.70
   4   4   2   14.70    4.20
  -5  -4  -2   18.80    5.20
  -5  -4  -2   19.20    4.80
   5   4   2   18.70    5.30
   6   4   2    3.60    2.90
   7   4   2    6.10    3.90
   8   4   2   51.59   10.50
  -4   5   2   -0.80    0.60
  -4   5   2    2.00    1.70
  -4   5   2    1.00    1.20
  -3   5   2    1.70    1.20
  -3   5   2   -0.10    0.70
   2  -5  -2   19.90    3.10
  -2   5   2   21.20    3.20
   1  -5  -2   12.60    2.40
   0  -5  -2    3.40    1.40
  -1  -5  -2    1.00    0.80
  -1  -5  -2    0.90    1.00
  -2  -5  -2   87.39    5.50
  -2  -5  -2   72.29    7.80
   2   5   2   92.49    5.90
  -3  -5  -2   64.69    8.50
  -3  -5  -2   81.29    8.70
   3   5   2   77.69    8.70
  -4  -5  -2    0.20    0.80
   4   5   2    0.60    1.50
  -5  -5  -2  105.79   11.70
  -5  -5  -2  106.89   12.40
   5   5   2   99.59   11.70
  -6  -5  -2    0.80    1.40
  -6  -5  -2    6.20    3.60
   6   5   2   10.10    4.20
   2  -6  -2    3.70    1.60
   1  -6  -2   38.10    4.70
   0  -6  -2   17.90    3.40
  -1  -6  -2   15.70    2.90
  -1  -6  -2   11.10    3.00
  -1  -6  -2   12.60    2.90
  -2  -6  -2    0.50    0.80
  -2  -6  -2    0.80    1.10
   2   6   2    0.60    0.70
  -3  -6  -2   11.90    3.60
  -3  -6  -2   14.60    4.30
  -3  -6  -2   10.60    3.00
   3   6   2   10.60    3.10
  -4  -6  -2   13.70    4.10
  -4  -6  -2   15.30    4.30
  -4  -6  -2    6.30    3.10
   4   6   2    9.20    3.30
  -5  -6  -2   27.40    6.20
  -5  -6  -2   13.10    4.70
  -5  -6  -2   19.20    5.40
   5   6   2   17.00    5.10
  -6  -6  -2   -0.40    1.60
   6   6   2   -0.60    0.90
   7   6   2   38.50    8.40
   1  -7  -2    5.00    2.10
   0  -7  -2   12.50    3.20
  -1  -7  -2   85.69    8.90
  -2  -7  -2    4.50    2.40
  -2  -7  -2    3.90    1.90
  -2  -7  -2    1.90    2.00
  -3  -7  -2   82.69   10.20
  -3  -7  -2   77.69    9.70
  -3  -7  -2   72.29    5.90
   3   7   2   85.59    6.90
  -4  -7  -2    7.30    3.60
  -4  -7  -2    1.60    2.10
  -4  -7  -2   -0.50    0.90
   4   7   2   -0.70    0.70
  -5  -7  -2    0.80    1.90
  -5  -7  -2    0.70    1.40
   5   7   2    0.30    1.30
   6   7   2    2.70    3.20
  -1  -8  -2    1.40    1.90
  -2  -8  -2   37.20    5.00
  -2  -8  -2   37.80    7.10
  -2  -8  -2   29.90    4.70
  -3  -8  -2   46.70    7.30
  -3  -8  -2   47.70    8.30
   3   8   2   54.69    6.40
  -4  -8  -2    3.70    2.70
  -4  -8  -2    0.70    1.20
   4   8   2    1.70    1.70
  -5  -8  -2   58.79   10.50
   5   8   2   47.20    8.80
   3   7  -3    2.70    2.20
  -3  -7   3    2.60    2.00
   2   7  -3   13.50    6.20
   2   7  -3   15.30    5.00
  -2  -7   3   14.40    5.80
   5   6  -3   56.99   10.20
   4   6  -3  131.69   15.90
  -4  -6   3  168.28   13.40
   3   6  -3   -0.50    1.00
  -3  -6   3    1.60    1.60
  -3  -6   3   -0.10    1.40
   2   6  -3   27.30    6.40
   2   6  -3   46.60    8.50
  -2  -6   3   44.10   10.10
  -2  -6   3   55.39    8.90
  -2  -6   3   43.70    6.70
   1   6  -3   25.40    6.00
   1   6  -3   27.50    6.30
  -1  -6   3   33.70    7.40
  -1  -6   3   31.10    4.70
  -1  -6   3   25.90    6.30
   0   6  -3   22.30    5.90
   0   6  -3   12.80    4.20
   0  -6   3   17.80    4.50
   0  -6   3   23.70    5.80
  -1   6  -3   12.90    4.30
  -1   6  -3   22.10    6.00
   1  -6   3   17.90    5.40
   6   5  -3   -0.40    1.20
   5   5  -3   44.10    8.50
  -5  -5   3   27.70    7.20
   4   5  -3  280.97   17.90
  -4  -5   3  271.27   17.10
  -4  -5   3  246.68   16.40
   3   5  -3  145.89   12.40
   3   5  -3  129.99   14.70
   3   5  -3  179.08   12.40
  -3  -5   3  182.48   13.00
  -3  -5   3  156.18   11.50
   2   5  -3  976.80   33.20
   2   5  -3  947.91   35.40
   2   5  -3  977.40   35.80
  -2  -5   3  965.00   34.30
  -2  -5   3  966.50   32.60
  -2  -5   3  991.90   35.80
   1   5  -3    1.10    1.10
   1   5  -3    0.70    1.60
   1   5  -3    0.30    1.20
  -1  -5   3    3.90    2.50
  -1  -5   3    0.50    1.50
  -1  -5   3    2.70    1.80
   0   5  -3  303.67   17.30
   0   5  -3  317.57   16.60
   0  -5   3  299.97   15.90
   0  -5   3  323.07   17.20
  -1   5  -3   40.10    7.70
  -1   5  -3   45.00    7.60
   1  -5   3   71.19    9.50
   1  -5   3   74.49   11.20
  -2   5  -3    1.70    1.70
  -2   5  -3    0.10    1.00
  -2   5  -3    3.40    2.40
   2  -5   3    1.10    1.80
   2  -5   3    1.00    1.50
  -3   5  -3   -0.10    1.10
  -3   5  -3   -0.40    1.50
  -3   5  -3   -0.10    0.90
   3  -5   3    1.60    1.70
   7   4  -3   37.30    8.80
   6   4  -3   36.20    9.10
   5   4  -3   23.50    6.70
  -5  -4   3    6.40    3.10
  -5  -4   3   13.90    4.90
   4   4  -3   75.59   11.10
   4   4  -3   70.49    9.90
  -4  -4   3   55.99    8.40
  -4  -4   3   89.09   11.50
  -4  -4   3   69.99    9.90
   3   4  -3  121.99   12.80
   3   4  -3  140.29   10.80
   3   4  -3  133.59   11.10
  -3  -4   3  132.99   10.50
  -3  -4   3  121.69   13.00
  -3  -4   3  118.69   12.90
   2   4  -3  406.56   20.90
   2   4  -3  386.96   18.00
   2   4  -3  398.26   19.20
  -2  -4   3  399.16   18.40
  -2  -4   3  386.26   17.80
  -2  -4   3  402.56   18.90
   1   4  -3  214.38   13.00
   1   4  -3  223.78   11.60
   1   4  -3  224.08   13.60
  -1  -4   3  234.08   12.90
  -1  -4   3  205.68   12.60
  -1  -4   3  209.38   11.10
   0   4  -3 2411.06   66.29
   0   4  -3 2439.46   67.59
   0  -4   3 2432.76   60.99
   0  -4   3 2394.66   66.59
   0  -4   3 2330.17   65.79
  -1   4  -3   11.40    4.00
   1  -4   3   20.70    4.80
   1  -4   3   11.50    3.90
  -2   4  -3  493.75   22.70
  -2   4  -3  505.05   21.70
  -2   4  -3  493.05   22.10
   2  -4   3  479.05   22.00
   2  -4   3  503.25   21.80
  -3   4  -3   11.50    4.10
  -3   4  -3   10.70    4.10
  -3   4  -3   15.40    4.90
   3  -4   3   11.30    4.00
  -4   4  -3   19.10    5.10
  -4   4  -3   11.90    4.60
   4  -4   3   13.30    4.90
   7   3  -3   20.10    9.10
   6   3  -3    0.70    1.70
  -6  -3   3    0.90    1.20
   5   3  -3  342.97   20.50
   5   3  -3  377.86   21.40
  -5  -3   3  350.16   18.90
  -5  -3   3  388.86   20.90
   4   3  -3  144.49   14.80
  -4  -3   3  126.89   12.80
  -4  -3   3  135.59   15.00
  -4  -3   3  115.79   12.70
   3   3  -3  260.87   15.00
   3   3  -3  294.17   16.20
  -3  -3   3  281.07   15.40
  -3  -3   3  249.38   14.00
  -3  -3   3  256.07   14.70
   2   3  -3  528.55   22.20
   2   3  -3  535.35   21.40
   2   3  -3  535.35   21.60
  -2  -3   3  549.05   21.90
  -2  -3   3  570.74   21.50
  -2  -3   3  529.95   21.20
   1   3  -3  102.89    8.10
   1   3  -3  106.89   10.40
   1   3  -3  112.39    7.60
  -1  -3   3  100.09   10.10
  -1  -3   3  124.49    8.60
  -1  -3   3  103.99    7.30
   0   3  -3  107.49   10.30
   0   3  -3  104.79    7.90
   0  -3   3   99.79    7.70
   0  -3   3  103.49    6.60
   0  -3   3  113.09    8.10
  -1   3  -3   53.09    4.30
  -1   3  -3   49.99    7.10
  -1   3  -3   64.49    8.30
   1  -3   3   69.09    7.90
   1  -3   3   60.19    7.90
  -2   3  -3  947.31   31.40
  -2   3  -3  893.21   32.50
  -2   3  -3  908.21   25.90
  -2   3  -3  883.81   31.30
   2  -3   3  882.21   30.60
   2  -3   3  897.41   31.80
  -3   3  -3   15.30    4.70
  -3   3  -3   11.70    4.00
  -3   3  -3   11.30    3.80
   3  -3   3    7.40    3.00
  -4   3  -3  381.66   15.40
  -4   3  -3  394.76   19.60
  -4   3  -3  393.26   20.60
  -4   3  -3  415.36   25.30
  -4   3  -3  372.96   15.80
   4  -3   3  382.16   19.60
  -5   3  -3    4.70    2.50
  -5   3  -3    1.50    2.30
  -5   3  -3   -0.80    1.00
  -5   3  -3    3.80    2.20
   7   2  -3    0.20    1.50
   6   2  -3   -0.50    1.00
  -6  -2   3    0.20    1.50
  -6  -2   3   -0.30    0.80
   5   2  -3   40.90    8.20
   5   2  -3   23.90    5.90
  -5  -2   3   29.20    5.90
  -5  -2   3   33.50    7.40
  -5  -2   3   18.10    5.00
   4   2  -3    3.30    2.80
   4   2  -3    0.80    1.10
  -4  -2   3    0.50    0.90
  -4  -2   3    0.30    0.90
  -4  -2   3    1.00    1.10
   3   2  -3 1269.17   41.00
   3   2  -3 1271.27   41.70
  -3  -2   3 1290.17   40.70
  -3  -2   3 1296.57   38.90
  -3  -2   3 1294.87   41.20
   2   2  -3  272.37   14.00
   2   2  -3  274.97   13.60
   2   2  -3  268.97   13.00
  -2  -2   3  273.17   13.70
  -2  -2   3  269.97   13.40
  -2  -2   3  281.97   13.10
   1   2  -3 1060.39   33.20
   1   2  -3 1121.19   32.70
   1   2  -3 1043.00   31.80
  -1  -2   3 1051.89   32.20
  -1  -2   3 1071.19   32.10
  -1  -2   3 1058.39   32.70
   0   2  -3  616.84   21.90
   0   2  -3  620.24   21.60
   0  -2   3  604.64   21.30
   0  -2   3  640.84   20.20
   0  -2   3  595.04   21.70
  -1   2  -3    0.30    0.70
  -1   2  -3    2.00    1.30
  -1   2  -3   -1.00    0.40
   1  -2   3    0.40    0.60
   1  -2   3   -0.20    0.30
   1  -2   3   -0.10    0.60
  -2   2  -3    5.70    2.40
  -2   2  -3    7.40    2.90
   2  -2   3    8.20    3.00
   2  -2   3    4.20    2.50
  -3   2  -3    1.60    1.70
  -3   2  -3    0.70    1.50
  -3   2  -3    1.10    1.10
  -3   2  -3    0.60    1.20
   3  -2   3    1.60    1.50
   3  -2   3    0.60    1.20
  -4   2  -3   94.79    7.70
  -4   2  -3   79.99   12.20
  -4   2  -3   94.39   10.50
  -4   2  -3  113.19   13.00
  -5   2  -3   -0.70    1.20
  -5   2  -3    0.20    1.30
  -5   2  -3    3.00    2.10
  -5   2  -3    2.80    2.20
  -5   2  -3    1.80    1.60
  -6   2  -3   98.99   11.90
  -6   2  -3   94.89   14.40
  -6   2  -3   99.59   11.60
  -6   2  -3   73.39   11.20
   7   1  -3   69.69   12.10
  -7  -1   3   55.99    9.00
   6   1  -3   -0.60    1.10
  -6  -1   3    0.60    1.10
  -6  -1   3    0.30    0.90
  -6  -1   3    1.50    2.20
   5   1  -3    1.70    2.30
   5   1  -3    5.50    3.60
  -5  -1   3    1.70    1.50
  -5  -1   3    1.60    1.90
  -5  -1   3    4.90    3.30
   4   1  -3    7.20    3.10
   4   1  -3    2.60    2.00
  -4  -1   3    3.10    1.90
  -4  -1   3    3.40    2.30
  -4  -1   3    8.30    3.70
   3   1  -3   -0.40    0.40
   3   1  -3   -0.10    0.80
  -3  -1   3    0.00    0.80
  -3  -1   3   -0.50    0.40
   2   1  -3   66.09    8.90
   2   1  -3   64.69    6.80
   2   1  -3   55.69    7.00
  -2  -1   3   56.89    7.10
  -2  -1   3   58.39    6.40
  -2  -1   3   60.89    7.30
   1   1  -3  994.30   28.60
   1   1  -3  970.10   29.60
   1   1  -3  945.51   29.70
  -1  -1   3  987.90   28.60
  -1  -1   3  963.50   29.60
  -1  -1   3  988.70   29.70
   0   1  -3  709.23   22.50
   0   1  -3  735.13   23.10
   0   1  -3  708.93   22.40
   0  -1   3  701.03   22.00
   0  -1   3  731.93   22.40
   0  -1   3  682.43   22.90
  -1   1  -3  739.83   22.90
  -1   1  -3  779.02   25.00
  -1   1  -3  777.62   24.20
   1  -1   3  758.62   23.30
   1  -1   3  735.93   24.50
   1  -1   3  713.03   23.40
  -2   1  -3   35.90    5.60
  -2   1  -3   45.40    6.60
  -2   1  -3   52.99    6.20
   2  -1   3   42.30    5.90
   2  -1   3   41.70    6.10
  -3   1  -3   58.69    7.60
  -3   1  -3   52.89    8.20
  -3   1  -3   49.60    6.50
  -3   1  -3   48.70    7.30
   3  -1   3   48.20    7.40
   3  -1   3   51.89    7.00
  -4   1  -3   14.20    4.00
  -4   1  -3    6.20    3.20
  -4   1  -3    9.50    3.50
  -5   1  -3   16.80    5.00
  -5   1  -3    7.70    3.70
  -5   1  -3    7.60    3.20
  -6   1  -3    1.50    2.00
  -6   1  -3   -0.60    1.00
  -6   1  -3   -0.20    1.40
  -6   1  -3   -0.20    0.90
   7   0  -3   23.10    6.70
  -7   0   3   34.80    6.50
  -7   0   3   27.00    7.30
  -6   0   3    1.40    1.50
  -6   0   3    2.20    2.20
  -6   0   3    4.40    2.40
   5   0  -3  233.88   15.80
   5   0  -3  191.38   14.20
  -5   0   3  196.88   11.50
  -5   0   3  220.38   14.90
   4   0  -3    3.90    2.80
   4   0  -3    1.70    1.50
  -4   0   3    3.30    2.20
  -4   0   3    1.60    1.20
  -4   0   3    0.40    1.20
   3   0  -3  151.68   10.20
   3   0  -3  143.29   10.00
  -3   0   3  171.18   10.70
  -3   0   3  169.58   10.60
  -3   0   3  161.98    8.40
   2   0  -3  104.09    7.50
   2   0  -3  106.19    6.10
   2   0  -3  106.99    7.50
  -2   0   3  108.69    7.60
  -2   0   3  107.49    7.50
  -2   0   3  100.69    5.90
   1   0  -3   12.40    3.00
   1   0  -3    9.30    2.40
   1   0  -3    8.00    1.90
  -1   0   3    7.40    2.30
  -1   0   3   13.60    2.70
  -1   0   3    4.90    1.90
   0   0  -3  556.54   18.10
   0   0  -3  521.45   17.70
   0   0  -3  529.75   16.70
   0   0   3  522.55   16.50
   0   0   3  536.15   17.70
   0   0   3  528.85   17.80
  -1   0  -3   17.10    3.20
  -1   0  -3   18.20    3.20
  -1   0  -3   19.90    3.80
   1   0   3   17.00    3.30
   1   0   3   22.50    3.80
   1   0   3   19.80    3.40
  -2   0  -3  479.45   17.90
  -2   0  -3  470.45   19.10
  -2   0  -3  477.85   18.30
  -2   0  -3  467.15   17.20
   2   0   3  457.45   17.00
   2   0   3  487.55   18.70
  -3   0  -3   18.20    3.90
  -3   0  -3   25.60    5.10
  -3   0  -3   27.00    5.30
  -4   0  -3   10.40    3.10
  -4   0  -3    9.50    3.80
  -4   0  -3    3.40    2.40
  -5   0  -3   25.40    5.30
  -5   0  -3   40.80    9.20
  -5   0  -3   22.60    6.00
  -6   0  -3    4.80    3.10
  -6   0  -3    1.80    1.80
  -6   0  -3    0.30    1.30
  -6   0  -3    4.10    2.60
  -7   0  -3   -0.70    1.30
  -7   0  -3   -0.50    1.10
   7  -1  -3   -0.60    1.40
  -7   1   3    1.60    2.30
  -7   1   3    1.10    1.50
  -7   1   3    0.60    1.30
   6  -1  -3    1.00    1.40
  -6   1   3    2.80    2.40
  -6   1   3    3.60    3.20
   5  -1  -3   26.60    6.20
   5  -1  -3   29.50    6.50
  -5   1   3   41.00    8.10
  -5   1   3   26.70    6.20
   4  -1  -3   -0.80    0.50
   4  -1  -3   -0.20    0.70
  -4   1   3   -0.20    0.50
  -4   1   3   -0.60    0.70
  -4   1   3    2.70    1.30
   3  -1  -3  118.39    8.70
   3  -1  -3  165.88   16.10
  -3   1   3  111.99    8.40
  -3   1   3  118.09    6.30
  -3   1   3  117.29    8.50
   2  -1  -3   33.40    4.90
   2  -1  -3   34.60    5.10
  -2   1   3   34.20    3.50
  -2   1   3   39.00    5.70
  -2   1   3   27.60    4.40
   1  -1  -3  695.73   24.50
   1  -1  -3  721.73   22.00
   1  -1  -3  723.43   19.10
  -1   1   3  726.73   19.10
  -1   1   3  728.23   21.90
  -1   1   3  713.33   22.90
   0  -1  -3  624.04   18.90
   0  -1  -3  656.83   20.20
   0  -1  -3  608.64   17.40
   0   1   3  605.54   19.80
   0   1   3  632.14   17.40
   0   1   3  619.64   19.00
  -1  -1  -3  307.97   14.20
  -1  -1  -3  341.37   12.70
  -1  -1  -3  303.67   11.30
   1   1   3  328.97   12.60
   1   1   3  322.57   11.50
  -2  -1  -3   29.80    4.90
  -2  -1  -3   29.70    5.30
  -2  -1  -3   24.00    3.90
   2   1   3   28.30    4.80
  -3  -1  -3  125.59    9.10
  -3  -1  -3  119.69    9.00
  -3  -1  -3  122.79    8.00
  -4  -1  -3   39.30    6.50
  -4  -1  -3   45.20    7.80
  -4  -1  -3   32.60    6.00
   4   1   3   41.10    7.60
  -5  -1  -3    1.40    1.50
  -5  -1  -3    5.40    3.50
   5   1   3    2.00    1.80
  -6  -1  -3    3.90    2.40
  -6  -1  -3    0.70    1.40
  -6  -1  -3    5.60    3.60
   6   1   3    3.10    2.80
  -7  -1  -3    5.50    2.90
  -7  -1  -3    3.00    3.40
   7   1   3    4.30    3.40
   6  -2  -3   39.50    8.10
  -6   2   3   33.70    7.40
  -6   2   3   36.50    5.60
  -6   2   3   28.00    7.20
   5  -2  -3    0.80    1.40
  -5   2   3    0.60    0.90
  -5   2   3    0.50    1.00
  -5   2   3    0.00    0.90
   4  -2  -3    3.50    2.30
   4  -2  -3    3.10    2.10
  -4   2   3    1.60    1.50
  -4   2   3    2.40    1.20
  -4   2   3   -0.30    0.80
   3  -2  -3   39.60    6.10
   3  -2  -3   36.80    5.60
  -3   2   3   31.90    5.40
  -3   2   3   43.30    6.30
  -3   2   3   34.60    3.50
   2  -2  -3    7.40    2.50
   2  -2  -3    9.40    2.50
  -2   2   3    7.30    2.30
  -2   2   3   13.60    3.30
   1  -2  -3  114.39    7.90
   1  -2  -3  112.19    6.00
  -1   2   3  113.69    6.80
  -1   2   3  120.49    6.00
   0  -2  -3  153.38    6.60
   0  -2  -3  159.28    8.10
   0  -2  -3  164.18    5.60
   0   2   3  175.08    8.50
   0   2   3  148.89    6.60
  -1  -2  -3   43.00    6.30
  -1  -2  -3   44.40    4.40
  -1  -2  -3   38.90    4.70
  -1  -2  -3   51.79    4.00
   1   2   3   49.70    5.30
  -2  -2  -3  277.17   12.10
  -2  -2  -3  256.57   12.10
   2   2   3  264.87   12.10
  -3  -2  -3   54.79    7.60
  -3  -2  -3   51.39    7.70
   3   2   3   41.60    6.00
  -4  -2  -3   60.49    8.30
  -4  -2  -3   77.79   10.30
   4   2   3   66.09    8.80
  -5  -2  -3   31.40    9.70
  -5  -2  -3   17.10    5.10
  -5  -2  -3   32.10    6.80
   5   2   3   37.60    7.90
  -6  -2  -3    9.80    4.20
  -6  -2  -3   15.60    6.20
  -6  -2  -3    7.30    3.80
   6   2   3    7.40    3.70
  -7  -2  -3    1.20    1.70
  -7  -2  -3    4.80    3.40
   7   2   3    5.60    4.00
  -8  -2  -3    0.30    1.70
  -8  -2  -3   -0.30    1.10
   8   2   3    0.90    2.60
   6  -3  -3    3.20    2.90
  -6   3   3    7.80    2.50
  -6   3   3   11.70    4.30
   5  -3  -3   47.80    8.20
  -5   3   3   34.70    6.50
  -5   3   3   38.90    5.00
  -5   3   3   31.40    6.60
   4  -3  -3   21.40    4.90
   4  -3  -3   14.60    4.10
  -4   3   3   14.10    3.90
  -4   3   3   10.90    2.00
   3  -3  -3   18.80    4.20
   3  -3  -3   25.90    4.70
  -3   3   3   24.50    4.50
  -3   3   3   28.20    5.00
   2  -3  -3   86.39    6.20
   2  -3  -3   92.89    5.80
  -2   3   3   83.69    5.60
  -2   3   3   91.19    6.30
   1  -3  -3  150.48    7.90
  -1   3   3  154.18    7.40
  -1   3   3  149.29    7.80
   0  -3  -3   43.70    4.90
   0  -3  -3   42.60    2.40
   0   3   3   40.20    4.90
  -1  -3  -3   74.59    4.50
  -1  -3  -3   75.39    4.40
  -1  -3  -3   72.99    5.80
  -2  -3  -3   31.60    5.00
  -2  -3  -3   32.60    4.80
   2   3   3   39.30    5.50
  -3  -3  -3   42.40    6.30
  -3  -3  -3   54.99    8.70
   3   3   3   50.79    6.70
  -4  -3  -3   10.20    4.10
  -4  -3  -3    9.00    3.10
   4   3   3    8.40    3.50
  -5  -3  -3    5.30    3.10
  -5  -3  -3    6.80    2.90
  -6  -3  -3   42.60    8.90
   6   3   3   52.49    9.90
  -7  -3  -3    0.90    2.00
   7   3   3    4.10    3.40
  -8  -3  -3   12.50    5.50
  -8  -3  -3   16.30    6.90
   8   3   3   22.20    7.40
   5  -4  -3    1.80    1.70
  -5   4   3    5.80    2.60
  -5   4   3    9.40    3.80
  -5   4   3    7.20    3.10
   4  -4  -3   17.30    4.40
  -4   4   3   14.90    3.80
  -4   4   3   13.40    3.90
  -4   4   3   14.60    3.70
   3  -4  -3   30.90    4.60
   3  -4  -3   31.00    4.80
  -3   4   3   27.70    4.40
  -3   4   3   19.00    3.70
  -3   4   3   26.80    4.40
   2  -4  -3   56.19    7.60
  -2   4   3   53.49    5.70
   1  -4  -3   26.90    3.80
  -1   4   3   14.30    2.90
   0  -4  -3   43.30    5.00
   0  -4  -3   39.70    2.80
  -1  -4  -3  155.08    7.50
  -1  -4  -3  159.28    9.00
  -2  -4  -3    0.50    0.80
  -2  -4  -3    4.40    1.70
   2   4   3    1.90    1.50
  -3  -4  -3   32.20    5.40
  -3  -4  -3   30.70    6.20
   3   4   3   29.00    5.30
  -4  -4  -3   -0.30    0.60
  -4  -4  -3   -0.80    0.60
   4   4   3   -0.50    0.50
  -5  -4  -3   17.60    5.00
  -5  -4  -3    4.60    2.70
   5   4   3    7.50    3.40
   6   4   3    0.90    1.60
  -7  -4  -3    3.60    2.40
   7   4   3    4.20    3.00
  -8  -4  -3    8.10    4.60
  -4   5   3    3.60    1.90
   1  -5  -3    1.30    0.80
   0  -5  -3  200.58    9.30
   0  -5  -3  216.48    8.50
  -1  -5  -3    1.10    0.90
  -1  -5  -3    0.20    0.60
  -2  -5  -3   15.80    2.80
  -2  -5  -3   17.70    3.70
  -2  -5  -3   20.20    3.20
   2   5   3   14.70    2.90
  -3  -5  -3   21.20    4.10
  -3  -5  -3   17.20    3.90
   3   5   3   19.40    4.10
  -4  -5  -3    0.60    1.20
  -4  -5  -3    1.00    1.10
   4   5   3    5.40    2.80
  -5  -5  -3   33.10    7.00
   5   5   3   27.10    6.10
  -6  -5  -3    0.30    1.10
  -6  -5  -3   -0.50    1.00
  -6  -5  -3    0.60    1.60
   6   5   3    0.80    1.60
  -7  -5  -3    0.90    2.20
   0  -6  -3    3.80    1.60
  -1  -6  -3   28.10    4.40
  -1  -6  -3   29.10    4.60
  -2  -6  -3   43.20    6.60
  -2  -6  -3   42.00    6.30
  -3  -6  -3    0.80    1.00
  -3  -6  -3    1.40    1.20
  -3  -6  -3    0.10    0.70
   3   6   3    0.50    0.80
  -4  -6  -3   31.70    6.40
  -4  -6  -3   31.30    5.80
  -4  -6  -3   24.40    5.40
   4   6   3   25.50    5.30
  -5  -6  -3    0.90    1.30
   5   6   3   -0.20    1.20
   6   6   3    1.10    1.70
  -7  -6  -3    1.90    2.70
   7   6   3    0.30    1.50
   0  -7  -3    0.90    0.90
  -1  -7  -3    3.70    1.70
  -1  -7  -3    4.80    2.30
  -1  -7  -3    4.90    2.00
  -2  -7  -3    4.00    2.20
  -2  -7  -3    3.70    2.20
  -2  -7  -3    4.20    2.10
  -3  -7  -3   12.10    3.00
  -3  -7  -3   14.80    3.00
  -3  -7  -3    6.40    3.00
  -3  -7  -3    7.50    3.00
   3   7   3    7.70    2.60
  -4  -7  -3    1.50    2.20
  -4  -7  -3   -0.50    1.10
  -4  -7  -3   -0.30    1.10
  -4  -7  -3   -0.30    0.90
   4   7   3    2.10    1.70
  -5  -7  -3    7.10    3.80
  -5  -7  -3   -0.10    1.30
  -5  -7  -3    4.70    3.40
  -5  -7  -3    6.20    4.00
   5   7   3    0.90    2.30
  -6  -7  -3    9.60    4.50
  -1  -8  -3   -0.40    0.90
  -2  -8  -3   -0.10    0.90
  -2  -8  -3    2.10    1.50
  -2  -8  -3   -0.20    1.00
  -3  -8  -3    2.90    3.00
  -3  -8  -3    5.30    2.50
  -3  -8  -3    8.70    3.60
  -4  -8  -3   10.30    3.10
  -4  -8  -3    1.60    2.00
  -4  -8  -3    7.00    2.40
  -4  -8  -3    0.30    1.60
   4   8   3    3.70    2.30
  -5  -8  -3    2.30    2.30
  -5  -8  -3    1.80    2.80
   5   8   3    2.50    2.40
   4   6  -4    5.70    3.50
  -4  -6   4   22.60    6.80
   3   6  -4    1.60    1.90
  -3  -6   4    0.70    1.40
   2   6  -4    5.20    3.50
  -2  -6   4   15.20    4.50
   1   6  -4    0.40    1.10
  -1  -6   4    1.30    1.60
   6   5  -4    6.70    4.20
   5   5  -4   -0.70    1.20
   4   5  -4    1.00    1.60
   4   5  -4    8.00    4.10
  -4  -5   4   12.40    5.20
   3   5  -4   20.60    5.70
   3   5  -4   40.70    8.20
   3   5  -4   48.10    9.60
  -3  -5   4   49.60    9.10
  -3  -5   4   24.60    6.00
   2   5  -4   19.10    4.60
   2   5  -4   15.20    5.50
   2   5  -4   23.50    6.10
  -2  -5   4   14.90    4.30
  -2  -5   4   16.90    5.30
  -2  -5   4   12.50    4.40
   1   5  -4   20.40    4.70
   1   5  -4   14.50    4.40
   1   5  -4   21.90    5.80
  -1  -5   4   35.20    7.30
  -1  -5   4   22.70    5.80
  -1  -5   4   26.90    5.20
   0   5  -4   15.30    4.70
   0   5  -4   16.20    3.70
   0   5  -4   23.80    5.80
   0  -5   4   15.70    4.80
   0  -5   4   23.00    4.20
   0  -5   4   13.70    4.30
  -1   5  -4    0.60    1.50
  -1   5  -4   -0.10    1.00
   1  -5   4    1.40    2.00
   1  -5   4    1.00    1.70
  -2   5  -4    0.40    1.20
  -2   5  -4    0.50    1.70
  -2   5  -4    1.30    1.50
   6   4  -4    0.50    1.70
   5   4  -4   -0.10    1.00
   5   4  -4    6.50    3.60
  -5  -4   4    3.80    2.80
   4   4  -4    6.60    4.00
   4   4  -4    1.20    1.30
  -4  -4   4    3.40    2.20
  -4  -4   4    7.20    3.70
   3   4  -4    6.20    3.10
   3   4  -4    4.10    2.90
   3   4  -4    4.80    2.80
  -3  -4   4    4.60    3.00
  -3  -4   4   18.40    5.00
  -3  -4   4    3.50    2.60
   2   4  -4    1.20    1.50
   2   4  -4    1.60    1.80
   2   4  -4    3.60    2.30
  -2  -4   4    5.80    3.00
  -2  -4   4    2.10    1.70
  -2  -4   4    7.60    3.10
   1   4  -4  205.38   11.80
   1   4  -4  184.08   12.70
   1   4  -4  171.28   12.40
  -1  -4   4  165.68   10.50
  -1  -4   4  146.39   11.40
  -1  -4   4  182.28   12.30
   0   4  -4   67.39    7.60
   0   4  -4   64.69    9.70
   0   4  -4   69.69    9.70
   0  -4   4   80.79    8.30
   0  -4   4   64.49    8.90
   0  -4   4   97.99   11.50
  -1   4  -4   64.19    9.10
  -1   4  -4   74.49    5.70
  -1   4  -4   56.79    8.80
   1  -4   4   81.69   10.90
   1  -4   4   97.09   11.00
  -2   4  -4   76.69   11.10
  -2   4  -4   74.69    9.80
  -2   4  -4   56.99    8.90
   2  -4   4   69.99   10.60
   2  -4   4   85.29   10.90
  -3   4  -4    8.10    4.00
  -3   4  -4   10.60    4.10
  -3   4  -4    8.60    4.20
   3  -4   4    3.40    2.80
  -4   4  -4    1.70    2.80
  -4   4  -4    1.70    2.00
   7   3  -4    0.30    1.70
   6   3  -4   -1.00    1.00
   6   3  -4    1.60    2.00
   5   3  -4    1.10    1.50
   5   3  -4    1.70    1.90
  -5  -3   4    1.10    1.70
  -5  -3   4    0.30    1.20
  -5  -3   4    1.40    1.90
   4   3  -4   -0.10    1.00
   4   3  -4    3.60    2.40
  -4  -3   4   -0.10    1.10
  -4  -3   4    1.90    1.50
  -4  -3   4    0.60    1.00
   3   3  -4   61.39    9.50
   3   3  -4   36.80    9.30
  -3  -3   4   71.49   10.00
  -3  -3   4   39.80    6.70
  -3  -3   4   61.79    9.70
   2   3  -4   40.60    7.10
   2   3  -4   22.20    5.10
   2   3  -4   36.60    6.60
  -2  -3   4   42.20    7.20
  -2  -3   4   25.60    5.40
  -2  -3   4   31.40    6.20
   1   3  -4    6.60    2.80
   1   3  -4    6.10    2.50
   1   3  -4   11.30    3.90
  -1  -3   4    7.90    2.80
  -1  -3   4    7.30    2.80
  -1  -3   4    9.00    2.80
   0   3  -4   39.10    7.10
   0   3  -4   37.40    5.60
   0   3  -4   33.50    6.20
   0  -3   4   26.60    5.40
   0  -3   4   35.00    6.40
   0  -3   4   26.30    4.60
  -1   3  -4  288.07   15.90
  -1   3  -4  316.07   13.50
   1  -3   4  344.07   17.00
   1  -3   4  299.27   15.60
  -2   3  -4  499.65   21.90
  -2   3  -4  453.65   21.00
  -2   3  -4  439.96   16.90
   2  -3   4  420.86   20.00
   2  -3   4  456.75   21.80
  -3   3  -4   98.49   12.60
  -3   3  -4   89.29    6.60
  -3   3  -4   76.89   10.40
  -3   3  -4   91.39   11.40
   3  -3   4   83.99   10.40
   3  -3   4  111.19   13.70
  -4   3  -4  220.98   14.70
  -4   3  -4  193.08   11.10
  -4   3  -4  181.18   14.40
  -4   3  -4  173.88   14.60
   4  -3   4  211.58   14.60
  -5   3  -4    7.10    4.10
  -5   3  -4    1.40    2.30
  -5   3  -4    3.00    2.00
   7   2  -4   -0.20    1.60
   6   2  -4    5.30    3.80
   6   2  -4    6.80    3.90
  -6  -2   4    6.80    3.80
  -6  -2   4    1.70    1.40
   5   2  -4   14.60    5.20
   5   2  -4   25.40    7.60
  -5  -2   4   33.50    7.00
  -5  -2   4   25.20    5.80
   4   2  -4    8.90    3.60
   4   2  -4   14.50    4.80
  -4  -2   4   10.20    3.50
  -4  -2   4    6.60    3.00
  -4  -2   4    4.90    2.50
   3   2  -4  193.58   13.10
   3   2  -4  217.18   12.40
   3   2  -4  211.38   13.80
  -3  -2   4  199.18   13.10
  -3  -2   4  211.88   13.30
  -3  -2   4  193.78   11.70
   2   2  -4    0.00    0.80
   2   2  -4   -0.50    0.60
   2   2  -4    1.40    1.10
  -2  -2   4    0.40    0.80
  -2  -2   4    0.10    1.00
  -2  -2   4    4.10    2.40
   1   2  -4  538.15   21.10
   1   2  -4  552.94   21.10
   1   2  -4  580.44   22.50
  -1  -2   4  536.95   20.80
  -1  -2   4  561.44   21.30
  -1  -2   4  544.55   21.60
   0   2  -4  663.43   23.10
   0   2  -4  673.13   25.00
   0   2  -4  693.63   24.50
   0  -2   4  662.93   23.20
   0  -2   4  660.73   24.90
   0  -2   4  668.33   24.10
  -1   2  -4    2.00    1.50
  -1   2  -4    3.90    2.20
  -1   2  -4    1.20    1.10
   1  -2   4    1.60    1.50
   1  -2   4    2.10    1.50
   1  -2   4    4.20    2.20
  -2   2  -4    6.90    2.50
  -2   2  -4    3.90    2.30
  -2   2  -4    7.50    3.00
   2  -2   4    2.50    1.70
   2  -2   4    8.90    3.80
  -3   2  -4  201.88   16.40
  -3   2  -4  202.08   11.40
  -3   2  -4  201.68   12.80
  -3   2  -4  217.18   13.90
   3  -2   4  187.58   13.50
   3  -2   4  198.38   12.50
  -4   2  -4  384.86   17.60
  -4   2  -4  379.16   21.80
  -4   2  -4  399.66   21.40
  -4   2  -4  393.66   19.80
   4  -2   4  395.16   20.60
  -5   2  -4   40.40    6.90
  -5   2  -4   76.99   17.00
  -5   2  -4   66.39   12.10
  -5   2  -4   45.60    7.90
   7   1  -4    6.50    3.90
  -7  -1   4    1.80    2.00
   6   1  -4    4.50    3.60
   6   1  -4    2.00    2.10
  -6  -1   4   -0.10    1.00
  -6  -1   4    2.10    2.50
   5   1  -4    1.10    1.90
  -5  -1   4    4.60    2.60
  -5  -1   4    2.90    2.30
  -5  -1   4   -0.30    0.70
   4   1  -4    7.30    3.40
   4   1  -4   14.20    4.20
  -4  -1   4   15.30    4.80
  -4  -1   4   18.20    5.00
  -4  -1   4   12.90    3.70
   3   1  -4    1.00    1.30
   3   1  -4   -0.50    0.80
  -3  -1   4   -0.30    0.40
  -3  -1   4   -0.10    0.60
  -3  -1   4   -0.10    0.70
   2   1  -4  160.88   10.30
   2   1  -4  151.58   10.20
   2   1  -4  149.69    8.80
  -2  -1   4  130.39    8.30
  -2  -1   4  141.99    9.80
  -2  -1   4  123.69    9.30
   1   1  -4 1713.73   46.50
   1   1  -4 1697.73   50.79
   1   1  -4 1675.43   48.30
  -1  -1   4 1648.73   47.80
  -1  -1   4 1725.93   46.40
  -1  -1   4 1674.93   48.00
   0   1  -4   38.80    6.30
   0   1  -4   36.20    5.70
   0   1  -4   40.20    5.60
   0  -1   4   39.70    5.70
   0  -1   4   29.80    4.70
   0  -1   4   32.30    5.30
  -1   1  -4 2055.99   56.69
  -1   1  -4 2106.69   56.19
  -1   1  -4 2070.49   57.89
   1  -1   4 2171.28   58.39
   1  -1   4 2120.79   56.59
  -2   1  -4  664.83   25.00
  -2   1  -4  631.24   22.70
  -2   1  -4  646.14   23.60
   2  -1   4  660.63   23.60
   2  -1   4  607.14   24.50
  -3   1  -4   35.30    5.70
  -3   1  -4   32.50    5.70
  -3   1  -4   49.70    7.80
   3  -1   4   28.20    5.50
   3  -1   4   42.20    7.20
  -4   1  -4   55.79    8.70
  -4   1  -4   44.40    8.00
  -4   1  -4   49.40    8.00
  -4   1  -4   43.80    7.30
  -5   1  -4   34.80    6.80
  -5   1  -4   20.00    5.00
  -5   1  -4   27.00    6.90
  -5   1  -4   15.50    5.30
  -6   1  -4   53.39    9.50
  -6   1  -4   79.29   11.60
  -6   1  -4   70.99   10.40
   7   0  -4   32.40    8.90
  -7   0   4   22.30    6.10
  -7   0   4   34.70    9.30
   6   0  -4   15.60    5.00
   6   0  -4   29.90    7.90
  -6   0   4   25.80    6.90
  -6   0   4   18.80    4.80
   5   0  -4  204.08   14.90
   5   0  -4  191.78   14.50
  -5   0   4  196.28   14.30
  -5   0   4  171.18   13.60
  -5   0   4  191.08   11.30
   4   0  -4   -0.40    0.50
   4   0  -4    2.20    1.80
  -4   0   4    0.70    1.10
  -4   0   4    0.00    0.80
  -4   0   4    0.70    1.30
   3   0  -4   -0.30    0.50
   3   0  -4    2.20    1.80
  -3   0   4    2.10    1.30
  -3   0   4    1.10    1.20
  -3   0   4    0.50    0.90
   2   0  -4   34.20    5.60
   2   0  -4   36.40    4.70
   2   0  -4   45.30    6.40
  -2   0   4   37.20    4.80
  -2   0   4   40.50    6.60
  -2   0   4   43.70    7.00
   1   0  -4  400.26   14.40
   1   0  -4  395.86   16.50
   1   0  -4  374.36   16.00
  -1   0   4  370.26   16.10
  -1   0   4  406.96   16.00
  -1   0   4  405.66   14.50
   0   0  -4  369.66   14.00
   0   0  -4  368.66   15.00
   0   0  -4  368.36   15.40
   0   0   4  355.76   13.70
   0   0   4  370.16   15.40
   0   0   4  380.76   15.40
  -1   0  -4 1575.24   43.50
   1   0   4 1484.35   43.50
   1   0   4 1539.85   43.50
  -2   0  -4   14.50    3.90
  -2   0  -4   27.60    5.60
  -2   0  -4   12.90    3.20
   2   0   4   12.20    3.40
   2   0   4   12.70    3.20
  -3   0  -4 1463.25   42.90
  -3   0  -4 1423.66   43.40
  -3   0  -4 1447.46   44.80
   3   0   4 1402.16   42.90
   3   0   4 1382.06   44.90
  -4   0  -4  170.68   13.10
  -4   0  -4  192.58   24.00
  -4   0  -4  178.38   11.60
  -5   0  -4   88.69   11.60
  -5   0  -4   70.59   11.60
  -5   0  -4   81.29   12.40
  -6   0  -4   10.10    8.40
  -6   0  -4   16.00    5.40
  -6   0  -4   37.00    7.40
  -7   0  -4   -0.40    1.30
  -7   0  -4    0.10    1.30
   6  -1  -4   17.50    5.90
   6  -1  -4   18.00    5.50
  -6   1   4   29.70    7.20
  -6   1   4   28.00    5.40
  -6   1   4   16.50    5.50
   5  -1  -4   88.49   11.90
   5  -1  -4   82.79   11.50
  -5   1   4   87.19   11.50
  -5   1   4   93.09    9.00
  -5   1   4  100.29   13.10
   4  -1  -4   98.39   11.90
   4  -1  -4  122.99   12.70
  -4   1   4   90.39    6.40
  -4   1   4  109.29   12.20
  -4   1   4   87.99   10.30
   3  -1  -4 1504.65   45.80
   3  -1  -4 1535.25   45.90
  -3   1   4 1472.95   40.00
  -3   1   4 1553.24   46.50
  -3   1   4 1527.75   45.80
   2  -1  -4   35.80    5.90
   2  -1  -4   25.50    4.90
  -2   1   4   24.60    4.90
  -2   1   4   43.90    6.50
  -2   1   4   28.30    3.60
   1  -1  -4  472.45   18.00
   1  -1  -4  508.85   15.50
   1  -1  -4  515.55   19.20
  -1   1   4  492.75   17.80
  -1   1   4  495.15   19.00
  -1   1   4  498.95   15.40
   0  -1  -4   63.39    6.90
   0  -1  -4   56.49    6.80
   0  -1  -4   60.59    4.20
   0   1   4   59.19    6.70
   0   1   4   56.59    6.10
   0   1   4   50.19    3.90
  -1  -1  -4  380.16   15.70
  -1  -1  -4  378.66   13.90
   1   1   4  396.76   14.00
   1   1   4  364.06   15.00
   1   1   4  370.36   15.80
  -2  -1  -4   43.40    5.90
  -2  -1  -4   34.00    7.40
  -2  -1  -4   32.10    6.00
  -2  -1  -4   28.40    4.90
   2   1   4   39.10    5.40
   2   1   4   29.40    5.10
  -3  -1  -4  156.58    9.80
  -3  -1  -4  158.18   10.80
   3   1   4  192.98   12.00
  -4  -1  -4   10.70    3.80
  -4  -1  -4   12.00    3.60
  -4  -1  -4    5.40    2.50
  -5  -1  -4  205.88   13.60
  -5  -1  -4  227.78   16.40
  -5  -1  -4  210.88   15.30
  -6  -1  -4   24.10    6.10
  -6  -1  -4   23.40    7.20
  -7  -1  -4   25.30    7.20
   6  -2  -4   60.99   10.80
  -6   2   4   61.79    7.40
  -6   2   4   50.59    9.30
  -6   2   4   58.79    6.70
  -6   2   4   51.59    9.00
   5  -2  -4   55.09    9.40
   5  -2  -4   55.69    9.40
  -5   2   4   47.20    6.00
  -5   2   4   31.70    6.80
  -5   2   4   32.50    4.60
  -5   2   4   28.70    6.50
   4  -2  -4   86.79   10.70
   4  -2  -4  104.89   11.80
  -4   2   4   88.99   10.50
  -4   2   4   74.19    9.90
  -4   2   4   70.09    4.90
   3  -2  -4  104.69    8.20
   3  -2  -4  128.79    9.20
  -3   2   4  115.79    8.60
  -3   2   4  120.19   13.50
  -3   2   4  111.39    5.40
   2  -2  -4  256.07   12.70
   2  -2  -4  241.38   11.80
  -2   2   4  257.97   13.00
  -2   2   4  248.38   11.80
   1  -2  -4 2769.22  101.89
  -1   2   4 2763.22   99.59
   0  -2  -4   81.49    5.40
   0  -2  -4   75.89    6.10
   0  -2  -4   81.49    4.30
   0   2   4   76.19    5.40
   0   2   4   66.89    4.00
   0   2   4   85.69    6.50
  -1  -2  -4 1725.23   48.30
  -2  -2  -4    2.20    1.40
  -2  -2  -4    0.00    0.60
  -2  -2  -4    1.20    1.30
   2   2   4    2.20    1.70
  -3  -2  -4    4.00    2.80
  -3  -2  -4    8.40    2.60
  -4  -2  -4    3.60    2.20
  -4  -2  -4    2.80    1.80
  -5  -2  -4    2.40    1.90
  -5  -2  -4    1.90    1.60
  -5  -2  -4   -0.10    0.90
   5   2   4    2.70    2.00
  -6  -2  -4   16.80    5.50
  -6  -2  -4   20.80    5.30
  -6  -2  -4    9.00    3.90
   6   2   4   11.00    4.60
  -7  -2  -4    6.30    3.70
   7   2   4   10.50    4.60
   6  -3  -4  256.77   17.30
  -6   3   4  237.38   12.80
   5  -3  -4   52.79    8.50
  -5   3   4   46.10    7.80
  -5   3   4   50.49    8.40
   4  -3  -4  428.66   19.50
   4  -3  -4  391.76   19.10
  -4   3   4  415.76   19.40
  -4   3   4  408.46   19.30
   3  -3  -4  154.18   10.30
   3  -3  -4  153.58    9.70
  -3   3   4  164.98   10.60
  -3   3   4  154.68    9.70
   2  -3  -4   50.19    7.40
   2  -3  -4   54.69    6.30
  -2   3   4   37.40    5.80
  -2   3   4   42.30    5.20
   1  -3  -4   91.79    5.50
   1  -3  -4   77.79    6.30
  -1   3   4   73.89    7.80
  -1   3   4   79.49    5.00
   0  -3  -4  235.28   11.30
   0  -3  -4  211.68    7.20
   0  -3  -4  218.48    8.90
   0   3   4  224.28   11.50
   0   3   4  235.88    9.20
  -1  -3  -4  815.22   24.30
  -1  -3  -4  826.92   23.50
  -1  -3  -4  834.42   27.60
  -1  -3  -4  825.82   25.00
  -2  -3  -4    0.40    1.10
  -2  -3  -4    3.90    1.80
  -2  -3  -4    1.10    1.20
   2   3   4    3.60    2.00
  -3  -3  -4  523.15   21.40
  -3  -3  -4  514.75   20.70
  -4  -3  -4   34.90    6.70
  -4  -3  -4   35.80    7.50
   4   3   4   31.80    6.10
  -5  -3  -4   50.89    8.40
  -5  -3  -4   79.39   11.70
   5   3   4   39.60    7.50
  -6  -3  -4    4.40    2.90
  -6  -3  -4   -0.20    1.20
  -6  -3  -4    0.80    1.30
   6   3   4    2.20    2.40
  -7  -3  -4   -0.60    1.20
   7   3   4    2.70    3.20
   5  -4  -4    0.00    1.20
  -5   4   4    0.50    1.70
  -5   4   4    2.40    2.40
   4  -4  -4  436.66   19.10
   4  -4  -4  433.86   18.80
  -4   4   4  441.56   19.10
  -4   4   4  412.06   18.70
   3  -4  -4  189.28   11.00
   3  -4  -4  170.88    9.40
  -3   4   4  184.88    9.90
  -3   4   4  180.18   10.70
   2  -4  -4  651.13   19.90
   2  -4  -4  661.53   22.80
  -2   4   4  677.23   23.00
   1  -4  -4  207.98   10.70
  -1   4   4  197.78   10.60
   0  -4  -4   58.59    6.70
  -1  -4  -4   50.79    3.60
  -1  -4  -4   55.89    4.00
  -2  -4  -4    0.60    0.90
  -2  -4  -4    1.00    1.40
  -2  -4  -4    0.50    0.80
  -3  -4  -4   28.00    5.60
  -3  -4  -4   19.70    4.30
  -4  -4  -4   -0.50    0.60
  -4  -4  -4    0.00    0.80
   4   4   4    0.30    1.30
  -5  -4  -4   39.40    8.10
  -5  -4  -4   17.50    5.10
   5   4   4   29.00    6.20
  -6  -4  -4    4.80    3.10
   6   4   4    7.20    3.80
  -7  -4  -4    6.40    3.50
  -4   5   4   11.80    3.40
  -4   5   4   13.30    3.50
   3  -5  -4    1.40    1.30
  -3   5   4    0.30    0.80
   2  -5  -4  205.58   10.10
  -2   5   4  184.18    9.90
   1  -5  -4  270.87   12.10
   0  -5  -4  275.57   12.80
  -1  -5  -4  110.89    6.50
  -1  -5  -4  136.89    9.00
  -2  -5  -4  102.99   10.80
  -2  -5  -4   89.39    5.70
  -2  -5  -4   96.39    6.00
  -3  -5  -4   38.80    5.80
  -3  -5  -4   34.80    5.80
  -4  -5  -4   21.40    5.20
  -4  -5  -4   13.30    4.50
  -5  -5  -4    4.20    2.70
  -5  -5  -4    3.40    2.80
   5   5   4   -0.60    0.80
  -6  -5  -4   -0.50    1.10
  -6  -5  -4    2.70    2.20
   6   5   4   -0.50    0.90
  -7  -5  -4   -0.10    1.20
   7   5   4   -0.30    1.00
   1  -6  -4    7.10    2.40
   0  -6  -4   37.10    5.00
  -1  -6  -4  155.08    8.20
  -1  -6  -4  139.39    9.30
  -2  -6  -4    1.00    1.40
  -2  -6  -4    0.10    1.30
  -3  -6  -4   48.90    7.30
  -3  -6  -4   32.00    5.10
  -3  -6  -4   35.50    5.30
  -4  -6  -4   17.60    4.70
  -4  -6  -4   14.30    4.10
   4   6   4   16.70    4.40
  -5  -6  -4    2.50    2.10
  -5  -6  -4    3.20    2.40
   5   6   4    4.40    2.50
  -6  -6  -4    8.10    4.00
   6   6   4    3.30    2.60
  -7  -6  -4    5.20    3.80
   7   6   4    1.50    1.90
  -1  -7  -4   15.60    3.40
  -1  -7  -4   12.50    5.00
  -2  -7  -4    0.80    1.00
  -2  -7  -4    1.90    2.00
  -3  -7  -4   23.20    3.80
  -3  -7  -4   19.30    3.40
  -3  -7  -4   26.10    5.50
  -3  -7  -4   23.10    5.60
  -4  -7  -4   34.10    6.70
  -4  -7  -4   37.00    6.60
  -4  -7  -4   33.70    5.70
   4   7   4   22.00    4.90
  -5  -7  -4    6.10    3.30
  -5  -7  -4    7.30    3.40
  -5  -7  -4   15.70    4.90
   5   7   4    2.30    2.10
  -6  -7  -4    0.50    1.70
  -1  -8  -4   -1.00    1.60
  -2  -8  -4    0.10    1.10
  -2  -8  -4    2.90    2.20
  -2  -8  -4    3.90    2.30
  -3  -8  -4    3.50    2.70
  -3  -8  -4    9.70    4.50
  -3  -8  -4    3.30    2.50
  -4  -8  -4    0.20    0.90
  -4  -8  -4    2.00    2.20
  -4  -8  -4    0.80    1.50
  -5  -8  -4    0.20    1.40
   5   8   4    0.40    1.60
   3   6  -5    0.20    1.40
   3   6  -5   -0.40    1.50
   3   6  -5    2.30    2.80
  -3  -6   5    1.10    1.90
   2   6  -5    1.50    1.90
   2   6  -5   -0.20    1.10
   2   6  -5    2.10    2.50
  -2  -6   5    2.10    1.80
   1   6  -5    3.30    2.60
   1   6  -5   -0.50    1.20
  -1  -6   5    1.20    1.50
   5   5  -5    0.90    2.40
   4   5  -5   16.40    5.70
   4   5  -5   18.00    5.80
  -4  -5   5    3.40    2.60
   3   5  -5    3.70    2.60
  -3  -5   5   15.90    5.10
   2   5  -5   10.20    4.40
   2   5  -5   17.70    5.80
  -2  -5   5   15.70    4.60
   1   5  -5    6.50    3.50
   1   5  -5    7.80    4.10
   1   5  -5    7.70    3.20
  -1  -5   5   10.60    3.70
   0   5  -5    1.00    1.30
   0   5  -5    0.90    1.50
   0   5  -5    1.80    1.80
   0  -5   5    0.30    1.20
  -1   5  -5    5.30    2.10
   6   4  -5    0.10    1.50
   6   4  -5   -0.30    1.30
   5   4  -5    1.50    2.40
   4   4  -5    0.20    1.00
   4   4  -5    0.80    1.50
  -4  -4   5   -0.70    1.00
   3   4  -5    3.10    1.90
   3   4  -5   -0.50    0.80
   3   4  -5   -0.30    0.70
  -3  -4   5   -0.70    1.00
   2   4  -5   38.20    7.20
   2   4  -5   41.80    8.60
   2   4  -5   44.60    8.20
  -2  -4   5   46.30    9.10
  -2  -4   5   35.10    6.80
   1   4  -5   14.40    4.70
   1   4  -5   16.30    5.40
   1   4  -5   23.70    5.30
  -1  -4   5   13.80    4.50
  -1  -4   5   12.70    4.50
  -1  -4   5   28.30    5.90
   0   4  -5  176.38   13.50
   0   4  -5  196.48   11.70
   0   4  -5  223.38   14.90
   0  -4   5  202.38   13.90
   0  -4   5  201.38   14.30
  -1   4  -5    1.80    1.40
  -1   4  -5    8.30    3.50
  -1   4  -5    0.00    1.20
   1  -4   5    2.90    2.20
   1  -4   5    1.60    1.60
  -2   4  -5    4.00    2.40
  -2   4  -5    4.50    3.30
  -2   4  -5    1.70    1.30
  -3   4  -5    6.80    4.20
  -3   4  -5    0.70    1.20
  -3   4  -5    0.10    1.10
   6   3  -5    1.80    2.30
   5   3  -5    8.80    4.50
   5   3  -5    9.50    4.90
  -5  -3   5   18.10    6.50
   4   3  -5    0.50    1.20
   4   3  -5    0.30    1.40
  -4  -3   5    0.70    1.40
   3   3  -5    0.00    0.90
   3   3  -5    0.50    1.20
   3   3  -5    0.90    1.50
  -3  -3   5    0.20    1.40
  -3  -3   5   -0.50    0.70
  -3  -3   5    0.90    1.10
   2   3  -5   26.60    5.70
   2   3  -5   30.50    7.30
   2   3  -5   20.30    5.00
  -2  -3   5   33.00    6.30
  -2  -3   5   28.30    6.20
  -2  -3   5   32.60    6.10
   1   3  -5   66.39    8.70
   1   3  -5   61.59    9.00
   1   3  -5   53.59    8.60
  -1  -3   5   51.39    7.90
  -1  -3   5   57.79    8.30
  -1  -3   5   55.39    8.60
   0   3  -5    7.50    3.10
   0   3  -5   14.30    3.80
   0   3  -5   17.00    5.00
   0  -3   5   23.50    5.80
   0  -3   5   11.30    3.70
  -1   3  -5    7.30    2.70
  -1   3  -5    4.30    2.50
  -1   3  -5    2.90    2.40
   1  -3   5    9.80    3.70
   1  -3   5    7.80    2.90
   1  -3   5    4.90    2.70
  -2   3  -5  126.89   13.40
  -2   3  -5  132.89    9.10
  -2   3  -5  142.69   15.40
   2  -3   5  152.88   16.50
   2  -3   5  154.18   11.70
  -3   3  -5    5.50    2.30
  -3   3  -5    6.10    3.10
  -3   3  -5    2.80    2.30
  -3   3  -5    0.30    1.60
   3  -3   5    4.40    2.60
  -4   3  -5    3.10    2.00
  -4   3  -5    6.50    4.40
  -4   3  -5    6.60    3.50
  -4   3  -5   11.20    5.40
   7   2  -5   -0.30    1.80
   6   2  -5    0.20    2.20
   6   2  -5    3.30    2.50
   5   2  -5    7.00    3.50
   5   2  -5    5.80    3.40
  -5  -2   5    3.40    2.20
  -5  -2   5    8.10    3.70
   4   2  -5   -0.80    0.70
   4   2  -5    3.60    2.60
  -4  -2   5    0.20    0.90
  -4  -2   5    2.50    2.00
  -4  -2   5    0.30    1.30
   3   2  -5  163.78   11.10
   3   2  -5  127.19   14.80
   3   2  -5  148.69   15.80
  -3  -2   5  168.18   11.10
  -3  -2   5  146.99   11.80
  -3  -2   5  141.09   11.50
   2   2  -5    1.60    1.70
   2   2  -5    0.70    1.20
   2   2  -5    2.80    1.90
  -2  -2   5    4.40    2.20
  -2  -2   5    1.90    1.90
  -2  -2   5   -0.40    0.50
   1   2  -5   72.89   10.20
   1   2  -5   60.89    8.30
   1   2  -5   47.30    7.60
  -1  -2   5   58.99    7.90
  -1  -2   5   50.29    7.20
  -1  -2   5   49.90    7.80
   0   2  -5  108.69    8.40
   0   2  -5  106.69   11.00
   0   2  -5   94.59   10.20
   0  -2   5   91.59   10.00
   0  -2   5  110.29    8.40
   0  -2   5  107.49    9.10
  -1   2  -5  116.79    8.70
  -1   2  -5  132.89   13.10
  -1   2  -5  120.59   13.20
   1  -2   5  108.89    8.50
   1  -2   5  132.79   12.70
   1  -2   5  134.19   13.80
  -2   2  -5    0.10    0.80
  -2   2  -5    4.10    1.90
   2  -2   5    1.90    1.70
   2  -2   5    5.40    2.30
  -3   2  -5   -0.10    0.80
  -3   2  -5    0.10    0.80
  -3   2  -5   -0.60    0.70
  -3   2  -5    0.00    1.20
   3  -2   5    0.50    1.60
   3  -2   5    0.60    1.20
  -4   2  -5    9.00    4.10
  -4   2  -5    7.90    3.90
  -4   2  -5   11.30    3.90
   4  -2   5   10.50    4.00
  -5   2  -5   17.60    6.10
  -5   2  -5   15.50    6.20
  -5   2  -5   26.20    6.30
   7   1  -5    0.10    1.60
   7   1  -5   -0.40    1.40
   6   1  -5    3.10    3.10
   6   1  -5   12.30    5.10
  -6  -1   5    8.10    3.30
  -6  -1   5    6.80    3.60
   5   1  -5    2.50    2.10
   5   1  -5   -0.40    0.90
  -5  -1   5    2.90    2.20
  -5  -1   5    5.90    3.20
  -5  -1   5    0.90    1.70
   4   1  -5   28.90    6.40
   4   1  -5   33.00    7.50
  -4  -1   5   21.60    5.60
  -4  -1   5   24.50    6.20
  -4  -1   5   17.40    4.10
   3   1  -5    4.00    2.40
   3   1  -5    4.70    2.80
   3   1  -5    6.00    2.40
  -3  -1   5    8.30    3.80
  -3  -1   5    8.00    3.10
  -3  -1   5    1.70    1.40
   2   1  -5   68.79    9.10
   2   1  -5   59.29    7.50
   2   1  -5   67.99    9.40
  -2  -1   5   88.39    9.60
  -2  -1   5   54.99    7.70
  -2  -1   5   65.59    9.30
   1   1  -5  163.48   11.30
   1   1  -5  195.38   11.00
   1   1  -5  187.18   11.70
  -1  -1   5  198.28   12.00
  -1  -1   5  211.38   11.30
  -1  -1   5  204.68   12.20
   0   1  -5    6.90    2.60
   0   1  -5   11.60    4.00
   0   1  -5   24.00    4.90
   0  -1   5    9.90    3.20
   0  -1   5   10.60    3.20
   0  -1   5   14.50    4.40
  -1   1  -5   43.50    7.00
  -1   1  -5   56.99    7.70
  -1   1  -5   54.69    7.40
   1  -1   5   60.89    8.00
   1  -1   5   75.49   10.00
   1  -1   5   49.80    7.00
  -2   1  -5    9.50    3.60
  -2   1  -5   10.10    3.10
  -2   1  -5    4.70    2.40
   2  -1   5    7.70    3.10
   2  -1   5   11.00    3.50
  -3   1  -5   63.69   10.00
  -3   1  -5   31.20    6.10
  -3   1  -5   48.70    7.30
  -3   1  -5   46.00    8.70
   3  -1   5   64.39   10.30
   3  -1   5   49.70    7.90
  -4   1  -5   -0.40    0.80
  -4   1  -5   -0.70    1.00
  -4   1  -5    1.00    1.50
  -4   1  -5   -0.70    0.70
  -5   1  -5    6.20    3.30
  -5   1  -5    1.80    2.00
  -5   1  -5    4.90    2.90
  -5   1  -5    5.30    3.40
  -6   1  -5    9.40    4.00
  -6   1  -5   13.00    4.70
  -6   1  -5   12.90    5.40
   6   0  -5   -0.40    1.10
   6   0  -5    2.40    2.40
  -6   0   5    0.60    1.20
  -6   0   5    1.00    2.40
   5   0  -5    2.40    2.30
   5   0  -5    2.30    1.80
  -5   0   5    5.20    3.10
  -5   0   5    3.50    2.10
  -5   0   5    0.20    1.10
   4   0  -5    4.00    2.90
   4   0  -5    3.60    2.40
  -4   0   5   -0.30    0.60
  -4   0   5    3.50    2.20
  -4   0   5    1.80    1.70
   3   0  -5    2.90    2.10
   3   0  -5    0.10    0.90
  -3   0   5    1.00    1.20
  -3   0   5    1.50    1.20
   2   0  -5   95.49   11.10
   2   0  -5   73.09    8.90
   2   0  -5   84.89    8.20
  -2   0   5   85.49    9.90
  -2   0   5   69.09    9.20
  -2   0   5   77.79    7.80
   1   0  -5   31.40    5.80
   1   0  -5   41.20    6.50
   1   0  -5   30.90    5.40
  -1   0   5   43.30    6.90
  -1   0   5   46.00    6.00
  -1   0   5   29.20    6.30
   0   0  -5  155.18   10.10
   0   0  -5  165.58   10.30
   0   0  -5  153.88    9.00
   0   0   5  162.58    9.00
   0   0   5  157.28   10.10
   0   0   5  165.68   10.30
  -1   0  -5   -0.10    0.70
  -1   0  -5    0.80    1.00
  -1   0  -5   -0.90    0.50
   1   0   5    0.10    0.70
   1   0   5    2.70    1.80
   1   0   5    0.70    1.40
  -2   0  -5   26.80    5.80
  -2   0  -5   30.80    5.90
  -2   0  -5   18.70    4.20
   2   0   5   26.70    5.30
   2   0   5   13.00    4.00
  -3   0  -5   35.20    6.40
  -3   0  -5   44.30    8.70
  -3   0  -5   44.50    7.30
  -3   0  -5   45.40    7.50
   3   0   5   22.20    4.80
   3   0   5   27.10    6.20
  -4   0  -5    5.50    3.20
  -4   0  -5   15.80    5.00
  -4   0  -5   12.10    4.30
  -4   0  -5   17.40    4.70
   4   0   5   14.80    5.30
  -5   0  -5   29.60    7.00
  -5   0  -5   35.00    6.90
  -5   0  -5   37.20    8.30
  -5   0  -5    9.70    4.10
  -6   0  -5    4.90    3.90
  -6   0  -5    2.20    2.60
  -6   0  -5   13.50    4.80
   6  -1  -5    0.30    1.80
   6  -1  -5    0.00    1.60
  -6   1   5    3.70    2.00
  -6   1   5    0.90    1.70
   5  -1  -5    0.30    1.10
   5  -1  -5    2.80    2.20
  -5   1   5    4.70    3.30
  -5   1   5    6.00    3.70
   4  -1  -5   39.90    8.00
   4  -1  -5   21.00    5.60
  -4   1   5   21.20    5.40
  -4   1   5   24.40    4.30
   3  -1  -5    3.20    2.20
  -3   1   5   12.30    3.80
  -3   1   5    8.50    3.40
  -3   1   5   10.40    2.50
   2  -1  -5  146.69    7.50
   2  -1  -5  132.09    9.90
   2  -1  -5  127.69    9.50
  -2   1   5  164.58   10.20
  -2   1   5  138.19    7.30
  -2   1   5  141.49   10.40
   1  -1  -5   25.00    4.90
   1  -1  -5   32.50    5.30
   1  -1  -5   27.80    4.00
  -1   1   5   31.70    5.60
  -1   1   5   38.10    4.70
  -1   1   5   36.60    5.90
   0  -1  -5   91.19   10.00
   0  -1  -5   91.89    7.10
   0  -1  -5   78.89    5.70
   0   1   5   94.59    7.50
   0   1   5   86.39    5.90
   0   1   5   90.99    7.10
  -1  -1  -5   12.30    3.40
  -1  -1  -5   15.40    4.10
  -1  -1  -5   16.40    3.90
   1   1   5   23.50    4.20
   1   1   5   17.70    4.00
   1   1   5   22.80    5.10
  -2  -1  -5   15.10    3.50
  -2  -1  -5   19.60    4.40
  -2  -1  -5   21.10    5.20
   2   1   5   15.20    3.90
  -3  -1  -5   24.50    5.50
  -3  -1  -5   28.00    6.30
  -3  -1  -5   27.50    6.00
  -3  -1  -5   35.60    6.10
   3   1   5   26.80    5.60
  -4  -1  -5   30.40    5.90
  -4  -1  -5   27.60    6.20
  -4  -1  -5   35.00    7.10
  -4  -1  -5   29.40    6.90
  -5  -1  -5  103.29   14.00
  -5  -1  -5  132.79   13.70
  -5  -1  -5  117.39   14.30
  -6  -1  -5    4.00    3.60
  -6  -1  -5   11.30    5.40
  -6  -1  -5    5.00    3.00
  -7  -1  -5   26.60    7.90
  -7  -1  -5   24.20    6.70
   6  -2  -5    3.10    2.70
   6  -2  -5   -0.50    1.40
  -6   2   5   -0.40    0.90
  -6   2   5    0.30    1.60
   5  -2  -5   11.60    4.90
   5  -2  -5    0.80    1.30
  -5   2   5    0.80    1.00
  -5   2   5    3.60    2.70
  -5   2   5    5.80    3.10
   4  -2  -5    3.40    2.60
  -4   2   5    0.70    0.70
  -4   2   5    1.00    1.60
  -4   2   5    0.70    1.30
   3  -2  -5    6.00    2.70
   3  -2  -5    1.50    1.50
  -3   2   5    3.70    2.60
  -3   2   5    1.70    1.50
  -3   2   5    2.10    0.90
   2  -2  -5  191.58   11.20
   2  -2  -5  197.08   12.10
  -2   2   5  192.48    7.40
  -2   2   5  184.28   11.80
  -2   2   5  200.98   11.10
   1  -2  -5  547.75   21.50
   1  -2  -5  536.55   20.00
   1  -2  -5  530.75   16.00
  -1   2   5  525.55   15.80
  -1   2   5  541.35   19.50
  -1   2   5  546.05   21.50
   0  -2  -5  369.86   16.50
   0  -2  -5  341.97   12.50
   0  -2  -5  353.06   14.80
   0   2   5  374.76   12.60
   0   2   5  366.66   15.00
   0   2   5  343.97   16.20
  -1  -2  -5  468.35   19.70
  -1  -2  -5  462.75   19.60
  -1  -2  -5  448.86   16.10
   1   2   5  466.45   19.60
   1   2   5  461.95   18.00
   1   2   5  447.56   16.30
  -2  -2  -5   92.09   12.50
  -2  -2  -5   61.09    7.70
  -2  -2  -5   67.29    8.70
  -2  -2  -5   75.69    8.00
   2   2   5   62.49    8.00
  -3  -2  -5   44.30    6.90
  -3  -2  -5   42.80    7.10
  -3  -2  -5   52.19    8.00
  -3  -2  -5   40.80    7.10
   3   2   5   58.49    9.20
  -4  -2  -5    5.00    2.90
  -4  -2  -5    1.40    1.80
  -4  -2  -5    2.70    2.00
  -5  -2  -5   14.50    5.00
  -5  -2  -5   19.70    5.40
  -5  -2  -5   26.20    5.90
  -6  -2  -5    6.10    3.10
  -6  -2  -5    9.90    4.70
  -6  -2  -5   -0.60    1.40
  -7  -2  -5   46.60    8.90
  -7  -2  -5   56.59   11.30
   5  -3  -5    2.10    2.00
   5  -3  -5    1.00    2.00
  -5   3   5    0.20    1.30
  -5   3   5    0.30    1.40
   4  -3  -5   62.89    9.50
   4  -3  -5   75.49   12.80
  -4   3   5   61.59    9.00
  -4   3   5   53.49    8.50
   3  -3  -5   46.60    7.40
   3  -3  -5   63.19    9.20
  -3   3   5   43.30    7.30
  -3   3   5   60.99    7.80
   2  -3  -5    5.00    2.10
   2  -3  -5    7.10    2.90
  -2   3   5    4.60    2.40
  -2   3   5    4.30    2.00
   1  -3  -5   24.70    4.50
   1  -3  -5   33.10    5.90
  -1   3   5   23.10    4.90
  -1   3   5   27.70    4.40
   0  -3  -5  891.31   27.10
   0  -3  -5  897.91   24.10
   0  -3  -5  939.81   30.70
   0   3   5  878.61   27.10
   0   3   5  930.91   30.90
  -1  -3  -5 1335.47   35.70
  -1  -3  -5 1342.17   37.60
  -1  -3  -5 1322.87   40.90
   1   3   5 1296.67   37.80
  -2  -3  -5  190.78   12.30
  -2  -3  -5  204.58   11.30
  -2  -3  -5  212.18   10.50
  -2  -3  -5  203.68   13.30
   2   3   5  208.68   11.60
  -3  -3  -5  854.11   28.30
  -3  -3  -5  805.92   29.20
  -3  -3  -5  828.42   30.40
  -3  -3  -5  806.72   31.10
  -4  -3  -5    6.40    3.00
  -4  -3  -5    7.40    3.00
  -4  -3  -5    6.30    3.20
  -5  -3  -5    1.30    1.90
  -5  -3  -5   -0.80    0.80
  -5  -3  -5    2.90    1.90
  -6  -3  -5    1.50    1.80
  -6  -3  -5    4.80    3.60
  -7  -3  -5    6.10    4.20
  -7  -3  -5    2.30    2.20
   5  -4  -5    1.20    1.60
   5  -4  -5    0.40    1.50
  -5   4   5    3.00    2.30
  -5   4   5    0.10    1.30
   4  -4  -5  318.67   16.40
   4  -4  -5  347.57   18.00
  -4   4   5  333.37   17.50
  -4   4   5  364.46   17.10
   3  -4  -5    0.80    1.30
   3  -4  -5    0.60    1.20
  -3   4   5    0.30    1.30
   2  -4  -5  814.02   24.90
   2  -4  -5  801.22   27.90
  -2   4   5  770.52   24.40
   1  -4  -5  193.38   11.30
   1  -4  -5  197.08    8.70
  -1   4   5  191.28   11.40
   0  -4  -5    6.70    1.80
   0  -4  -5    5.10    2.50
   0   4   5    7.00    2.30
   0   4   5    6.00    2.40
  -1  -4  -5  156.08   10.40
  -1  -4  -5  135.89    7.80
  -1  -4  -5  145.99    7.60
   1   4   5  134.09    7.70
  -2  -4  -5  494.65   20.70
  -2  -4  -5  570.74   20.60
  -2  -4  -5  519.55   19.40
  -2  -4  -5  532.45   22.80
  -3  -4  -5  460.85   19.60
  -3  -4  -5  481.35   22.40
  -3  -4  -5  475.35   20.50
  -4  -4  -5   86.19   10.30
  -4  -4  -5   77.69   10.50
  -5  -4  -5  399.86   20.30
  -5  -4  -5  393.86   22.20
  -5  -4  -5  375.96   20.80
  -6  -4  -5    3.00    2.60
  -6  -4  -5   -0.40    1.10
   6   4   5    2.20    2.10
  -7  -4  -5   35.30    8.40
  -7  -4  -5   23.70    6.60
   7   4   5   31.50    8.50
   4  -5  -5    6.40    2.70
   4  -5  -5    9.50    3.00
  -4   5   5    3.10    2.20
  -4   5   5    6.10    2.70
  -4   5   5    3.30    2.10
   3  -5  -5    9.00    3.50
  -3   5   5    9.70    3.20
   2  -5  -5  691.53   24.90
  -2   5   5  703.33   25.60
   1  -5  -5    1.40    1.40
   0  -5  -5 2848.62   75.39
  -1  -5  -5  326.87   16.30
  -2  -5  -5  167.98    9.40
  -2  -5  -5  176.88    9.10
  -2  -5  -5  185.18   12.30
  -3  -5  -5  112.89    8.40
  -3  -5  -5  127.89    9.20
  -3  -5  -5  151.38   15.40
  -4  -5  -5   89.09   10.70
  -4  -5  -5   70.59    9.80
  -5  -5  -5   23.90    6.00
  -5  -5  -5   31.00    7.10
   5   5   5   26.10    6.60
   6   5   5   16.30    5.40
  -7  -5  -5   60.39   10.90
   7   5   5   45.90    9.30
   1  -6  -5   70.19    7.90
   0  -6  -5  719.53   25.50
  -1  -6  -5   21.00    3.40
  -1  -6  -5   14.60    4.00
  -2  -6  -5 1543.75   48.00
  -2  -6  -5 1497.25   43.30
  -3  -6  -5  184.98   10.40
  -3  -6  -5  186.08   10.60
  -3  -6  -5  202.18   15.00
  -4  -6  -5  254.87   14.50
  -4  -6  -5  240.18   16.80
  -5  -6  -5   15.30    4.70
  -5  -6  -5   34.10    7.10
   5   6   5   20.40    5.20
  -6  -6  -5    0.60    1.50
   6   6   5   -0.10    1.20
  -7  -6  -5   -0.30    1.50
   7   6   5   -0.50    1.20
   0  -7  -5   27.40    4.90
  -1  -7  -5   35.30    4.50
  -1  -7  -5   33.20    5.90
  -2  -7  -5  151.78   11.30
  -2  -7  -5  145.59    9.50
  -3  -7  -5   17.10    4.30
  -3  -7  -5   32.10    7.20
  -4  -7  -5  350.36   18.90
  -4  -7  -5  354.26   17.00
  -4  -7  -5  358.56   16.90
  -4  -7  -5  354.36   21.20
  -5  -7  -5   66.69    9.30
  -5  -7  -5   83.19   11.00
  -6  -7  -5  113.49   13.60
   6   7   5   75.69   11.10
  -1  -8  -5   10.20    2.60
  -1  -8  -5   13.20    3.80
  -2  -8  -5    7.30    3.10
  -2  -8  -5   10.50    3.40
  -3  -8  -5    2.00    1.90
  -3  -8  -5    1.60    1.70
  -4  -8  -5   17.90    4.40
  -4  -8  -5   12.60    3.20
  -4  -8  -5   12.20    4.50
  -4  -8  -5   13.20    5.20
  -5  -8  -5   11.00    3.70
   4   5  -6    0.60    2.00
   3   5  -6    0.50    1.40
   3   5  -6    0.20    1.30
   3   5  -6    1.60    1.90
  -3  -5   6   -0.10    1.50
   2   5  -6   22.90    6.60
   2   5  -6   13.50    4.70
   2   5  -6   13.00    4.90
  -2  -5   6   19.60    5.60
   1   5  -6    9.70    4.60
   1   5  -6    7.10    4.80
  -1  -5   6    3.00    2.20
   0   5  -6    0.60    1.50
   0   5  -6    3.60    2.60
   0   5  -6    1.10    1.60
   0  -5   6    0.50    1.40
   5   4  -6   31.50    7.90
   5   4  -6   32.00    8.00
   4   4  -6   15.90    5.80
   4   4  -6    6.60    4.50
   3   4  -6   26.50    6.50
   3   4  -6   32.70    7.70
   3   4  -6   20.60    6.00
  -3  -4   6   27.50    7.10
   2   4  -6    1.80    2.00
   2   4  -6    0.10    1.00
   2   4  -6    0.20    1.20
  -2  -4   6    2.20    2.40
   1   4  -6   -0.70    0.90
   1   4  -6    2.10    2.00
   1   4  -6    0.90    1.50
  -1  -4   6    1.20    1.40
   0   4  -6   21.00    6.10
   0   4  -6   23.40    6.80
   0   4  -6   22.80    5.30
   0  -4   6   22.10    5.30
  -1   4  -6    0.40    1.10
  -2   4  -6    8.90    4.60
  -2   4  -6    7.40    2.80
  -2   4  -6    3.30    2.70
   6   3  -6   -0.60    1.60
   6   3  -6    1.90    2.10
   4   3  -6   10.30    4.70
  -4  -3   6    6.50    4.10
   3   3  -6    7.40    3.80
   3   3  -6   16.40    5.70
   3   3  -6    7.40    3.40
  -3  -3   6    7.60    3.70
  -3  -3   6   14.20    5.40
  -3  -3   6   17.00    5.10
   2   3  -6   31.20    7.40
   2   3  -6   22.60    6.20
   2   3  -6   25.00    6.20
  -2  -3   6   20.30    5.40
  -2  -3   6   23.70    5.50
   1   3  -6   54.69    8.80
   1   3  -6   65.09   10.50
   1   3  -6   50.79    8.60
  -1  -3   6   56.59    8.90
   0   3  -6   62.59   10.70
   0   3  -6   32.20    6.10
   0   3  -6   27.10    6.50
   0  -3   6   41.50    7.40
  -1   3  -6    0.60    1.10
  -1   3  -6    2.20    2.10
  -1   3  -6    0.20    1.20
   1  -3   6    3.10    2.40
   1  -3   6    0.10    0.90
   1  -3   6   -0.50    0.70
  -2   3  -6    3.30    2.30
  -2   3  -6    3.10    2.10
  -2   3  -6   10.10    4.00
  -3   3  -6   15.50    4.30
  -3   3  -6   17.80    6.40
  -3   3  -6    7.30    3.70
   6   2  -6   41.60    9.40
   5   2  -6    3.70    2.80
   5   2  -6    0.10    1.40
  -5  -2   6    1.70    1.90
   4   2  -6   24.70    7.00
   4   2  -6   25.60    7.80
  -4  -2   6   29.10    7.00
  -4  -2   6   29.70    7.40
  -4  -2   6   17.00    4.70
   3   2  -6    0.50    1.00
   3   2  -6    0.70    1.20
   3   2  -6    0.30    1.00
  -3  -2   6   -0.40    0.80
  -3  -2   6    0.50    1.30
  -3  -2   6    0.40    1.20
   2   2  -6    5.90    3.40
   2   2  -6    5.40    2.60
  -2  -2   6    3.30    2.40
  -2  -2   6    5.60    3.00
  -2  -2   6    5.30    2.80
   1   2  -6    1.40    1.60
   1   2  -6   10.00    4.00
   1   2  -6    1.80    1.50
  -1  -2   6    3.20    2.00
  -1  -2   6   -0.10    0.70
  -1  -2   6    2.20    1.70
   0   2  -6   18.90    4.90
   0   2  -6    7.10    2.90
   0   2  -6    9.10    3.50
   0  -2   6    9.40    3.70
   0  -2   6   11.90    3.90
   0  -2   6   11.90    3.60
  -1   2  -6    8.20    3.50
  -1   2  -6   12.10    4.80
  -1   2  -6   11.10    3.50
   1  -2   6    8.80    3.10
   1  -2   6   11.80    3.90
   1  -2   6   14.90    4.90
  -2   2  -6   14.70    4.40
  -2   2  -6   19.00    4.90
  -2   2  -6    8.70    3.20
   2  -2   6   13.70    4.10
  -3   2  -6    4.00    3.10
  -3   2  -6    3.10    2.40
  -3   2  -6    1.30    2.20
  -3   2  -6    0.00    0.80
   3  -2   6    0.80    1.20
  -4   2  -6   29.90    6.20
  -4   2  -6   37.00    8.60
  -4   2  -6   46.20   13.00
  -4   2  -6   39.70   10.10
   6   1  -6   13.80    5.60
   6   1  -6   16.20    7.10
  -6  -1   6    6.60    3.60
   5   1  -6   16.50    5.70
   5   1  -6   14.90    5.00
  -5  -1   6    9.30    3.60
  -5  -1   6   16.00    6.90
   4   1  -6   46.50    9.20
   4   1  -6   54.79   10.30
  -4  -1   6   66.79   11.50
  -4  -1   6   47.60    7.40
   3   1  -6   22.20    6.00
   3   1  -6   39.50    8.70
   3   1  -6   23.80    5.00
  -3  -1   6   26.10    5.50
  -3  -1   6   19.20    5.30
  -3  -1   6   32.20    6.50
   2   1  -6   85.19   10.80
   2   1  -6   70.59   10.40
   2   1  -6   83.79   10.00
  -2  -1   6   79.79   11.40
  -2  -1   6   85.99   11.70
  -2  -1   6   71.29    8.90
   1   1  -6   76.79    9.10
   1   1  -6   62.39    8.90
   1   1  -6   73.39    9.40
  -1  -1   6   85.39   10.60
  -1  -1   6   89.99   10.30
  -1  -1   6   69.39    9.40
   0   1  -6    6.00    2.90
   0   1  -6    4.70    2.50
   0   1  -6    2.20    1.70
   0  -1   6    3.50    1.80
   0  -1   6    1.80    1.60
   0  -1   6    5.80    2.70
  -1   1  -6   23.10    5.30
  -1   1  -6   10.70    3.60
  -1   1  -6   27.10    6.30
   1  -1   6   12.90    3.60
   1  -1   6   12.20    4.00
   1  -1   6   10.20    3.60
  -2   1  -6    1.50    1.90
  -2   1  -6    4.20    2.40
  -2   1  -6    0.30    0.90
   2  -1   6    0.00    0.80
   2  -1   6   -0.10    0.70
  -3   1  -6    0.50    1.80
  -3   1  -6    5.40    2.90
  -3   1  -6    4.20    3.20
  -3   1  -6    7.30    3.40
  -4   1  -6   -0.40    0.70
  -4   1  -6    0.40    1.50
  -4   1  -6    4.00    2.40
   4  -1   6   -0.60    0.90
  -5   1  -6    5.00    3.30
  -5   1  -6    4.10    3.00
  -5   1  -6    1.50    1.60
   6   0  -6   -0.10    1.50
   6   0  -6    1.00    2.10
  -6   0   6    3.00    2.30
  -6   0   6    0.00    0.90
   5   0  -6   11.20    4.80
   5   0  -6   22.00    6.90
  -5   0   6   11.70    3.70
  -5   0   6   11.30    4.70
   4   0  -6   27.20    7.20
   4   0  -6   32.40    7.30
  -4   0   6   21.70    7.00
  -4   0   6   17.90    5.30
  -4   0   6   27.10    5.40
   3   0  -6   19.50    4.30
   3   0  -6   20.00    5.80
   3   0  -6   11.80    4.00
  -3   0   6   20.20    5.30
  -3   0   6   20.70    4.40
  -3   0   6   20.40    6.00
   2   0  -6    6.00    3.20
   2   0  -6    0.90    1.50
   2   0  -6    0.80    1.00
  -2   0   6   -0.20    0.90
  -2   0   6    0.50    1.20
  -2   0   6    3.60    2.40
   1   0  -6    6.60    2.60
   1   0  -6    4.40    2.40
   1   0  -6    4.70    2.60
  -1   0   6    4.80    2.70
  -1   0   6    2.10    1.70
  -1   0   6    2.40    1.70
   0   0  -6   16.30    4.00
   0   0  -6   13.20    4.20
   0   0  -6   18.60    5.10
   0   0   6   21.80    5.10
   0   0   6   19.90    4.20
   0   0   6   18.30    4.70
  -1   0  -6  165.48   11.50
  -1   0  -6  170.38   10.90
  -1   0  -6  192.18   12.40
   1   0   6  184.98   11.00
   1   0   6  178.38   12.00
   1   0   6  188.38   12.40
  -2   0  -6    3.80    2.10
  -2   0  -6    5.90    2.90
  -2   0  -6    3.10    2.10
   2   0   6    8.60    3.80
   2   0   6    6.30    2.80
  -3   0  -6   74.09   10.00
  -3   0  -6   88.19   11.10
  -3   0  -6  114.29   12.50
  -3   0  -6   92.79   12.60
   3   0   6  105.19   11.40
   3   0   6  119.79   15.20
  -4   0  -6    2.20    2.00
  -4   0  -6    3.00    2.40
  -4   0  -6    5.70    3.00
  -4   0  -6    2.50    2.10
   4   0   6    6.90    3.90
  -5   0  -6    0.60    1.90
  -5   0  -6    1.00    1.80
  -5   0  -6    0.80    1.60
  -5   0  -6   -0.30    0.90
  -6   0  -6    0.70    1.70
  -6   0  -6    2.50    2.90
  -6   0  -6    4.50    3.10
   6  -1  -6    2.00    2.40
  -6   1   6    1.70    2.20
  -6   1   6    0.50    1.50
   5  -1  -6    2.20    2.40
   5  -1  -6    3.10    2.80
  -5   1   6    1.30    1.60
  -5   1   6    5.30    3.60
   4  -1  -6    0.70    1.20
   4  -1  -6   -0.70    0.80
  -4   1   6    0.50    1.00
  -4   1   6    0.30    0.70
  -4   1   6    0.80    1.40
   3  -1  -6   -0.10    0.60
   3  -1  -6   -0.50    0.60
  -3   1   6    1.60    1.30
  -3   1   6    1.80    2.30
   2  -1  -6   44.70    7.60
   2  -1  -6   55.39    6.50
   2  -1  -6   46.60    7.70
  -2   1   6   42.90    7.60
  -2   1   6   35.20    5.00
  -2   1   6   36.80    6.90
   1  -1  -6    2.00    1.70
   1  -1  -6   -0.50    0.40
  -1   1   6    1.30    1.30
  -1   1   6    0.40    0.80
  -1   1   6    1.20    1.00
   0  -1  -6   36.70    6.50
   0  -1  -6   44.40    6.90
   0  -1  -6   40.40    5.60
   0   1   6   33.40    6.30
   0   1   6   42.10    7.30
   0   1   6   44.30    5.90
  -1  -1  -6   60.19    8.80
  -1  -1  -6   44.90    6.40
  -1  -1  -6   73.99   10.00
   1   1   6   34.80    6.30
   1   1   6   44.10    7.00
   1   1   6   51.29    7.50
  -2  -1  -6   30.70    6.40
  -2  -1  -6   51.29    8.40
  -2  -1  -6   33.10    5.70
   2   1   6   27.60    6.10
   2   1   6   37.80    6.10
  -3  -1  -6   52.29    7.40
  -3  -1  -6   44.70    8.60
  -3  -1  -6   43.40    7.70
  -3  -1  -6   48.30    8.40
   3   1   6   54.39    8.40
   3   1   6   44.80    7.70
  -4  -1  -6    2.40    1.90
  -4  -1  -6    1.60    1.30
  -4  -1  -6    2.20    2.00
  -4  -1  -6    1.30    1.60
   4   1   6    6.00    3.40
  -5  -1  -6   30.00    7.30
  -5  -1  -6   33.70    8.30
  -5  -1  -6   44.60    7.90
  -5  -1  -6   26.60    6.90
  -6  -1  -6   -0.30    1.50
  -6  -1  -6    2.80    2.40
   5  -2  -6   12.90    5.30
   5  -2  -6    9.70    4.90
  -5   2   6   14.50    5.00
  -5   2   6    4.90    1.90
  -5   2   6    7.40    5.00
   4  -2  -6    0.80    1.40
   4  -2  -6    2.70    2.20
  -4   2   6    2.50    2.30
  -4   2   6    3.20    1.40
  -4   2   6    4.30    3.00
   3  -2  -6    1.10    1.40
  -3   2   6    1.30    0.90
  -3   2   6    6.70    3.10
  -3   2   6    3.50    2.50
   2  -2  -6    7.20    1.90
   2  -2  -6    6.20    2.60
   2  -2  -6    7.10    3.20
  -2   2   6    3.20    2.00
  -2   2   6    6.30    1.80
  -2   2   6    2.40    1.80
   1  -2  -6   35.10    4.40
   1  -2  -6   35.30    6.70
   1  -2  -6   33.30    6.10
  -1   2   6   46.30    4.90
  -1   2   6   41.60    7.90
  -1   2   6   42.20    6.40
   0  -2  -6   18.60    3.60
   0  -2  -6   16.10    4.00
   0  -2  -6   18.00    4.90
   0   2   6   23.20    5.00
   0   2   6   10.10    2.50
   0   2   6    5.00    2.10
  -1  -2  -6   13.80    3.70
  -1  -2  -6   13.40    4.20
  -1  -2  -6   21.90    4.10
   1   2   6   14.00    4.10
   1   2   6   20.70    5.00
   1   2   6   22.40    4.10
  -2  -2  -6    1.50    1.40
  -2  -2  -6   -0.50    0.60
  -2  -2  -6    0.90    1.60
   2   2   6    1.10    1.20
  -3  -2  -6   39.80    7.70
  -3  -2  -6   22.70    5.40
  -3  -2  -6   33.30    6.30
  -3  -2  -6   39.20    6.70
   3   2   6   40.70    8.20
  -4  -2  -6   16.90    5.30
  -4  -2  -6   26.80    5.70
  -4  -2  -6   28.60    6.90
  -4  -2  -6   29.80    7.00
   4   2   6   24.40    6.40
  -5  -2  -6   -0.30    1.10
  -5  -2  -6   -0.60    0.90
  -5  -2  -6    1.40    1.40
  -5  -2  -6   -0.50    0.90
  -6  -2  -6    0.40    1.50
  -6  -2  -6   -0.10    0.90
  -7  -2  -6   -0.60    1.00
  -7  -2  -6   -0.40    1.30
   5  -3  -6   10.30    4.80
   5  -3  -6   15.50    5.60
  -5   3   6   10.50    4.30
  -5   3   6   19.60    6.50
   4  -3  -6    7.10    3.70
   4  -3  -6    6.50    3.40
  -4   3   6    7.90    3.50
  -4   3   6   16.00    5.40
   3  -3  -6   10.00    4.40
   3  -3  -6   15.20    4.80
  -3   3   6    5.70    2.90
  -3   3   6   14.20    4.60
   2  -3  -6   34.20    6.30
   2  -3  -6   18.00    4.90
  -2   3   6   18.40    4.20
  -2   3   6   11.70    3.70
   1  -3  -6    4.10    1.90
   1  -3  -6    1.70    1.50
  -1   3   6    1.70    1.50
  -1   3   6    0.20    0.60
   0  -3  -6   47.80    7.50
   0  -3  -6   53.99    4.10
   0  -3  -6   51.79    6.90
   0   3   6   52.19    7.80
   0   3   6   46.40    6.50
  -1  -3  -6   53.49    5.90
  -1  -3  -6   49.10    7.50
  -1  -3  -6   40.90    6.00
   1   3   6   56.79    7.60
   1   3   6   53.69    8.80
  -2  -3  -6   93.99    7.00
  -2  -3  -6   83.89   10.90
  -2  -3  -6   91.99   10.00
  -2  -3  -6   74.59    9.30
   2   3   6   91.79   10.80
  -3  -3  -6   12.20    4.10
  -3  -3  -6   11.50    4.00
  -3  -3  -6   11.70    3.40
  -3  -3  -6    8.40    3.30
   3   3   6    6.10    2.80
  -4  -3  -6    3.20    2.30
  -4  -3  -6    2.00    2.00
  -4  -3  -6    5.70    2.80
  -4  -3  -6    2.70    2.40
  -5  -3  -6   -0.20    1.00
  -5  -3  -6    0.00    0.90
  -6  -3  -6    7.90    3.90
  -6  -3  -6    3.10    3.00
  -7  -3  -6    0.60    1.80
   4  -4  -6    2.70    2.20
   4  -4  -6   -0.90    1.00
  -4   4   6    3.40    2.70
  -4   4   6   -0.40    0.90
   3  -4  -6    6.80    3.10
   3  -4  -6    5.10    2.60
  -3   4   6    7.80    3.60
  -3   4   6    3.60    2.00
   2  -4  -6   30.00    5.30
   2  -4  -6   30.70    6.30
  -2   4   6   25.90    5.70
   1  -4  -6    2.70    1.70
   1  -4  -6    0.20    0.90
  -1   4   6    2.90    1.60
  -1   4   6    0.90    1.30
   0  -4  -6   39.60    5.20
   0  -4  -6   35.10    6.60
   0   4   6   23.40    5.20
  -1  -4  -6    3.60    2.00
  -1  -4  -6   11.90    3.30
  -1  -4  -6   14.20    3.70
  -1  -4  -6    7.90    2.20
   1   4   6   11.00    3.10
  -2  -4  -6    0.80    1.40
  -2  -4  -6    1.10    1.00
  -2  -4  -6    2.00    1.90
  -2  -4  -6    3.40    2.10
   2   4   6    6.00    2.50
  -3  -4  -6    2.80    2.20
  -3  -4  -6    1.40    1.60
  -3  -4  -6    2.80    1.70
  -4  -4  -6   69.89    9.40
  -4  -4  -6   66.29    9.60
  -4  -4  -6   49.40    8.50
  -4  -4  -6   75.89   11.00
  -5  -4  -6   16.20    5.20
  -5  -4  -6    9.40    3.70
  -6  -4  -6    5.90    3.30
  -6  -4  -6    0.70    1.40
  -7  -4  -6    0.40    1.30
  -7  -4  -6   -0.60    1.30
   4  -5  -6    5.60    2.50
   4  -5  -6    5.80    3.00
  -4   5   6    4.90    2.40
  -4   5   6    7.00    3.20
   3  -5  -6   18.40    5.00
  -3   5   6   15.60    4.80
   2  -5  -6   22.20    5.20
  -2   5   6   25.40    5.60
  -2   5   6   22.50    3.60
   1  -5  -6    0.70    1.50
  -1   5   6    3.20    2.00
   0  -5  -6   23.60    5.20
   0   5   6   23.70    3.60
  -1  -5  -6    3.10    1.40
  -1  -5  -6    6.30    2.80
  -1  -5  -6    2.90    1.30
  -1  -5  -6    7.00    2.00
   1   5   6    6.60    2.20
  -2  -5  -6   35.40    5.20
  -2  -5  -6   37.90    5.30
  -2  -5  -6   36.80    7.10
  -2  -5  -6   40.50    6.20
  -3  -5  -6   35.50    6.00
  -3  -5  -6   40.60    6.40
  -3  -5  -6   28.80    5.60
  -3  -5  -6   39.50    8.20
  -4  -5  -6    7.50    3.40
  -4  -5  -6    4.30    2.80
  -4  -5  -6   11.10    4.70
  -4  -5  -6    7.20    3.10
  -5  -5  -6    5.40    2.50
  -5  -5  -6   16.30    5.60
  -5  -5  -6    5.50    3.20
  -6  -5  -6   29.40    7.70
  -6  -5  -6   21.50    6.20
  -7  -5  -6   27.00    7.30
  -7  -5  -6   22.10    6.40
   2  -6  -6    0.60    1.20
   1  -6  -6   11.40    3.70
   0  -6  -6  101.79   11.10
  -1  -6  -6   24.80    5.40
  -1  -6  -6   24.00    3.50
  -2  -6  -6  340.97   13.10
  -2  -6  -6  317.97   18.20
  -2  -6  -6  333.97   13.60
  -2  -6  -6  339.27   14.70
  -3  -6  -6    3.00    1.90
  -3  -6  -6    0.80    1.00
  -3  -6  -6    5.40    3.20
  -4  -6  -6  103.39   13.60
  -4  -6  -6  123.99    9.80
  -4  -6  -6   94.29   11.70
  -5  -6  -6   37.40    7.30
  -5  -6  -6   31.00    7.00
  -6  -6  -6    2.70    1.90
   1  -7  -6    4.90    2.40
   0  -7  -6   28.00    5.70
  -1  -7  -6    0.60    1.50
  -1  -7  -6    1.40    0.90
  -2  -7  -6   73.49   10.50
  -3  -7  -6   26.60    4.30
  -3  -7  -6   20.60    6.10
  -3  -7  -6   20.70    4.10
  -3  -7  -6   27.30    5.70
  -4  -7  -6  414.16   19.30
  -4  -7  -6  511.65   26.50
  -5  -7  -6    0.70    1.40
  -5  -7  -6    0.30    1.40
  -6  -7  -6  123.79   14.10
  -1  -8  -6   31.60    6.30
  -2  -8  -6   44.50    6.10
  -2  -8  -6   46.80    8.00
  -3  -8  -6    4.60    3.30
  -3  -8  -6    7.00    3.20
  -4  -8  -6    7.70    4.70
  -4  -8  -6   11.00    4.30
  -4  -8  -6    6.20    2.30
   4   4  -7    4.90    3.90
   4   4  -7    8.70    5.10
   4   4  -7    2.70    2.90
   3   4  -7    9.20    5.00
   2   4  -7    3.50    2.60
   2   4  -7    8.90    4.00
   2   4  -7    5.10    3.70
  -2  -4   7    1.00    1.60
   1   4  -7    1.90    2.20
   1   4  -7    0.40    1.40
   1   4  -7    0.00    1.20
  -1  -4   7    0.00    1.10
   0   4  -7   -0.50    0.90
   0   4  -7    0.40    1.50
   0   4  -7   -0.40    1.10
   0  -4   7    1.10    1.70
  -1   4  -7   33.20    8.60
  -1   4  -7   24.40    7.00
   5   3  -7   10.00    4.90
   5   3  -7    8.00    4.30
   4   3  -7   41.30   10.90
   4   3  -7   29.40    9.30
   3   3  -7  137.49   17.20
   3   3  -7  157.08   17.50
   3   3  -7  135.09   15.20
  -3  -3   7  146.19   16.80
   2   3  -7    7.90    3.90
   2   3  -7    5.80    3.20
   2   3  -7   10.90    4.90
  -2  -3   7    7.40    3.50
   1   3  -7   36.90    7.90
   1   3  -7   53.19    9.70
   1   3  -7   58.19    9.50
  -1  -3   7   62.19   10.00
   0   3  -7   -0.50    0.80
   0   3  -7   -0.40    0.80
   0   3  -7   -0.20    0.80
   0  -3   7    0.10    1.30
  -1   3  -7    4.10    2.70
  -1   3  -7    0.10    1.20
   1  -3   7    0.90    1.70
  -2   3  -7    9.20    4.30
  -2   3  -7    2.40    2.30
  -2   3  -7    3.80    3.10
  -3   3  -7    0.80    1.70
  -3   3  -7    9.80    5.40
   5   2  -7   23.60    8.60
   5   2  -7   18.00    6.40
   4   2  -7   -0.30    1.00
   4   2  -7    0.90    1.80
  -4  -2   7    1.60    2.80
   3   2  -7    0.30    0.90
   3   2  -7    0.10    0.90
   3   2  -7   -1.10    1.00
  -3  -2   7   -0.60    0.90
  -3  -2   7    0.90    1.60
  -3  -2   7    0.80    1.40
   2   2  -7   41.80    8.20
   2   2  -7   34.80    7.50
   2   2  -7   43.90    9.20
  -2  -2   7   28.00    9.40
  -2  -2   7   38.00    8.40
  -2  -2   7   46.60    8.60
   1   2  -7  156.88   12.10
   1   2  -7  139.59   15.50
   1   2  -7  149.29   15.40
  -1  -2   7  131.39   14.30
  -1  -2   7  145.69   19.20
   0   2  -7   18.90    5.40
   0   2  -7   18.90    5.50
   0   2  -7   18.80    5.80
   0  -2   7   19.00    5.60
   0  -2   7   24.80    5.70
   0  -2   7   19.30    5.60
  -1   2  -7  161.58   17.60
  -1   2  -7  153.28   16.30
  -1   2  -7  105.29   13.10
   1  -2   7  137.49   14.40
  -2   2  -7    8.10    3.80
  -2   2  -7    5.90    3.40
  -3   2  -7   14.00    4.70
  -3   2  -7   13.30    6.40
  -4   2  -7    7.50    4.10
  -4   2  -7    0.00    1.20
   5   1  -7    3.00    2.70
   5   1  -7    6.20    3.10
  -5  -1   7    9.50    3.40
   4   1  -7  416.66   24.70
   4   1  -7  445.66   25.00
  -4  -1   7  427.46   24.50
  -4  -1   7  470.75   21.60
   3   1  -7   71.39   11.80
   3   1  -7   41.70    9.00
   3   1  -7   45.00    7.60
  -3  -1   7   55.09   10.20
  -3  -1   7   53.49    8.30
  -3  -1   7   56.39   10.00
   2   1  -7   37.30    8.10
   2   1  -7   27.10    6.10
   2   1  -7   25.90    6.30
  -2  -1   7   69.19   11.20
  -2  -1   7   43.30    8.80
  -2  -1   7   39.50    7.10
   1   1  -7   12.30    4.20
   1   1  -7   15.40    5.50
   1   1  -7   27.60    6.50
  -1  -1   7   12.10    3.90
  -1  -1   7   14.90    5.00
  -1  -1   7    8.80    3.50
   0   1  -7   17.40    4.70
   0   1  -7   25.70    6.50
   0   1  -7   31.90    8.20
   0  -1   7   10.30    4.20
   0  -1   7   13.70    4.90
   0  -1   7   15.90    4.40
  -1   1  -7   11.70    3.90
  -1   1  -7    8.70    4.20
  -1   1  -7   11.00    4.20
   1  -1   7    7.70    3.40
   1  -1   7    2.70    2.30
  -2   1  -7   33.20    7.50
  -2   1  -7   37.10    8.00
   2  -1   7   32.20    7.50
  -3   1  -7  100.49   14.00
  -3   1  -7   85.19   14.10
  -3   1  -7   61.79    9.60
  -3   1  -7   71.29   10.30
  -4   1  -7   21.70    5.80
  -4   1  -7   26.40    8.30
  -5   1  -7   17.40    8.30
  -5   1  -7   11.70    4.40
  -5   1  -7   11.60    4.70
   6   0  -7   17.30    6.40
   5   0  -7    1.50    2.00
  -5   0   7    3.50    2.40
  -5   0   7   -0.60    1.50
   4   0  -7  375.06   22.20
   4   0  -7  433.56   24.10
  -4   0   7  389.36   22.10
  -4   0   7  379.26   18.20
   3   0  -7   25.00    7.30
   3   0  -7   33.00    7.90
   3   0  -7   39.70    6.70
  -3   0   7   50.89    9.70
  -3   0   7   33.10    6.00
   2   0  -7  749.13   31.30
   2   0  -7  757.52   27.60
   2   0  -7  782.22   32.00
  -2   0   7  747.73   27.10
  -2   0   7  743.13   30.40
  -2   0   7  789.92   32.00
   1   0  -7   17.00    5.40
   1   0  -7   18.10    4.50
   1   0  -7   17.50    5.80
  -1   0   7   18.80    4.60
  -1   0   7   13.60    4.00
  -1   0   7   10.80    3.70
   0   0  -7  385.66   20.00
   0   0  -7  397.66   20.40
   0   0  -7  421.46   18.70
   0   0   7  369.26   19.60
   0   0   7  406.06   18.10
   0   0   7  372.56   19.40
  -1   0  -7    8.80    4.00
  -1   0  -7    5.60    2.70
  -1   0  -7    4.10    3.00
   1   0   7    5.50    3.20
   1   0   7    1.50    1.50
  -2   0  -7    2.40    1.80
  -2   0  -7    2.90    2.60
  -2   0  -7    2.20    2.10
   2   0   7    3.10    2.20
   2   0   7    1.70    1.60
  -3   0  -7   12.60    4.20
  -3   0  -7    6.00    3.60
  -3   0  -7    0.10    1.20
  -3   0  -7    2.90    1.90
  -4   0  -7    2.80    2.20
  -4   0  -7   13.50    6.00
  -4   0  -7   12.40    5.30
  -4   0  -7   11.50    4.30
  -5   0  -7   14.50    5.40
  -5   0  -7    4.00    2.90
  -5   0  -7    8.00    3.70
   5  -1  -7    0.70    1.50
   5  -1  -7    1.60    2.10
  -5   1   7    2.20    1.70
  -5   1   7   -0.40    1.20
   4  -1  -7    6.60    3.20
   4  -1  -7    5.50    3.20
  -4   1   7    3.70    2.60
  -4   1   7    1.40    1.40
   3  -1  -7    7.90    3.40
   3  -1  -7   13.40    5.20
  -3   1   7   21.40    6.10
  -3   1   7   13.60    4.90
   2  -1  -7  102.49   12.40
   2  -1  -7   91.59   11.20
   2  -1  -7  100.49    7.50
  -2   1   7  103.19    7.60
  -2   1   7   99.49   11.40
  -2   1   7  115.89   14.20
   1  -1  -7  117.39    8.20
   1  -1  -7  133.99   10.70
  -1   1   7  121.29   13.80
  -1   1   7  141.79   12.70
  -1   1   7  123.19   10.10
   0  -1  -7  339.47   18.20
   0  -1  -7  329.17   17.40
   0  -1  -7  303.57   14.90
   0   1   7  347.67   17.60
   0   1   7  331.87   15.10
   0   1   7  333.07   18.20
  -1  -1  -7    0.30    1.00
  -1  -1  -7   -0.60    0.50
  -1  -1  -7    1.10    1.70
   1   1   7    1.60    1.70
   1   1   7    3.60    2.10
   1   1   7    1.50    2.00
  -2  -1  -7  285.97   15.40
  -2  -1  -7  292.77   16.90
  -2  -1  -7  293.27   19.80
   2   1   7  311.97   17.60
   2   1   7  234.68   14.10
  -3  -1  -7   12.00    4.30
  -3  -1  -7   14.90    4.80
  -3  -1  -7   11.30    3.80
  -3  -1  -7   12.10    4.40
   3   1   7   12.00    4.00
   3   1   7   30.80    7.80
  -4  -1  -7   13.10    5.00
  -4  -1  -7   17.00    6.00
  -4  -1  -7   25.90    5.90
  -4  -1  -7   17.20    5.30
   4   1   7   27.80    8.10
  -5  -1  -7    2.30    2.40
  -5  -1  -7    0.30    0.90
  -5  -1  -7   -0.40    1.10
  -6  -1  -7    2.00    2.60
  -6  -1  -7   -0.50    1.10
  -6  -1  -7   -0.10    1.10
   5  -2  -7    6.80    4.00
   5  -2  -7    2.40    2.40
  -5   2   7    4.90    2.00
  -5   2   7    3.50    2.80
   4  -2  -7   12.20    4.50
   4  -2  -7   20.70    6.30
  -4   2   7   11.00    4.70
  -4   2   7   21.40    6.10
  -4   2   7   14.40    3.00
   3  -2  -7    1.40    1.50
   3  -2  -7    1.70    2.00
  -3   2   7   -0.80    0.70
  -3   2   7    0.40    0.80
  -3   2   7    0.20    1.00
   2  -2  -7   21.40    5.50
   2  -2  -7   26.60    6.40
   2  -2  -7   16.10    3.20
  -2   2   7   22.20    5.30
  -2   2   7   22.40    6.10
  -2   2   7   13.10    2.80
   1  -2  -7   92.89   14.00
   1  -2  -7   66.29   10.80
   1  -2  -7   80.49    7.60
  -1   2   7  101.89   11.20
  -1   2   7   73.69    7.10
  -1   2   7   81.39   11.20
   0  -2  -7   -0.60    0.50
   0  -2  -7    1.10    1.10
   0  -2  -7    2.70    1.60
   0   2   7    2.00    1.70
   0   2   7    2.50    1.40
   0   2   7    0.20    1.20
  -1  -2  -7  120.69    8.60
  -1  -2  -7  141.99   10.50
  -1  -2  -7  130.39   13.70
   1   2   7  125.99    8.60
   1   2   7  128.69   10.10
   1   2   7  134.99   14.10
  -2  -2  -7    2.30    1.90
  -2  -2  -7    1.80    1.60
   2   2   7    1.60    1.50
   2   2   7    2.60    2.40
  -3  -2  -7    1.00    1.20
  -3  -2  -7    5.10    2.80
  -3  -2  -7    2.70    2.30
  -3  -2  -7    3.30    2.70
   3   2   7    3.80    2.90
  -4  -2  -7   73.29   16.10
  -4  -2  -7   70.39   11.60
  -4  -2  -7   48.00    9.20
  -4  -2  -7   54.49    8.60
   4   2   7   73.99   12.10
  -5  -2  -7    6.20    3.60
  -5  -2  -7    7.50    3.80
  -5  -2  -7   15.60    5.20
  -6  -2  -7   18.50    8.40
  -6  -2  -7   12.80    4.90
   5  -3  -7    0.10    1.60
   5  -3  -7    0.50    1.40
  -5   3   7   -0.30    1.60
   4  -3  -7   43.80    8.90
   4  -3  -7   33.20    7.20
  -4   3   7   55.39   10.50
  -4   3   7   37.10    7.50
   3  -3  -7   12.10    4.20
   3  -3  -7    8.40    3.90
  -3   3   7    7.30    3.80
  -3   3   7   11.30    4.00
   2  -3  -7   15.30    4.50
   2  -3  -7   15.60    5.00
  -2   3   7   14.80    5.40
  -2   3   7   14.80    4.20
   1  -3  -7    2.10    1.60
   1  -3  -7    0.40    0.70
   1  -3  -7    2.10    2.20
  -1   3   7    0.70    1.00
  -1   3   7    2.00    1.00
  -1   3   7    1.60    1.90
   0  -3  -7   26.40    4.00
   0  -3  -7   17.80    4.80
   0  -3  -7   20.00    4.80
   0   3   7   23.70    5.20
   0   3   7   24.80    5.90
  -1  -3  -7   39.00    7.40
  -1  -3  -7   49.30    6.50
  -1  -3  -7   33.50    6.40
   1   3   7   40.90    6.90
   1   3   7   30.90    6.40
  -2  -3  -7   21.70    4.70
  -2  -3  -7   16.20    4.90
  -2  -3  -7   13.60    5.00
   2   3   7   17.20    4.90
  -3  -3  -7   20.60    5.90
  -3  -3  -7    8.70    3.60
  -3  -3  -7   26.70    5.70
  -3  -3  -7   17.00    4.20
   3   3   7   24.80    6.30
  -4  -3  -7   13.90    4.30
  -4  -3  -7   14.30    5.00
  -4  -3  -7   11.10    4.50
  -5  -3  -7    8.00    4.10
  -5  -3  -7    5.60    3.90
  -5  -3  -7    3.10    2.30
  -6  -3  -7   -0.30    1.40
  -6  -3  -7   -0.60    1.00
   4  -4  -7    0.40    1.60
   4  -4  -7   -0.10    1.10
  -4   4   7   -0.10    1.30
  -4   4   7    0.40    1.50
   3  -4  -7   18.80    5.00
   3  -4  -7    6.90    3.50
  -3   4   7   15.90    5.30
  -3   4   7   16.60    4.60
   2  -4  -7   11.20    4.10
   2  -4  -7   13.30    3.60
  -2   4   7   21.10    4.60
  -2   4   7   19.20    5.50
   1  -4  -7   88.99    9.60
   1  -4  -7   95.79   13.50
  -1   4   7   90.49   11.30
  -1   4   7   96.19    7.60
   0  -4  -7   13.60    4.60
   0  -4  -7   12.50    3.60
   0   4   7    2.50    2.00
   0   4   7   16.90    4.00
  -1  -4  -7    4.90    2.20
  -1  -4  -7    3.40    2.60
  -1  -4  -7    0.30    1.00
   1   4   7    4.50    2.50
  -2  -4  -7    0.10    0.80
  -2  -4  -7    1.60    1.50
  -2  -4  -7    2.90    2.20
  -2  -4  -7    0.60    0.90
   2   4   7    4.30    2.50
  -3  -4  -7   -0.30    0.60
  -3  -4  -7   -0.40    0.90
  -3  -4  -7   -0.30    0.90
  -3  -4  -7   -0.30    0.60
   3   4   7   -0.20    0.70
  -4  -4  -7    3.30    1.70
  -4  -4  -7    1.80    2.00
  -4  -4  -7    5.50    3.40
  -4  -4  -7    1.60    1.90
  -5  -4  -7   -0.10    1.20
  -5  -4  -7    6.60    3.00
  -5  -4  -7   -0.10    1.30
  -6  -4  -7    0.50    1.40
  -6  -4  -7    4.10    3.00
   3  -5  -7    2.60    2.40
   3  -5  -7    0.80    1.30
  -3   5   7   -0.80    1.20
  -3   5   7    0.60    1.20
   2  -5  -7    4.20    2.90
   2  -5  -7    1.10    1.20
  -2   5   7    5.20    2.10
  -2   5   7    5.30    2.70
   1  -5  -7   31.90    4.70
  -1   5   7   25.20    4.50
  -1   5   7   33.70    7.10
   0  -5  -7   18.10    3.90
   0  -5  -7   23.90    6.90
   0   5   7   16.50    3.60
  -1  -5  -7   54.49    5.60
  -1  -5  -7   62.99    7.50
  -1  -5  -7   60.09   10.80
  -1  -5  -7   40.80    5.90
   1   5   7   71.79    8.40
  -2  -5  -7    1.30    1.20
  -2  -5  -7   -0.40    0.90
  -2  -5  -7    2.10    1.60
  -2  -5  -7    0.90    1.10
   2   5   7    0.50    0.90
  -3  -5  -7    0.40    1.30
  -3  -5  -7    0.40    1.00
  -3  -5  -7    0.00    0.90
  -3  -5  -7   -0.40    0.60
  -4  -5  -7   15.30    4.80
  -4  -5  -7    9.00    4.00
  -4  -5  -7   16.60    4.80
  -4  -5  -7    2.40    2.10
  -5  -5  -7    0.10    1.10
  -5  -5  -7    1.80    2.00
  -5  -5  -7    0.70    1.40
  -6  -5  -7    0.20    1.30
  -6  -5  -7    0.10    1.40
   2  -6  -7    3.00    2.70
  -1  -6  -7   30.60    6.80
  -1  -6  -7   20.40    3.30
  -2  -6  -7   60.69    7.40
  -2  -6  -7   73.59   11.00
  -2  -6  -7   57.99    6.70
  -2  -6  -7   54.39    6.40
  -3  -6  -7    4.20    2.50
  -3  -6  -7    6.70    3.50
  -3  -6  -7    6.90    2.90
  -3  -6  -7    8.40    3.10
  -4  -6  -7    5.80    2.90
  -4  -6  -7    2.90    2.40
  -4  -6  -7    4.60    3.40
  -4  -6  -7    7.20    3.20
  -5  -6  -7   -0.20    0.90
  -5  -6  -7    1.00    1.40
  -5  -6  -7    4.20    3.40
  -6  -6  -7   -0.10    1.30
  -6  -6  -7    3.30    3.10
  -6  -6  -7    8.10    4.20
   1  -7  -7   -0.30    1.20
  -1  -7  -7   23.10    6.40
  -2  -7  -7   -0.10    0.60
  -2  -7  -7   -0.30    1.20
  -2  -7  -7    3.50    2.30
  -3  -7  -7    3.90    2.00
  -3  -7  -7    7.80    2.70
  -3  -7  -7   10.60    3.10
  -3  -7  -7    9.30    4.90
  -4  -7  -7    8.30    4.30
  -4  -7  -7    5.30    2.70
  -4  -7  -7    1.00    1.30
  -4  -7  -7    3.00    2.10
  -5  -7  -7    1.80    2.30
  -5  -7  -7    2.60    2.20
  -5  -7  -7   -0.30    1.30
  -3  -8  -7   23.30    7.00
  -3  -8  -7   12.50    4.10
   4   3  -8    8.60    4.90
   4   3  -8   13.10    5.40
   4   3  -8   13.70    6.30
   3   3  -8   -0.40    1.00
   3   3  -8    0.60    2.00
   2   3  -8   16.60    6.50
   2   3  -8   18.30    6.30
   2   3  -8   22.50    6.70
   1   3  -8   -0.50    1.10
   1   3  -8    2.60    2.40
   1   3  -8    0.00    1.20
  -1  -3   8   -0.40    1.10
   0   3  -8    8.60    4.50
   0   3  -8    5.80    3.70
   0   3  -8    4.90    3.10
   0  -3   8    4.10    3.20
  -1   3  -8    0.30    1.20
  -1   3  -8    0.90    1.80
  -1   3  -8   -0.40    1.00
   4   2  -8    1.60    2.30
   3   2  -8    0.50    1.50
   3   2  -8    1.40    1.90
   3   2  -8   -0.60    1.10
   2   2  -8   53.19    9.20
   2   2  -8   53.89   10.20
   2   2  -8   49.50    9.80
  -2  -2   8   44.00    8.90
   1   2  -8   78.39   12.20
   1   2  -8   53.29    9.60
   1   2  -8   48.80    9.40
  -1  -2   8   65.89   10.90
   0   2  -8   45.50    8.60
   0   2  -8   40.50    8.60
   0   2  -8   49.40   10.70
  -1   2  -8   21.20    5.90
  -1   2  -8   23.80    6.80
  -1   2  -8   14.40    5.10
   1  -2   8   25.90    6.60
  -2   2  -8    2.50    2.50
  -2   2  -8    0.30    1.10
  -2   2  -8    0.20    1.50
  -3   2  -8   -0.20    1.10
  -3   2  -8   -0.10    1.30
  -3   2  -8   -0.60    1.00
   5   1  -8    5.20    3.80
   4   1  -8   91.49   14.80
  -4  -1   8   97.69   11.90
   3   1  -8   45.80    9.40
   3   1  -8   35.60    6.90
   3   1  -8   34.50    9.00
  -3  -1   8   38.20    7.10
  -3  -1   8   31.50    8.70
   2   1  -8   -0.90    0.80
   2   1  -8    3.20    2.40
   2   1  -8    2.20    1.70
  -2  -1   8    3.20    2.30
  -2  -1   8   -0.30    0.90
   1   1  -8   27.30    6.50
   1   1  -8   14.50    5.30
   1   1  -8   20.60    6.00
  -1  -1   8   18.10    5.90
  -1  -1   8   11.00    5.00
   0   1  -8  123.39   14.40
   0   1  -8  113.39   14.50
   0   1  -8  132.19   14.80
   0  -1   8  118.59   14.00
   0  -1   8  113.29   12.70
   0  -1   8  131.89   14.90
  -1   1  -8  120.99   13.40
  -1   1  -8  120.29   14.20
  -1   1  -8  110.59   13.70
   1  -1   8  145.69   18.50
   1  -1   8  183.28   19.30
   1  -1   8  122.19   15.00
  -2   1  -8   31.80    7.60
  -2   1  -8   49.70    8.90
  -2   1  -8   34.20    7.80
  -3   1  -8   82.89   11.80
  -3   1  -8   83.99   16.00
  -4   1  -8    0.90    1.60
  -4   1  -8    0.60    1.60
  -4   1  -8    2.30    2.20
   5   0  -8   22.40    6.60
   5   0  -8   21.60    7.20
  -5   0   8   31.00    7.10
   4   0  -8  324.07   21.80
  -4   0   8  330.47   21.10
  -4   0   8  295.57   16.40
   3   0  -8   39.20    6.90
   3   0  -8   46.20    9.10
   3   0  -8   37.50    8.20
  -3   0   8   57.49    8.50
  -3   0   8   34.00    8.30
   2   0  -8  833.32   31.20
   2   0  -8  827.42   35.30
   2   0  -8  838.12   35.40
  -2   0   8  846.52   30.60
  -2   0   8  865.91   35.00
   1   0  -8  107.59   13.90
   1   0  -8  118.29   12.90
   1   0  -8  152.08   17.40
  -1   0   8  100.19   14.00
  -1   0   8  134.29   15.60
  -1   0   8  128.09   12.70
   0   0  -8   78.29   10.90
   0   0  -8   99.09   13.20
   0   0  -8   95.79   11.50
   0   0   8   92.49   10.80
   0   0   8  106.79   14.30
   0   0   8   89.89   13.10
  -1   0  -8  104.89   13.40
  -1   0  -8  110.29   12.10
  -1   0  -8   81.89   11.20
   1   0   8  100.79   13.60
   1   0   8   95.49   11.60
   1   0   8   86.99   11.90
  -2   0  -8   51.49    9.80
  -2   0  -8   73.29   11.10
  -2   0  -8   46.70    9.20
   2   0   8   56.39   10.50
   2   0   8   47.20    8.00
  -3   0  -8   26.50    6.60
  -3   0  -8   33.20    7.90
  -3   0  -8   24.30    7.10
  -4   0  -8   43.20    9.70
  -4   0  -8   37.70    8.50
  -4   0  -8   40.50   11.50
  -5   0  -8   72.09   17.50
  -5   0  -8   61.69   11.30
  -5   0  -8   70.89   12.70
   5  -1  -8    1.60    2.40
   5  -1  -8   -0.80    1.30
  -5   1   8    0.40    1.30
  -5   1   8   -0.30    2.00
   4  -1  -8    1.40    2.20
   4  -1  -8    7.90    4.40
  -4   1   8    1.40    2.00
  -4   1   8    1.70    1.60
   3  -1  -8  113.59    8.80
   3  -1  -8   98.19   13.00
   3  -1  -8  114.79   14.60
  -3   1   8  116.39    8.70
  -3   1   8  110.69   13.50
   2  -1  -8  660.23   30.50
   2  -1  -8  698.83   25.60
   2  -1  -8  777.72   31.40
  -2   1   8  696.93   25.00
  -2   1   8  650.33   29.10
  -2   1   8  627.14   30.80
   1  -1  -8   76.29   11.90
   1  -1  -8   63.89    9.80
   1  -1  -8   65.29    8.30
  -1   1   8   66.59    8.30
  -1   1   8   66.49   10.50
  -1   1   8   86.49   12.70
   0  -1  -8 2704.93   74.09
   0  -1  -8 2727.13   80.09
   0  -1  -8 2784.22   79.09
   0   1   8 2679.83   78.19
   0   1   8 2762.52   73.89
   0   1   8 2716.93   79.69
  -1  -1  -8   74.09   11.00
  -1  -1  -8   80.79    9.90
  -1  -1  -8   96.49   13.20
   1   1   8  101.59   12.40
   1   1   8   75.39    9.50
   1   1   8   69.49   10.40
  -2  -1  -8  371.76   20.60
  -2  -1  -8  391.66   19.30
  -2  -1  -8  333.67   20.00
   2   1   8  334.57   20.00
   2   1   8  381.46   19.00
  -3  -1  -8   95.19   12.70
  -3  -1  -8   81.69   12.90
  -3  -1  -8   89.99   13.00
  -3  -1  -8   92.79   11.50
   3   1   8  106.49   13.00
  -4  -1  -8    0.10    1.20
  -4  -1  -8   -0.30    1.10
  -4  -1  -8    1.00    1.70
  -5  -1  -8   -0.70    1.10
  -5  -1  -8    1.20    2.10
  -5  -1  -8    2.50    2.50
   4  -2  -8   58.19   10.40
   4  -2  -8   68.19   11.50
  -4   2   8   61.79    6.60
  -4   2   8   75.29   11.70
   3  -2  -8   10.00    3.90
   3  -2  -8    3.80    2.50
  -3   2   8    3.40    1.70
  -3   2   8    3.70    2.60
   2  -2  -8   78.29    8.10
   2  -2  -8   81.59   11.20
   2  -2  -8   67.99   10.70
  -2   2   8   60.09    9.20
  -2   2   8   62.89   10.40
  -2   2   8   79.59    6.20
   1  -2  -8  123.69    8.40
   1  -2  -8  141.09   15.40
   1  -2  -8  145.79   15.30
  -1   2   8  136.49   11.20
  -1   2   8  144.59   15.60
   0  -2  -8  568.34   25.20
   0  -2  -8  566.74   21.80
   0  -2  -8  585.54   26.70
   0   2   8  562.04   21.50
   0   2   8  580.14   25.30
   0   2   8  550.24   26.30
  -1  -2  -8   32.30    7.50
  -1  -2  -8   17.60    5.20
  -1  -2  -8   33.10    6.20
   1   2   8   14.00    4.00
   1   2   8   25.50    6.30
   1   2   8   17.10    5.80
  -2  -2  -8 1374.76   47.20
  -2  -2  -8 1394.76   44.10
  -2  -2  -8 1430.36   48.80
   2   2   8 1366.86   47.30
   2   2   8 1408.66   44.50
  -3  -2  -8   23.70    7.60
  -3  -2  -8   17.50    5.60
  -3  -2  -8    5.30    3.40
  -3  -2  -8    8.70    3.50
   3   2   8   13.20    4.80
  -4  -2  -8  435.56   24.70
  -4  -2  -8  457.65   24.90
   4   2   8  456.65   28.30
  -5  -2  -8   10.20    4.80
  -5  -2  -8   17.80    5.90
  -6  -2  -8   35.60    9.30
  -6  -2  -8   21.00    7.10
   4  -3  -8    5.60    3.40
   4  -3  -8    2.70    2.20
  -4   3   8    5.00    3.00
   3  -3  -8  172.88   17.60
   3  -3  -8  182.08   13.70
  -3   3   8  194.38   13.70
   2  -3  -8  143.19   15.40
  -2   3   8  111.79    6.10
  -2   3   8  112.39   16.00
  -2   3   8  120.39   13.10
   1  -3  -8   28.80    7.40
   1  -3  -8   29.20    4.20
   1  -3  -8   22.80    6.20
  -1   3   8   20.00    5.90
  -1   3   8   32.10    6.80
  -1   3   8   26.00    4.00
   0  -3  -8   86.09   10.50
   0  -3  -8   79.79    8.10
   0  -3  -8   90.89   12.10
   0   3   8   79.99   11.70
   0   3   8   83.69   10.60
   0   3   8   94.59    6.80
  -1  -3  -8   15.80    4.90
  -1  -3  -8   21.70    4.50
  -1  -3  -8   14.90    4.60
   1   3   8   30.20    7.00
   1   3   8   20.30    5.40
  -2  -3  -8   55.49    8.70
  -2  -3  -8   77.49   12.20
  -2  -3  -8   71.09    8.70
   2   3   8   77.49   10.80
  -3  -3  -8   11.60    4.90
  -3  -3  -8    6.40    3.60
  -3  -3  -8    8.30    3.60
   3   3   8    1.90    2.30
  -4  -3  -8  268.67   16.50
  -4  -3  -8  274.77   18.10
  -4  -3  -8  246.68   18.30
   4   3   8  273.87   18.70
  -5  -3  -8    6.90    3.60
  -5  -3  -8    3.30    3.00
  -5  -3  -8    3.70    2.40
  -6  -3  -8  122.79   16.60
  -6  -3  -8  122.79   14.70
   3  -4  -8   15.10    5.20
   3  -4  -8   11.70    4.40
  -3   4   8   16.50    4.90
   2  -4  -8   11.80    4.10
   2  -4  -8   22.40    6.20
  -2   4   8   33.70    6.50
  -2   4   8   24.30    7.60
   1  -4  -8  133.29   10.20
   1  -4  -8  116.29   14.40
  -1   4   8  136.89   10.10
  -1   4   8  124.09   14.40
   0  -4  -8  186.98   15.40
   0  -4  -8  164.08   16.40
   0  -4  -8  178.28    8.70
   0   4   8  159.48   11.10
   0   4   8  147.89   15.40
  -1  -4  -8   20.30    4.10
  -1  -4  -8    6.70    3.40
  -1  -4  -8   12.50    4.60
   1   4   8   19.20    5.30
  -2  -4  -8    6.40    2.60
  -2  -4  -8    4.30    3.00
  -2  -4  -8   15.20    4.40
  -2  -4  -8    4.90    2.70
   2   4   8   15.60    5.30
  -3  -4  -8    5.10    3.60
  -3  -4  -8    0.10    0.90
  -3  -4  -8    2.80    1.60
  -3  -4  -8    0.80    1.70
   3   4   8    3.20    2.70
  -4  -4  -8    0.20    0.90
  -4  -4  -8    0.00    1.10
  -4  -4  -8    0.30    1.30
  -4  -4  -8    0.90    1.60
  -5  -4  -8    3.90    2.70
  -5  -4  -8   12.60    4.40
  -6  -4  -8    7.40    4.40
  -6  -4  -8   14.60    6.20
  -6  -4  -8   15.00    5.40
   3  -5  -8    7.90    3.80
   3  -5  -8    9.60    3.50
  -3   5   8    5.40    2.90
   2  -5  -8   11.70    4.70
   2  -5  -8    0.60    1.20
  -2   5   8    5.00    2.90
  -2   5   8    1.60    2.00
   1  -5  -8   10.90    4.30
   1  -5  -8    8.80    3.20
  -1   5   8    0.90    1.80
  -1   5   8   14.20    4.10
   0  -5  -8   56.59    7.70
   0  -5  -8   77.99   11.30
   0   5   8   68.69    8.60
  -1  -5  -8    1.60    1.80
  -1  -5  -8    5.00    2.30
  -1  -5  -8    2.00    1.50
   1   5   8    4.40    2.20
  -2  -5  -8   88.29   10.10
  -2  -5  -8  112.09    8.10
  -2  -5  -8  100.69   13.30
  -2  -5  -8   93.69   10.90
   2   5   8  125.59   13.30
  -3  -5  -8   -0.70    0.90
  -3  -5  -8   -1.10    0.80
  -3  -5  -8   -0.80    0.90
  -4  -5  -8    1.20    1.70
  -4  -5  -8    3.40    3.20
  -4  -5  -8    0.00    0.80
  -4  -5  -8    3.50    3.20
  -5  -5  -8    1.80    2.40
  -5  -5  -8    4.20    2.70
  -5  -5  -8    2.60    2.60
  -6  -5  -8    0.00    1.60
  -6  -5  -8   -0.40    1.20
  -6  -5  -8    0.60    1.40
   1  -6  -8   34.50    7.30
   0  -6  -8    1.80    1.90
   0   6   8    9.10    3.50
  -1  -6  -8    8.60    2.90
  -1  -6  -8   10.10    3.00
  -1  -6  -8    6.20    1.70
  -1  -6  -8    2.50    2.20
  -2  -6  -8   13.50    3.80
  -2  -6  -8   18.00    4.70
  -2  -6  -8   18.20    3.80
  -2  -6  -8   22.00    6.40
  -3  -6  -8   14.50    5.30
  -3  -6  -8   10.10    3.90
  -3  -6  -8   11.20    3.80
  -4  -6  -8   31.50    6.80
  -4  -6  -8   26.70    7.40
  -4  -6  -8   24.90    5.80
  -5  -6  -8    1.30    1.60
  -5  -6  -8    1.40    2.00
  -5  -6  -8    6.20    3.20
   0  -7  -8    0.90    1.80
  -1  -7  -8   18.00    5.70
  -2  -7  -8    3.60    2.80
  -2  -7  -8    2.30    1.50
  -3  -7  -8    1.50    1.80
  -3  -7  -8    3.40    3.00
  -3  -7  -8    5.30    3.10
  -4  -7  -8    0.00    1.00
  -4  -7  -8    2.90    2.50
   3   2  -9   -0.40    1.20
   3   2  -9    2.40    2.60
   3   2  -9   -0.50    1.80
   2   2  -9    2.50    3.10
   2   2  -9    0.00    1.20
   1   2  -9   19.10    6.10
   1   2  -9   16.10    6.00
   1   2  -9   19.00    6.30
   0   2  -9    6.10    3.20
   0   2  -9    1.70    2.30
   0   2  -9   -0.30    1.00
  -1   2  -9    0.50    1.70
  -1   2  -9    1.40    1.70
  -1   2  -9    0.40    1.60
   1  -2   9    0.80    2.00
   4   1  -9    7.80    6.00
   4   1  -9   10.90    6.90
   3   1  -9   -0.50    1.00
   3   1  -9   -0.40    1.00
   3   1  -9    2.50    2.70
   2   1  -9    7.50    4.10
   2   1  -9    7.60    4.20
   2   1  -9   22.10    7.70
   1   1  -9    0.60    1.30
   1   1  -9    2.70    2.20
   1   1  -9    1.30    2.00
   0   1  -9    0.30    1.00
   0   1  -9    1.50    2.20
   0   1  -9    0.40    1.30
   0  -1   9    2.60    2.60
  -1   1  -9    6.70    5.60
  -1   1  -9    7.50    3.70
  -1   1  -9   16.50    6.60
   1  -1   9    6.30    3.70
  -2   1  -9   15.80    5.60
  -2   1  -9   16.50    5.90
  -2   1  -9    9.80    4.50
  -3   1  -9    4.10    3.60
  -3   1  -9    2.70    3.00
  -3   1  -9    1.20    1.90
   4   0  -9    5.70    4.30
   4   0  -9   21.10    7.50
  -4   0   9   15.20    4.80
   3   0  -9    4.90    3.00
   3   0  -9    7.80    3.90
  -3   0   9    1.70    2.50
   2   0  -9   30.40    7.90
   2   0  -9   25.00    7.90
   2   0  -9   19.30    5.30
  -2   0   9   24.90    7.30
  -2   0   9   19.40    5.80
   1   0  -9   10.10    4.90
   1   0  -9    5.80    2.90
   1   0  -9    3.50    2.30
  -1   0   9    6.30    4.50
  -1   0   9    4.50    3.40
  -1   0   9   -0.20    1.00
   0   0  -9   26.40    7.20
   0   0  -9   28.20    7.50
   0   0  -9   13.20    4.40
   0   0   9   31.50    7.80
   0   0   9   27.90    7.30
   0   0   9   22.90    5.70
  -1   0  -9    3.80    2.60
  -1   0  -9    6.00    3.80
  -1   0  -9    7.30    3.80
   1   0   9    6.90    5.20
   1   0   9    4.00    2.80
  -2   0  -9    3.10    3.30
  -2   0  -9   -0.50    0.90
  -2   0  -9    0.70    1.30
  -3   0  -9   -0.50    0.80
  -3   0  -9    0.00    1.20
  -4   0  -9   12.30    5.20
  -4   0  -9   17.50    7.50
  -4   0  -9   13.20    7.00
   4  -1  -9   -0.10    1.30
   4  -1  -9   -0.40    1.30
  -4   1   9    3.80    2.50
  -4   1   9   -0.50    1.50
   3  -1  -9    5.50    5.50
   3  -1  -9   -0.80    1.00
   3  -1  -9    1.70    2.10
  -3   1   9    4.20    2.40
  -3   1   9   -0.90    1.10
   2  -1  -9   -0.60    0.80
   2  -1  -9   -0.50    0.80
   2  -1  -9   -0.30    0.90
  -2   1   9   -0.60    1.30
  -2   1   9    0.40    1.00
   1  -1  -9   44.80    8.30
   1  -1  -9   48.60    9.40
   1  -1  -9   42.90    7.50
  -1   1   9   67.69   11.70
  -1   1   9   51.09    7.70
   0  -1  -9   31.80    7.70
   0  -1  -9   33.90    8.10
   0  -1  -9   41.70    7.60
   0   1   9   33.00    7.30
   0   1   9   12.40    5.10
   0   1   9   49.10    7.80
  -1  -1  -9    3.10    2.80
  -1  -1  -9   -0.60    0.80
  -1  -1  -9    1.10    1.80
   1   1   9    1.40    1.60
   1   1   9    3.40    2.90
   1   1   9    3.30    2.80
  -2  -1  -9   41.60    8.30
  -2  -1  -9   46.00    9.40
  -2  -1  -9   39.10    7.80
   2   1   9   48.90   10.10
   2   1   9   38.40    7.30
  -3  -1  -9   25.20    6.90
  -3  -1  -9   36.00    8.10
  -3  -1  -9   27.80    7.00
  -4  -1  -9    4.80    2.90
  -4  -1  -9    2.10    2.50
   4  -2  -9    3.30    2.90
   4  -2  -9    0.70    1.60
  -4   2   9   -0.10    1.10
  -4   2   9    4.20    3.00
   3  -2  -9   13.20    5.20
  -3   2   9   12.00    3.30
  -3   2   9   17.70    5.60
   2  -2  -9   15.50    5.80
   2  -2  -9   17.80    6.20
   2  -2  -9   17.20    4.00
  -2   2   9   17.30    5.60
  -2   2   9   16.50    4.00
   1  -2  -9   -0.10    0.90
   1  -2  -9    0.50    1.50
   1  -2  -9    2.20    1.90
  -1   2   9    4.20    2.10
  -1   2   9    6.20    3.60
   0  -2  -9   30.60    7.80
   0  -2  -9   37.10    6.60
   0  -2  -9   45.60    9.00
   0   2   9   35.40    6.40
   0   2   9   42.90    8.20
  -1  -2  -9  154.08   11.20
  -1  -2  -9  168.58   19.00
  -1  -2  -9  159.48   13.40
   1   2   9  173.78   17.60
   1   2   9  159.28   11.30
  -2  -2  -9  336.77   21.20
  -2  -2  -9  347.87   20.70
  -2  -2  -9  353.86   18.80
   2   2   9  420.16   22.70
   2   2   9  373.76   19.50
  -3  -2  -9    0.60    2.00
  -3  -2  -9    0.80    1.40
  -3  -2  -9    0.00    1.20
   3   2   9    9.00    5.30
  -4  -2  -9  158.48   23.20
  -4  -2  -9  146.99   18.10
  -4  -2  -9  136.29   18.10
  -5  -2  -9   20.00    6.60
  -5  -2  -9   29.40    7.90
  -5  -2  -9   28.40    6.80
   3  -3  -9   12.50    4.80
  -3   3   9   32.50    7.60
   2  -3  -9    5.20    3.50
   2  -3  -9    8.60    4.70
  -2   3   9    4.60    2.70
  -2   3   9   10.70    2.70
   1  -3  -9   62.89   11.40
   1  -3  -9   92.99    8.80
   1  -3  -9   68.69   10.90
  -1   3   9   69.69    7.40
  -1   3   9   80.39   11.30
   0  -3  -9  169.38   13.10
   0  -3  -9  194.18   15.30
   0  -3  -9  163.28   10.30
   0   3   9  188.08   10.80
   0   3   9  165.88   12.90
   0   3   9  160.48   17.20
  -1  -3  -9   25.40    7.30
  -1  -3  -9   31.80    6.10
  -1  -3  -9   24.60    5.90
   1   3   9   21.10    5.70
   1   3   9   17.80    6.00
  -2  -3  -9   22.70    5.10
  -2  -3  -9   28.20    7.60
  -2  -3  -9   21.90    6.00
   2   3   9   32.30    8.00
  -3  -3  -9  145.99   15.60
  -3  -3  -9  143.39   16.70
  -3  -3  -9  136.19   14.00
   3   3   9  147.59   16.40
  -4  -3  -9  467.05   48.40
  -4  -3  -9  410.66   22.10
  -4  -3  -9  455.85   25.50
   4   3   9  457.45   26.00
  -5  -3  -9    6.70    3.50
  -5  -3  -9    7.80    4.00
  -5  -3  -9    4.30    3.30
   3  -4  -9    1.80    2.60
  -3   4   9    7.00    3.90
   2  -4  -9   14.80    5.40
   2  -4  -9    7.00    3.50
  -2   4   9   11.50    4.70
   1  -4  -9  139.49   16.50
   1  -4  -9  134.89   11.30
   1  -4  -9  159.68    9.10
  -1   4   9  151.28   11.70
   0  -4  -9    4.90    4.50
   0  -4  -9    5.30    2.30
   0  -4  -9    8.90    4.40
   0   4   9   13.70    4.50
   0   4   9    4.80    3.80
  -1  -4  -9  194.38   19.60
  -1  -4  -9  186.08   10.90
  -1  -4  -9  178.68   13.00
   1   4   9  179.28   13.20
  -2  -4  -9  186.58   13.60
  -2  -4  -9  216.08   15.70
  -2  -4  -9  230.48   17.00
  -2  -4  -9  203.58   14.30
   2   4   9  191.68   14.50
  -3  -4  -9   11.30    4.80
  -3  -4  -9   11.90    4.20
  -3  -4  -9   12.30    4.60
   3   4   9    7.40    4.10
  -4  -4  -9    4.60    2.80
  -4  -4  -9    1.90    1.80
  -4  -4  -9   -0.80    1.40
   4   4   9    0.60    1.70
  -5  -4  -9   37.10    8.50
  -5  -4  -9   22.70    7.00
   2  -5  -9   -0.50    1.00
   2  -5  -9   -0.60    1.20
  -2   5   9    2.30    1.90
   1  -5  -9    0.10    1.00
   1  -5  -9    0.80    1.30
  -1   5   9    0.20    1.20
   0  -5  -9   27.80    5.90
   0  -5  -9   23.60    6.80
   0   5   9   25.60    5.70
  -1  -5  -9  192.88   10.50
  -1  -5  -9  180.78   13.10
  -1  -5  -9  269.67   18.30
  -1  -5  -9  203.68   13.20
   1   5   9  205.88   13.70
  -2  -5  -9    3.90    2.00
  -2  -5  -9    7.10    3.60
  -2  -5  -9   11.80    5.20
   2   5   9    8.70    3.90
  -3  -5  -9  179.68   12.10
  -3  -5  -9  162.28   18.10
  -3  -5  -9  165.58   13.00
   3   5   9  167.48   13.60
  -4  -5  -9   64.89   11.90
  -4  -5  -9   62.79   10.40
  -4  -5  -9   55.59    8.60
  -5  -5  -9    1.00    1.90
  -5  -5  -9    0.70    1.50
   1  -6  -9    0.30    1.80
   1  -6  -9    0.10    1.00
   0  -6  -9    4.00    3.10
   0  -6  -9    1.10    1.30
   0  -6  -9   -0.30    0.80
   0   6   9    0.30    1.00
  -1  -6  -9    1.60    1.70
  -1  -6  -9    0.80    1.70
  -1  -6  -9    1.30    1.90
  -1  -6  -9    1.40    1.20
   1   6   9    2.70    2.10
  -2  -6  -9    4.90    2.90
  -2  -6  -9    6.40    2.90
  -2  -6  -9   -0.60    1.20
  -3  -6  -9   75.29    9.40
  -3  -6  -9   89.69   11.10
  -4  -6  -9   18.90    7.10
  -4  -6  -9    2.70    2.60
  -4  -6  -9    9.00    4.10
  -2  -7  -9    0.50    1.40
  -2  -7  -9   -0.30    0.90
  -2  -7  -9   -0.10    1.30
  -2  -7  -9    1.00    1.00
   2   1 -10    4.30    3.00
   2   1 -10    0.70    2.00
   2   1 -10    1.10    2.00
   1   1 -10    0.90    1.80
   1   1 -10    1.70    2.00
   1   1 -10    0.90    2.10
   0   1 -10    6.00    3.90
   0   1 -10    4.00    3.40
   0   1 -10    4.80    3.30
  -1   1 -10    2.00    2.60
  -1   1 -10   -0.70    1.10
   3   0 -10   18.30    5.60
   3   0 -10   14.30    6.60
   2   0 -10    1.40    2.50
   2   0 -10   -0.40    1.10
   2   0 -10   -0.30    1.00
   1   0 -10    6.90    3.80
   1   0 -10    4.90    3.80
   1   0 -10    9.90    5.30
   0   0 -10    9.90    6.00
   0   0 -10    5.10    3.10
   0   0 -10    5.00    3.80
  -1   0 -10    5.40    6.10
  -2   0 -10    5.80    3.40
  -2   0 -10    3.90    2.90
   3  -1 -10    0.30    1.30
   3  -1 -10    0.60    2.30
   3  -1 -10    3.00    3.10
  -3   1  10    1.20    1.70
   2  -1 -10   13.40    5.50
   2  -1 -10   22.20    6.30
   2  -1 -10   29.10    6.50
  -2   1  10   27.00    7.80
  -2   1  10   39.10    8.20
   1  -1 -10   31.90    8.80
   1  -1 -10   36.70    7.20
  -1   1  10   34.60    7.20
  -1   1  10   26.90    7.20
   0  -1 -10   85.99   13.30
   0  -1 -10   75.39   10.70
   0   1  10   69.29    9.70
   0   1  10   85.49   13.30
  -1  -1 -10    2.70    2.40
  -1  -1 -10    4.40    3.70
  -1  -1 -10    6.40    3.60
  -2  -1 -10    0.10    1.30
  -2  -1 -10   -0.20    1.00
  -2  -1 -10   -0.40    1.30
  -3  -1 -10    1.50    2.30
  -3  -1 -10    1.60    2.70
   3  -2 -10    2.20    2.10
   3  -2 -10   -0.10    1.20
  -3   2  10    0.70    1.20
  -3   2  10   -0.90    1.80
   2  -2 -10    2.30    2.10
   2  -2 -10   -0.30    1.10
   2  -2 -10    0.80    1.70
  -2   2  10    3.00    2.60
  -2   2  10    4.10    2.30
   1  -2 -10   24.70    7.80
   1  -2 -10   33.30    6.70
   1  -2 -10   18.90    9.40
  -1   2  10   29.80    6.00
  -1   2  10   23.00    7.10
   0  -2 -10   40.40    8.40
   0  -2 -10   59.99   12.00
   0  -2 -10   37.90    7.00
   0   2  10   39.50    6.70
   0   2  10   39.20    8.80
  -1  -2 -10   21.20    5.50
  -1  -2 -10   21.10    6.50
  -1  -2 -10   19.20    6.60
   1   2  10   32.80    6.80
   1   2  10   43.50    9.30
  -2  -2 -10  110.79   13.20
  -2  -2 -10  114.59   15.20
   2   2  10  121.79   15.80
  -3  -2 -10    1.50    2.00
  -3  -2 -10    0.20    1.60
  -4  -2 -10    0.20    1.40
  -4  -2 -10   -0.10    1.40
   2  -3 -10    0.00    1.30
   2  -3 -10   -0.40    0.80
   2  -3 -10   -0.60    1.10
  -2   3  10    1.30    2.00
  -2   3  10    0.30    1.30
   1  -3 -10   -0.20    1.30
   1  -3 -10    2.00    1.70
   1  -3 -10   -0.60    1.20
  -1   3  10   -0.30    1.20
  -1   3  10   -0.60    0.70
   0  -3 -10   26.00    7.70
   0  -3 -10   21.30    4.90
   0  -3 -10   19.50    7.10
   0   3  10   24.60    7.00
   0   3  10   14.20    4.00
  -1  -3 -10   59.49   11.20
  -1  -3 -10   57.09    8.50
  -1  -3 -10   82.59   19.30
   1   3  10   77.79   12.90
  -2  -3 -10    8.50    3.70
  -2  -3 -10    7.00    4.10
   2   3  10    4.20    3.00
  -3  -3 -10    9.00    4.20
  -3  -3 -10    4.00    2.90
  -3  -3 -10    3.30    2.40
   3   3  10    9.20    4.30
  -4  -3 -10   22.60    7.00
  -4  -3 -10   14.20    5.30
  -4  -3 -10   22.70    6.10
   2  -4 -10    7.10    3.90
   2  -4 -10    3.80    3.40
  -2   4  10    3.50    2.50
   1  -4 -10   38.90    7.90
  -1   4  10   55.39    9.70
   0  -4 -10    1.10    1.20
   0  -4 -10    0.30    1.20
   0   4  10    1.20    1.80
  -1  -4 -10   -0.60    0.90
  -1  -4 -10    2.40    2.00
  -1  -4 -10   -0.40    2.00
   1   4  10   -0.30    1.20
  -2  -4 -10    1.40    1.40
  -2  -4 -10    1.00    1.40
   2   4  10    0.10    1.80
  -3  -4 -10   16.70    6.20
  -3  -4 -10   26.40    6.60
  -3  -4 -10   21.40    6.70
   3   4  10   22.50    7.30
  -4  -4 -10   -0.30    1.10
  -4  -4 -10   -0.60    1.20
   4   4  10    2.60    3.60
   1  -5 -10   -0.30    1.40
   1  -5 -10    0.00    1.20
  -1   5  10    3.30    2.90
   0  -5 -10    5.00    2.50
   0  -5 -10    5.60    3.10
   0   5  10    5.20    3.40
  -1  -5 -10    6.90    3.60
  -1  -5 -10   12.10    3.30
   1   5  10    2.30    2.10
  -2  -5 -10    7.20    3.80
  -2  -5 -10    2.70    2.70
  -2  -5 -10    6.20    2.80
   2   5  10    8.80    4.50
  -3  -5 -10    6.80    2.90
  -3  -5 -10    3.10    2.40
  -3  -5 -10    1.20    2.40
   3   5  10    4.50    3.80
  -4  -5 -10    3.20    3.40
  -4  -5 -10    4.70    2.80
  -4  -5 -10    5.60    3.40
  -1  -6 -10    0.50    1.20
  -1  -6 -10    2.20    1.50
  -1  -6 -10    1.60    2.80
   1   6  10    2.90    2.40
  -2  -6 -10    1.70    1.70
  -2  -6 -10   -0.40    1.00
  -2  -6 -10    5.10    3.50
   2   6  10    2.40    2.20
  -3  -6 -10    1.80    2.20
  -3  -6 -10    4.30    3.30
  -3  -6 -10    3.90    2.70
   1  -1 -11    3.00    2.90
   1  -1 -11    3.50    3.20
   0  -1 -11   63.89   10.90
   0  -1 -11   49.30   10.00
   0  -1 -11   55.99   11.60
  -1  -1 -11    5.40    3.40
  -1  -1 -11   -0.60    1.10
   1  -2 -11   57.19   10.70
   1  -2 -11   55.59    8.90
   1  -2 -11   59.79   15.00
  -1   2  11   74.29    9.90
  -1   2  11   57.39   11.80
   0  -2 -11    0.50    1.40
   0  -2 -11    3.90    3.60
   0  -2 -11    3.90    3.70
  -1  -2 -11    2.30    2.10
  -1  -2 -11    2.30    2.50
  -1  -2 -11    0.50    1.80
  -2  -2 -11   16.70    6.80
  -2  -2 -11    8.70    4.70
   1  -3 -11    3.90    2.40
   1  -3 -11    1.60    1.60
   1  -3 -11    4.80    5.10
  -1   3  11    4.70    3.10
  -1   3  11    4.10    2.40
   0  -3 -11    7.50    3.00
   0  -3 -11   15.00    5.70
   0  -3 -11   18.60    6.70
   0   3  11   11.70    3.80
   0   3  11   18.40    7.10
  -1  -3 -11   40.60    9.90
  -1  -3 -11   22.60    6.00
  -1  -3 -11   42.20   10.20
  -2  -3 -11    1.90    2.70
  -2  -3 -11   23.70    6.60
  -2  -3 -11   15.70    6.50
   2   3  11    9.30    5.50
   0  -4 -11    0.20    1.80
   0  -4 -11   -0.40    1.20
   0  -4 -11    1.90    1.80
   0   4  11    0.10    1.90
  -1  -4 -11    2.90    1.70
  -1  -4 -11   16.40    6.30
   1   4  11    7.50    4.30
  -2  -4 -11   -0.40    1.30
  -2  -4 -11   -0.20    1.00
  -2  -4 -11   -0.40    1.20
   2   4  11    0.30    2.00
   0   0   0    0.00    0.00

_computing_structure_solution     'SHELXT 2014/5 (Sheldrick, 2014)'
;
_shelx_hkl_checksum              22520
loop_
_space_group_symop_operation_xyz
'x, y, z'
'-x, -y, -z'
loop_
_atom_site_label
_atom_site_type_symbol
_atom_site_fract_x
_atom_site_fract_y
_atom_site_fract_z
_atom_site_U_iso_or_equiv
_atom_site_adp_type
_atom_site_occupancy
_atom_site_site_symmetry_order
_atom_site_calc_flag
_atom_site_refinement_flags_posn
_atom_site_refinement_flags_adp
_atom_site_refinement_flags_occupancy
_atom_site_disorder_assembly
_atom_site_disorder_group
O1 O 0.6455(2) 0.7217(2) 0.65903(15) 0.0481(5) Uani 1 1 d . . . . .
O2 O 0.6105(3) 0.6965(3) 0.89318(17) 0.0718(7) Uani 1 1 d . . . . .
N1 N 0.6721(3) 0.8350(3) 0.14516(19) 0.0596(7) Uani 1 1 d . . . . .
H1A H 0.626347 0.967387 0.131729 0.071 Uiso 1 1 calc R U . . .
H1B H 0.698388 0.787684 0.070743 0.071 Uiso 1 1 calc R U . . .
C9 C 0.7721(3) 0.4193(3) 0.5733(2) 0.0399(6) Uani 1 1 d . . . . .
C8 C 0.6948(3) 0.6346(3) 0.5452(2) 0.0400(6) Uani 1 1 d . . . . .
C6 C 0.7028(3) 0.7003(4) 0.2843(2) 0.0449(6) Uani 1 1 d . . . . .
C3 C 0.8021(3) 0.2884(3) 0.7248(2) 0.0434(6) Uani 1 1 d . . . . .
C2 C 0.7488(4) 0.3804(4) 0.8322(2) 0.0496(6) Uani 1 1 d . . . . .
H2 H 0.766376 0.296382 0.929628 0.060 Uiso 1 1 calc R U . . .
C5 C 0.7808(3) 0.4833(3) 0.3095(2) 0.0489(6) Uani 1 1 d . . . . .
H5 H 0.810459 0.430569 0.229738 0.059 Uiso 1 1 calc R U . . .
C7 C 0.6612(3) 0.7736(3) 0.4062(2) 0.0437(6) Uani 1 1 d . . . . .
H7 H 0.610710 0.916287 0.393474 0.052 Uiso 1 1 calc R U . . .
C4 C 0.8139(3) 0.3484(4) 0.4493(2) 0.0480(6) Uani 1 1 d . . . . .
H4 H 0.865668 0.205581 0.462422 0.058 Uiso 1 1 calc R U . . .
C1 C 0.6665(4) 0.6010(4) 0.8030(2) 0.0501(6) Uani 1 1 d . . . . .
C10 C 0.8882(4) 0.0568(3) 0.7606(3) 0.0583(7) Uani 1 1 d . . . . .
H10A H 0.890971 -0.005183 0.865383 0.087 Uiso 1 1 calc R U . . .
H10B H 1.025270 0.017379 0.724384 0.087 Uiso 1 1 calc R U . . .
H10C H 0.803896 0.009207 0.715208 0.087 Uiso 1 1 calc R U . . .
loop_
_atom_site_aniso_label
_atom_site_aniso_U_11
_atom_site_aniso_U_22
_atom_site_aniso_U_33
_atom_site_aniso_U_23
_atom_site_aniso_U_13
_atom_site_aniso_U_12
O1 0.0678(11) 0.0428(9) 0.0354(9) -0.0192(7) 0.0030(7) -0.0145(8)
O2 0.1161(16) 0.0654(12) 0.0430(10) -0.0310(8) 0.0113(9) -0.0304(11)
N1 0.0786(15) 0.0637(13) 0.0339(10) -0.0162(9) -0.0020(9) -0.0185(11)
C9 0.0418(12) 0.0420(12) 0.0385(12) -0.0159(9) 0.0023(9) -0.0140(10)
C8 0.0452(12) 0.0428(12) 0.0348(11) -0.0177(9) 0.0016(9) -0.0127(9)
C6 0.0431(12) 0.0539(13) 0.0377(11) -0.0157(9) 0.0000(9) -0.0141(10)
C3 0.0471(12) 0.0422(12) 0.0432(12) -0.0140(9) 0.0023(9) -0.0170(10)
C2 0.0624(15) 0.0486(13) 0.0372(12) -0.0105(10) 0.0007(10) -0.0199(11)
C5 0.0542(14) 0.0552(14) 0.0409(12) -0.0264(11) 0.0032(10) -0.0122(11)
C7 0.0501(13) 0.0385(12) 0.0389(12) -0.0138(9) -0.0023(9) -0.0078(10)
C4 0.0523(14) 0.0438(12) 0.0488(13) -0.0225(10) 0.0014(10) -0.0097(10)
C1 0.0669(15) 0.0534(14) 0.0352(11) -0.0192(10) 0.0042(10) -0.0218(11)
C10 0.0735(17) 0.0424(13) 0.0543(14) -0.0129(11) 0.0010(12) -0.0150(12)
loop_
_atom_type_symbol
_atom_type_description
_atom_type_scat_dispersion_real
_atom_type_scat_dispersion_imag
_atom_type_scat_source
C C 0.0033 0.0016 'International Tables Vol C Tables 4.2.6.8 and 6.1.1.4'
H H 0.0000 0.0000 'International Tables Vol C Tables 4.2.6.8 and 6.1.1.4'
N N 0.0061 0.0033 'International Tables Vol C Tables 4.2.6.8 and 6.1.1.4'
O O 0.0106 0.0060 'International Tables Vol C Tables 4.2.6.8 and 6.1.1.4'
loop_
_geom_angle_atom_site_label_1
_geom_angle_atom_site_label_2
_geom_angle_atom_site_label_3
_geom_angle
_geom_angle_site_symmetry_1
_geom_angle_site_symmetry_3
_geom_angle_publ_flag
C1 O1 C8 121.69(17) . . ?
C6 N1 H1A 120.0 . . ?
C6 N1 H1B 120.0 . . ?
H1A N1 H1B 120.0 . . ?
C8 C9 C4 115.88(19) . . ?
C8 C9 C3 118.54(18) . . ?
C4 C9 C3 125.59(19) . . ?
C7 C8 O1 115.61(18) . . ?
C7 C8 C9 123.57(19) . . ?
O1 C8 C9 120.82(18) . . ?
N1 C6 C7 120.9(2) . . ?
N1 C6 C5 121.20(19) . . ?
C7 C6 C5 117.89(19) . . ?
C2 C3 C9 118.50(19) . . ?
C2 C3 C10 120.9(2) . . ?
C9 C3 C10 120.58(19) . . ?
C3 C2 C1 122.8(2) . . ?
C3 C2 H2 118.6 . . ?
C1 C2 H2 118.6 . . ?
C4 C5 C6 121.09(19) . . ?
C4 C5 H5 119.5 . . ?
C6 C5 H5 119.5 . . ?
C8 C7 C6 119.76(19) . . ?
C8 C7 H7 120.1 . . ?
C6 C7 H7 120.1 . . ?
C5 C4 C9 121.82(19) . . ?
C5 C4 H4 119.1 . . ?
C9 C4 H4 119.1 . . ?
O2 C1 O1 115.4(2) . . ?
O2 C1 C2 127.0(2) . . ?
O1 C1 C2 117.61(19) . . ?
C3 C10 H10A 109.5 . . ?
C3 C10 H10B 109.5 . . ?
H10A C10 H10B 109.5 . . ?
C3 C10 H10C 109.5 . . ?
H10A C10 H10C 109.5 . . ?
H10B C10 H10C 109.5 . . ?
loop_
_geom_bond_atom_site_label_1
_geom_bond_atom_site_label_2
_geom_bond_distance
_geom_bond_site_symmetry_2
_geom_bond_publ_flag
O1 C1 1.368(3) . ?
O1 C8 1.379(2) . ?
O2 C1 1.220(3) . ?
N1 C6 1.362(3) . ?
N1 H1A 0.8600 . ?
N1 H1B 0.8600 . ?
C9 C8 1.390(3) . ?
C9 C4 1.401(3) . ?
C9 C3 1.447(3) . ?
C8 C7 1.372(3) . ?
C6 C7 1.391(3) . ?
C6 C5 1.405(3) . ?
C3 C2 1.347(3) . ?
C3 C10 1.491(3) . ?
C2 C1 1.425(3) . ?
C2 H2 0.9300 . ?
C5 C4 1.368(3) . ?
C5 H5 0.9300 . ?
C7 H7 0.9300 . ?
C4 H4 0.9300 . ?
C10 H10A 0.9600 . ?
C10 H10B 0.9600 . ?
C10 H10C 0.9600 . ?
