#------------------------------------------------------------------------------
#$Date: 2021-06-05 22:11:38 +0300 (Sat, 05 Jun 2021) $
#$Revision: 266112 $
#$URL: file:///home/coder/svn-repositories/cod/cif/7/24/26/7242614.cif $
#------------------------------------------------------------------------------
#
# This file is available in the Crystallography Open Database (COD),
# http://www.crystallography.net/
#
# All data on this site have been placed in the public domain by the
# contributors.
#
data_7242614
loop_
_publ_author_name
'Li, Wenjing'
'Li, Shun'
'Luo, Lihua'
'Ge, Yicen'
'Xu, Jiaqi'
'Zheng, Xueli'
'Yuan, Maolin'
'Li, Ruixiang'
'Chen, Hua'
'Fu, Haiyan'
_publ_section_title
;
 Visible-light-initiated catalyst-free oxidative cleavage of
 (Z)-triaryl-substituted alkenes containing pyridyl motif under ambient
 conditions
;
_journal_issue                   10
_journal_name_full               'Green Chemistry'
_journal_page_first              3649
_journal_page_last               3655
_journal_paper_doi               10.1039/D1GC00716E
_journal_volume                  23
_journal_year                    2021
_chemical_formula_sum            'C18 H13 N O'
_chemical_formula_weight         259.29
_space_group_crystal_system      triclinic
_space_group_IT_number           2
_space_group_name_Hall           '-P 1'
_space_group_name_H-M_alt        'P -1'
_atom_sites_solution_hydrogens   geom
_audit_creation_method           SHELXL-2014/7
_audit_update_record
;
2021-01-13 deposited with the CCDC.	2021-04-06 downloaded from the CCDC.
;
_cell_angle_alpha                93.473(7)
_cell_angle_beta                 98.583(7)
_cell_angle_gamma                109.416(8)
_cell_formula_units_Z            2
_cell_length_a                   7.1154(7)
_cell_length_b                   9.6387(8)
_cell_length_c                   10.8333(9)
_cell_measurement_temperature    293(2)
_cell_volume                     688.03(11)
_computing_structure_refinement  'SHELXL-2014/7 (Sheldrick, 2014)'
_diffrn_ambient_temperature      293(2)
_diffrn_measured_fraction_theta_full 0.998
_diffrn_measured_fraction_theta_max 0.999
_diffrn_radiation_type           MoK\a
_diffrn_radiation_wavelength     0.71073
_diffrn_reflns_av_R_equivalents  0.0182
_diffrn_reflns_av_unetI/netI     0.0364
_diffrn_reflns_Laue_measured_fraction_full 0.998
_diffrn_reflns_Laue_measured_fraction_max 0.999
_diffrn_reflns_limit_h_max       8
_diffrn_reflns_limit_h_min       -7
_diffrn_reflns_limit_k_max       12
_diffrn_reflns_limit_k_min       -12
_diffrn_reflns_limit_l_max       13
_diffrn_reflns_limit_l_min       -12
_diffrn_reflns_number            5657
_diffrn_reflns_point_group_measured_fraction_full 0.998
_diffrn_reflns_point_group_measured_fraction_max 0.999
_diffrn_reflns_theta_full        25.242
_diffrn_reflns_theta_max         26.372
_diffrn_reflns_theta_min         3.086
_exptl_absorpt_coefficient_mu    0.078
_exptl_crystal_density_diffrn    1.252
_exptl_crystal_F_000             272
_exptl_crystal_size_max          0.350
_exptl_crystal_size_mid          0.300
_exptl_crystal_size_min          0.250
_refine_diff_density_max         0.150
_refine_diff_density_min         -0.226
_refine_diff_density_rms         0.046
_refine_ls_extinction_method     none
_refine_ls_goodness_of_fit_ref   1.033
_refine_ls_hydrogen_treatment    constr
_refine_ls_matrix_type           full
_refine_ls_number_parameters     181
_refine_ls_number_reflns         2806
_refine_ls_number_restraints     0
_refine_ls_restrained_S_all      1.033
_refine_ls_R_factor_all          0.0737
_refine_ls_R_factor_gt           0.0502
_refine_ls_shift/su_max          0.001
_refine_ls_shift/su_mean         0.000
_refine_ls_structure_factor_coef Fsqd
_refine_ls_weighting_details
'w=1/[\s^2^(Fo^2^)+(0.0578P)^2^+0.0615P] where P=(Fo^2^+2Fc^2^)/3'
_refine_ls_weighting_scheme      calc
_refine_ls_wR_factor_gt          0.1137
_refine_ls_wR_factor_ref         0.1315
_reflns_Friedel_coverage         0.000
_reflns_number_gt                1992
_reflns_number_total             2806
_reflns_threshold_expression     'I > 2\s(I)'
_cod_data_source_file            d1gc00716e2.cif
_cod_data_source_block           200821_s2_lwj
_cod_depositor_comments          'Adding full bibliography for 7242614.cif.'
_cod_database_code               7242614
_shelx_shelxl_version_number     2014/7
_shelx_space_group_comment
;
The symmetry employed for this shelxl refinement is uniquely defined
by the following loop, which should always be used as a source of
symmetry information in preference to the above space-group names.
They are only intended as comments.
;
_shelx_estimated_absorpt_t_min   0.973
_shelx_estimated_absorpt_t_max   0.981
_shelx_res_file
;

    200821_s2_lwj.res created by SHELXL-2014/7

TITL 200821_s2_lwj in P-1 #2
REM reset to P-1 #2
CELL 0.71073 7.11542 9.63867 10.83327 93.4731 98.5826 109.4158
ZERR 2 0.00068 0.00084 0.0009 0.0069 0.0074 0.0082
LATT 1
SFAC C H N O
UNIT 36 26 2 2

L.S. 4
PLAN  20
SIZE 0.25 0.3 0.35
TEMP 20
htab
conf
bond $h
fmap 2
acta
SHEL 999 0.8
REM <olex2.extras>
REM <HklSrc "%.\\200821_s2_lwj.hkl">
REM </olex2.extras>

WGHT    0.057800    0.061500
FVAR      12.91189
N1    3    0.187764    0.782936    0.448003    11.00000    0.04707    0.03902 =
         0.03559    0.00575    0.00668    0.01079
C5    1    0.275383    0.757341    0.558561    11.00000    0.04571    0.03520 =
         0.03995    0.00358    0.00554    0.01203
C13   1    0.143112    0.712371    0.653564    11.00000    0.04645    0.03653 =
         0.03812    0.00781    0.00656    0.01628
C6    1    0.209362    0.866736    0.242372    11.00000    0.05746    0.04467 =
         0.03903    0.00622    0.01240    0.01065
C18   1   -0.059616    0.624737    0.617118    11.00000    0.04958    0.04646 =
         0.04278    0.00717    0.00551    0.01836
AFIX  43
H18   2   -0.113499    0.594679    0.532249    11.00000   -1.20000
AFIX   0
C7    1   -0.013423    0.805571    0.197809    11.00000    0.05297    0.04493 =
         0.03044    0.00727    0.01109    0.01541
C1    1    0.305788    0.828888    0.362202    11.00000    0.05013    0.03775 =
         0.03838    0.00234    0.00857    0.00953
O1    4    0.317917    0.950242    0.180904    11.00000    0.06638    0.08057 =
         0.05387    0.02861    0.01576    0.00171
C8    1   -0.131399    0.663510    0.215191    11.00000    0.05514    0.04466 =
         0.03978    0.00729    0.00611    0.01802
AFIX  43
H8    2   -0.073792    0.606205    0.263163    11.00000   -1.20000
AFIX   0
C14   1    0.218834    0.758133    0.781204    11.00000    0.05047    0.05289 =
         0.04229    0.00557    0.00527    0.01360
AFIX  43
H14   2    0.354136    0.816974    0.807367    11.00000   -1.20000
AFIX   0
C4    1    0.478951    0.772816    0.583310    11.00000    0.05272    0.05396 =
         0.04566    0.00722    0.00447    0.02136
AFIX  43
H4    2    0.535133    0.752259    0.660125    11.00000   -1.20000
AFIX   0
C3    1    0.597173    0.818645    0.493837    11.00000    0.04686    0.06167 =
         0.05859    0.00402    0.00969    0.02011
AFIX  43
H3    2    0.733433    0.828597    0.508922    11.00000   -1.20000
AFIX   0
C2    1    0.510220    0.849465    0.381714    11.00000    0.05191    0.05147 =
         0.04824    0.00433    0.01673    0.01226
AFIX  43
H2    2    0.587162    0.883405    0.320330    11.00000   -1.20000
AFIX   0
C9    1   -0.334122    0.607333    0.161295    11.00000    0.05291    0.05101 =
         0.04894    0.00414    0.00785    0.01160
AFIX  43
H9    2   -0.411992    0.511409    0.171639    11.00000   -1.20000
AFIX   0
C15   1    0.095281    0.717085    0.869010    11.00000    0.06749    0.06868 =
         0.03882    0.00700    0.01003    0.02564
AFIX  43
H15   2    0.147163    0.749041    0.953860    11.00000   -1.20000
AFIX   0
C16   1   -0.103998    0.629230    0.831615    11.00000    0.06418    0.06851 =
         0.05561    0.01868    0.02750    0.02952
AFIX  43
H16   2   -0.186886    0.601499    0.891152    11.00000   -1.20000
AFIX   0
C12   1   -0.103890    0.889673    0.127349    11.00000    0.07015    0.05091 =
         0.04208    0.01421    0.01605    0.02167
AFIX  43
H12   2   -0.026351    0.984869    0.114941    11.00000   -1.20000
AFIX   0
C10   1   -0.421629    0.692426    0.092371    11.00000    0.05402    0.07552 =
         0.04806    0.00396    0.00544    0.02648
AFIX  43
H10   2   -0.558585    0.654295    0.057003    11.00000   -1.20000
AFIX   0
C17   1   -0.181826    0.581850    0.705626    11.00000    0.04766    0.05586 =
         0.06461    0.01285    0.01434    0.01834
AFIX  43
H17   2   -0.316484    0.521095    0.680485    11.00000   -1.20000
AFIX   0
C11   1   -0.306654    0.833925    0.075722    11.00000    0.07348    0.07436 =
         0.04806    0.01846    0.01171    0.04130
AFIX  43
H11   2   -0.365988    0.891720    0.029645    11.00000   -1.20000
AFIX   0
HKLF 4

REM  200821_s2_lwj in P-1 #2
REM R1 =  0.0502 for    1992 Fo > 4sig(Fo)  and  0.0737 for all    2806 data
REM    181 parameters refined using      0 restraints

END

WGHT      0.0580      0.0611

REM No hydrogen bonds found for HTAB generation

REM Highest difference peak  0.150,  deepest hole -0.226,  1-sigma level  0.046
Q1    1  -0.2323  0.4781  0.3781  11.00000  0.05    0.15
Q2    1  -0.0214  0.5978  0.2364  11.00000  0.05    0.13
Q3    1  -0.7421  0.7073  0.1171  11.00000  0.05    0.13
Q4    1  -0.0528  0.4728  0.9595  11.00000  0.05    0.13
Q5    1   0.3993  0.5784  0.6756  11.00000  0.05    0.13
Q6    1   0.0548  0.8170  0.4476  11.00000  0.05    0.12
Q7    1   0.8059  0.7576  0.3852  11.00000  0.05    0.12
Q8    1   0.6796  0.7209  0.7771  11.00000  0.05    0.12
Q9    1  -0.5282  0.3408  0.6558  11.00000  0.05    0.12
Q10   1  -0.2954  0.5609  0.4343  11.00000  0.05    0.11
Q11   1   0.1024  0.9139  0.6102  11.00000  0.05    0.11
Q12   1  -0.1362  0.5836  0.4614  11.00000  0.05    0.11
Q13   1  -0.6163  0.6705  0.2357  11.00000  0.05    0.11
Q14   1   0.1545  0.9219  0.7122  11.00000  0.05    0.11
Q15   1   0.1771  0.9258  0.4767  11.00000  0.05    0.11
Q16   1  -0.1356  0.7173  0.4601  11.00000  0.05    0.11
Q17   1   0.0072  1.0692  0.0102  11.00000  0.05    0.11
Q18   1  -0.4548  0.4796  0.2845  11.00000  0.05    0.11
Q19   1   0.6285  0.9373  0.3048  11.00000  0.05    0.11
Q20   1   0.1807  0.5692  0.6875  11.00000  0.05    0.11
;
_shelx_res_checksum              84376
_shelx_hkl_file
;
   0   0  -2 97879.0 952.213   4
   0   0   2 98356.3 965.732   4
   0   0   2 98620.7 1160.36   6
   0   0   2 98722.6 1154.81   5
   0   0   3 310383. 2497.64   6
   0   0  -3 307920. 2077.21   4
   0   0   3 305248. 2077.07   4
   0   0   3 310271. 2528.14   5
   0   0   4 109484. 1749.01   5
   0   0  -4 112530. 1466.78   4
   0   0   4 111976. 1455.08   4
   0   0   4 110939. 1743.35   6
   0   0   4 110591. 1604.86   2
   0   0  -5 44254.6 1032.06   4
   0   0   5 44959.6 1038.09   4
   0   0   5 43833.8 1126.47   2
   0   0   5 43857.8 1248.09   5
   0   0   5 43442.7 1222.48   6
   0   0   6 1011.66 205.920   5
   0   0   6 1176.40 205.953   2
   0   0  -6 1086.60 186.749   4
   0   0   6 1354.42 208.646   4
   0   0  -7 13161.2 675.631   4
   0   0   7 13100.1 822.790   5
   0   0   7 11723.7 638.476   4
   0   0  -8 763.145 173.905   4
   0   0   8 564.006 222.774   5
   0   0  -9 1115.85 238.199   4
   0   0   9 1694.46 370.557   5
   0   0  10 168.860 203.294   5
   0   0 -10-118.605 158.220   4
   0   0  11 939.616 276.339   5
   0   0  12 1264.74 366.033   5
   0   0  13-21.4454 165.483   5
   0  -1  13 1504.12 400.863   5
   0  -1  12-106.115 210.549   5
   0  -1  11 159.733 197.422   5
   0  -1  10 7941.54 788.813   5
   0  -1   9 982.097 270.509   5
   0  -1   9 488.761 147.038   4
   0  -1   8 15009.7 968.567   5
   0   1  -8 17206.1 742.938   4
   0  -1   8 17486.8 752.314   4
   0  -1   7 2958.45 409.873   5
   0  -1   7 3180.38 297.726   4
   0   1  -7 3652.99 315.166   4
   0   1  -6 13677.4 546.442   4
   0  -1   6 12811.6 752.458   5
   0  -1   6 13714.7 549.375   4
   0  -1   5 948.168 126.378   4
   0   1  -5 1597.99 260.538   6
   0   1  -5 1279.37 222.114   5
   0   1  -5 1276.25 149.213   4
   0  -1   5 1080.57 207.428   5
   0  -1   5 1131.54 198.717   6
   0  -1   5 932.480 191.171   2
   0  -1   4 539.311 89.0252   4
   0  -1   4 249.256 101.697   2
   0   1  -4 428.632 117.468   5
   0  -1   4 354.880 106.621   6
   0   1  -4 452.518 124.361   6
   0   1  -4 402.695 72.7105   4
   0  -1   4 446.483 115.398   5
   0   1  -3 23050.2 421.422   4
   0   1  -3 23646.2 723.094   2
   0  -1   3 22756.5 689.458   2
   0   1  -3 23748.2 716.551   5
   0  -1   3 22880.7 421.024   4
   0   1  -3 23612.0 693.750   6
   0  -1   3 23831.2 703.652   6
   0  -1   3 23007.2 712.116   5
   0   1  -2 58165.8 940.158   5
   0  -1   2 58826.3 945.072   2
   0  -1   2 59065.5 943.112   5
   0   1  -2 60087.2 916.655   6
   0   1  -2 59691.0 961.370   2
   0  -1   2 60138.0 927.267   6
   0  -1  -2 221563. 1872.23   4
   0   1   2 219184. 1867.77   4
   0  -1  -3 12752.8 515.779   4
   0   1   3 12845.8 521.527   4
   0   1   4 1671.00 212.416   4
   0  -1  -4 2327.05 247.941   4
   0   1   5 26244.4 903.246   4
   0  -1  -5 24967.8 881.602   4
   0   1   5 25095.7 951.785   5
   0   1   5 26808.1 843.486   2
   0   1   6 2668.64 318.560   4
   0   1   6 2903.47 305.372   2
   0   1   6 2826.06 351.849   5
   0  -1  -6 2762.84 315.477   4
   0   1   7 6201.70 568.441   5
   0  -1  -7 6247.53 515.657   4
   0   1   8 6982.06 658.582   5
   0  -1  -8 7011.25 587.492   4
   0   1   9 341.093 194.487   5
   0  -1  -9 77.3235 79.0805   4
   0   1  10 8722.14 863.586   5
   0  -1 -10 5274.37 567.851   4
   0  -1 -11 846.997 242.132   4
   0   1  11 929.288 334.702   5
   0   1  12-81.1776 161.800   5
   0  -1 -12-143.626 159.476   4
   0   1  13 274.549 260.830   5
   0  -2  13 1397.96 385.013   5
   0  -2  12 282.423 186.996   5
   0  -2  11 123.717 186.755   5
   0  -2  10 9765.22 896.560   5
   0  -2   9 42372.1 1739.37   5
   0  -2   8-25.1573 56.9435   4
   0  -2   8 31.6768 117.464   5
   0   2  -8 201.698 167.056   6
   0  -2   7 16319.3 556.374   4
   0   2  -7 17083.7 927.598   6
   0  -2   7 16008.4 923.360   5
   0   2  -6 10895.4 680.232   6
   0  -2   6 10954.0 395.731   4
   0  -2   6 10788.5 709.912   5
   0  -2   5 7622.06 536.151   5
   0   2  -5 7602.70 527.510   6
   0  -2   5 7583.31 274.386   4
   0  -2   5 8010.85 540.269   6
   0  -2   4 2795.83 287.717   5
   0   2  -4 2459.62 273.592   6
   0   2  -4 2837.54 327.396   2
   0  -2   4 2441.47 271.475   6
   0   2  -4 2734.44 300.541   5
   0  -2   4 2548.70 291.203   2
   0  -2   4 2387.49 121.059   4
   0   2  -3 12089.6 538.709   6
   0  -2   3 11916.7 536.201   6
   0  -2   3 12122.4 561.546   2
   0  -2   3 11901.2 543.388   5
   0   2  -3 13310.7 592.690   2
   0   2  -3 12389.8 556.308   5
   0   2  -2 6668.89 353.570   5
   0  -2   2 6490.95 353.258   5
   0   2  -2 6668.67 357.663   6
   0  -2   2 6534.18 352.089   6
   0   2  -2 6402.24 189.163   3
   0   2  -2 6769.14 382.747   2
   0  -2   2 6578.97 371.975   2
   0   2  -1 90520.5 1210.73   6
   0  -2   1 92115.9 907.401   3
   0   2  -1 90569.8 891.521   4
   0   2  -1 92505.7 1187.09   2
   0  -2   1 91889.4 891.612   4
   0  -2   1 91290.0 1184.11   2
   0   2  -1 90871.7 1155.38   5
   0   2   0 770310. 3220.02   4
   0  -2   0 774703. 3191.84   4
   0   2   0 768909. 2917.19   2
   0  -2  -1 860377. 3925.28   4
   0   2   1 857467. 3922.10   4
   0   2   2 164823. 1930.46   4
   0  -2  -2 163995. 1941.00   4
   0  -2  -3 80952.1 1508.94   4
   0   2   3 81722.3 1504.97   4
   0  -2  -4 3671.31 351.427   4
   0   2   4 3863.61 364.065   4
   0  -2  -5 42467.8 1266.50   4
   0  -2  -6 26531.6 1072.20   4
   0   2   7 4385.29 396.930   2
   0  -2  -7 3661.83 424.291   4
   0   2   7 3832.11 451.435   5
   0  -2  -8 284.096 142.745   4
   0   2   8 190.140 164.376   5
   0  -2  -9 2705.41 433.656   4
   0   2   9 2812.80 477.732   5
   0  -2 -10 1010.66 259.104   4
   0   2  10 1022.75 281.485   5
   0  -2 -11 214.679 165.830   4
   0   2  11 275.229 245.329   5
   0   2  12 805.545 270.857   5
   0  -2 -12 616.145 252.243   4
   0   2  13 23.0840 180.371   5
   0  -3  13 17.0726 217.509   5
   0  -3  12 357.489 224.535   5
   0  -3  11 1881.07 425.617   5
   0  -3  10 7838.76 809.387   5
   0   3  -9 1935.45 378.312   6
   0  -3   9 3544.46 556.169   5
   0  -3   8 1325.27 133.224   4
   0   3  -8 1429.42 328.474   6
   0  -3   8 1326.96 151.340   1
   0   3  -7 6203.25 580.707   6
   0  -3   7 5952.04 260.929   1
   0  -3   7 5419.53 218.367   4
   0   3  -6 2820.96 358.853   6
   0  -3   6 2281.16 119.270   1
   0  -3   6 2141.34 119.825   1
   0  -3   6 2873.34 391.452   5
   0   3  -5 14134.0 793.775   2
   0  -3   5 14217.4 760.089   5
   0   3  -5 14199.0 741.383   6
   0  -3   4 2265.97 292.335   5
   0   3  -4 2290.21 116.103   3
   0   3  -4 2395.95 297.505   5
   0   3  -4 2386.49 297.341   6
   0  -3   4 2431.29 296.132   2
   0  -3   4 2448.64 293.988   6
   0   3  -4 2277.22 302.229   2
   0   3  -3 14186.7 666.196   2
   0   3  -3 13248.7 615.594   6
   0  -3   3 13576.6 629.655   6
   0  -3   3 13510.4 623.163   5
   0  -3   3 13287.0 291.678   4
   0   3  -3 13871.8 629.418   5
   0  -3   3 13476.8 654.405   2
   0  -3   2 143631. 1275.09   3
   0   3  -2 144520. 1929.44   2
   0  -3   2 143007. 1244.95   4
   0  -3   2 143682. 1925.15   2
   0   3  -2 145052. 1918.11   6
   0   3  -2 143311. 1842.96   5
   0  -3   1-27.4313 72.5066   2
   0   3  -1 7.76457 39.6167   4
   0  -3   1 4.19454 44.2714   3
   0   3  -1 99.9655 87.3258   2
   0  -3   1 42.2913 46.3798   4
   0   3   0 36356.2 778.903   2
   0   3   0 34937.8 843.174   4
   0  -3   0 36800.1 858.517   4
   0  -3  -1 394076. 3153.16   4
   0   3   1 400577. 3157.02   4
   0   3   2 830.479 170.795   4
   0  -3  -2 626.543 145.932   4
   0  -3  -3 615.160 162.266   4
   0   3   3 468.697 148.554   4
   0  -3  -4 63548.5 1607.98   4
   0  -3  -5 2625.66 367.887   4
   0  -3  -6 7823.19 630.363   4
   0  -3  -7 387.862 171.600   4
   0   3   7 660.020 172.242   2
   0   3   8 589.197 220.816   5
   0  -3  -8-13.8057 102.955   4
   0   3   9 1555.47 352.998   5
   0  -3  -9 2511.87 432.768   4
   0  -3 -10 4551.45 599.628   4
   0   3  10 6680.77 762.821   5
   0   3  11 2644.85 503.605   5
   0  -3 -11 2580.90 470.051   4
   0   3  12-185.229 183.021   5
   0  -3 -12-347.473 254.739   4
   0  -3 -13-446.031 239.643   4
   0  -3 -13-81.5861 139.471   3
   0  -4  13 6175.64 838.238   5
   0  -4  12 204.886 251.066   5
   0  -4  11 542.375 223.969   5
   0   4 -11 626.495 246.407   6
   0   4 -10 1241.60 305.007   6
   0  -4  10 1944.95 428.997   5
   0  -4   9 54143.2 2021.80   5
   0   4  -9 52845.3 1924.74   6
   0  -4   8 36630.4 1568.45   5
   0   4  -8 36452.9 1521.43   6
   0  -4   7 2784.64 414.847   5
   0   4  -7 3856.15 477.552   6
   0  -4   6 98.1891 95.7202   5
   0   4  -6 93.0023 159.296   2
   0   4  -6-6.85034 102.814   6
   0   4  -5 2815.39 384.508   2
   0  -4   5 3005.56 374.223   5
   0   4  -5 2324.82 333.722   6
   0   4  -4 10891.3 687.475   2
   0   4  -4 11206.7 658.443   6
   0  -4   4 11673.3 680.033   5
   0  -4   4 10143.2 262.291   4
   0  -4   3 9837.24 353.052   4
   0   4  -3 9344.15 295.025   1
   0   4  -3 11052.6 633.779   2
   0  -4   3 9100.51 352.525   3
   0   4  -3 9494.87 572.483   5
   0  -4   3 10002.6 610.598   2
   0   4  -3 10329.1 610.907   6
   0  -4   2-18.3587 45.0921   4
   0   4  -2 14.0449 48.3844   5
   0  -4   2-4.45510 49.1099   3
   0   4  -2 171.571 75.8088   4
   0   4  -2-24.5841 73.0221   2
   0  -4   2-35.6198 70.6594   2
   0   4  -2 39.4597 83.1868   6
   0  -4   1 18678.2 651.331   3
   0   4  -1 18540.5 702.307   2
   0  -4   1 18733.8 649.362   4
   0   4  -1 16959.4 622.718   4
   0   4   0 20618.3 751.375   4
   0   4   0 20684.2 681.666   2
   0  -4   0 20329.5 751.357   4
   0   4   1 27283.0 719.563   2
   0   4   1 27466.9 941.939   4
   0  -4  -1 27867.8 954.915   4
   0  -4  -2 80591.6 1738.74   4
   0  -4  -3 23731.6 999.971   4
   0  -4  -4 4645.94 474.896   4
   0  -4  -5 5767.01 558.833   4
   0  -4  -6 6299.30 623.189   4
   0  -4  -7 341.856 114.236   4
   0  -4  -8 5497.24 643.312   4
   0  -4  -9 1630.77 376.905   4
   0   4   9 870.003 270.899   5
   0  -4 -10-94.4133 189.657   4
   0   4  10 197.290 133.572   5
   0   4  11 530.005 297.700   5
   0  -4 -11 377.148 189.976   4
   0  -4 -12 264.650 225.251   4
   0   4  12 769.945 298.905   5
   0   5 -12 989.617 305.395   6
   0  -5  12 649.285 290.354   5
   0  -5  11 2653.68 545.026   5
   0   5 -11 2336.76 505.980   6
   0  -5  10 9392.17 928.233   5
   0   5 -10 10677.2 932.742   6
   0   5  -9 4405.16 602.560   6
   0  -5   9 4364.06 606.512   5
   0  -5   8 38164.8 1658.65   5
   0   5  -8 39259.0 1637.87   6
   0   5  -7 9120.77 759.606   6
   0  -5   7 8788.15 757.786   5
   0   5  -6 4402.24 499.937   6
   0  -5   6 5540.96 581.947   5
   0   5  -6 5239.51 585.641   2
   0   5  -5 45527.2 1519.05   6
   0   5  -5 43582.1 1559.98   2
   0   5  -4 15988.9 347.053   1
   0  -5   4 17389.4 480.982   4
   0   5  -4 16582.0 880.296   6
   0   5  -4 18122.8 947.041   2
   0   5  -3 2373.97 342.350   2
   0   5  -3 2256.32 190.660   1
   0  -5   3 2255.00 214.055   3
   0   5  -3 2204.16 321.376   6
   0  -5   3 1988.65 200.020   4
   0   5  -2 1489.68 243.736   2
   0  -5   2 1250.32 225.877   2
   0  -5   2 1495.47 196.430   4
   0  -5   2 1443.56 199.116   3
   0   5  -2 1716.91 212.135   4
   0   5  -2 2138.73 302.296   6
   0   5  -1 2230.78 265.831   4
   0  -5   1 2017.86 246.402   3
   0   5  -1 2251.64 273.534   2
   0  -5   1 2369.42 262.083   4
   0  -5   0 44048.5 1233.91   4
   0   5   0 42302.4 1222.90   4
   0   5   0 43241.1 1116.66   2
   0  -5  -1 181360. 2676.15   4
   0   5   1 179776. 2101.05   2
   0   5   2 15749.5 587.910   2
   0  -5  -2 15019.8 832.846   4
   0  -5  -3 13302.6 815.085   4
   0  -5  -4 1211.11 267.097   4
   0  -5  -5 778.335 214.750   4
   0  -5  -6 82.7860 130.130   4
   0  -5  -7 6330.84 693.560   4
   0  -5  -8 82.5883 122.459   4
   0  -5  -9 5663.38 728.602   4
   0   5  10 798.141 291.597   5
   0  -5 -10 539.104 242.878   4
   0  -5 -11 435.831 279.335   4
   0   5  11 719.367 351.444   5
   0   5  12 54.0649 183.567   5
   0  -6  12 1329.40 418.042   5
   0   6 -12 2124.63 500.686   6
   0   6 -11 1136.30 372.443   6
   0  -6  11 952.742 342.412   5
   0  -6  10 1802.39 413.514   5
   0   6 -10 1406.34 344.971   6
   0  -6   9 934.990 279.009   5
   0   6  -9 1416.57 353.698   6
   0  -6   8 10309.3 903.037   5
   0   6  -8 8924.09 864.783   6
   0   6  -7 109781. 2736.91   6
   0   6  -6 782.654 308.995   2
   0   6  -6 71.0601 156.320   6
   0   6  -5 3887.68 512.434   2
   0   6  -5 4107.72 493.091   6
   0  -6   5 3566.42 209.747   4
   0   6  -4 2099.06 380.483   2
   0  -6   4 1531.31 178.606   4
   0   6  -4 1750.57 325.475   6
   0   6  -4 1706.77 159.727   1
   0  -6   3 7131.03 436.890   3
   0   6  -3 6495.25 570.943   2
   0  -6   3 6141.22 408.410   4
   0   6  -3 6788.08 390.420   1
   0   6  -3 6712.94 600.591   6
   0  -6   2 747.995 163.237   3
   0  -6   2 625.039 148.127   4
   0   6  -2 779.100 173.466   4
   0   6  -2 779.384 215.194   6
   0   6  -2 865.173 210.431   2
   0  -6   1 555.638 171.804   3
   0   6  -1 376.643 140.941   2
   0  -6   1 295.583 111.032   4
   0   6   0-31.5727 66.0816   2
   0  -6   0-118.993 105.028   3
   0  -6   0-17.4608 70.6828   4
   0   6   1 1561.06 226.812   2
   0  -6  -1 1536.93 287.860   4
   0  -6  -2 1264.20 277.871   4
   0   6   2 1489.14 211.747   2
   0   6   3-86.9896 73.0097   2
   0  -6  -3-296.329 183.810   4
   0  -6  -4 1612.50 311.955   4
   0  -6  -5 1271.11 316.358   4
   0  -6  -6 257.341 181.265   4
   0  -6  -7 208.450 143.877   4
   0  -6  -8 650.896 295.683   4
   0  -6  -9 992.205 352.470   4
   0  -6 -10 564.052 277.067   4
   0   6  10 37.8588 171.478   5
   0   6  11-85.5338 163.393   5
   0   7 -12-67.7245 155.202   6
   0   7 -11 1966.74 440.331   6
   0  -7  11 1637.84 447.294   5
   0   7 -10-32.1587 180.844   6
   0   7  -9 4751.64 666.047   6
   0   7  -8 21503.9 1320.04   6
   0   7  -7 2366.87 471.715   6
   0   7  -7 2831.31 572.886   2
   0   7  -6 11308.2 956.935   2
   0   7  -6 11657.2 903.686   6
   0   7  -5 26533.6 1371.74   2
   0   7  -5 27019.0 1339.24   6
   0  -7   5 25726.5 702.230   4
   0   7  -4 487.422 210.126   2
   0   7  -4 513.000 106.387   1
   0   7  -4 516.228 207.224   6
   0  -7   4 432.985 136.376   4
   0  -7   4 382.461 105.622   3
   0  -7   3 7196.55 500.448   3
   0   7  -3 7913.31 484.925   1
   0   7  -3 8291.94 728.589   6
   0   7  -3 8116.29 687.229   2
   0  -7   3 7422.26 500.751   4
   0   7  -2 266.962 136.912   2
   0  -7   2-19.3213 68.5168   4
   0  -7   2-23.2458 89.2394   3
   0   7  -2 120.014 150.064   6
   0  -7   1 10513.7 687.234   4
   0  -7   1 10777.4 701.446   3
   0   7  -1 9651.45 660.056   2
   0   7   0 21.6412 98.7382   2
   0  -7   0 197.632 151.196   4
   0  -7   0 138.678 163.040   3
   0  -7  -1 30528.0 1307.43   4
   0   7   1 29625.4 1043.07   2
   0  -7  -1 29881.5 1306.95   3
   0   7   2 6934.52 479.915   2
   0  -7  -2 7461.05 684.031   4
   0   7   3 22760.4 811.375   2
   0  -7  -3 22753.5 1240.32   4
   0  -7  -4 7565.65 753.063   4
   0   7   4 9199.61 482.034   2
   0  -7  -5 2562.45 471.906   4
   0  -7  -6 6339.17 765.260   4
   0  -7  -7-172.030 217.390   4
   0  -7  -8 219.105 183.579   4
   0  -7  -9 1741.17 475.916   3
   0  -7  -9 1746.82 447.129   4
   0   8 -11 675.079 339.838   6
   0   8 -10 144.547 153.809   6
   0   8  -9 948.813 337.201   6
   0   8  -8-17.1619 178.703   6
   0   8  -7 9202.82 892.189   6
   0   8  -6 16300.3 1139.03   6
   0   8  -6 16196.2 1187.69   2
   0   8  -5 2235.37 458.462   2
   0   8  -5 2143.57 431.937   6
   0  -8   4 52.9968 68.7480   3
   0  -8   4-28.6663 54.3299   4
   0   8  -4-102.558 145.953   2
   0  -8   3 1624.27 268.629   4
   0  -8   3 1930.01 297.267   3
   0   8  -3 2345.84 389.219   2
   0   8  -3 1856.69 370.488   6
   0   8  -2-44.3280 146.858   6
   0  -8   2 21.2180 76.2446   3
   0  -8   2-70.6846 108.559   4
   0   8  -2-16.6267 143.277   2
   0  -8   1-50.2227 146.132   4
   0   8  -1 150.532 134.382   6
   0   8  -1 115.876 111.035   2
   0  -8   1 316.648 197.423   3
   0  -8   0 687.057 219.176   4
   0  -8   0 921.626 253.071   3
   0   8   0 675.940 180.815   2
   0   8   1 87.4093 85.3371   2
   0  -8  -1-55.3244 172.162   4
   0  -8  -2-3.97287 154.782   3
   0  -8  -2 323.816 154.691   4
   0   8   2 286.283 103.176   2
   0  -8  -3-22.8499 134.598   4
   0   8   3 140.455 88.3021   2
   0  -8  -3 65.7374 169.122   3
   0  -8  -4 688.358 290.303   3
   0  -8  -4 561.510 243.236   4
   0  -8  -5 1705.18 432.796   4
   0  -8  -5 1913.57 416.445   3
   0  -8  -6 252.399 192.518   4
   0  -8  -6-243.389 264.287   3
   0  -8  -7 466.567 276.842   3
   0  -8  -7-277.077 212.896   4
   0  -8  -8 2338.32 535.318   3
   0  -8  -8 1285.10 410.557   4
   0   9 -10-118.461 175.399   6
   0   9  -9 2152.99 488.766   6
   0   9  -8 1539.19 427.987   6
   0   9  -7 5213.86 694.473   6
   0   9  -6 7034.34 835.763   2
   0   9  -6 5966.88 746.368   6
   0   9  -5 357.016 226.714   2
   0   9  -5-18.6085 184.094   6
   0   9  -4 153.074 156.119   2
   0   9  -4-79.2250 117.480   6
   0  -9   3 146.378 120.473   3
   0   9  -3 98.1320 137.536   2
   0   9  -3 65.4056 133.355   6
   0  -9   3 168.318 122.997   4
   0  -9   2 1038.17 247.338   4
   0   9  -2 969.182 248.409   2
   0  -9   2 1052.39 241.304   3
   0   9  -2 1577.27 356.292   6
   0  -9   1-0.31845 136.659   4
   0  -9   1-69.9999 99.6478   3
   0   9  -1-145.444 135.735   2
   0   9  -1 205.683 193.577   6
   0  -9   0 623.623 216.285   4
   0   9   0 763.323 231.801   2
   0  -9   0 810.867 269.095   3
   0   9   1 339.990 175.816   2
   0  -9  -1 489.382 200.391   3
   0  -9  -1 165.449 106.431   4
   0  -9  -2 64.2188 139.822   4
   0  -9  -2-48.7639 126.600   3
   0  -9  -3 5006.53 657.628   4
   0  -9  -3 5167.97 699.320   3
   0  -9  -4 13281.9 1146.21   3
   0  -9  -4 14220.4 1183.28   4
   0  -9  -5 237.031 257.823   4
   0  -9  -5 386.299 259.853   3
   0  -9  -6 3466.83 639.407   3
   0  -9  -6 2828.69 593.786   4
   0  10  -8 747.906 285.414   6
   0  10  -7 1150.80 412.205   6
   0  10  -6 1359.71 416.906   6
   0  10  -5 1667.09 491.013   2
   0  10  -5 2028.09 487.253   6
   0  10  -4 230.628 231.508   2
   0  10  -4-37.1260 189.011   6
   0  10  -3 120.308 177.850   2
   0  10  -3 89.2801 179.118   6
   0  10  -2-219.089 154.165   6
   0  10  -2 430.453 186.515   2
   0 -10   2 410.981 214.503   4
   0 -10   2-156.774 129.652   3
   0 -10   1-168.229 113.155   3
   0 -10   1-92.7018 102.067   4
   0  10  -1 62.7574 164.909   6
   0  10  -1-182.775 127.027   2
   0 -10   0-14.6797 122.433   3
   0 -10   0 105.641 137.703   4
   0 -10  -1 1852.97 441.564   4
   0 -10  -1 1064.55 343.165   3
   0 -10  -2 232.493 205.505   3
   0 -10  -2 600.177 247.380   4
   0 -10  -3 318.864 253.469   4
   0 -10  -3-196.072 277.210   3
   0 -10  -4 875.079 384.469   4
   0 -10  -4 1297.97 415.049   3
   0 -10  -5 871.893 333.512   4
   0 -10  -5 1008.88 394.625   3
   0  11  -6 8820.78 1003.57   6
   0  11  -5 2550.93 553.693   6
   0  11  -4-209.735 176.421   6
   0  11  -4 607.385 328.500   2
   0  11  -3 526.646 254.825   6
   0  11  -3 406.813 280.168   2
   0  11  -2 628.861 268.318   6
   0 -11   1 178.819 158.675   4
   0 -11   1 125.733 104.482   3
   0  11  -1 166.489 215.654   6
   0 -11   0 188.868 175.917   3
   0  11   0 114.761 150.964   6
   0 -11   0 270.922 192.674   4
   0 -11  -1-173.580 216.660   3
   0 -11  -1 179.839 125.486   4
   0 -11  -2 1208.10 403.989   4
   0 -11  -2 740.771 294.830   3
   0 -11  -3 202.927 225.277   3
   0 -11  -3 968.427 363.650   4
   0 -12  -1 20.0043 143.558   4
   0 -12  -1-1.08654 127.895   3
   1 -12  -2-521.392 264.065   3
   1 -12  -2-91.3675 165.124   4
   1 -12  -1 105.355 167.798   4
   1 -12  -1 104.201 158.042   3
   1 -12   0 22.5015 144.458   4
   1 -11  -4 3543.20 651.691   4
   1 -11  -4 3552.47 660.537   3
   1 -11  -3 82.6219 151.759   3
   1 -11  -3 422.541 241.949   4
   1 -11  -2-65.3939 195.416   3
   1 -11  -2-85.2681 166.692   4
   1 -11  -1 150.806 195.985   3
   1 -11  -1 116.378 203.603   4
   1 -11   0 1344.38 350.629   4
  -1  11   0 946.401 335.900   6
   1 -11   0 1522.87 358.232   3
  -1  11  -1 168.219 138.328   6
   1 -11   1 111.477 132.744   4
   1 -11   1 219.126 162.442   3
  -1  11  -2 217.036 208.590   6
  -1  11  -3 1445.50 414.863   6
  -1  11  -4 2989.07 594.471   6
  -1  11  -5 1695.68 464.158   6
  -1  11  -6-167.887 199.526   6
   1 -10  -6 899.412 364.247   4
   1 -10  -5 912.336 346.907   4
   1 -10  -4 10279.8 1034.82   4
   1 -10  -3 6762.37 814.844   4
   1 -10  -2 4463.67 620.714   3
   1 -10  -2 4614.72 642.423   4
   1 -10  -1 482.286 206.117   3
   1 -10  -1 493.095 181.927   4
  -1  10   0 833.109 313.685   6
   1 -10   0 459.547 244.016   4
   1 -10   0 675.285 238.744   3
   1 -10   1 1304.46 327.824   3
   1 -10   1 1602.48 341.416   4
  -1  10  -1 1070.22 346.828   6
   1 -10   2 19.9276 86.8828   4
   1 -10   2 103.089 149.446   3
  -1  10  -2 357.242 212.547   6
   1 -10   3 78.3750 103.102   4
  -1  10  -3-59.8741 200.690   6
  -1  10  -4 451.110 296.727   6
  -1  10  -5 1620.39 424.530   6
  -1  10  -6 1296.35 406.447   6
  -1  10  -7-365.730 222.414   6
  -1  10  -8 1554.34 465.202   6
   1  -9  -7 215.797 162.691   4
   1  -9  -6 1305.94 385.745   4
   1  -9  -5 770.002 286.154   4
   1  -9  -4 553.070 256.192   4
   1  -9  -3-203.047 214.376   4
   1  -9  -2-12.6453 167.960   4
   1  -9  -1 142.784 145.295   4
   1  -9   0 1019.40 265.669   4
   1  -9   0 886.974 269.685   3
   1  -9   1 2715.90 401.319   4
   1  -9   1 3076.36 424.706   3
  -1   9  -1 3182.65 522.592   6
   1  -9   2 407.334 155.884   3
  -1   9  -2 33.0605 142.514   6
   1  -9   2 8.05542 119.202   4
   1  -9   3 1796.55 306.004   4
  -1   9  -3 1435.20 366.223   6
   1  -9   3 1572.71 274.983   3
  -1   9  -4 10865.8 961.008   6
   1  -9   4 9403.73 631.894   4
  -1   9  -5 2194.99 451.899   6
  -1   9  -6 14657.7 1181.38   6
  -1   9  -7 888.008 310.151   6
  -1   9  -8 383.534 196.954   6
  -1   9  -9 593.111 187.329   6
  -1   9 -10-68.5280 234.131   6
   1  -8  -9 261.845 254.527   4
   1  -8  -8 53.6077 222.723   4
   1  -8  -7 108.745 157.432   4
   1  -8  -6 800.733 305.245   4
   1  -8  -5 568.081 241.691   4
   1  -8  -4 6194.81 711.503   4
   1  -8  -3 12596.3 971.401   4
   1  -8  -2 16050.5 1045.95   4
  -1   8   2 15312.2 657.794   2
   1  -8  -1 21883.8 1182.85   4
  -1   8   1 20774.6 853.692   2
   1  -8   0 1846.07 337.607   4
  -1   8   0 2042.27 309.656   2
   1  -8   1 13003.1 792.291   3
  -1   8  -1 15577.3 886.142   2
   1  -8   1 14952.1 897.778   4
  -1   8  -1 15104.6 1034.87   6
   1  -8   2 3816.69 422.732   4
  -1   8  -2 3318.89 444.167   2
  -1   8  -2 3583.55 507.426   6
   1  -8   2 3732.42 404.627   3
  -1   8  -3 1384.11 351.787   6
   1  -8   3 1439.56 262.127   4
   1  -8   3 1273.93 216.385   3
  -1   8  -3 1459.19 242.029   1
   1  -8   4 4681.89 349.588   3
   1  -8   4 4940.71 426.467   4
  -1   8  -4 5225.94 645.020   6
   1  -8   5 10608.6 557.709   4
  -1   8  -5 11616.4 952.878   6
  -1   8  -6 4020.89 597.302   6
  -1   8  -7 3410.33 554.606   6
  -1   8  -8 390.615 284.296   6
  -1   8  -9 2263.92 501.656   6
  -1   8 -10 149.189 190.120   6
  -1   8 -11 1368.05 409.814   6
   1  -7 -10-73.1421 146.554   4
   1  -7  -9 1924.70 454.917   4
   1  -7  -8-136.684 219.177   4
   1  -7  -7-27.9575 126.143   4
   1  -7  -6 113.197 163.760   4
   1  -7  -5 240.656 118.176   4
   1  -7  -4 5039.03 607.342   4
   1  -7  -3 35868.4 1537.91   4
  -1   7   3 35645.0 746.525   2
   1  -7  -2 2748.83 422.979   4
  -1   7   2 2994.25 268.398   2
  -1   7   1 84.7269 104.041   2
   1  -7  -1-19.0032 115.162   4
  -1   7   0 469.925 169.423   2
   1  -7   0 359.729 146.560   4
  -1   7  -1 2289.42 383.696   6
  -1   7  -1 2370.47 333.574   2
   1  -7   1 2050.20 302.269   4
   1  -7   2 3709.80 363.541   3
   1  -7   2 3689.78 387.150   4
  -1   7  -2 3999.77 491.719   6
  -1   7  -2 4124.88 456.733   2
  -1   7  -2 3159.35 335.799   1
   1  -7   3 32346.1 1057.99   4
   1  -7   3 33309.0 942.592   3
  -1   7  -3 34291.8 1460.13   6
  -1   7  -3 31460.3 960.987   1
  -1   7  -4 20312.7 1156.83   6
  -1   7  -4 20620.0 679.300   1
   1  -7   4 19547.9 762.235   4
   1  -7   4 19349.3 602.546   3
  -1   7  -5 12599.8 403.805   1
   1  -7   5 13065.6 556.820   4
  -1   7  -5 14235.5 996.002   6
   1  -7   6 25297.5 648.789   4
  -1   7  -6 27506.1 1423.54   6
  -1   7  -7 129.875 150.695   6
  -1   7  -8 1108.59 322.852   6
  -1   7  -9 10533.4 1004.54   6
  -1   7 -10 1440.02 413.898   6
  -1   7 -11 9042.48 996.146   6
   1  -6 -11 1486.72 421.214   4
   1  -6 -10 1379.25 417.685   4
   1  -6  -9 56.0416 132.197   4
   1  -6  -8 1261.72 344.539   4
   1  -6  -7 284.402 195.100   4
   1  -6  -6 1878.50 383.905   4
   1  -6  -5 5140.56 599.787   4
   1  -6  -4 259.579 152.443   4
  -1   6   3 2748.63 176.685   2
   1  -6  -3 2823.49 414.427   4
   1  -6  -2 55606.3 1675.92   4
  -1   6   2 54280.0 964.117   2
  -1   6   1 10045.8 488.959   2
   1  -6  -1 10946.5 703.125   4
  -1   6   0 3802.36 347.671   2
   1  -6   0 3772.87 402.506   4
   1  -6   1 325.749 69.0571   4
  -1   6  -1 488.313 184.361   2
  -1   6  -1 241.017 117.016   1
  -1   6  -1 277.581 145.036   6
   1  -6   1 140.149 86.9883   2
  -1   6  -2 1265.28 255.393   6
  -1   6  -2 1401.91 264.590   2
   1  -6   2 898.996 175.912   4
  -1   6  -2 1109.48 180.810   1
   1  -6   3 5366.70 325.904   3
  -1   6  -3 5445.94 550.706   6
  -1   6  -3 5276.93 353.000   1
   1  -6   3 4740.19 363.721   4
   1  -6   4 7204.61 412.931   4
   1  -6   4 6778.63 280.235   3
  -1   6  -4 6789.77 624.939   6
  -1   6  -4 7174.85 350.089   1
   1  -6   5 7339.32 377.661   4
  -1   6  -5 6806.68 254.675   1
  -1   6  -5 7722.32 698.345   6
   1  -6   6 316.283 69.2948   4
  -1   6  -6 240.598 141.147   6
  -1   6  -7 144.193 173.386   6
   1  -6   8 4184.19 595.914   5
  -1   6  -8 4584.05 626.751   6
   1  -6   9 1725.34 411.694   5
  -1   6  -9 1485.53 368.725   6
  -1   6 -10 8011.43 873.993   6
   1  -6  10 7467.61 872.515   5
  -1   6 -11 476.620 284.040   6
   1  -6  11 315.023 180.577   5
  -1   6 -12-381.000 253.075   6
   1  -6  12 129.301 229.012   5
   1  -5 -12 1002.73 371.568   4
  -1   5  12 51.0333 172.710   5
  -1   5  11 2040.57 474.572   5
   1  -5 -11 2886.81 545.679   4
   1  -5 -10 567.572 297.723   4
   1  -5  -9 79.8553 111.465   4
   1  -5  -8 352.299 220.396   4
   1  -5  -7 2457.00 422.568   4
   1  -5  -6 1796.13 364.676   4
   1  -5  -5 7037.54 652.575   4
   1  -5  -4 5572.13 557.828   4
   1  -5  -3 236038. 3332.30   4
   1  -5  -2 108453. 2162.59   4
  -1   5   2 109725. 1145.53   2
  -1   5   1 18621.4 578.085   2
   1  -5  -1 20123.7 866.698   4
   1  -5   0 101507. 1854.30   4
  -1   5   0 101435. 1557.05   2
   1  -5   0 97703.5 1520.99   2
  -1   5  -1 17457.3 850.669   6
  -1   5  -1 16139.6 708.926   2
  -1   5  -1 16158.3 660.820   1
   1  -5   1 16053.7 684.418   2
   1  -5   1 16371.4 697.542   4
   1  -5   2 27772.6 843.391   4
  -1   5  -2 29313.6 1112.81   6
   1  -5   2 28079.7 992.516   2
  -1   5  -2 27273.6 779.498   1
   1  -5   3 1821.24 205.035   4
   1  -5   3 2217.41 171.060   3
  -1   5  -3 1734.37 287.995   6
  -1   5  -3 2089.85 197.472   1
   1  -5   4 1545.45 170.629   4
  -1   5  -4 1470.83 288.595   6
  -1   5  -4 1529.75 142.470   1
  -1   5  -5 1532.96 283.313   6
   1  -5   5 1513.31 155.930   4
   1  -5   6 226.978 95.7786   5
  -1   5  -6 350.326 128.815   6
   1  -5   7 507.432 160.390   5
   1  -5   7 247.233 60.4070   4
  -1   5  -7 437.276 196.702   6
   1  -5   8-191.251 260.764   5
  -1   5  -8 251.181 200.641   6
  -1   5  -9 4529.12 618.805   6
   1  -5   9 4576.79 636.277   5
  -1   5 -10 4895.93 657.759   6
   1  -5  10 4370.26 646.788   5
  -1   5 -11 814.164 297.996   6
   1  -5  11 1289.05 385.330   5
   1  -5  12 793.377 323.028   5
  -1   5 -12 773.277 273.061   6
   1  -4 -13 83.0788 177.959   4
   1  -4 -12 4272.93 689.290   4
  -1   4  12 4749.22 750.695   5
   1  -4 -11 2611.78 490.333   4
  -1   4  11 1710.15 418.483   5
  -1   4  10 7363.01 812.139   5
   1  -4 -10 4493.79 615.224   4
   1  -4  -9 7865.50 764.652   4
   1  -4  -8 3839.62 510.679   4
  -1   4   7 907.973 140.130   2
   1  -4  -7 636.723 219.981   4
  -1   4   6 6211.43 286.200   2
   1  -4  -6 7062.30 629.276   4
   1  -4  -5-22.7739 97.4798   4
  -1   4   5 66.8224 39.9063   2
   1  -4  -4 6933.74 567.573   4
   1  -4  -3 6732.07 524.081   4
   1  -4  -2 19673.6 827.212   4
  -1   4   2 18633.9 808.280   4
  -1   4   1 90429.1 1075.94   2
   1  -4  -1 91048.7 1683.31   4
  -1   4   1 89190.3 1669.48   4
   1  -4   0 35041.9 799.014   2
   1  -4   0 36615.4 989.309   4
  -1   4   0 35471.6 962.037   1
  -1   4   0 36354.8 828.762   2
   1  -4   1 33010.6 887.175   2
  -1   4  -1 33029.9 834.220   1
   1  -4   1 33320.5 872.055   4
  -1   4  -1 33545.3 1044.04   6
   1  -4   2 3232.83 310.601   2
   1  -4   2 3181.07 258.363   4
  -1   4  -2 3076.63 334.992   6
  -1   4  -2 3539.24 245.138   1
  -1   4  -2 3228.88 329.266   5
  -1   4  -3 5799.68 285.208   1
   1  -4   3 5795.73 455.001   2
  -1   4  -3 5978.93 477.118   6
   1  -4   3 5732.15 186.915   3
  -1   4  -4 2540.58 341.400   6
  -1   4  -4 3399.28 199.360   1
   1  -4   4 2913.71 185.236   1
   1  -4   5 4273.09 219.443   1
  -1   4  -5 4434.03 472.590   6
   1  -4   5 4090.93 450.323   5
   1  -4   6 412.549 87.2144   4
  -1   4  -6 481.815 154.518   6
   1  -4   6 481.829 83.1262   1
   1  -4   6 292.130 171.419   5
  -1   4  -7 2926.79 443.768   6
   1  -4   7 3002.75 228.179   4
   1  -4   7 2514.74 407.247   5
   1  -4   7 3139.24 215.264   1
   1  -4   8-110.179 141.251   5
   1  -4   8 26.2704 43.6743   1
  -1   4  -9 6463.08 708.621   6
   1  -4   9 6224.17 704.298   5
   1  -4  10 55.0064 123.979   5
  -1   4 -10 406.369 256.716   6
   1  -4  11 88.2565 154.612   5
  -1   4 -11 411.241 269.995   6
   1  -4  12 14.3542 134.813   5
   1  -3 -13 659.933 291.087   4
   1  -3 -12 2791.61 513.669   4
  -1   3  12 5505.50 785.826   5
   1  -3 -11 14.6672 122.244   4
  -1   3  11 220.303 230.998   5
   1  -3 -10 1335.90 320.087   4
  -1   3  10 1440.01 390.414   5
   1  -3  -9-48.6923 117.499   4
   1  -3  -8 1767.35 339.592   4
  -1   3   8 1956.21 247.304   2
  -1   3   7 97.1498 74.1260   2
   1  -3  -7 20.4618 153.697   4
   1  -3  -6 863.883 219.221   4
  -1   3   6 409.293 89.4889   2
   1  -3  -5 233.736 98.3079   4
  -1   3   5 182.678 55.4986   2
  -1   3   4 33.0692 17.8366   2
  -1   3   4 110.891 84.3751   4
   1  -3  -4 205.927 123.043   4
   1  -3  -3 3455.20 338.307   4
  -1   3   3 3635.08 348.028   4
   1  -3  -2 211794. 2449.96   4
  -1   3   2 208954. 2433.93   4
   1  -3  -1 450107. 1856.68   2
   1  -3  -1 451412. 3299.11   4
  -1   3   1 451736. 3290.83   4
   1  -3   0 679541. 3710.42   4
  -1   3   0 677906. 3622.82   1
   1  -3   0 675661. 3018.72   2
   1  -3   1 25396.1 633.937   1
   1  -3   1 25532.2 704.835   2
  -1   3  -1 25824.6 643.400   1
  -1   3  -1 25697.1 796.830   6
   1  -3   2 113269. 1772.54   6
  -1   3  -2 111045. 1719.48   5
  -1   3  -2 110241. 1212.23   1
   1  -3   2 110890. 1208.77   1
   1  -3   2 112508. 1681.22   2
  -1   3  -2 112153. 1758.04   6
  -1   3  -3 2135.00 258.367   5
   1  -3   3 2011.13 253.984   5
   1  -3   3 2366.19 284.695   2
   1  -3   3 2065.90 158.713   1
  -1   3  -3 2102.90 269.750   6
   1  -3   3 1999.37 261.558   6
  -1   3  -3 2148.25 163.131   1
  -1   3  -4 150980. 2355.43   6
   1  -3   4 149082. 2331.31   5
   1  -3   4 148004. 2356.43   6
  -1   3  -4 148467. 2345.12   5
   1  -3   4 151017. 1407.14   1
   1  -3   4 150436. 2388.23   2
   1  -3   5 4767.11 270.210   1
  -1   3  -5 4439.38 444.949   6
   1  -3   5 4934.37 290.601   4
   1  -3   5 5100.25 482.601   5
  -1   3  -6 10725.5 296.484   3
  -1   3  -6 10862.7 744.148   6
   1  -3   6 11357.8 470.402   1
   1  -3   6 11848.8 486.073   4
  -1   3  -7 7231.12 638.847   6
  -1   3  -7 6565.56 285.077   3
   1  -3   7 6408.07 387.958   1
   1  -3   7 6697.33 391.472   4
   1  -3   7 6837.72 628.876   5
   1  -3   8 3359.85 304.995   4
   1  -3   8 3517.30 489.879   5
  -1   3  -8 3535.24 496.542   6
   1  -3   8 3183.76 300.821   1
  -1   3  -8 3445.15 238.324   3
  -1   3  -9 430.988 172.721   6
  -1   3  -9 441.880 101.273   3
   1  -3   9 586.145 153.217   1
   1  -3   9 570.329 252.419   5
   1  -3  10 4786.48 645.652   5
   1  -3  11 1653.87 397.939   5
   1  -3  12 1091.81 380.260   5
   1  -3  13-13.1158 189.703   5
  -1   2  13 488.359 286.262   5
  -1   2  12 2670.07 535.171   5
   1  -2 -12 1899.24 374.056   4
   1  -2 -11 2107.07 393.006   4
  -1   2  11 1720.95 424.507   5
  -1   2  10 8759.08 860.584   5
   1  -2 -10 6049.21 615.549   4
  -1   2   9 8534.71 800.759   5
   1  -2  -9 5842.19 577.232   4
   1  -2  -8 2283.93 347.975   4
  -1   2   8 2198.17 387.107   5
  -1   2   8 2616.36 313.795   2
   1  -2  -7 554.801 158.310   4
  -1   2   7 824.648 175.472   2
   1  -2  -6 28244.6 1067.78   4
  -1   2   6 29383.7 835.035   2
  -1   2   5 137392. 1576.80   2
   1  -2  -5 138140. 2175.74   4
  -1   2   5 138950. 2194.62   4
  -1   2   4 35298.3 1032.70   4
   1  -2  -4 36116.2 1035.52   4
  -1   2   4 35795.0 660.070   2
  -1   2   3 106052. 1638.15   4
  -1   2   3 106436. 839.992   2
   1  -2  -3 105062. 1653.61   4
  -1   2   2 999999. 4623.62   4
   1  -2  -2 999863. 4623.74   4
   1  -2  -1 326692. 2410.31   4
  -1   2   1 327233. 2408.39   1
  -1   2   0 258995. 1923.91   1
   1  -2   0 260525. 1926.26   1
   1  -2   1 562139. 2584.44   1
  -1   2  -1 554298. 3123.35   6
   1  -2   1 554298. 3138.42   6
  -1   2  -1 550744. 2602.28   1
  -1   2  -2 80931.6 1335.09   6
   1  -2   2 80489.9 1324.46   5
  -1   2  -2 80271.8 981.956   1
   1  -2   2 81118.9 1333.39   6
   1  -2   2 82580.2 987.588   1
  -1   2  -2 80938.9 1312.44   5
   1  -2   3 29624.8 637.931   1
   1  -2   3 29582.8 904.782   6
  -1   2  -3 30493.3 911.779   6
  -1   2  -3 29670.0 891.454   5
   1  -2   3 28777.0 871.390   5
   1  -2   4 3079.17 338.752   2
  -1   2  -4 2768.71 310.267   5
  -1   2  -4 2793.04 313.451   6
   1  -2   4 2670.97 216.528   4
   1  -2   4 2521.84 296.975   5
  -1   2  -4 2626.33 158.027   3
   1  -2   4 2690.07 215.497   1
   1  -2   4 2833.53 313.222   6
  -1   2  -5 48120.6 802.464   3
   1  -2   5 47911.2 1009.81   4
  -1   2  -5 47639.2 1370.33   6
   1  -2   5 48123.0 1376.52   5
  -1   2  -6 12546.9 777.174   6
   1  -2   6 13193.6 572.880   4
   1  -2   6 13623.0 799.663   5
  -1   2  -6 12984.5 485.404   3
  -1   2  -7 361.861 157.552   6
  -1   2  -7 388.317 106.024   3
   1  -2   7 424.081 117.310   4
   1  -2   8 4828.10 555.806   5
   1  -2   8 4981.27 414.239   4
  -1   2  -8 4837.65 363.866   3
  -1   2  -9 1168.39 208.393   3
   1  -2   9 1198.08 302.883   5
  -1   2 -10 408.029 144.555   3
   1  -2  10 86.5640 186.120   5
   1  -2  11 1842.07 426.945   5
   1  -2  12 598.796 295.098   5
   1  -2  13 198.510 177.441   5
  -1   1  13-36.7466 193.545   5
   1  -1 -12 5042.68 576.054   4
  -1   1  12 5508.66 762.627   5
  -1   1  11 4510.74 655.132   5
   1  -1 -11 4003.00 490.120   4
   1  -1 -10 20659.3 1077.27   4
  -1   1  10 29553.4 1540.74   5
  -1   1   9 13545.1 978.159   5
   1  -1  -9 13465.6 805.046   4
   1  -1  -8 1114.69 224.014   4
  -1   1   8 981.746 249.747   5
  -1   1   7 10339.2 608.765   2
  -1   1   7 11019.6 644.454   4
   1  -1  -7 9653.33 605.321   4
  -1   1   7 10374.4 737.502   5
  -1   1   6 6846.23 447.613   2
  -1   1   6 7471.98 491.153   4
   1  -1  -6 7301.03 487.091   4
  -1   1   5 11052.8 550.236   4
   1  -1  -5 10914.2 551.709   4
  -1   1   5 10626.5 496.365   2
  -1   1   4 233174. 2314.44   4
  -1   1   4 231273. 2017.33   2
   1  -1  -4 232089. 2320.37   4
   1  -1  -4 236125. 2042.06   2
  -1   1   3 274929. 2291.59   4
   1  -1  -3 275828. 2281.22   4
   1  -1  -3 277123. 1829.00   2
  -1   1   3 273921. 1849.48   2
   1  -1  -2 18333.4 389.392   2
  -1   1   2 17986.5 539.487   1
   1  -1  -2 17953.0 525.116   4
  -1   1   1 367169. 2172.59   1
   1  -1  -1 371609. 2170.76   1
   1  -1   0 246874. 1664.50   1
  -1   1   0 248730. 1421.89   6
  -1   1   0 251964. 1674.68   1
   1  -1   1 411545. 2275.22   6
  -1   1  -1 410164. 2282.57   6
  -1   1  -1 415914. 2203.48   5
  -1   1  -1 410019. 2165.02   1
   1  -1   1 414581. 2147.27   1
   1  -1   2 790.984 123.266   5
   1  -1   2 882.413 133.526   6
   1  -1   2 1095.81 128.514   1
   1  -1   2 894.340 97.5509   3
  -1   1  -2 873.054 92.7840   3
  -1   1  -2 898.944 133.050   6
  -1   1  -2 978.448 138.610   5
  -1   1  -3 39790.1 712.773   3
  -1   1  -3 38186.7 965.391   6
  -1   1  -3 38454.0 951.870   5
   1  -1   3 39247.1 825.497   4
   1  -1   3 39393.2 997.771   6
   1  -1   3 39628.0 951.085   5
   1  -1   4 218082. 2166.68   4
   1  -1   4 219198. 2538.90   5
  -1   1  -4 214373. 1916.00   3
  -1   1  -4 217017. 2652.98   6
  -1   1  -4 214287. 2520.39   5
   1  -1   4 215973. 2659.64   6
   1  -1   5 195333. 2252.79   4
  -1   1  -5 198247. 2832.08   6
  -1   1  -5 194066. 2676.25   5
   1  -1   5 195630. 2691.65   5
  -1   1  -5 196208. 2045.26   3
   1  -1   6 4774.23 467.471   5
  -1   1  -6 4586.78 347.795   3
   1  -1   6 4174.64 361.502   4
  -1   1  -7 2541.86 279.986   3
   1  -1   7 2853.53 396.326   5
   1  -1   7 2897.32 322.192   4
   1  -1   8 1056.78 251.282   5
  -1   1  -8 826.493 177.175   3
  -1   1  -9 443.601 147.656   3
   1  -1   9 436.091 216.289   5
  -1   1 -10 88.3759 100.341   3
   1  -1  10 82.5120 169.348   5
   1  -1  11 56.9615 142.739   5
  -1   1 -11 8.82470 73.5789   3
   1  -1  12 306.305 226.436   5
   1  -1  13 214.220 245.320   5
  -1   0  13 36.3112 171.692   5
  -1   0  12 2424.99 491.725   5
   1   0 -11 458.486 153.123   4
  -1   0  11 430.683 227.244   5
   1   0 -10 13940.1 793.845   4
  -1   0  10 12869.5 1028.80   5
   1   0  -9 13462.4 734.679   4
  -1   0   9 12644.9 949.421   5
  -1   0   8 11738.6 649.222   4
  -1   0   8 11834.3 843.676   5
   1   0  -8 11628.9 631.948   4
   1   0  -7 8623.01 505.635   4
  -1   0   7 8948.01 516.648   4
  -1   0   7 8367.98 666.938   5
  -1   0   6 2878.87 320.160   2
   1   0  -6 2804.25 265.977   4
  -1   0   6 2549.63 326.264   5
  -1   0   6 2895.47 268.910   4
  -1   0   6 2685.29 325.650   6
  -1   0   5 591.053 160.993   5
   1   0  -5 688.185 162.201   2
  -1   0   5 779.769 132.071   4
  -1   0   5 679.150 150.295   6
   1   0  -5 661.363 119.984   4
  -1   0   5 743.375 166.927   2
  -1   0   4 601.159 137.132   5
  -1   0   4 758.624 140.974   2
  -1   0   4 625.308 119.970   1
   1   0  -4 800.876 121.085   4
   1   0  -4 628.987 127.090   2
   1   0  -3 128804. 1269.91   4
  -1   0   3 129846. 1366.87   1
  -1   0   3 126905. 1386.08   6
   1   0  -3 129150. 1521.37   2
  -1   0   3 131407. 1541.02   2
   1   0  -2 564253. 2783.55   2
   1   0  -2 560284. 2545.76   1
  -1   0   2 560646. 2509.08   1
  -1   0   1 24155.3 491.430   1
   1   0  -1 24938.1 500.145   1
  -1   0   0 19344.8 465.694   1
  -1   0  -1 61430.1 681.067   5
   1   0   1 61290.1 878.967   3
  -1   0  -1 62186.9 876.067   3
   1   0   1 59735.5 844.984   6
   1   0   1 60176.4 672.366   5
   1   0   2 761.398 112.666   5
  -1   0  -2 926.058 115.585   5
   1   0   2 762.268 115.657   3
   1   0   2 949.763 141.636   6
   1   0   2 747.525 118.591   4
  -1   0  -2 959.598 127.958   3
  -1   0  -3 2649.84 243.157   5
  -1   0  -3 2589.53 229.235   3
   1   0   3 2503.92 238.587   5
   1   0   3 2724.37 251.536   4
   1   0   3 2540.31 258.874   6
   1   0   4 3299.62 294.631   4
   1   0   4 3472.18 319.696   5
  -1   0  -4 3322.52 286.273   3
   1   0   4 3096.16 320.465   6
  -1   0  -4 3025.10 290.564   4
   1   0   5 3849.00 355.663   4
  -1   0  -5 3765.29 359.233   4
   1   0   5 4625.20 412.278   5
   1   0   6 3354.05 353.107   4
  -1   0  -6 3643.69 371.590   4
   1   0   6 3313.43 392.963   5
   1   0   7 416.542 161.560   5
  -1   0  -7 27.4051 94.1437   4
  -1   0  -8 1855.00 299.220   3
   1   0   8 1676.88 334.644   5
  -1   0  -9 3053.69 405.572   3
   1   0   9 2485.84 429.613   5
   1   0  10 2179.29 439.721   5
  -1   0 -10 1270.38 256.618   3
   1   0  11 283.390 169.317   5
  -1   0 -11 541.035 192.966   3
   1   0  12 9376.37 988.260   5
   1   0  13 1679.04 438.419   5
  -1  -1  13-202.872 246.201   5
  -1  -1  12 705.021 294.893   5
  -1  -1  11 937.899 304.509   5
  -1  -1  10 53018.8 2048.59   5
   1   1 -10 49703.7 1319.87   4
  -1  -1   9 92257.7 2542.04   5
  -1  -1   9 85144.2 1781.88   1
   1   1  -9 90744.3 1659.55   4
  -1  -1   8 1082.61 187.035   1
   1   1  -8 818.070 144.333   4
  -1  -1   7 5367.30 379.678   1
   1   1  -7 5550.62 514.317   2
   1   1  -7 5000.19 326.333   4
  -1  -1   7 4947.28 510.294   5
  -1  -1   6 1910.66 203.682   1
   1   1  -6 2171.01 193.087   4
   1   1  -6 2509.73 315.570   6
   1   1  -6 2277.20 323.060   2
  -1  -1   6 2107.31 283.194   6
  -1  -1   6 2293.50 339.042   5
  -1  -1   5 33469.3 748.432   1
   1   1  -5 35217.6 1079.18   2
   1   1  -5 34246.7 662.427   4
  -1  -1   5 35495.6 1085.73   2
   1   1  -5 32043.3 983.690   6
  -1  -1   5 34468.2 1016.78   6
  -1  -1   5 35704.1 1136.81   5
  -1  -1   4 4220.14 351.125   2
  -1  -1   4 4038.84 227.248   1
  -1  -1   4 3826.51 294.953   6
   1   1  -4 3734.55 332.023   2
  -1  -1   4 3965.69 339.586   5
   1   1  -4 3892.63 292.537   6
   1   1  -4 3814.17 188.716   4
   1   1  -3 7512.65 396.075   5
  -1  -1   3 7722.57 353.499   6
   1   1  -3 7764.35 353.432   6
   1   1  -3 8533.17 450.559   2
  -1  -1   3 7754.92 280.544   1
   1   1  -3 8247.82 280.285   1
  -1  -1   3 7776.45 408.858   5
  -1  -1   3 8531.24 447.832   2
   1   1  -2 15800.6 552.176   2
  -1  -1   2 15017.4 371.003   1
   1   1  -2 15431.7 404.967   6
  -1  -1   2 14469.1 400.176   6
   1   1  -2 15084.2 459.136   5
  -1  -1   2 15723.5 470.785   5
   1   1  -2 15416.8 377.037   1
   1   1  -1 34053.8 506.253   5
  -1  -1   1 34665.7 505.195   5
   1   1  -1 34521.2 688.189   3
   1   1  -1 35141.8 618.374   1
  -1  -1   0 6345.25 312.108   3
   1   1   0 5914.59 302.482   3
   1   1   0 5993.65 296.251   4
  -1  -1  -1 180856. 1824.12   4
   1   1   1 179183. 1810.60   3
  -1  -1  -1 176951. 1803.38   3
   1   1   1 179218. 1830.07   4
  -1  -1  -2 17249.4 621.392   3
  -1  -1  -2 16862.6 623.762   4
   1   1   2 16950.6 632.180   4
   1   1   3 18390.0 717.454   4
   1   1   3 17823.0 620.352   5
  -1  -1  -3 19080.9 734.503   4
  -1  -1  -3 19419.9 716.043   3
  -1  -1  -4 245.482 104.589   4
   1   1   4 117.788 68.1099   4
   1   1   4 369.294 132.101   5
  -1  -1  -5 89643.3 1852.08   4
   1   1   5 86826.4 1772.27   5
  -1  -1  -6 30619.3 1158.56   4
   1   1   6 31708.6 1178.80   5
  -1  -1  -7 6365.02 560.015   4
   1   1   7 5252.21 535.073   5
   1   1   8 3.10625 114.644   5
  -1  -1  -8 101.817 158.163   4
  -1  -1  -9 6009.48 609.892   4
  -1  -1  -9 5113.82 553.125   3
   1   1   9 4928.78 594.588   5
   1   1  10 546.309 199.153   5
  -1  -1 -10 608.626 201.416   3
   1   1  11 1863.24 436.735   5
  -1  -1 -11 2181.07 405.991   3
  -1  -1 -12 509.916 205.068   3
   1   1  12 397.398 259.556   5
   1   1  13 1860.68 483.256   5
  -1  -2  13 1722.77 438.505   5
  -1  -2  12 942.620 349.319   5
  -1  -2  11 1891.16 407.783   5
  -1  -2  10 114.786 157.018   5
  -1  -2   9 17713.3 1129.48   5
  -1  -2   8 6207.13 373.157   1
   1   2  -8 6695.15 607.396   6
  -1  -2   8 6536.00 636.740   5
  -1  -2   7 4765.75 289.969   1
   1   2  -7 4736.07 503.307   2
   1   2  -7 5081.81 479.811   6
  -1  -2   7 4613.05 495.460   5
   1   2  -7 4506.72 226.425   4
  -1  -2   6 3609.81 219.405   1
   1   2  -6 3486.63 374.887   6
  -1  -2   6 4425.17 448.490   5
   1   2  -6 3394.99 159.670   4
   1   2  -6 3187.22 398.633   2
   1   2  -5 35169.1 1045.03   6
  -1  -2   5 32835.6 1018.88   6
  -1  -2   5 33148.2 573.893   1
   1   2  -5 34009.1 1142.82   2
  -1  -2   4 1116.14 206.247   2
  -1  -2   4 1200.89 204.639   5
  -1  -2   4 1179.86 96.7163   1
   1   2  -4 1411.47 237.761   2
   1   2  -4 1160.42 188.746   5
  -1  -2   4 1335.81 188.863   6
   1   2  -4 1166.86 192.228   6
   1   2  -3 21914.8 663.212   6
  -1  -2   3 21795.0 708.357   5
   1   2  -3 20774.4 362.111   4
  -1  -2   3 21134.6 790.310   2
  -1  -2   3 20694.0 658.484   6
   1   2  -3 21980.1 717.355   5
   1   2  -3 21545.7 416.652   1
   1   2  -3 21830.1 799.473   2
   1   2  -2 28382.4 695.554   6
  -1  -2   2 28434.4 689.219   5
   1   2  -2 28504.2 854.545   2
   1   2  -2 27732.1 542.522   4
   1   2  -2 28326.6 692.179   5
   1   2  -2 28116.4 555.435   1
   1   2  -2 28056.0 688.363   3
   1   2  -1 9925.38 432.446   3
   1   2  -1 9878.33 384.104   4
  -1  -2   1 9531.34 380.227   4
  -1  -2   1 10156.5 435.115   3
   1   2  -1 9780.22 334.869   5
  -1  -2   0 167967. 1885.82   3
   1   2   0 164389. 1874.12   3
  -1  -2   0 167419. 1815.26   4
   1   2   0 168193. 1801.26   4
   1   2   1 99656.6 1546.78   4
  -1  -2  -1 97031.4 1549.45   3
  -1  -2  -1 98625.7 1561.21   4
   1   2   2 3862.32 337.923   4
  -1  -2  -2 4007.74 349.375   3
  -1  -2  -2 3978.55 350.002   4
   1   2   3 23906.1 903.216   4
  -1  -2  -3 22837.9 873.957   3
  -1  -2  -3 22930.6 891.973   4
  -1  -2  -4 844.375 181.913   4
   1   2   5 190.462 117.821   5
  -1  -2  -5 73.7724 92.7543   4
  -1  -2  -6 39502.7 1423.21   4
   1   2   6 38805.4 1317.19   5
  -1  -2  -7 350.153 168.622   4
   1   2   7 183.492 126.744   5
   1   2   8 5094.43 564.119   5
  -1  -2  -8 5182.58 596.132   4
  -1  -2  -9-20.3619 118.049   4
  -1  -2  -9 179.860 147.033   3
   1   2   9 87.3434 103.943   5
  -1  -2 -10-52.3714 153.875   4
  -1  -2 -10 109.719 125.226   3
   1   2  10 100.153 193.918   5
  -1  -2 -11 2.92432 151.632   3
   1   2  11 31.1114 155.537   5
  -1  -2 -12 1543.84 367.192   3
   1   2  12 1535.55 417.248   5
   1   2  13 2552.60 553.348   5
  -1  -3  13 2621.55 547.019   5
  -1  -3  12 2007.23 440.512   5
  -1  -3  11-319.690 258.921   5
  -1  -3  10 4882.17 628.459   5
   1   3  -9 80639.2 2256.77   6
  -1  -3   9 79321.0 2410.09   5
   1   3  -8 71144.3 1964.49   6
   1   3  -8 73768.3 2193.73   2
  -1  -3   8 67225.8 2067.18   5
   1   3  -7 420.591 165.276   6
   1   3  -7 305.684 171.281   2
  -1  -3   7 337.343 147.789   5
  -1  -3   6 13103.3 781.863   5
   1   3  -6 13297.2 739.398   6
   1   3  -6 12257.6 794.185   2
   1   3  -5 9025.32 632.289   2
   1   3  -5 8150.77 535.365   6
  -1  -3   5 8215.36 577.813   5
  -1  -3   5 8279.39 548.914   6
   1   3  -4 56146.2 1022.35   3
  -1  -3   4 58391.9 1377.75   5
   1   3  -4 55889.2 1301.20   6
  -1  -3   4 56221.5 1322.18   6
   1   3  -4 58389.6 1388.71   5
   1   3  -4 60095.6 1538.17   2
   1   3  -3 50097.1 1330.84   2
   1   3  -3 48530.9 710.112   4
   1   3  -3 48339.1 711.994   1
   1   3  -3 48524.0 976.247   3
   1   3  -3 49287.7 1156.18   5
  -1  -3   3 49726.6 1150.47   5
   1   3  -3 49341.5 1148.25   6
   1   3  -2 1326.34 205.319   2
   1   3  -2 1597.11 161.431   4
   1   3  -2 1632.13 191.537   3
  -1  -3   2 1609.35 186.182   3
  -1  -3   2 1437.34 155.798   4
   1   3  -2 1406.80 186.595   6
   1   3  -2 1574.86 188.195   5
  -1  -3   1 4917.76 351.790   3
   1   3  -1 4812.12 346.201   3
   1   3  -1 4767.68 312.682   4
  -1  -3   1 4501.28 314.300   4
   1   3  -1 4584.73 282.963   5
   1   3   0 43039.0 1052.23   4
  -1  -3   0 43689.1 1105.61   3
  -1  -3   0 42320.2 1054.85   4
   1   3   1 9060.50 531.250   4
  -1  -3  -1 9424.41 550.754   3
  -1  -3  -1 8084.72 505.654   4
  -1  -3  -2 109.992 114.162   4
  -1  -3  -2 267.578 138.244   3
   1   3   2 221.397 132.650   4
  -1  -3  -3 1528.54 262.804   4
  -1  -3  -3 1401.99 248.475   3
  -1  -3  -4 18785.1 943.544   4
  -1  -3  -4 19269.2 939.123   3
  -1  -3  -5 795.954 242.400   4
  -1  -3  -6 589.463 238.445   4
  -1  -3  -7 30116.8 1418.14   4
   1   3   7 30249.2 1310.95   5
  -1  -3  -8 72.5968 149.900   3
   1   3   8 5.85414 93.7434   5
  -1  -3  -8 0.36737 137.115   4
  -1  -3  -9 137.375 122.673   3
  -1  -3  -9 80.3196 140.173   4
   1   3   9 293.691 196.645   5
  -1  -3 -10 9083.79 871.686   3
  -1  -3 -10 7307.30 794.802   4
   1   3  10 7209.98 786.265   5
  -1  -3 -11 1795.06 420.176   4
   1   3  11 1381.76 406.436   5
  -1  -3 -11 1168.03 345.479   3
   1   3  12 1798.73 451.128   5
  -1  -3 -12 1763.55 437.340   3
  -1  -3 -13 726.696 338.260   3
  -1  -4  13-175.951 298.038   5
  -1  -4  12 5726.55 779.586   5
   1   4 -11 329.283 232.675   6
  -1  -4  11 165.054 146.129   5
  -1  -4  10 186.100 188.153   5
   1   4 -10 76.6469 176.485   6
  -1  -4   9 23487.7 1319.70   5
   1   4  -9 21219.4 1179.17   6
   1   4  -9 23817.0 1390.34   2
   1   4  -8 714.908 237.192   6
   1   4  -8 631.166 125.550   3
  -1  -4   8 575.045 215.739   5
  -1  -4   7 2437.68 379.913   5
   1   4  -7 2564.89 224.369   3
   1   4  -7 2648.02 385.063   6
   1   4  -7 3297.63 481.250   2
   1   4  -6 8847.83 724.749   2
   1   4  -6 9832.64 439.754   3
  -1  -4   6 9958.71 703.116   5
   1   4  -6 10683.8 700.289   6
   1   4  -5 28647.6 1214.03   2
   1   4  -5 29861.0 1099.44   6
   1   4  -5 29355.3 774.056   3
  -1  -4   5 29964.9 1138.43   5
  -1  -4   4 5548.93 459.319   5
   1   4  -4 4819.02 216.073   4
   1   4  -4 4986.09 337.029   3
   1   4  -4 5414.00 450.944   6
   1   4  -4 5741.82 532.534   2
   1   4  -4 5068.94 210.689   1
   1   4  -3 11502.7 604.447   5
   1   4  -3 11398.9 623.553   6
   1   4  -3 11477.3 532.971   3
   1   4  -3 11023.5 687.368   2
   1   4  -3 11504.0 437.758   4
  -1  -4   2 42078.1 976.224   4
   1   4  -2 41907.1 966.956   4
   1   4  -2 44293.6 1214.29   6
   1   4  -2 45540.1 1297.31   2
  -1  -4   2 42544.8 1086.81   3
   1   4  -2 42830.5 1076.47   5
   1   4  -1 2830.40 311.879   2
   1   4  -1 2806.89 279.740   4
  -1  -4   1 2996.60 290.788   4
  -1  -4   1 3027.32 300.744   3
   1   4  -1 3009.17 270.823   5
  -1  -4   0 33.5796 66.8472   3
   1   4   0 60.0014 71.7155   4
  -1  -4   0 191.049 137.856   4
  -1  -4  -1 16083.7 783.283   4
  -1  -4  -1 16355.9 801.315   3
  -1  -4  -2 31332.7 1170.69   4
  -1  -4  -2 32861.0 1194.30   3
  -1  -4  -3 4715.63 486.965   3
  -1  -4  -3 4981.82 492.399   4
  -1  -4  -4 1649.65 315.373   4
  -1  -4  -4 1445.92 296.039   3
  -1  -4  -5 3073.80 448.966   3
  -1  -4  -5 3708.64 474.216   4
  -1  -4  -6 23738.6 1253.78   3
  -1  -4  -6 23852.8 1269.65   4
  -1  -4  -7 5874.87 669.378   4
  -1  -4  -7 4932.53 597.262   3
  -1  -4  -8 733.715 266.441   4
  -1  -4  -8 876.755 279.430   3
   1   4   8 328.782 157.750   5
  -1  -4  -9-6.17486 180.067   3
   1   4   9 66.4281 144.643   5
  -1  -4  -9 83.6811 161.418   4
   1   4  10-117.826 198.932   5
  -1  -4 -10-32.5248 136.254   4
  -1  -4 -10 38.9996 173.437   3
  -1  -4 -11-59.3920 211.215   4
   1   4  11 17.9372 194.732   5
  -1  -4 -11-54.4749 169.431   3
  -1  -4 -12 189.442 207.368   3
   1   4  12-85.6754 188.620   5
  -1  -4 -12-42.3771 172.685   4
  -1  -5  12 41.0749 217.926   5
   1   5 -12 521.326 259.986   6
  -1  -5  11 10283.4 1011.47   5
   1   5 -11 11892.9 1024.05   6
  -1  -5  10 12324.5 1035.35   5
   1   5 -10 11712.4 953.565   6
  -1  -5   9 611.880 223.861   5
   1   5  -9 934.937 270.813   6
   1   5  -8 53554.8 1854.02   6
   1   5  -8 58707.5 2162.55   2
  -1  -5   8 55028.8 1966.71   5
   1   5  -7 72.6979 195.403   2
  -1  -5   7 203.023 206.632   5
   1   5  -7 47.0235 96.5168   6
   1   5  -7 37.1277 42.6803   3
   1   5  -6 6400.87 580.203   6
   1   5  -6 6109.85 366.901   3
  -1  -5   6 6185.75 585.588   5
   1   5  -6 6675.29 661.967   2
   1   5  -5 5832.50 379.246   3
   1   5  -5 6713.98 579.201   6
   1   5  -5 5543.46 569.173   2
   1   5  -4 3559.23 242.882   4
   1   5  -4 3231.68 387.045   6
   1   5  -4 3336.37 219.012   1
   1   5  -4 3405.26 418.956   2
   1   5  -3 67336.8 1819.66   2
   1   5  -3 66207.2 1249.61   4
   1   5  -3 71415.7 1739.69   6
  -1  -5   3 69159.9 1267.07   4
  -1  -5   3 68029.5 1443.83   3
   1   5  -2 5289.65 481.593   2
  -1  -5   2 4237.46 354.972   4
   1   5  -2 4263.18 353.674   4
   1   5  -2 5025.97 462.014   6
  -1  -5   2 4404.17 391.002   3
   1   5  -2 4232.51 378.522   5
  -1  -5   1 15010.5 731.727   4
   1   5  -1 15548.6 792.877   2
   1   5  -1 15802.0 703.624   5
  -1  -5   1 15846.5 775.194   3
   1   5  -1 15913.5 752.843   4
  -1  -5   0 49819.1 1434.22   4
  -1  -5   0 48742.7 1433.82   3
   1   5   0 49898.5 1355.37   2
  -1  -5  -1 1787.07 298.942   4
  -1  -5  -1 1849.40 294.964   3
  -1  -5  -2 1737.51 298.605   4
  -1  -5  -2 1962.05 336.081   3
  -1  -5  -3 5510.08 558.987   4
  -1  -5  -3 4781.20 537.040   3
  -1  -5  -4 168.038 166.237   3
  -1  -5  -4 597.094 214.905   4
  -1  -5  -5 11374.5 889.813   4
  -1  -5  -5 10904.5 866.884   3
  -1  -5  -6 391.639 238.760   4
  -1  -5  -6 50.3306 157.568   3
  -1  -5  -7 2337.47 456.456   4
  -1  -5  -7 2008.04 393.658   3
  -1  -5  -8 2055.13 447.609   4
  -1  -5  -8 1684.80 413.238   3
   1   5   8 1127.45 293.488   5
   1   5   9 93.4987 152.496   5
  -1  -5  -9-111.994 169.218   4
  -1  -5  -9-119.186 161.549   3
  -1  -5 -10-19.1496 151.868   4
   1   5  10 119.173 165.062   5
  -1  -5 -10-109.058 180.530   3
  -1  -5 -11 66.7720 142.473   4
   1   5  11-42.2953 187.475   5
   1   6 -13 268.408 302.237   6
  -1  -6  12 272.847 233.797   5
   1   6 -12 865.456 350.806   6
  -1  -6  11-174.042 174.526   5
   1   6 -11 332.457 261.776   6
  -1  -6  10 820.945 331.592   5
   1   6 -10 911.197 318.019   6
   1   6  -9 17652.1 1187.98   6
   1   6  -9 18818.1 1367.23   2
  -1  -6   9 17522.4 1216.18   5
   1   6  -8 7953.02 836.997   2
  -1  -6   8 8163.21 799.548   5
   1   6  -8 7851.75 755.295   6
  -1  -6   7 1459.68 363.206   5
   1   6  -7 1370.06 364.778   2
   1   6  -7 1639.24 348.079   6
   1   6  -6 227.750 162.878   2
   1   6  -6 246.304 141.870   6
   1   6  -5-10.5199 135.797   6
   1   6  -5 301.788 52.1783   1
   1   6  -5-48.7000 154.971   2
   1   6  -5 359.132 55.2425   1
   1   6  -4 493.830 112.171   4
   1   6  -4 653.802 219.388   2
   1   6  -4 1047.21 245.370   6
   1   6  -3 8440.48 512.816   4
  -1  -6   3 8373.34 506.080   4
   1   6  -3 8177.30 653.847   6
  -1  -6   3 9099.89 590.655   3
   1   6  -3 8063.79 661.829   2
  -1  -6   2 493.479 152.218   4
   1   6  -2 556.929 202.205   2
   1   6  -2 364.071 165.894   6
  -1  -6   2 633.891 163.243   3
  -1  -6   1 382.313 141.354   3
  -1  -6   1 313.991 142.212   4
   1   6  -1 313.932 124.576   2
  -1  -6   0 3507.98 422.578   4
  -1  -6   0 2686.97 371.380   3
   1   6   0 2593.91 352.543   2
   1   6   1 55.0076 120.072   2
  -1  -6  -1 61.6540 118.131   4
  -1  -6  -1 13.9895 136.168   3
  -1  -6  -2 385.295 171.773   3
  -1  -6  -2 435.676 186.853   4
  -1  -6  -3 2523.94 428.651   4
  -1  -6  -3 2675.72 428.021   3
  -1  -6  -4 6099.53 687.047   4
  -1  -6  -4 7190.71 727.867   3
  -1  -6  -5 9913.84 886.698   4
  -1  -6  -5 11889.6 968.452   3
  -1  -6  -6 2399.37 460.182   4
  -1  -6  -6 1901.95 410.347   3
  -1  -6  -7 2319.00 480.116   3
  -1  -6  -7 1892.86 436.339   4
  -1  -6  -8 10929.7 1079.11   4
  -1  -6  -8 9563.02 985.624   3
  -1  -6  -9 252.717 259.143   3
  -1  -6  -9 10.0902 233.228   4
   1   6   9 586.750 265.803   5
   1   6  10 563.525 226.145   5
   1   7 -12-365.871 246.017   6
  -1  -7  11-166.560 160.753   5
   1   7 -11 328.414 224.528   6
   1   7 -10-35.3164 110.764   6
   1   7  -9 759.278 281.159   6
   1   7  -9 1361.77 427.494   2
   1   7  -8 794.012 381.838   2
   1   7  -8 598.965 265.456   6
   1   7  -7 430.751 239.731   6
   1   7  -7 514.521 261.658   2
   1   7  -6 6070.44 700.542   2
   1   7  -6 5178.33 603.716   6
   1   7  -5 394.172 202.336   2
   1   7  -5 294.735 142.272   6
   1   7  -4 1181.34 279.705   2
   1   7  -4 1934.37 361.044   6
   1   7  -3 56.0048 130.162   2
  -1  -7   3 48.1369 65.4978   4
   1   7  -3-102.051 118.328   6
  -1  -7   3 171.548 131.162   3
   1   7  -2 5197.40 571.647   2
   1   7  -2 5855.32 608.312   6
  -1  -7   2 5321.61 515.223   3
  -1  -7   2 5032.23 474.175   4
   1   7  -1 580.592 183.879   2
  -1  -7   1 789.871 238.404   4
  -1  -7   1 46.3341 95.1591   3
   1   7   0 867.041 233.750   2
  -1  -7   0 872.726 238.393   4
  -1  -7   0 933.923 253.688   3
  -1  -7  -1 1726.86 341.898   4
  -1  -7  -1 1606.15 332.245   3
   1   7   1 1408.48 259.884   2
   1   7   2 405.289 158.265   2
  -1  -7  -2 140.285 154.168   4
  -1  -7  -2 376.595 220.045   3
   1   7   3 3555.36 395.562   2
  -1  -7  -3 3103.02 490.881   4
  -1  -7  -3 4133.64 571.273   3
  -1  -7  -4 11260.8 963.601   4
  -1  -7  -4 12259.2 1008.65   3
  -1  -7  -5 5961.81 739.740   4
  -1  -7  -5 5125.37 681.180   3
  -1  -7  -6 5925.86 784.443   4
  -1  -7  -6 6467.95 813.098   3
  -1  -7  -7 8515.10 939.542   4
  -1  -7  -7 8637.91 972.470   3
  -1  -7  -8 1501.18 442.245   3
  -1  -7  -8 508.390 325.498   4
   1   8 -11 213.917 263.174   6
   1   8 -10 157.517 131.538   6
   1   8  -9-227.825 174.745   2
   1   8  -9-79.5348 158.517   6
   1   8  -8 4878.05 746.144   2
   1   8  -8 5694.92 712.738   6
   1   8  -7 7847.09 882.296   2
   1   8  -7 8591.40 844.790   6
   1   8  -6 4325.60 590.164   6
   1   8  -6 4336.26 646.081   2
   1   8  -5-156.462 210.059   6
   1   8  -5 115.498 141.979   2
   1   8  -4 2566.85 436.785   2
  -1  -8   4 2962.30 336.100   4
   1   8  -4 3187.47 508.181   6
  -1  -8   3 1835.48 300.634   4
   1   8  -3 1622.48 354.105   6
   1   8  -3 1390.83 318.354   2
  -1  -8   3 1624.47 299.517   3
  -1  -8   2 2387.62 359.223   4
   1   8  -2 1497.95 314.356   2
   1   8  -2 2087.41 401.901   6
  -1  -8   2 2122.45 363.701   3
  -1  -8   1 8682.36 713.782   4
   1   8  -1 6783.89 646.408   2
  -1  -8   1 8330.85 728.272   3
   1   8   0 300.994 136.699   2
  -1  -8   0 838.662 272.220   4
  -1  -8   0 531.553 203.774   3
  -1  -8  -1 1642.90 360.343   4
   1   8   1 1341.55 295.407   2
  -1  -8  -1 948.693 271.898   3
   1   8   2 348.881 124.724   2
  -1  -8  -2 451.187 166.185   4
  -1  -8  -2 314.621 176.748   3
  -1  -8  -3-87.2198 166.009   3
  -1  -8  -3-56.5237 179.978   4
   1   8   3-83.3657 103.433   2
  -1  -8  -4 1589.77 388.101   4
  -1  -8  -4 2244.73 439.679   3
  -1  -8  -5-31.9763 162.224   3
  -1  -8  -5 70.9257 199.215   4
  -1  -8  -6 116.359 162.877   4
  -1  -8  -6 6.55793 229.534   3
  -1  -8  -7 486.023 283.934   4
  -1  -8  -7 766.008 308.962   3
   1   9 -10-75.8674 196.093   6
   1   9  -9 274.818 218.896   6
   1   9  -8 21.5217 141.164   6
   1   9  -8 84.4287 270.660   2
   1   9  -7 317.686 302.803   2
   1   9  -7 124.870 116.770   6
   1   9  -6 79.3289 166.664   2
   1   9  -6 111.118 123.440   6
   1   9  -5 30.3839 172.340   2
   1   9  -5 62.9550 148.574   6
   1   9  -4 1886.18 400.848   2
   1   9  -4 2987.19 518.576   6
  -1  -9   3 1756.89 330.006   4
   1   9  -3 1148.92 314.987   2
  -1  -9   3 1826.32 342.292   3
   1   9  -3 1266.90 346.531   6
   1   9  -2 705.009 261.791   2
  -1  -9   2 842.515 243.272   4
   1   9  -2 758.549 286.853   6
  -1  -9   2 755.492 260.638   3
  -1  -9   1 31.5836 119.621   4
   1   9  -1-139.984 152.364   2
   1   9  -1-130.432 160.168   6
  -1  -9   1 66.5324 102.568   3
   1   9   0 3239.31 478.865   2
  -1  -9   0 3446.35 515.914   3
  -1  -9   0 3635.78 518.264   4
  -1  -9  -1 49.2970 130.446   4
   1   9   1 312.668 188.304   2
  -1  -9  -1-99.9597 144.513   3
  -1  -9  -2 467.438 192.926   3
  -1  -9  -2 432.403 226.715   4
  -1  -9  -3 3212.20 552.260   3
  -1  -9  -3 4067.65 629.691   4
  -1  -9  -4 4025.37 660.823   4
  -1  -9  -4 3950.43 669.387   3
  -1  -9  -5-420.678 251.347   4
  -1  -9  -5 461.385 290.035   3
   1  10  -9 1085.01 376.150   6
   1  10  -8 1937.84 496.306   6
   1  10  -7 601.353 274.454   6
   1  10  -7 667.305 341.584   2
   1  10  -6 571.384 255.840   6
   1  10  -6 805.816 294.357   2
   1  10  -5 10080.8 1007.93   2
   1  10  -5 8991.62 967.674   6
   1  10  -4-163.211 215.788   6
   1  10  -4 293.019 202.254   2
   1  10  -3 2540.81 465.924   2
   1  10  -3 3904.68 615.011   6
   1  10  -2 360.458 168.041   2
   1  10  -2-20.6144 131.436   6
  -1 -10   2 546.703 229.581   3
  -1 -10   1 4452.54 627.357   3
  -1 -10   1 4636.10 595.409   4
   1  10  -1 4790.46 715.342   6
   1  10  -1 4369.81 567.869   2
  -1 -10   0 2715.74 494.441   4
  -1 -10   0 1487.06 366.547   3
  -1 -10  -1 395.898 225.386   4
  -1 -10  -1-84.0996 167.134   3
  -1 -10  -2 681.923 283.218   4
  -1 -10  -2 461.667 275.964   3
  -1 -10  -3-5.50046 178.240   4
  -1 -10  -3 63.7537 161.027   3
  -1 -10  -4 219.298 178.346   4
  -1 -10  -4 255.073 212.115   3
   1  11  -6 497.609 259.961   6
   1  11  -5-210.891 197.130   6
   1  11  -5 460.109 323.483   2
   1  11  -4 523.248 265.175   6
   1  11  -4 2.09679 229.252   2
   1  11  -3 460.851 242.936   6
   1  11  -3 841.353 327.132   2
   1  11  -2 654.994 322.920   6
  -1 -11   1 200.546 184.568   3
   1  11  -1-103.581 155.037   6
  -1 -11   0 291.007 207.869   3
  -1 -11   0-62.3325 239.740   4
   1  11   0 366.902 194.748   6
  -1 -11  -1 135.171 203.370   4
  -1 -11  -1-441.503 254.793   3
  -1 -11  -2 9.10667 134.534   4
  -1 -11  -2-94.5086 281.549   3
   2 -12  -3 230.911 209.384   3
   2 -12  -3 356.930 249.493   4
   2 -12  -2-345.404 201.482   4
   2 -12  -2-542.385 261.249   3
   2 -12  -1 388.625 240.349   3
   2 -12  -1 425.257 225.371   4
   2 -12   0 282.049 196.468   4
   2 -12   1 239.679 194.926   4
   2 -11  -4 1280.63 359.548   4
   2 -11  -3 4333.15 699.347   4
   2 -11  -2 1027.56 353.036   4
  -2  11   1-450.218 247.410   6
   2 -11  -1-88.2615 163.621   4
  -2  11   0 248.896 136.293   6
   2 -11   0-45.0799 136.643   4
   2 -11   0-187.532 132.344   3
   2 -11   1 2703.22 484.868   4
  -2  11  -1 2475.00 533.913   6
   2 -11   2 2902.67 461.159   4
  -2  11  -2 2162.80 508.542   6
  -2  11  -3 240.984 220.027   6
  -2  11  -4-143.675 126.724   6
  -2  11  -5 327.809 223.192   6
  -2  11  -6 2527.37 560.694   6
   2 -10  -6 305.444 333.281   4
   2 -10  -5 688.918 282.872   4
   2 -10  -4 1250.09 382.809   4
   2 -10  -3 1949.54 446.333   4
   2 -10  -2 55.5343 142.683   4
   2 -10  -1 2338.00 443.712   4
  -2  10   0 4168.47 627.472   6
   2 -10   0 4026.41 546.353   4
   2 -10   1-50.2175 130.873   4
  -2  10  -1 115.154 230.695   6
  -2  10  -2 1506.59 406.919   6
   2 -10   2 1645.93 303.927   3
   2 -10   2 1595.32 343.696   4
   2 -10   3 1314.32 282.927   4
  -2  10  -3 2334.16 488.971   6
  -2  10  -4 363.582 200.788   6
  -2  10  -5 118.992 150.776   6
  -2  10  -6 584.753 237.939   6
  -2  10  -7 648.294 315.487   6
  -2  10  -8 673.543 321.954   6
   2  -9  -8 388.751 241.689   4
   2  -9  -7-106.117 163.332   4
   2  -9  -6-428.475 236.881   4
   2  -9  -5 118.025 136.726   4
   2  -9  -4 3049.99 543.695   4
   2  -9  -3 2656.86 498.789   4
   2  -9  -2 4883.97 626.702   4
   2  -9  -1 324.546 198.314   4
   2  -9   0 2009.19 381.587   4
  -2   9   0 1630.18 394.945   6
  -2   9  -1 4670.51 625.570   6
   2  -9   1 3685.67 495.116   4
   2  -9   2 17524.2 1002.19   4
  -2   9  -2 15882.7 1158.89   6
   2  -9   3 4480.28 489.906   4
   2  -9   3 5023.08 438.484   3
  -2   9  -3 6075.30 739.806   6
   2  -9   4 4241.00 454.199   4
  -2   9  -4 3876.27 601.751   6
  -2   9  -5 72.0504 147.526   6
  -2   9  -6 4432.34 668.071   6
  -2   9  -7 2108.83 454.474   6
  -2   9  -8-50.3835 141.058   6
  -2   9  -9 2376.45 540.004   6
   2  -8  -9 1654.51 459.296   4
   2  -8  -8 1290.74 400.221   4
   2  -8  -7 1326.74 369.856   4
   2  -8  -6 1014.07 283.844   4
   2  -8  -5 548.309 278.073   4
   2  -8  -4 7207.06 757.231   4
   2  -8  -3 15418.7 1060.79   4
   2  -8  -2 4071.09 531.771   4
   2  -8  -1 1133.42 288.806   4
  -2   8   0 9630.53 823.083   6
   2  -8   0 8548.14 562.333   2
   2  -8   0 9321.58 754.879   4
  -2   8  -1 12981.0 966.624   6
   2  -8   1 11696.8 812.072   4
   2  -8   2 27170.3 1150.23   4
  -2   8  -2 25090.0 1345.40   6
  -2   8  -3 7129.56 714.595   6
   2  -8   3 6967.34 570.233   4
   2  -8   4 1685.69 188.780   3
   2  -8   4 1801.47 285.728   4
  -2   8  -4 1814.14 415.774   6
  -2   8  -5 320.651 159.393   6
   2  -8   5 288.959 112.091   4
  -2   8  -6 307.802 203.352   6
  -2   8  -7 709.193 303.537   6
  -2   8  -8 2475.68 513.542   6
  -2   8  -9 5481.98 769.527   6
  -2   8 -10 328.666 287.206   6
   2  -7 -10 1659.94 470.647   4
   2  -7  -9 502.628 241.603   4
   2  -7  -8 327.537 208.999   4
   2  -7  -7 1112.88 350.529   4
   2  -7  -6 3792.92 559.187   4
   2  -7  -5 10908.5 909.364   4
   2  -7  -4 764.792 256.845   4
   2  -7  -3 15183.0 995.622   4
   2  -7  -2 722.988 226.409   4
   2  -7  -1 50.2735 112.049   4
   2  -7   0 3338.34 419.051   4
  -2   7   0 3612.68 468.370   6
   2  -7   0 3962.40 362.723   2
  -2   7  -1 1196.86 252.075   6
   2  -7   1 1516.86 287.966   4
   2  -7   2 11458.7 698.082   4
  -2   7  -2 10989.7 829.470   6
   2  -7   3 2641.44 324.022   4
  -2   7  -3 2912.26 321.070   1
  -2   7  -3 2824.35 436.957   6
   2  -7   4-12.2706 62.6297   4
  -2   7  -4-128.629 170.483   6
  -2   7  -4-28.5583 50.5115   1
   2  -7   4 4.51209 31.0794   3
  -2   7  -5 2068.06 220.348   1
   2  -7   5 2081.57 264.189   4
  -2   7  -5 1961.97 394.992   6
   2  -7   6 21.2973 60.8629   4
  -2   7  -6 190.761 128.274   6
  -2   7  -7 732.332 268.054   6
  -2   7  -8 2450.96 476.176   6
  -2   7  -9 8679.34 939.817   6
  -2   7 -10-30.3967 178.095   6
  -2   7 -11 138.196 149.681   6
   2  -6 -12 958.724 354.143   4
   2  -6 -11 119.833 140.289   4
   2  -6 -10 1654.59 418.997   4
   2  -6  -9 147.591 137.091   4
   2  -6  -8 2293.77 448.975   4
   2  -6  -7 3447.53 529.200   4
   2  -6  -6 13.9811 143.556   4
   2  -6  -5 13901.9 953.622   4
   2  -6  -4 698.591 214.144   4
   2  -6  -3 15365.2 928.853   4
   2  -6  -2 4611.43 485.874   4
   2  -6  -1 5575.83 341.686   2
   2  -6  -1 6363.39 555.338   4
   2  -6   0 61601.9 1317.58   2
   2  -6   0 61234.4 1625.41   4
  -2   6   0 63380.1 1764.38   6
  -2   6  -1 5704.75 538.319   6
   2  -6   1 6842.20 524.271   4
   2  -6   1 5774.22 456.067   2
  -2   6  -1 6304.08 487.032   1
  -2   6  -2 103766. 1837.62   1
   2  -6   2 100733. 1924.78   4
  -2   6  -2 101691. 2319.05   6
  -2   6  -3 5728.66 571.362   6
   2  -6   3 5470.32 438.063   4
  -2   6  -3 4739.87 378.086   1
  -2   6  -4 12736.4 863.352   6
  -2   6  -4 12035.5 555.822   1
  -2   6  -5 2805.46 254.597   1
  -2   6  -5 2698.74 445.179   6
   2  -6   5 2986.11 264.594   1
   2  -6   6 2376.19 224.943   1
  -2   6  -6 3148.06 505.684   6
   2  -6   7 84.9266 52.4067   1
  -2   6  -7-22.9911 162.655   6
  -2   6  -8 158.632 183.049   6
  -2   6  -9 454.573 268.613   6
   2  -6   9 89.9091 209.791   5
   2  -6  10 139.610 139.085   5
  -2   6 -10-64.2572 154.174   6
   2  -6  11 715.143 306.462   5
  -2   6 -11 991.463 343.968   6
   2  -5 -13 1853.89 481.204   4
  -2   5  12 1813.71 521.479   5
   2  -5 -12 1028.76 346.884   4
   2  -5 -11 1435.47 399.049   4
   2  -5 -10 4511.32 660.439   4
   2  -5  -9 96.9782 190.853   4
   2  -5  -8 1216.47 313.502   4
   2  -5  -7 306.670 180.907   4
   2  -5  -6 5814.59 606.876   4
   2  -5  -5-36.5166 115.437   4
   2  -5  -4 4671.76 513.594   4
   2  -5  -3 494.428 176.221   4
   2  -5  -2 879.603 193.955   4
   2  -5  -2 729.505 85.4562   2
   2  -5  -1 53210.0 946.400   2
   2  -5  -1 55657.6 1476.93   4
  -2   5   0 12305.7 705.354   6
   2  -5   0 11906.1 660.996   4
   2  -5   0 12314.7 541.330   2
  -2   5   0 11913.8 647.455   1
  -2   5  -1 100040. 1756.86   1
   2  -5   1 99537.2 1729.89   2
  -2   5  -1 104875. 2099.16   6
   2  -5   2 234.271 114.433   1
  -2   5  -2 326.134 111.772   1
  -2   5  -2 255.060 133.549   6
   2  -5   2 202.450 133.476   2
   2  -5   3 1570.45 202.577   1
  -2   5  -3 1775.39 217.643   1
  -2   5  -3 2147.15 338.116   6
   2  -5   4 18330.5 673.995   1
  -2   5  -4 18002.1 666.324   1
  -2   5  -5 2644.94 399.495   6
   2  -5   5 2997.98 267.581   1
  -2   5  -6 1492.96 337.378   6
   2  -5   6 1289.51 174.087   1
   2  -5   7 1499.97 340.346   5
   2  -5   7 1279.87 186.397   4
  -2   5  -7 1671.44 339.192   6
   2  -5   7 1331.51 183.819   1
   2  -5   8-153.541 187.646   5
  -2   5  -8 60.1501 140.092   6
   2  -5   8 68.1140 85.8952   1
  -2   5  -9 14179.6 1095.97   6
   2  -5   9 13649.3 1082.24   5
   2  -5  10 710.818 263.158   5
  -2   5 -10 784.518 299.452   6
  -2   5 -11 527.135 298.664   6
   2  -5  11 235.759 189.375   5
   2  -5  12 5266.58 770.680   5
   2  -4 -13 288.217 193.809   4
   2  -4 -12 5938.35 737.213   4
  -2   4  12 6378.08 870.311   5
   2  -4 -11 6330.46 728.507   4
  -2   4  11 4795.82 710.344   5
   2  -4 -10 1732.42 364.858   4
   2  -4  -9 851.522 255.588   4
   2  -4  -8 7144.83 709.124   4
   2  -4  -7 4124.69 505.244   4
   2  -4  -6 7507.17 633.490   4
   2  -4  -5 18998.9 965.513   4
   2  -4  -4 54464.4 1564.66   4
   2  -4  -3 52.5368 120.365   4
   2  -4  -2 18666.4 825.456   4
   2  -4  -2 17716.0 385.205   2
  -2   4   2 19360.4 837.119   1
  -2   4   1 14190.2 680.843   1
   2  -4  -1 14353.8 700.463   4
  -2   4   0 985.281 183.576   1
   2  -4   0 742.757 162.217   1
  -2   4   0 530.015 128.614   6
   2  -4   1 174526. 2131.66   1
  -2   4  -1 169609. 2135.06   1
  -2   4  -1 173481. 2400.56   6
  -2   4  -2 9867.83 602.308   6
   2  -4   2 10652.3 517.914   1
  -2   4  -2 11359.6 645.089   5
   2  -4   2 11006.0 643.619   6
  -2   4  -2 10675.9 519.705   1
   2  -4   3 196251. 2163.43   1
  -2   4  -3 196186. 2841.36   6
  -2   4  -3 192448. 2158.13   1
  -2   4  -4 6566.68 396.645   1
   2  -4   4 7066.22 417.296   1
  -2   4  -4 6449.66 556.047   6
   2  -4   4 6148.93 224.711   3
   2  -4   5 28576.8 852.006   1
  -2   4  -5 28701.4 1230.78   6
   2  -4   5 27843.8 1194.86   5
  -2   4  -6 11364.4 825.256   6
   2  -4   6 11907.2 823.254   5
   2  -4   6 10911.4 545.083   1
   2  -4   7 4128.97 367.014   4
  -2   4  -7 3902.81 512.608   6
   2  -4   7 4250.55 521.048   5
   2  -4   7 4395.44 364.381   1
   2  -4   8 1180.62 316.847   5
  -2   4  -8 1603.68 350.002   6
   2  -4   8 1014.04 185.847   1
   2  -4   9 4128.96 390.521   1
   2  -4   9 3370.41 537.677   5
  -2   4  -9 4394.41 608.748   6
   2  -4  10 1317.78 352.069   5
  -2   4 -10 1489.11 356.393   6
   2  -4  11-91.9634 171.838   5
   2  -4  12 1231.40 413.731   5
   2  -3 -12-37.0966 154.199   4
  -2   3  12-341.446 242.756   5
   2  -3 -11 836.251 234.802   4
  -2   3  11 1113.94 331.347   5
   2  -3 -10 6520.85 674.568   4
  -2   3  10 6649.07 774.011   5
   2  -3  -9 3308.46 453.903   4
   2  -3  -8 25514.2 1202.17   4
   2  -3  -7 6806.82 595.127   4
   2  -3  -6 30284.2 1197.47   4
   2  -3  -5 105151. 2119.75   4
   2  -3  -4 6141.71 235.312   2
   2  -3  -4 6869.81 516.114   4
   2  -3  -3 36896.6 529.290   2
  -2   3   3 36690.7 1132.19   1
   2  -3  -3 37672.2 1129.17   4
   2  -3  -2 17583.2 736.967   4
  -2   3   2 18677.9 753.515   1
  -2   3   1 29964.6 907.231   1
   2  -3  -1 28996.1 889.115   1
  -2   3   0 300723. 2754.74   1
   2  -3   0 305142. 2751.92   1
  -2   3   0 298965. 2696.69   6
   2  -3   1 91306.8 1461.28   1
  -2   3  -1 90620.8 1540.09   6
   2  -3   1 91324.7 1548.60   6
  -2   3  -1 89972.6 1459.82   1
   2  -3   2 37552.7 939.574   1
  -2   3  -2 36493.1 1045.10   5
  -2   3  -2 36317.0 1043.21   6
   2  -3   2 37291.3 1067.56   6
  -2   3  -2 36807.4 917.966   1
   2  -3   3 32585.1 664.773   3
  -2   3  -3 32755.6 885.473   1
  -2   3  -3 33766.1 1102.92   6
   2  -3   3 35266.0 1115.02   6
   2  -3   3 33143.4 893.125   1
  -2   3  -3 32970.1 1057.14   5
  -2   3  -4 93548.6 1986.54   6
   2  -3   4 94375.3 1112.47   3
   2  -3   4 92507.2 1927.91   5
   2  -3   4 91551.7 1524.14   1
  -2   3  -5 3566.21 415.123   6
   2  -3   5 3431.53 396.842   5
   2  -3   5 3558.32 313.895   1
   2  -3   6 9122.43 553.850   4
   2  -3   6 8992.80 535.382   1
  -2   3  -6 8638.38 685.282   6
   2  -3   6 8946.02 684.621   5
   2  -3   7 2213.72 370.826   5
   2  -3   7 2388.74 296.344   4
  -2   3  -7 2788.66 438.924   6
   2  -3   7 2657.75 311.141   1
  -2   3  -8 3262.61 500.027   6
   2  -3   8 3183.22 357.893   1
  -2   3  -8 3827.73 300.591   3
   2  -3   8 3921.79 527.679   5
  -2   3  -9 1074.75 171.289   3
   2  -3   9 1205.53 328.694   5
   2  -3   9 1155.52 237.821   1
  -2   3  -9 1460.38 367.380   6
   2  -3  10 538.434 234.641   5
   2  -3  10 792.816 207.699   1
   2  -3  11-30.3489 140.499   5
   2  -3  12 760.866 314.377   5
  -2   2  13 2339.64 539.923   5
  -2   2  12 3184.63 604.097   5
   2  -2 -12 3163.19 480.983   4
   2  -2 -11 10755.1 833.570   4
  -2   2  11 11637.9 1056.79   5
   2  -2 -10 4924.58 543.830   4
  -2   2  10 7325.04 792.487   5
   2  -2  -9 29490.6 1260.53   4
  -2   2   9 32800.8 1570.04   5
  -2   2   8 3159.24 339.376   2
   2  -2  -8 3481.23 422.355   4
   2  -2  -7 495.335 178.707   4
   2  -2  -6 21742.5 927.456   4
   2  -2  -6 21986.7 747.851   2
   2  -2  -5 116145. 2030.62   4
   2  -2  -5 119456. 1532.60   2
  -2   2   5 115374. 2098.94   1
   2  -2  -4 50099.9 895.501   2
   2  -2  -4 51421.3 1259.70   4
  -2   2   4 47737.7 1263.64   1
   2  -2  -3 11572.0 575.807   4
  -2   2   3 13048.1 611.659   1
  -2   2   2 231.594 90.0893   1
   2  -2  -2 482.407 131.726   1
  -2   2   1 18645.2 671.586   1
   2  -2  -1 19680.6 688.545   1
  -2   2   0 32860.9 741.775   6
   2  -2   0 32822.6 737.427   6
   2  -2   0 33179.2 868.620   1
  -2   2   0 32325.4 853.862   1
   2  -2   1 325.785 91.8407   1
   2  -2   1 274.413 80.1132   6
  -2   2  -1 309.705 95.5660   6
  -2   2  -1 302.435 84.7146   1
  -2   2  -2 21745.0 749.874   6
   2  -2   2 22404.7 754.176   6
  -2   2  -2 21333.3 705.541   1
   2  -2   2 21027.3 589.717   3
  -2   2  -2 22171.9 731.978   5
   2  -2   2 21883.4 714.259   1
  -2   2  -3 8287.80 519.783   6
   2  -2   3 7860.21 501.853   6
   2  -2   3 7526.32 363.907   3
  -2   2  -3 8793.86 508.096   5
   2  -2   3 8656.16 472.330   1
   2  -2   3 8127.23 490.386   5
  -2   2  -4 16183.1 793.210   6
   2  -2   4 17245.1 574.439   3
   2  -2   4 17161.5 700.819   1
  -2   2  -4 16819.1 771.706   5
   2  -2   4 16961.0 769.335   5
   2  -2   5 50556.0 1283.14   4
   2  -2   5 51878.4 1463.19   5
  -2   2  -5 50546.1 1522.53   6
  -2   2  -5 51136.9 1065.15   3
   2  -2   5 49802.6 1269.18   1
   2  -2   6 11503.8 648.725   4
  -2   2  -6 12302.2 805.094   6
   2  -2   6 11284.6 736.776   5
  -2   2  -6 11083.6 532.919   3
   2  -2   6 11056.3 635.690   1
  -2   2  -7 3763.45 496.387   6
   2  -2   7 2939.24 412.459   5
  -2   2  -7 3277.07 315.062   3
   2  -2   7 3204.92 372.497   1
  -2   2  -8 238.511 101.073   3
   2  -2   8 13.7408 97.8181   1
   2  -2   8 199.215 156.332   5
   2  -2   9 940.950 222.163   1
  -2   2  -9 1104.30 201.736   3
   2  -2   9 1383.67 350.238   5
   2  -2  10 17391.3 1208.68   5
   2  -2  10 17932.7 1015.98   1
   2  -2  11 1375.79 305.790   1
   2  -2  11 1686.37 412.966   5
   2  -2  12-159.134 187.259   5
  -2   1  13 1188.17 436.509   5
  -2   1  12 3710.37 637.088   5
   2  -1 -11 1365.43 287.314   4
  -2   1  11 1296.23 415.970   5
   2  -1 -10 19510.9 992.001   4
  -2   1  10 19373.9 1258.02   5
   2  -1  -9 5366.21 498.415   4
  -2   1   9 6251.03 665.790   5
   2  -1  -8 28636.2 1082.68   4
  -2   1   8 25312.2 1275.62   5
  -2   1   7 5966.01 465.706   2
   2  -1  -7 6052.52 468.521   4
   2  -1  -7 6174.91 491.297   2
   2  -1  -6 11844.5 621.537   4
   2  -1  -6 12342.9 625.073   2
  -2   1   6 12797.8 684.803   1
  -2   1   6 12379.1 663.705   6
   2  -1  -5 145326. 2035.49   4
   2  -1  -5 143048. 1935.90   2
  -2   1   5 142631. 2145.09   1
  -2   1   5 142362. 1990.15   6
   2  -1  -4 5320.89 372.938   4
  -2   1   4 5237.54 388.784   1
   2  -1  -4 5389.26 347.509   2
  -2   1   3 20774.7 709.309   1
   2  -1  -3 21259.9 722.496   1
  -2   1   2 114286. 1618.71   1
   2  -1  -2 112872. 1596.44   1
   2  -1  -1 85641.6 1355.35   1
  -2   1   1 83360.8 768.102   6
  -2   1   1 82429.2 1327.13   1
  -2   1   0 70816.5 1226.93   1
  -2   1   0 72260.0 882.643   6
   2  -1   0 73274.5 1259.29   1
   2  -1   0 71163.8 886.801   6
  -2   1  -1 25026.6 648.972   6
  -2   1  -1 24979.4 754.554   1
   2  -1   1 25398.9 659.799   6
   2  -1   1 25982.3 768.519   1
  -2   1  -1 25353.6 614.266   5
  -2   1  -2 16543.1 618.485   6
   2  -1   2 16409.5 618.555   6
   2  -1   2 17505.8 666.714   1
   2  -1   2 16615.4 585.174   3
  -2   1  -2 17398.9 574.364   5
   2  -1   2 17039.7 574.987   5
   2  -1   3 66539.1 1380.74   1
  -2   1  -3 64992.3 1406.54   6
   2  -1   3 66039.3 1421.94   6
   2  -1   3 65533.3 1278.74   5
   2  -1   3 67252.7 1232.26   3
  -2   1  -3 67068.7 1239.12   3
  -2   1  -3 64565.6 1278.02   5
   2  -1   4 13219.7 657.382   4
  -2   1  -4 13980.3 735.440   6
  -2   1  -4 13701.9 658.195   5
   2  -1   4 13920.4 655.046   5
  -2   1  -4 13542.5 590.395   3
   2  -1   5 3375.85 364.800   4
  -2   1  -5 3456.83 323.802   3
   2  -1   5 3161.13 348.912   5
  -2   1  -6 782.023 182.830   3
   2  -1   6 590.836 185.589   5
   2  -1   7 7827.10 652.887   5
  -2   1  -7 7261.11 524.303   3
  -2   1  -8 10875.5 680.953   3
   2  -1   8 9866.04 779.366   5
   2  -1   9-35.3618 117.623   5
  -2   1  -9-85.7498 130.087   3
  -2   1 -10 98.9554 93.8749   3
   2  -1  10 94.7973 205.535   5
   2  -1  11 2539.13 495.806   5
   2  -1  12 2850.89 557.368   5
   2  -1  13 540.762 329.604   5
  -2   0  13 50.9963 155.957   5
  -2   0  12 1225.02 372.445   5
   2   0 -11 6795.94 563.202   4
  -2   0  11 6142.22 769.558   5
   2   0 -10 48.2309 70.7462   4
  -2   0  10 136.256 183.122   5
   2   0  -9 19647.3 855.737   4
  -2   0   9 17864.1 1129.92   5
   2   0  -8 29683.8 990.455   4
   2   0  -8 30873.8 1229.51   2
  -2   0   8 31721.3 1387.32   5
   2   0  -7 874.805 167.327   4
   2   0  -7 1010.03 243.837   2
  -2   0   7 798.154 183.422   1
  -2   0   7 1143.32 271.687   5
   2   0  -6 15744.3 634.328   4
  -2   0   6 16725.9 714.438   1
  -2   0   6 15715.7 713.485   6
   2   0  -6 15774.1 761.203   2
  -2   0   6 16288.0 852.704   5
   2   0  -5 76004.1 1307.23   4
   2   0  -5 75619.9 1575.38   2
  -2   0   5 75744.7 1413.89   1
  -2   0   5 74982.8 1359.12   6
  -2   0   5 75186.1 1668.08   5
   2   0  -4 81523.3 1516.59   2
  -2   0   4 82389.9 1397.06   1
   2   0  -4 81710.4 1372.12   1
  -2   0   4 81426.7 1191.13   6
   2   0  -3 68890.8 1207.45   1
  -2   0   3 69400.4 833.604   6
  -2   0   3 69248.4 1222.73   1
   2   0  -2 2585.64 231.476   1
  -2   0   2 2730.40 242.980   1
  -2   0   1 1614.84 187.819   1
   2   0  -1 1681.89 196.204   1
   2   0   0 35023.2 580.876   6
   2   0   0 35273.4 899.705   1
  -2   0   0 35107.6 892.912   1
   2   0   0 35883.2 893.642   3
  -2   0  -1 1652.75 126.847   5
   2   0   1 1636.73 168.374   6
   2   0   1 1692.60 210.994   1
   2   0   1 1607.83 197.886   3
   2   0   2 40948.8 985.307   6
   2   0   2 41584.9 1031.66   3
  -2   0  -2 41561.2 1038.27   3
  -2   0  -2 40730.3 788.172   5
   2   0   2 40691.1 779.795   5
   2   0   3 12670.3 605.883   3
   2   0   3 11471.5 615.108   4
   2   0   3 11357.1 501.489   5
  -2   0  -3 11732.4 580.344   3
  -2   0  -3 11795.9 507.276   5
   2   0   3 11721.7 597.333   6
   2   0   4 29868.2 1062.20   4
  -2   0  -4 28315.2 963.225   3
   2   0   4 29954.5 929.402   5
  -2   0  -5 20327.4 863.434   3
   2   0   5 20748.6 868.082   5
   2   0   6 11728.9 723.550   5
  -2   0  -6 11453.0 681.458   3
  -2   0  -7 259.534 125.371   3
   2   0   7 331.983 160.861   5
   2   0   8-16.5557 134.946   5
  -2   0  -8 29.0607 96.9902   3
   2   0   9 314.622 168.638   5
  -2   0  -9 99.8691 103.958   3
   2   0  10 18690.7 1227.28   5
  -2   0 -10 25252.0 1249.85   3
  -2   0 -11 169.894 160.537   3
   2   0  11 55.8979 161.803   5
   2   0  12 217.322 227.956   5
   2   0  13 3743.82 659.785   5
  -2  -1  13 115.472 120.007   5
  -2  -1  12 233.374 182.441   5
  -2  -1  11 12098.8 1049.14   5
  -2  -1  10 778.999 298.516   5
   2   1 -10 442.247 120.870   4
  -2  -1   9 9156.91 575.471   1
   2   1  -9 11033.5 861.040   2
   2   1  -9 10887.9 546.780   4
  -2  -1   9 11482.5 890.709   5
  -2  -1   8 99.1040 91.6867   1
   2   1  -8 30.3482 48.1925   4
   2   1  -8 148.586 131.856   2
  -2  -1   8 59.2175 110.370   5
  -2  -1   7 4123.75 339.379   1
   2   1  -7 4865.29 494.562   2
   2   1  -7 3880.90 288.062   4
  -2  -1   7 4415.18 479.287   5
  -2  -1   6 220.337 88.8032   1
   2   1  -6 84.7951 41.3239   4
  -2  -1   6 271.354 105.710   6
  -2  -1   6 22.6358 81.8202   5
   2   1  -6 145.329 100.437   2
   2   1  -5 8696.36 579.701   2
   2   1  -5 9249.51 443.883   1
   2   1  -5 8385.24 458.325   6
  -2  -1   5 9626.78 483.412   6
  -2  -1   5 9137.95 578.797   5
  -2  -1   5 8857.54 442.368   1
   2   1  -4 15068.2 717.015   2
   2   1  -4 15216.0 551.494   1
   2   1  -4 13928.2 493.295   6
  -2  -1   4 14684.6 507.531   6
  -2  -1   4 14441.3 638.369   5
  -2  -1   4 14438.4 538.526   1
   2   1  -3 16653.4 573.635   1
   2   1  -3 16545.2 442.868   6
  -2  -1   3 16817.8 445.985   6
  -2  -1   3 16529.5 589.193   5
  -2  -1   3 16519.9 573.105   1
  -2  -1   2 712.584 103.758   5
  -2  -1   2 685.538 120.072   1
   2   1  -2 506.216 104.129   1
   2   1  -2 626.215 77.2862   6
   2   1  -1 79758.1 1417.49   3
  -2  -1   1 78162.7 703.473   5
   2   1   0 2773.86 267.647   1
   2   1   0 2931.08 283.103   3
   2   1   1 28683.0 914.653   4
   2   1   1 29858.2 926.900   3
  -2  -1  -1 30838.3 943.708   3
   2   1   1 29108.2 409.986   5
   2   1   2 148706. 2171.22   3
   2   1   2 147500. 2221.14   4
  -2  -1  -2 144206. 2149.54   3
   2   1   2 149172. 1387.92   5
   2   1   3 2038.25 206.267   5
  -2  -1  -3 1955.88 273.957   3
  -2  -1  -4 5384.21 464.764   3
   2   1   4 5534.93 394.350   5
   2   1   5 94975.6 1837.03   5
  -2  -1  -5 97406.5 2052.83   3
   2   1   6 974.767 219.628   5
  -2  -1  -6 659.974 202.547   3
  -2  -1  -7 4014.96 478.459   3
   2   1   7 4247.65 488.422   5
  -2  -1  -8 526.409 175.848   3
   2   1   8 353.673 159.196   5
  -2  -1  -9 370.727 182.310   3
   2   1   9 346.048 189.934   5
   2   1  10 606.324 236.790   5
  -2  -1 -10 1299.59 340.739   3
  -2  -1 -11 1239.75 324.016   3
   2   1  11 1139.21 341.574   5
   2   1  12 1956.50 452.290   5
  -2  -2  13 3489.39 645.518   5
  -2  -2  12 315.225 166.278   5
  -2  -2  11 1570.14 417.093   5
   2   2 -10 207.200 223.920   2
  -2  -2  10-53.0480 139.693   5
   2   2  -9 9790.19 834.589   2
   2   2  -9 9198.74 376.171   4
  -2  -2   9 11308.5 895.189   5
   2   2  -8 6710.60 655.999   2
   2   2  -8 6063.22 287.251   4
  -2  -2   8 6250.07 617.461   5
  -2  -2   8 6073.77 379.267   1
  -2  -2   7 11121.7 478.636   1
   2   2  -7 10785.5 766.447   2
   2   2  -7 10257.7 355.864   4
  -2  -2   7 11395.9 776.127   5
   2   2  -7 10932.0 666.004   6
   2   2  -6 19299.2 485.632   4
   2   2  -6 19134.0 962.260   2
   2   2  -6 19059.6 789.329   6
  -2  -2   6 19420.8 807.668   6
  -2  -2   6 19693.9 933.832   5
  -2  -2   6 18567.0 584.510   1
   2   2  -5 99.8686 54.1447   1
   2   2  -5 204.756 140.320   2
   2   2  -5 91.4120 57.4386   6
  -2  -2   5 242.720 80.0551   1
  -2  -2   5 135.526 77.0882   6
  -2  -2   5 153.235 116.413   5
   2   2  -4 329921. 2638.48   6
   2   2  -4 329007. 3645.00   2
   2   2  -4 323222. 2436.01   1
  -2  -2   4 322991. 2679.64   6
  -2  -2   4 324660. 2454.83   1
  -2  -2   4 327405. 3092.16   5
   2   2  -3 11710.4 505.715   5
   2   2  -3 12616.8 672.189   2
   2   2  -3 12157.8 582.549   3
   2   2  -3 12393.5 498.986   1
   2   2  -3 12504.9 466.947   6
  -2  -2   3 12115.3 514.025   5
   2   2  -2 8108.25 482.052   3
   2   2  -2 8430.88 424.720   4
   2   2  -2 8459.67 372.062   6
   2   2  -2 8274.03 351.352   5
   2   2  -2 8586.04 440.364   1
  -2  -2   2 8059.00 344.058   5
   2   2  -1 19082.5 693.563   4
   2   2  -1 19033.4 699.410   1
   2   2  -1 18668.4 392.564   5
   2   2  -1 18464.4 744.584   3
  -2  -2   0 7870.66 508.675   3
   2   2   0 7322.27 465.428   4
   2   2   0 7723.48 497.025   3
   2   2   1 116191. 1976.37   4
   2   2   1 114240. 1994.14   3
  -2  -2  -1 114918. 1994.85   3
  -2  -2  -2 11461.3 665.523   3
   2   2   2 11136.4 402.013   5
  -2  -2  -3 32803.2 1200.97   4
  -2  -2  -3 34910.5 1207.67   3
   2   2   3 33293.0 844.516   5
  -2  -2  -4 5817.58 547.637   4
  -2  -2  -4 5560.01 520.274   3
   2   2   4 5800.02 412.763   5
  -2  -2  -5 123.401 100.168   4
   2   2   5 84.1441 70.5482   5
  -2  -2  -5 81.9421 156.804   3
  -2  -2  -6 12454.9 866.217   4
  -2  -2  -6 11820.1 821.499   3
   2   2   6 11335.5 711.656   5
  -2  -2  -7 1041.35 276.259   3
   2   2   7 1214.78 264.977   5
   2   2   8 761.999 238.440   5
  -2  -2  -8 501.977 227.292   3
  -2  -2  -9-54.2835 125.329   3
   2   2   9 42.9320 120.361   5
  -2  -2 -10 5698.45 680.950   3
   2   2  10 4601.57 612.808   5
   2   2  11 159.210 198.390   5
  -2  -2 -11 744.012 293.738   3
  -2  -2 -12 1299.01 389.030   3
   2   2  12 501.152 287.753   5
  -2  -3  13 4907.97 754.349   5
  -2  -3  12 4361.98 674.435   5
  -2  -3  11 41.9601 174.114   5
   2   3 -10 14814.8 1137.84   2
  -2  -3  10 14158.3 1076.34   5
   2   3  -9 794.959 250.898   6
   2   3  -9 522.745 197.424   2
  -2  -3   9 818.408 269.705   5
  -2  -3   8 895.027 102.807   1
   2   3  -8 926.020 282.587   2
  -2  -3   8 743.848 195.645   5
   2   3  -7 9.34360 130.203   2
   2   3  -7 421.841 144.314   6
  -2  -3   7 341.078 68.5795   1
  -2  -3   7 412.086 177.717   5
   2   3  -6 2481.75 374.886   2
   2   3  -6 2609.05 311.948   6
  -2  -3   6 2762.72 326.547   6
  -2  -3   6 2730.91 361.799   5
   2   3  -5 29525.5 1233.74   2
   2   3  -5 27692.3 664.677   1
   2   3  -5 26892.9 562.319   4
   2   3  -5 27719.8 924.467   3
   2   3  -5 27691.3 938.339   6
  -2  -3   5 27458.5 939.985   6
  -2  -3   5 26892.1 1025.22   5
  -2  -3   4 238.834 114.104   5
   2   3  -4 85.9758 56.2756   1
   2   3  -4 201.188 137.354   2
   2   3  -4 122.806 90.5908   5
   2   3  -4 70.6573 39.5371   4
   2   3  -4 176.437 79.8590   6
   2   3  -4 235.588 101.773   3
   2   3  -3 13737.0 542.264   4
   2   3  -3 14469.4 791.087   2
   2   3  -3 13197.1 580.772   6
   2   3  -3 12718.7 564.297   5
   2   3  -3 12598.3 529.999   1
  -2  -3   3 13404.2 571.584   5
   2   3  -3 13116.5 644.184   3
   2   3  -2 53563.6 1175.00   4
   2   3  -2 54822.1 1162.00   6
   2   3  -2 52825.1 1176.67   1
   2   3  -2 54174.0 1330.07   3
   2   3  -2 54402.2 997.709   5
   2   3  -1 2405.79 275.179   4
  -2  -3   1 2861.99 325.993   3
   2   3  -1 2320.40 290.424   3
   2   3  -1 2661.36 191.260   5
   2   3   0 58400.5 1423.29   4
  -2  -3   0 61138.7 1534.29   3
   2   3   0 60704.1 823.874   5
  -2  -3  -1 564.530 162.751   4
  -2  -3  -1 1002.56 202.770   3
  -2  -3  -2 881.977 203.828   4
  -2  -3  -2 604.207 199.845   3
  -2  -3  -3 14036.7 835.133   4
  -2  -3  -3 14327.7 846.832   3
  -2  -3  -4 9619.18 734.667   4
   2   3   4 9589.11 543.984   5
  -2  -3  -4 11106.5 786.395   3
  -2  -3  -5 2515.01 419.262   4
  -2  -3  -5 2485.20 397.829   3
   2   3   5 2146.84 307.942   5
  -2  -3  -6 24471.0 1297.65   4
   2   3   6 23950.9 1047.96   5
  -2  -3  -6 22379.7 1226.47   3
  -2  -3  -7 30.7580 164.329   4
  -2  -3  -7 13.8011 153.890   3
   2   3   7 76.3262 91.2612   5
  -2  -3  -8-46.2776 194.601   4
  -2  -3  -8 59.9137 111.408   3
   2   3   8-22.7125 104.171   5
  -2  -3  -9-47.9516 175.616   3
   2   3   9-209.862 142.893   5
  -2  -3 -10 161.819 162.638   3
   2   3  10-21.6221 92.5349   5
  -2  -3 -11-111.227 197.163   3
   2   3  11-2.86508 125.066   5
  -2  -3 -12 406.888 289.164   3
   2   3  12 39.6630 183.455   5
  -2  -4  13 4838.65 771.313   5
  -2  -4  12 3090.83 582.985   5
   2   4 -11 5337.72 766.500   2
  -2  -4  11 4650.91 663.923   5
   2   4 -10 1107.24 335.254   2
   2   4 -10 1190.00 294.297   6
  -2  -4  10 730.296 235.984   5
   2   4  -9 1056.02 255.607   6
   2   4  -9 1594.63 411.215   2
  -2  -4   9 1007.78 278.771   5
  -2  -4   8 2248.37 387.503   5
   2   4  -8 2106.82 397.807   2
   2   4  -8 2488.06 382.177   6
  -2  -4   7 2267.06 365.338   5
   2   4  -7 2298.93 342.305   6
   2   4  -7 2363.56 280.653   3
   2   4  -7 2239.07 373.565   2
  -2  -4   6 2360.54 346.436   5
   2   4  -6 2501.27 409.844   2
   2   4  -6 2747.29 335.091   6
   2   4  -6 2139.34 269.863   3
   2   4  -5 7781.55 355.950   1
   2   4  -5 8049.01 693.715   2
   2   4  -5 7066.80 521.459   6
   2   4  -5 7504.85 315.332   4
   2   4  -5 7307.71 497.741   3
  -2  -4   5 8358.95 585.730   5
   2   4  -4 32823.9 1317.85   2
   2   4  -4 30731.5 778.548   4
   2   4  -4 31073.4 1040.25   3
   2   4  -4 30396.7 1033.99   6
   2   4  -4 31248.6 807.843   1
   2   4  -4 29894.9 1025.92   5
  -2  -4   4 32691.5 1069.23   5
   2   4  -3 14190.2 603.740   4
   2   4  -3 14961.0 859.113   2
   2   4  -3 14828.6 706.984   6
   2   4  -3 14274.4 614.070   1
   2   4  -3 14642.9 651.210   5
   2   4  -2 3645.11 415.314   2
   2   4  -2 3710.13 338.516   4
   2   4  -2 3564.22 289.611   5
   2   4  -1 342.167 84.7293   5
   2   4  -1 366.309 128.302   4
  -2  -4   1 440.137 148.488   3
  -2  -4   0 10331.5 658.610   4
  -2  -4   0 11410.8 709.465   3
  -2  -4  -1 24433.0 1061.68   4
  -2  -4  -1 24608.5 1107.82   3
  -2  -4  -2 8002.26 641.930   4
  -2  -4  -2 8898.93 683.126   3
  -2  -4  -3 51272.7 1715.37   4
  -2  -4  -3 49539.1 1694.20   3
  -2  -4  -4 153.117 163.331   4
  -2  -4  -4-87.0470 98.7825   3
  -2  -4  -5 15217.5 1034.66   4
  -2  -4  -5 15093.9 1025.40   3
  -2  -4  -6 182.389 184.477   4
  -2  -4  -6-19.2828 166.099   3
   2   4   6-8.67211 117.933   5
   2   4   7 190.264 180.922   5
  -2  -4  -7-65.8308 136.628   3
  -2  -4  -7 72.9514 137.917   4
  -2  -4  -8 937.125 250.185   4
  -2  -4  -8 941.777 291.311   3
  -2  -4  -9 564.570 281.411   4
  -2  -4  -9 835.484 277.303   3
   2   4   9 745.617 273.685   5
  -2  -4 -10 815.288 310.162   3
   2   4  10 696.098 282.137   5
  -2  -4 -11 2301.42 533.397   3
  -2  -5  12 384.474 244.783   5
   2   5 -12 422.778 240.365   6
  -2  -5  11 228.280 176.328   5
   2   5 -11 593.526 348.758   2
   2   5 -11 326.018 216.084   6
  -2  -5  10-272.607 190.481   5
   2   5 -10 192.703 175.300   2
   2   5 -10 231.838 211.400   6
  -2  -5   9 516.594 209.393   5
   2   5  -9 840.366 334.767   2
   2   5  -9 1145.53 289.719   6
   2   5  -8 13195.7 1054.48   2
   2   5  -8 14330.5 928.928   6
  -2  -5   8 13933.1 989.523   5
  -2  -5   7 114.616 142.135   5
   2   5  -7 38.0690 100.470   6
   2   5  -7 41.2670 178.747   2
   2   5  -6 2682.13 138.986   1
   2   5  -6 2705.64 428.775   2
   2   5  -6 2739.41 369.207   6
  -2  -5   6 3052.39 420.907   5
   2   5  -5-45.5971 33.7630   1
   2   5  -5-43.5776 39.9748   4
   2   5  -5 4.62844 186.911   2
   2   5  -5-31.8183 98.4262   6
   2   5  -4 15602.2 974.975   2
   2   5  -4 15029.1 612.386   4
   2   5  -4 16182.4 838.904   6
   2   5  -4 14848.4 606.504   1
   2   5  -3 16921.2 729.231   4
   2   5  -3 18677.7 895.663   6
   2   5  -3 18876.0 761.288   1
   2   5  -3 17918.1 1001.84   2
   2   5  -3 17547.4 778.958   5
   2   5  -2 2693.17 371.564   2
   2   5  -2 2968.29 295.561   5
  -2  -5   2 2776.99 353.010   3
   2   5  -1 3091.74 284.962   5
  -2  -5   1 2875.67 381.258   3
  -2  -5   0 9.01364 84.0606   4
  -2  -5   0 268.999 186.021   3
  -2  -5  -1 6971.29 617.917   4
  -2  -5  -1 8107.29 679.456   3
  -2  -5  -2 4922.56 560.797   4
  -2  -5  -2 5109.08 557.848   3
  -2  -5  -3 5877.08 636.190   4
  -2  -5  -3 5285.72 594.419   3
  -2  -5  -4 1723.23 363.631   4
  -2  -5  -4 1934.62 415.795   3
  -2  -5  -5 27011.6 1455.29   4
  -2  -5  -5 27835.5 1475.22   3
   2   5   6 3283.89 419.449   5
  -2  -5  -6 3183.25 526.354   4
  -2  -5  -6 3299.58 568.618   3
  -2  -5  -7 6591.91 794.396   4
  -2  -5  -7 6532.30 792.236   3
   2   5   7 5218.63 569.965   5
  -2  -5  -8 341.420 157.394   4
  -2  -5  -8 375.316 245.741   3
   2   5   8 268.021 173.714   5
  -2  -5  -9 44.0871 265.850   4
  -2  -5  -9-140.366 195.180   3
  -2  -5 -10 55.8359 203.408   3
  -2  -6  12 2265.58 512.564   5
   2   6 -12 2945.14 553.446   6
  -2  -6  11 70.1827 139.563   5
   2   6 -11 595.350 242.885   6
  -2  -6  10 484.835 194.928   5
   2   6 -10 828.765 417.277   2
   2   6 -10 776.195 257.879   6
  -2  -6   9 817.593 232.081   5
   2   6  -9 984.413 268.515   6
   2   6  -9 1074.87 385.944   2
  -2  -6   8 178.199 156.864   5
   2   6  -8 291.059 255.045   2
   2   6  -8 107.361 159.536   6
   2   6  -7 3016.81 530.068   2
   2   6  -7 2418.84 412.494   6
   2   6  -6 421.505 248.022   2
   2   6  -6 372.152 142.515   6
   2   6  -5 7146.29 725.794   2
   2   6  -5 8339.34 679.861   6
   2   6  -5 8634.61 431.258   1
   2   6  -4 6320.85 673.221   2
   2   6  -4 6900.02 468.834   4
   2   6  -4 7361.98 630.537   6
   2   6  -4 5821.19 418.162   1
   2   6  -3 1811.04 352.620   2
   2   6  -3 2187.76 354.277   6
   2   6  -2 4174.71 513.949   2
  -2  -6   2 4504.07 494.844   3
   2   6  -2 4257.97 477.329   6
   2   6  -2 3702.88 368.390   5
   2   6  -1 984.532 183.908   5
   2   6  -1 944.727 242.205   2
  -2  -6   1 1022.89 242.070   4
  -2  -6   1 1100.26 254.792   3
   2   6   0 84.3028 49.6104   5
  -2  -6   0 298.153 160.902   4
  -2  -6   0 352.845 143.712   3
  -2  -6  -1 932.178 255.772   4
  -2  -6  -1 1703.40 323.998   3
  -2  -6  -2 1649.41 343.918   4
  -2  -6  -2 1774.17 327.870   3
  -2  -6  -3 34502.4 1599.67   4
  -2  -6  -3 35744.3 1654.43   3
  -2  -6  -4 3913.09 578.363   4
  -2  -6  -4 2950.70 524.376   3
  -2  -6  -5 875.820 341.529   4
  -2  -6  -5 726.081 277.951   3
  -2  -6  -6 56.7453 173.601   4
  -2  -6  -6 206.834 205.782   3
  -2  -6  -7 3329.14 603.621   4
  -2  -6  -7 2949.77 535.032   3
  -2  -6  -8 3045.36 578.719   4
  -2  -6  -8 3364.05 622.997   3
  -2  -7  11 162.496 125.668   5
   2   7 -11 218.925 182.793   6
   2   7 -10 110.956 110.813   6
   2   7 -10-65.1851 204.461   2
   2   7  -9 1027.69 348.527   2
   2   7  -9 1168.38 321.635   6
   2   7  -8-154.010 188.869   6
   2   7  -8 80.7607 172.229   2
   2   7  -7 1998.45 453.320   2
   2   7  -7 2176.10 396.039   6
   2   7  -6-135.660 280.336   2
   2   7  -6 214.408 170.937   6
   2   7  -5-302.111 276.330   2
   2   7  -5 145.063 158.687   6
   2   7  -4-26.3300 128.539   6
   2   7  -4 60.4172 183.179   2
   2   7  -4 109.466 102.126   1
   2   7  -3 10014.8 856.118   2
   2   7  -3 9556.83 777.442   6
   2   7  -2 22481.1 1224.61   2
  -2  -7   2 23073.3 1174.55   3
   2   7  -2 22480.7 1188.60   6
  -2  -7   1 532.971 196.734   4
   2   7  -1 989.314 240.756   2
  -2  -7   1 765.903 253.632   3
   2   7   0 180.360 158.343   2
  -2  -7   0 296.045 160.383   4
  -2  -7   0 141.094 148.934   3
   2   7   1 478.477 192.443   2
  -2  -7  -1 864.602 289.969   4
  -2  -7  -1 900.565 266.103   3
  -2  -7  -2 4484.83 592.650   4
  -2  -7  -2 3991.91 569.010   3
  -2  -7  -3 1633.65 386.518   4
  -2  -7  -3 2234.06 464.112   3
  -2  -7  -4 907.656 299.215   4
  -2  -7  -4 1495.55 393.209   3
  -2  -7  -5 9778.46 993.487   4
  -2  -7  -5 10509.6 1019.38   3
  -2  -7  -6 400.280 247.536   4
  -2  -7  -6 393.943 282.139   3
  -2  -7  -7 406.602 277.359   4
  -2  -7  -7 522.583 256.891   3
   2   8 -10 220.713 174.498   6
   2   8  -9 357.700 304.782   2
   2   8  -9 404.828 219.454   6
   2   8  -8 1956.99 486.985   2
   2   8  -8 1834.86 407.760   6
   2   8  -7 346.504 275.163   2
   2   8  -7-76.4499 149.006   6
   2   8  -6 8866.59 912.404   2
   2   8  -6 9395.48 848.948   6
   2   8  -5 3190.47 555.123   2
   2   8  -5 2903.69 476.527   6
   2   8  -4 17457.7 1226.32   2
   2   8  -4 18349.4 1176.98   6
   2   8  -3 91.6456 165.714   2
   2   8  -3-128.071 116.056   6
   2   8  -2 792.157 265.573   2
   2   8  -2 801.399 251.356   6
  -2  -8   2 1420.45 322.160   3
  -2  -8   1 4189.75 544.656   4
   2   8  -1 3253.62 493.910   2
  -2  -8   1 3840.73 571.436   3
   2   8   0 314.067 161.585   2
  -2  -8   0 689.785 238.280   4
  -2  -8   0 725.464 256.054   3
   2   8   1 878.441 283.044   2
  -2  -8  -1 1140.91 342.767   4
  -2  -8  -1 1301.90 370.288   3
   2   8   2 1033.65 277.230   2
  -2  -8  -2 914.394 321.231   4
  -2  -8  -2 547.173 231.889   3
  -2  -8  -3 2320.86 471.039   4
  -2  -8  -3 2910.74 512.308   3
  -2  -8  -4 1447.68 415.979   4
  -2  -8  -4 1477.00 415.503   3
  -2  -8  -5 496.912 298.191   4
  -2  -8  -5 740.058 281.344   3
  -2  -8  -6 79.0946 213.723   4
  -2  -8  -6 402.103 279.206   3
   2   9  -8-446.571 336.036   2
   2   9  -8 23.8143 112.199   6
   2   9  -7 460.375 228.679   2
   2   9  -7 108.785 116.081   6
   2   9  -6-330.137 293.892   2
   2   9  -6-189.506 188.548   6
   2   9  -5 436.323 216.085   2
   2   9  -5 224.135 195.630   6
   2   9  -4 197.080 169.836   2
   2   9  -4 393.728 217.257   6
   2   9  -3-209.842 259.226   2
   2   9  -3 236.136 218.948   6
   2   9  -2 2234.43 436.826   2
   2   9  -2 2640.80 488.933   6
  -2  -9   2 3206.69 504.169   3
   2   9  -1 1269.36 329.612   2
   2   9  -1 1795.37 407.235   6
  -2  -9   1 2296.53 441.625   3
   2   9   0 851.020 286.048   2
  -2  -9   0 1035.13 337.667   3
  -2  -9   0 1261.27 334.616   4
   2   9   1 286.599 156.624   2
  -2  -9  -1 207.617 151.918   4
  -2  -9  -1 143.476 161.963   3
  -2  -9  -2-91.6874 188.736   4
  -2  -9  -2 185.865 156.451   3
  -2  -9  -3 1116.68 357.300   3
  -2  -9  -3 509.016 250.822   4
  -2  -9  -4 56.9617 249.186   4
  -2  -9  -4 1003.58 340.289   3
   2  10  -7-144.553 179.385   6
   2  10  -6 583.212 262.411   2
   2  10  -6 537.888 231.624   6
   2  10  -5 5231.89 754.063   2
   2  10  -5 5885.40 775.078   6
   2  10  -4 734.291 251.072   2
   2  10  -4 1161.03 362.366   6
   2  10  -3 1914.99 444.349   6
   2  10  -3 2022.71 478.183   2
   2  10  -2-796.920 292.427   2
   2  10  -2-502.748 251.965   6
  -2 -10   2-109.404 135.145   3
   2  10  -1 111.927 168.908   2
   2  10  -1 69.3916 143.841   6
  -2 -10   1 282.887 242.291   3
  -2 -10   0 621.768 279.838   3
  -2 -10  -1-96.6856 185.194   4
  -2 -10  -1 37.7739 134.934   3
  -2 -10  -2 448.430 220.226   4
  -2 -10  -2 470.995 315.234   3
   2  11  -5 447.889 301.198   6
   2  11  -4 310.464 255.139   2
   2  11  -4 344.375 257.229   6
   2  11  -3 548.400 225.179   2
   2  11  -3 360.384 241.779   6
   2  11  -2 1213.91 403.797   6
  -2 -11   0 1952.01 492.621   3
   3 -12  -3 592.127 323.082   4
   3 -12  -2 20.5294 167.794   4
   3 -12  -1-32.9415 150.495   4
  -3  12   0 557.014 306.961   6
   3 -12   0 73.3289 137.059   4
   3 -12   1 702.590 246.931   4
  -3  12  -1 523.681 233.984   6
   3 -11  -5-62.8495 224.485   4
   3 -11  -4 718.925 342.316   4
   3 -11  -3-123.865 240.281   4
  -3  11   2 138.055 157.735   6
   3 -11  -2-3.95636 175.819   4
   3 -11  -1 178.401 198.881   4
  -3  11   1 162.604 167.380   6
  -3  11   0 1213.31 390.873   6
   3 -11   0 1564.63 405.005   4
   3 -11   1 980.461 283.452   4
  -3  11  -1 884.525 365.633   6
  -3  11  -2 102.967 171.285   6
   3 -11   2-12.4121 113.652   4
  -3  11  -3-17.7664 212.040   6
  -3  11  -4-56.7607 146.327   6
  -3  11  -5-33.3853 160.839   6
  -3  11  -6 4510.45 737.782   6
   3 -10  -6-395.293 255.551   4
   3 -10  -5 589.678 259.373   4
   3 -10  -4 2058.44 462.213   4
   3 -10  -3 8141.51 882.319   4
   3 -10  -2 5517.25 703.908   4
   3 -10  -1 546.470 244.988   4
  -3  10   1 928.784 351.511   6
   3 -10   0 159.391 142.791   4
  -3  10   0 221.517 174.781   6
   3 -10   1 13255.4 991.071   4
  -3  10  -1 14023.9 1153.43   6
   3 -10   2 194.473 146.653   4
  -3  10  -2 182.859 153.922   6
   3 -10   3 86.9907 135.162   4
  -3  10  -3-114.534 226.043   6
   3 -10   4 125.789 110.861   4
  -3  10  -4 110.216 175.922   6
  -3  10  -5 388.216 260.478   6
  -3  10  -6 1925.54 491.550   6
  -3  10  -7-31.1841 210.140   6
   3  -9  -8 169.936 195.702   4
   3  -9  -7 992.235 379.646   4
   3  -9  -6 401.996 226.955   4
   3  -9  -5-84.9422 190.654   4
   3  -9  -4 280.177 190.011   4
   3  -9  -3 2409.45 467.106   4
   3  -9  -2 510.333 208.342   4
  -3   9   1 8103.62 819.950   6
   3  -9  -1 7465.59 752.220   4
   3  -9   0 2388.80 408.107   4
  -3   9   0 2757.67 492.432   6
   3  -9   1 3288.25 475.437   4
  -3   9  -1 3086.81 519.454   6
  -3   9  -2 2806.85 488.892   6
   3  -9   2 2874.26 422.654   4
   3  -9   3 3238.66 439.977   4
  -3   9  -3 2822.05 501.509   6
   3  -9   4 180.163 130.139   4
  -3   9  -4 51.5312 146.311   6
   3  -9   5 518.481 175.238   4
  -3   9  -5 440.213 262.840   6
  -3   9  -6 1701.92 438.514   6
  -3   9  -7-93.1828 152.276   6
  -3   9  -8 523.365 280.675   6
  -3   9  -9 516.394 316.020   6
   3  -8  -9 624.401 326.894   4
   3  -8  -8 1613.55 433.898   4
   3  -8  -7 6241.63 786.009   4
   3  -8  -6-379.862 219.353   4
   3  -8  -5 1410.74 391.909   4
   3  -8  -4 333.206 187.087   4
   3  -8  -3 14392.9 1051.61   4
   3  -8  -2 1106.88 299.550   4
   3  -8  -1 6418.07 664.320   4
  -3   8   1 6583.03 693.681   6
   3  -8   0 13109.9 714.599   2
   3  -8   0 13170.8 902.090   4
  -3   8   0 14168.4 1007.98   6
   3  -8   1 33616.3 1388.84   4
  -3   8  -1 36391.6 1618.41   6
   3  -8   2 2308.15 368.894   4
  -3   8  -2 2377.91 423.211   6
   3  -8   3 217.928 118.855   4
  -3   8  -3 501.380 217.686   6
   3  -8   4 1873.78 303.525   4
  -3   8  -4 2342.09 457.046   6
   3  -8   5-23.4904 81.0992   4
  -3   8  -5 218.632 236.016   6
   3  -8   6 116.944 110.914   4
  -3   8  -6-338.117 208.449   6
  -3   8  -7 1671.20 408.488   6
  -3   8  -8 3932.39 634.556   6
  -3   8  -9 818.284 323.519   6
  -3   8 -10 966.736 365.504   6
   3  -7 -11-239.952 215.052   4
   3  -7 -10-72.8487 210.894   4
   3  -7  -9 219.572 219.667   4
   3  -7  -8 3120.77 526.581   4
   3  -7  -7 186.083 118.111   4
   3  -7  -6 4.10002 129.842   4
   3  -7  -5 111.038 134.872   4
   3  -7  -4 1951.74 381.501   4
   3  -7  -3 661.824 217.453   4
   3  -7  -2 5353.68 312.493   2
   3  -7  -2 6309.63 627.514   4
   3  -7  -1 7895.70 686.450   4
   3  -7  -1 6734.27 427.666   2
  -3   7   1 8343.01 709.509   6
   3  -7   0 8071.27 663.274   4
   3  -7   0 7527.85 515.504   2
  -3   7   0 8682.95 728.424   6
   3  -7   1 5086.13 521.525   4
  -3   7  -1 4206.26 523.890   6
   3  -7   2 14405.6 839.741   4
  -3   7  -2 14620.9 962.156   6
  -3   7  -3 5656.24 616.547   6
   3  -7   4 3181.82 350.761   1
  -3   7  -4 2785.16 429.633   6
   3  -7   5 3985.87 387.746   1
  -3   7  -5 4121.87 549.422   6
   3  -7   6 1446.73 234.737   1
  -3   7  -6 1858.30 412.718   6
  -3   7  -7 1516.76 400.007   6
  -3   7  -8 105.609 152.772   6
  -3   7  -9 956.064 367.229   6
  -3   7 -10 2286.28 535.472   6
   3  -6 -12 2055.07 486.332   4
   3  -6 -11 244.516 217.303   4
   3  -6 -10 168.445 155.259   4
   3  -6  -9 1059.29 303.815   4
   3  -6  -8 4981.17 655.134   4
   3  -6  -7 1471.64 357.448   4
   3  -6  -6 4396.03 567.857   4
   3  -6  -5 6317.98 657.630   4
   3  -6  -4 1886.15 333.269   4
   3  -6  -3 317.475 52.1869   2
   3  -6  -3 604.563 242.399   4
   3  -6  -2 31063.4 1295.60   4
   3  -6  -2 28227.2 702.059   2
   3  -6  -1 2053.25 232.637   2
   3  -6  -1 2361.95 369.458   4
  -3   6   1 2426.36 354.583   6
   3  -6   0 36057.2 1085.00   2
  -3   6   0 39503.3 1407.03   6
   3  -6   0 37224.4 1335.81   4
   3  -6   1 20466.6 901.982   2
   3  -6   1 20079.0 935.026   1
  -3   6  -1 20383.5 1020.20   6
   3  -6   2 20141.7 896.951   1
  -3   6  -2 19997.0 1053.50   6
  -3   6  -3 1652.82 323.133   6
   3  -6   3 1729.29 272.697   1
  -3   6  -4 95.9490 149.673   6
   3  -6   4 271.285 113.950   1
   3  -6   5 2495.29 303.344   1
  -3   6  -5 3156.33 478.225   6
   3  -6   5 2843.24 162.007   3
  -3   6  -5 3055.16 338.113   1
   3  -6   6 2573.90 307.047   1
  -3   6  -6 2397.67 420.749   6
  -3   6  -7 284.579 209.593   6
   3  -6   7 254.549 125.209   1
  -3   6  -8 13448.1 1096.53   6
  -3   6  -9 347.016 221.061   6
  -3   6 -10 739.419 288.855   6
  -3   6 -11 750.280 343.372   6
   3  -5 -13-111.273 163.342   4
   3  -5 -12 1565.11 429.592   4
   3  -5 -11 2861.23 515.119   4
   3  -5 -10 638.345 269.324   4
   3  -5  -9 1728.95 366.465   4
   3  -5  -8 593.704 241.899   4
   3  -5  -7 34834.1 1547.55   4
   3  -5  -6 6595.91 662.223   4
   3  -5  -5 1511.67 311.372   4
   3  -5  -4 1823.06 337.554   4
   3  -5  -3 3130.20 416.736   4
   3  -5  -2 5475.87 522.356   4
   3  -5  -1 145632. 2527.28   1
  -3   5   1 141905. 2375.19   6
  -3   5   0 332.649 121.212   6
   3  -5   0 394.891 141.011   1
   3  -5   1 36878.7 1192.35   1
  -3   5  -1 36747.2 1262.45   6
   3  -5   2 18184.9 820.357   1
  -3   5  -2 18692.1 929.348   6
   3  -5   3 1075.85 196.114   1
  -3   5  -3 1230.74 277.564   6
  -3   5  -3 968.680 192.402   1
  -3   5  -4 366.246 105.924   1
  -3   5  -4 552.569 221.258   6
   3  -5   4 642.311 170.616   1
   3  -5   4 363.109 92.8104   3
   3  -5   5 14034.5 720.589   1
  -3   5  -5 12091.6 872.119   6
   3  -5   5 13133.0 440.117   3
   3  -5   6 1279.39 232.485   1
  -3   5  -6 1335.73 317.720   6
   3  -5   7 147.732 114.109   1
  -3   5  -7-23.6448 145.368   6
   3  -5   8 1326.46 249.772   1
  -3   5  -8 1724.16 371.029   6
   3  -5   9 202.907 169.339   5
  -3   5  -9 215.855 204.009   6
   3  -5  10 3806.49 628.002   5
  -3   5 -10 2089.14 478.104   6
   3  -5  11-114.397 176.245   5
  -3   5 -11 532.608 296.118   6
   3  -4 -13-39.2653 114.684   4
   3  -4 -12 257.717 200.618   4
  -3   4  12 253.469 236.517   5
   3  -4 -11 455.752 194.331   4
   3  -4 -10 7732.37 779.714   4
   3  -4  -9 3255.09 496.925   4
   3  -4  -8 5299.73 600.760   4
   3  -4  -7 67.1243 107.221   4
   3  -4  -6 17862.0 1018.99   4
   3  -4  -5 2489.26 177.837   2
   3  -4  -5 3049.61 415.279   4
   3  -4  -4 261.071 121.738   4
   3  -4  -3 6593.71 550.506   4
   3  -4  -2 52550.3 1492.73   1
   3  -4  -1 27291.4 1029.15   1
  -3   4   1 26761.0 930.320   6
   3  -4   0 7052.88 516.970   1
  -3   4   0 6697.43 469.162   6
  -3   4   0 7813.28 538.183   1
   3  -4   1 69240.7 1556.25   1
  -3   4  -1 70370.6 1575.32   6
   3  -4   1 69089.3 1562.30   6
  -3   4  -1 68198.4 1565.06   1
   3  -4   2 4829.96 418.292   1
  -3   4  -2 4462.13 423.070   6
  -3   4  -2 4496.54 392.684   1
   3  -4   3 3355.16 348.531   1
  -3   4  -3 2400.98 333.749   6
  -3   4  -3 2610.34 305.728   1
  -3   4  -4 8164.98 552.294   1
   3  -4   4 8480.44 423.975   3
  -3   4  -4 7701.40 624.519   6
   3  -4   4 9517.83 592.302   1
  -3   4  -5 5745.89 579.509   6
   3  -4   5 6343.41 360.182   3
   3  -4   5 5131.30 441.979   1
   3  -4   6 820.501 205.498   1
  -3   4  -6 637.394 214.434   6
   3  -4   7-95.4169 119.676   5
  -3   4  -7 181.698 178.787   6
   3  -4   7-107.473 82.1270   1
   3  -4   8 131.402 140.953   5
  -3   4  -8 92.0571 159.032   6
   3  -4   8 518.483 167.031   1
   3  -4   9 2898.53 488.113   5
   3  -4   9 2842.07 377.095   1
   3  -4  10-138.091 224.216   5
   3  -4  11 220.149 189.324   5
   3  -4  12 320.376 179.470   5
  -3   3  12 479.562 298.359   5
   3  -3 -12 225.636 161.964   4
   3  -3 -11 3214.29 481.898   4
  -3   3  11 2351.39 521.870   5
   3  -3 -10 7357.25 708.635   4
   3  -3  -9 2524.14 404.193   4
   3  -3  -8 48525.5 1668.28   4
   3  -3  -7 88068.5 2160.08   4
   3  -3  -7 86522.8 1549.91   2
   3  -3  -6 11377.8 758.321   4
   3  -3  -6 12330.9 534.607   2
   3  -3  -5 2806.10 246.494   2
   3  -3  -5 3277.36 382.488   4
   3  -3  -4 101645. 2080.38   4
   3  -3  -3 3438.18 374.423   1
  -3   3   2 6707.91 497.704   1
   3  -3  -2 7269.60 524.034   1
  -3   3   1 2418.70 249.789   6
   3  -3  -1 2342.72 294.255   1
  -3   3   1 2341.25 298.401   1
  -3   3   0 892.232 173.961   1
  -3   3   0 863.625 155.487   6
   3  -3   0 1177.68 214.245   1
   3  -3   1 2384.41 299.112   1
  -3   3  -1 2675.95 283.077   6
   3  -3   1 3170.24 308.657   6
  -3   3  -1 3145.93 333.806   1
  -3   3  -2 78.3844 86.4480   5
   3  -3   2 88.3408 98.5920   1
  -3   3  -2 95.7051 61.9164   1
  -3   3  -2 178.772 87.5122   6
   3  -3   2-5.21865 60.8965   6
   3  -3   3 695.923 187.080   1
  -3   3  -3 739.367 168.965   1
  -3   3  -3 484.675 133.115   6
   3  -3   3 633.013 123.956   3
   3  -3   4 47.1275 74.1219   1
  -3   3  -4 302.452 161.772   6
   3  -3   4 176.840 69.9168   3
  -3   3  -5 3844.38 455.110   6
   3  -3   5 4321.21 341.633   3
   3  -3   5 4369.65 422.564   1
   3  -3   5 4402.37 462.151   5
  -3   3  -6 9731.43 765.248   6
   3  -3   6 10403.8 679.658   1
   3  -3   6 9701.45 735.187   5
   3  -3   7 951.958 257.120   5
  -3   3  -7 1339.81 330.989   6
   3  -3   7 929.753 228.406   1
   3  -3   8-28.4265 130.193   5
  -3   3  -8 78.1305 124.806   6
   3  -3   8-90.7472 84.8390   1
   3  -3   9 6988.86 639.090   1
   3  -3   9 7492.37 776.481   5
   3  -3  10 1069.92 296.883   5
   3  -3  10 1047.46 263.590   1
   3  -3  11 333.291 265.413   5
   3  -3  12-220.876 215.782   5
  -3   2  13 985.319 367.120   5
  -3   2  12 721.378 328.120   5
   3  -2 -11 112.498 161.060   4
  -3   2  11 12.5820 180.085   5
   3  -2 -10 3585.18 462.497   4
  -3   2  10 5566.60 696.997   5
   3  -2  -9 1385.81 272.273   4
   3  -2  -8 1128.63 264.510   4
   3  -2  -8 1235.27 255.091   2
   3  -2  -7 248.156 114.238   2
   3  -2  -7 585.557 194.848   4
   3  -2  -6 27861.2 1079.75   4
   3  -2  -6 26576.8 909.951   2
   3  -2  -5 47.4894 84.2136   2
   3  -2  -5-8.78489 104.027   4
   3  -2  -4 1169.45 221.555   1
  -3   2   3 2866.47 323.696   1
   3  -2  -3 2682.80 314.013   1
   3  -2  -2 1982.86 270.873   1
  -3   2   2 1856.46 255.673   1
  -3   2   2 1698.52 162.069   6
   3  -2  -1 30316.6 998.476   1
  -3   2   1 29070.1 675.356   6
  -3   2   1 30018.9 997.872   1
  -3   2   0 90342.9 1315.46   6
   3  -2   0 90709.4 1314.98   6
  -3   2   0 90117.7 1718.08   1
   3  -2   0 94029.2 1770.18   1
  -3   2  -1 9684.74 485.819   6
   3  -2   1 10840.1 512.098   6
  -3   2  -1 10064.7 588.997   1
   3  -2   1 10512.1 598.563   1
   3  -2   2 7244.31 453.616   3
  -3   2  -2 6680.52 450.558   6
   3  -2   2 7623.55 480.060   6
  -3   2  -2 7308.34 514.793   1
  -3   2  -2 7058.09 439.330   5
   3  -2   2 7526.06 513.320   1
   3  -2   3 31316.5 1072.56   6
  -3   2  -3 29025.4 1016.89   6
   3  -2   3 31597.7 958.385   3
   3  -2   3 31362.4 1082.66   1
  -3   2  -3 30383.0 981.887   5
   3  -2   4 710.558 176.145   5
  -3   2  -4 1038.66 226.669   6
   3  -2   4 1220.07 247.636   1
   3  -2   4 981.711 173.359   3
  -3   2  -4 1042.98 208.024   5
   3  -2   5 2048.25 298.926   5
  -3   2  -5 2045.89 330.897   6
   3  -2   5 1647.24 287.692   1
   3  -2   6 2296.15 340.945   5
  -3   2  -6 2232.21 383.861   6
   3  -2   6 1627.66 293.428   1
   3  -2   7 5217.35 532.809   1
  -3   2  -7 5185.66 455.449   3
   3  -2   7 5847.56 584.629   5
   3  -2   8 8484.37 700.993   1
  -3   2  -8 8260.58 604.067   3
   3  -2   8 8914.92 773.320   5
   3  -2   9 9334.36 775.123   1
  -3   2  -9 8838.22 647.818   3
   3  -2   9 8452.51 796.238   5
   3  -2  10 1053.72 342.454   5
   3  -2  10 1373.80 326.752   1
   3  -2  11 3796.99 620.526   5
   3  -2  11 4133.79 567.108   1
   3  -2  12 332.354 275.403   5
  -3   1  13-129.424 268.244   5
  -3   1  12 180.348 201.258   5
   3  -1 -11 1056.95 249.442   4
  -3   1  11 1205.81 365.837   5
   3  -1 -10 1539.75 288.035   4
  -3   1  10 2017.37 422.492   5
   3  -1  -9 5106.00 482.567   4
   3  -1  -9 5124.60 536.142   2
  -3   1   9 5219.64 621.383   5
   3  -1  -8 9196.44 628.918   4
   3  -1  -8 9325.92 668.973   2
  -3   1   8 9082.17 774.991   5
   3  -1  -7 2967.63 344.395   4
   3  -1  -7 2932.09 347.542   2
  -3   1   7 3014.80 330.651   6
   3  -1  -6 10407.2 636.122   2
   3  -1  -6 9861.93 608.743   4
  -3   1   6 9260.04 514.218   6
   3  -1  -5 911.133 181.998   2
  -3   1   5 925.616 149.631   6
   3  -1  -5 1059.11 212.541   1
  -3   1   5 975.530 215.032   1
   3  -1  -4 92042.3 1784.97   1
  -3   1   4 87462.9 1137.11   6
  -3   1   4 89532.8 1778.31   1
   3  -1  -3 75623.3 1572.27   1
  -3   1   3 71824.0 1564.82   1
  -3   1   2 10.8470 58.2751   1
   3  -1  -2 71.5728 79.4169   1
  -3   1   1 3529.97 176.862   6
   3  -1  -1 3472.92 341.887   1
   3  -1  -1 3642.89 176.985   6
  -3   1   1 3493.02 333.921   1
   3  -1   0 302784. 2108.91   6
  -3   1   0 299477. 2098.29   6
  -3   1   0 305823. 3177.69   1
   3  -1   0 302005. 3143.95   1
  -3   1  -1 15533.1 584.331   6
   3  -1   1 14581.2 563.601   6
  -3   1  -1 15738.5 737.444   1
   3  -1   1 16140.3 713.686   3
   3  -1   1 16167.2 750.862   1
  -3   1  -1 15675.9 529.654   5
  -3   1  -2 46195.1 1155.25   6
   3  -1   2 45957.3 1144.07   6
   3  -1   2 45210.6 1202.81   3
   3  -1   2 45157.2 1295.47   1
  -3   1  -2 45682.8 998.239   5
   3  -1   3 15303.2 743.212   6
   3  -1   3 16747.0 826.144   1
   3  -1   3 15612.3 728.295   3
  -3   1  -3 15912.8 654.940   5
   3  -1   3 15582.6 645.377   5
  -3   1  -4 1213.05 205.796   3
   3  -1   4 1580.99 230.966   5
   3  -1   4 1143.55 216.636   3
   3  -1   4 1330.64 268.943   1
  -3   1  -4 1264.94 213.625   5
   3  -1   5 15046.4 856.575   1
  -3   1  -5 14058.4 750.178   3
   3  -1   5 14255.5 752.957   5
   3  -1   6 555.509 200.470   5
   3  -1   6 249.593 108.120   1
   3  -1   7 24080.2 1184.10   1
  -3   1  -7 22010.6 1025.55   3
   3  -1   7 23160.8 1129.93   5
   3  -1   8 986.306 265.251   5
   3  -1   8 1394.84 315.875   1
  -3   1  -8 1332.56 272.229   3
  -3   1  -9 7588.25 665.707   3
   3  -1   9 9070.51 804.207   1
   3  -1   9 8746.11 799.726   5
   3  -1  10 1945.31 432.248   5
   3  -1  10 2097.38 404.117   1
  -3   1 -10 2199.57 371.969   3
   3  -1  11 2694.88 510.956   5
   3  -1  11 3100.93 544.454   1
   3  -1  12 1401.27 395.152   5
  -3   0  13 358.089 296.359   5
  -3   0  12 331.018 223.530   5
  -3   0  11 951.899 334.027   5
   3   0 -10 350.552 139.708   4
   3   0 -10 434.929 199.520   2
  -3   0  10 343.485 215.269   5
   3   0  -9 20478.7 889.979   4
   3   0  -9 21201.0 1112.66   2
  -3   0   9 22302.5 1256.31   5
   3   0  -8 256.792 118.431   4
   3   0  -8 241.154 114.345   2
  -3   0   8 115.822 97.4883   5
   3   0  -7 85.2831 94.3880   4
   3   0  -7 79.2004 102.425   2
  -3   0   7 259.734 111.985   6
  -3   0   7-65.0894 122.993   5
   3   0  -6 56956.3 1329.88   4
   3   0  -6 57289.2 1585.81   2
  -3   0   6 55408.1 1189.00   6
  -3   0   6 57478.7 1609.45   5
  -3   0   6 56674.3 1449.03   1
   3   0  -5 10817.9 658.231   2
   3   0  -5 10414.6 589.475   1
  -3   0   5 10363.9 436.271   6
  -3   0   5 11019.7 615.088   1
   3   0  -4 15555.7 711.095   1
  -3   0   4 14395.0 384.440   6
  -3   0   4 14454.7 682.931   1
   3   0  -3 33386.2 1021.32   1
  -3   0   3 32794.4 1019.35   1
  -3   0   2 11215.9 601.273   1
   3   0  -2 10820.6 580.008   1
  -3   0   1-45.2643 90.5281   1
   3   0  -1 4.05811 21.0646   6
   3   0   0 12591.4 433.440   6
  -3   0   0 13366.8 676.795   1
   3   0   0 13707.7 683.055   3
   3   0   0 13697.5 678.365   1
   3   0   1 153386. 1833.67   6
   3   0   1 159345. 2354.04   3
   3   0   1 161063. 2433.07   1
  -3   0  -1 155465. 1317.81   5
   3   0   2 14176.4 638.926   6
   3   0   2 14633.2 770.330   1
  -3   0  -2 13995.1 482.764   5
   3   0   3 9447.97 591.900   6
   3   0   3 9846.15 665.142   1
  -3   0  -3 9896.94 630.907   3
  -3   0  -3 9603.50 470.451   5
   3   0   3 10124.8 485.979   5
   3   0   4 529.155 128.349   5
   3   0   4 500.145 176.865   1
  -3   0  -4 367.656 134.739   3
  -3   0  -5 344.142 123.306   3
   3   0   5 256.163 138.587   5
  -3   0  -6 2098.95 339.178   3
   3   0   6 1883.10 287.470   5
   3   0   7 5786.47 556.004   5
  -3   0  -7 4370.29 493.338   3
  -3   0  -8 3830.36 491.849   3
   3   0   8 4422.67 524.803   5
  -3   0  -9 1689.87 359.897   3
   3   0   9 1562.08 332.320   5
  -3   0 -10 1211.36 288.225   3
   3   0  10 974.911 303.704   5
   3   0  11 2460.90 489.903   5
   3   0  12 418.350 225.735   1
   3   0  12 997.632 384.604   5
  -3  -1  13 4526.84 735.033   5
  -3  -1  12 131.884 125.668   5
   3   1 -11 1073.95 318.534   2
  -3  -1  11 911.957 276.829   5
   3   1 -10 6393.40 681.628   2
  -3  -1  10 5631.90 666.142   5
   3   1  -9 299.030 112.332   4
   3   1  -9 596.855 245.236   2
  -3  -1   9 942.538 292.359   5
   3   1  -8 18730.0 729.079   4
   3   1  -8 18599.2 1066.28   2
  -3  -1   8 19102.2 1084.07   5
  -3  -1   8 17807.3 817.984   1
   3   1  -7 2446.22 263.377   4
   3   1  -7 3022.53 422.035   2
  -3  -1   7 2689.94 300.501   6
  -3  -1   7 2535.24 379.051   5
  -3  -1   7 2816.54 321.084   1
  -3  -1   6 67.8507 97.4449   1
  -3  -1   6-2.04600 73.4547   6
  -3  -1   6-9.43395 96.9124   5
   3   1  -6 112.760 102.916   1
   3   1  -5 15768.4 855.756   2
   3   1  -5 15840.1 697.034   1
  -3  -1   5 16671.4 549.485   6
  -3  -1   5 16802.2 776.232   5
  -3  -1   5 15638.5 694.028   1
  -3  -1   4 76.0407 79.9773   1
  -3  -1   4-18.4010 71.5012   5
  -3  -1   3 9561.68 447.150   5
  -3  -1   3 9447.21 543.326   1
   3   1  -3 9396.68 539.668   1
   3   1  -2 18834.1 364.597   6
  -3  -1   2 17920.2 764.723   1
  -3  -1   2 19747.5 509.906   5
   3   1  -2 19172.1 783.043   1
   3   1  -1 7912.75 525.291   1
   3   1   0 52319.3 1397.10   1
   3   1   1 162364. 2561.13   1
   3   1   2 57.1231 37.7834   5
   3   1   2-75.0781 60.6281   6
   3   1   2 15.5730 82.6724   1
  -3  -1  -3 11017.7 719.648   3
   3   1   3 11328.7 468.886   5
  -3  -1  -4 992.275 210.159   3
   3   1   4 1213.39 186.602   5
  -3  -1  -5 37536.8 1431.48   3
   3   1   5 36224.5 1134.74   5
  -3  -1  -6 19101.8 1054.80   3
   3   1   6 19123.8 912.984   5
  -3  -1  -7 2446.13 398.260   3
   3   1   7 2860.97 393.677   5
  -3  -1  -8 612.136 179.801   3
   3   1   8 563.361 232.952   5
  -3  -1  -9 458.107 198.345   3
   3   1   9 645.580 253.002   5
  -3  -1 -10 39.9840 85.7554   3
   3   1  10 248.807 186.455   5
  -3  -1 -11 150.843 148.554   3
   3   1  11 351.681 188.897   5
   3   1  12 403.052 228.735   5
  -3  -2  13 2227.91 504.730   5
  -3  -2  12 422.730 228.327   5
   3   2 -11 431.068 282.030   2
  -3  -2  11 25.1097 119.107   5
   3   2 -10 102.197 154.732   2
  -3  -2  10 183.408 138.119   5
   3   2  -9 5980.24 665.302   2
  -3  -2   9 7065.93 709.678   5
   3   2  -8 1479.23 176.278   4
   3   2  -8 1128.10 289.698   2
  -3  -2   8 1151.76 275.995   5
   3   2  -7 3878.83 288.816   4
   3   2  -7 3738.42 514.205   2
   3   2  -7 3589.72 361.169   6
  -3  -2   7 3890.80 371.957   6
  -3  -2   7 3956.33 348.469   1
  -3  -2   7 3485.72 434.447   5
   3   2  -6 32875.9 1363.72   2
   3   2  -6 30219.8 930.058   1
   3   2  -6 29241.1 890.601   6
  -3  -2   6 30156.9 925.549   6
  -3  -2   6 28953.0 918.761   1
  -3  -2   6 29597.1 1146.40   5
   3   2  -5 9610.71 726.630   2
   3   2  -5 9290.85 521.747   1
   3   2  -5 9307.70 455.209   6
  -3  -2   5 9173.68 520.972   1
  -3  -2   5 9219.97 575.090   5
   3   2  -4 717.481 190.714   2
   3   2  -4 470.627 127.327   1
   3   2  -4 649.182 115.575   6
  -3  -2   4 508.601 128.752   1
  -3  -2   4 629.765 145.733   5
   3   2  -3 669.802 158.460   1
   3   2  -3 1005.94 121.762   6
  -3  -2   3 884.672 142.256   5
   3   2  -2 3359.72 336.680   1
  -3  -2   2 3329.04 200.956   5
   3   2  -1 2094.44 278.068   1
   3   2   0 12860.5 730.622   1
  -3  -2  -1 3888.47 430.287   3
  -3  -2  -2 557.113 184.326   3
   3   2   2 583.178 78.0782   5
  -3  -2  -3 6268.48 577.606   3
   3   2   3 6068.49 335.165   5
  -3  -2  -4 11381.3 805.065   3
   3   2   4 10364.2 528.001   5
   3   2   5 23885.5 915.356   5
  -3  -2  -5 22921.6 1204.31   3
  -3  -2  -6 3470.61 502.423   3
   3   2   6 2986.01 360.821   5
  -3  -2  -7 439.031 135.299   3
   3   2   7 242.394 117.673   5
   3   2   8 4725.66 547.134   5
  -3  -2  -8 3584.62 543.319   3
  -3  -2  -9 2770.89 509.535   3
   3   2   9 1400.16 307.467   5
  -3  -2 -10-0.46880 115.880   3
   3   2  10 177.051 173.887   5
  -3  -2 -11 271.944 208.392   3
  -3  -3  13 2007.59 495.795   5
   3   3 -12 1579.87 450.975   2
  -3  -3  12 1020.75 324.601   5
   3   3 -11 1910.06 442.045   2
  -3  -3  11 1281.79 355.974   5
   3   3 -10 1389.88 369.651   2
  -3  -3  10 1386.15 359.713   5
   3   3  -9 7688.49 792.738   2
  -3  -3   9 6759.79 692.223   5
   3   3  -8 2562.23 458.198   2
   3   3  -8 3284.13 381.316   6
  -3  -3   8 3193.83 441.538   5
   3   3  -7 1160.01 142.835   4
   3   3  -7 1283.30 184.591   1
   3   3  -7 1234.44 142.303   4
   3   3  -7 1128.16 305.276   2
   3   3  -7 1309.63 222.644   6
  -3  -3   7 1452.22 297.568   5
   3   3  -6 1356.73 302.828   2
   3   3  -6 997.660 162.231   1
   3   3  -6 942.903 142.891   4
   3   3  -6 716.477 156.628   6
  -3  -3   6 967.393 214.945   5
   3   3  -5 195.005 185.959   2
   3   3  -5 197.403 67.0022   4
   3   3  -5 175.044 106.228   1
   3   3  -5 260.323 119.626   6
  -3  -3   5 91.2036 88.3233   5
   3   3  -4 9591.59 734.513   2
   3   3  -4 9288.24 518.585   4
   3   3  -4 9552.20 484.982   6
  -3  -3   4 9265.34 520.004   5
   3   3  -4 9497.68 550.130   1
  -3  -3   3 485.627 112.903   5
   3   3  -3 454.937 125.645   4
   3   3  -3 433.915 100.022   6
   3   3  -3 450.505 130.402   1
   3   3  -2 6266.45 495.140   1
   3   3  -1 7375.71 552.503   1
   3   3   0 3167.92 388.892   1
  -3  -3   0 3089.77 397.850   3
  -3  -3  -1 15098.1 907.391   3
  -3  -3  -2 43289.5 1558.20   3
   3   3   2 40457.1 679.593   5
  -3  -3  -3 1846.30 340.752   3
   3   3   3 1224.50 157.453   5
  -3  -3  -4 5769.66 621.927   3
   3   3   4 5075.62 375.411   5
  -3  -3  -5 2124.07 412.629   3
   3   3   5 1875.54 261.367   5
  -3  -3  -6 20790.9 1257.20   3
   3   3   6 21413.1 968.200   5
  -3  -3  -7 14936.5 1098.89   3
   3   3   7 16060.2 917.882   5
  -3  -3  -8 1524.53 421.080   3
   3   3   8 1334.89 289.920   5
  -3  -3  -9 369.991 242.777   3
  -3  -3 -10 382.957 232.315   3
  -3  -3 -11 19.1321 208.305   3
  -3  -4  13 3324.11 638.970   5
   3   4 -12 3219.82 645.727   2
  -3  -4  12 2554.09 538.959   5
   3   4 -11 268.185 289.544   2
  -3  -4  11 709.856 309.645   5
   3   4 -10 2979.58 559.418   2
   3   4 -10 3328.06 472.088   6
  -3  -4  10 3347.76 528.927   5
  -3  -4   9 471.526 187.470   5
   3   4  -9 393.589 155.817   6
  -3  -4   8-92.7077 136.354   5
   3   4  -8-246.466 234.383   2
   3   4  -8-87.4396 121.016   6
   3   4  -7 5419.90 661.717   2
   3   4  -7 4580.99 306.447   1
   3   4  -7 4585.39 448.034   6
  -3  -4   7 4476.82 508.616   5
  -3  -4   6 1831.74 305.405   5
   3   4  -6 1842.89 198.546   4
   3   4  -6 2262.38 405.341   2
   3   4  -6 1814.79 277.320   6
   3   4  -6 1596.68 209.953   1
   3   4  -5 9302.13 790.735   2
   3   4  -5 8872.75 486.829   4
   3   4  -5 9352.93 572.764   6
  -3  -4   5 8029.71 573.577   5
   3   4  -5 8652.44 514.202   1
   3   4  -4 9993.86 802.208   2
   3   4  -4 10036.0 569.774   4
   3   4  -4 10369.5 582.676   5
   3   4  -4 10789.8 605.230   6
   3   4  -4 10697.4 600.731   1
   3   4  -3 16241.2 979.204   2
   3   4  -3 14841.9 701.162   6
   3   4  -3 14988.0 611.630   5
   3   4  -3 14523.9 741.323   1
   3   4  -2-33.2382 107.754   1
   3   4  -2-16.4999 38.4435   5
   3   4  -1 47.1067 76.6924   1
   3   4  -1 67.7941 38.9102   5
   3   4   0 25.7652 23.9529   5
  -3  -4   0 196.870 156.167   3
  -3  -4  -1 15656.7 975.132   3
   3   4   1 12564.7 349.919   5
   3   4   2 2650.00 201.581   5
  -3  -4  -2 1768.01 332.638   3
  -3  -4  -3 5463.79 618.985   3
   3   4   3 4725.73 322.809   5
   3   4   4 2514.31 275.258   5
  -3  -4  -4 2204.89 415.732   3
   3   4   5 3707.34 368.891   5
  -3  -4  -5 4652.56 608.841   3
  -3  -4  -6 439.707 252.915   3
   3   4   6-168.058 113.466   5
  -3  -4  -7-176.367 211.209   3
  -3  -4  -8 4207.19 680.927   3
  -3  -4  -9 63.7788 157.807   3
  -3  -4 -10 1003.25 349.030   3
  -3  -5  12 590.833 247.094   5
  -3  -5  11 1644.70 424.678   5
   3   5 -11 2010.09 498.939   2
  -3  -5  10 432.035 223.596   5
   3   5 -10 119.666 150.463   2
   3   5 -10 83.3063 147.203   6
  -3  -5   9-63.0338 104.489   5
   3   5  -9-98.6125 173.914   2
   3   5  -9 63.6764 88.4096   6
   3   5  -8 6156.58 759.439   2
   3   5  -8 5953.58 579.337   6
  -3  -5   8 5382.47 610.034   5
   3   5  -7 10923.9 966.259   2
   3   5  -7 11432.9 765.122   6
  -3  -5   7 11418.2 825.418   5
  -3  -5   6 53.0139 95.8319   5
   3   5  -6 32.6114 188.161   2
   3   5  -6 119.980 125.621   6
   3   5  -6 14.8274 59.8977   1
   3   5  -5 91.1674 63.2127   1
   3   5  -5 12.0440 139.609   2
   3   5  -5 191.648 91.0335   6
   3   5  -4 1996.25 404.915   2
   3   5  -4 1923.78 291.690   6
   3   5  -4 2237.17 292.577   1
   3   5  -3 6227.44 649.812   2
   3   5  -3 7250.49 558.352   6
   3   5  -3 6616.27 527.707   1
   3   5  -3 7395.74 466.164   5
   3   5  -2 700.173 167.048   1
   3   5  -2 690.560 128.154   5
   3   5  -1 106.124 52.8968   5
  -3  -5   1 366.243 177.274   3
  -3  -5   0 14737.6 983.170   3
   3   5   0 14465.9 472.405   5
  -3  -5  -1 4263.82 567.216   3
  -3  -5  -2 18921.9 1173.15   3
  -3  -5  -3 4897.53 627.457   3
  -3  -5  -4 9210.84 876.703   3
  -3  -5  -5 1826.76 439.117   3
  -3  -5  -6 8166.54 906.711   3
  -3  -5  -7 4287.48 675.989   3
  -3  -5  -8 6741.21 868.677   3
  -3  -6  12 241.476 190.883   5
  -3  -6  11 823.227 267.372   5
  -3  -6  10 701.925 258.988   5
   3   6 -10 1321.95 409.715   2
  -3  -6   9 3766.15 563.617   5
   3   6  -9 4104.28 659.558   2
  -3  -6   8 435.339 163.910   5
   3   6  -8 325.543 235.468   2
   3   6  -8 483.341 195.389   6
   3   6  -7-267.091 204.071   2
   3   6  -7-4.18907 95.5034   6
   3   6  -6 19914.2 1328.71   2
   3   6  -6 19014.7 1026.48   6
   3   6  -5 6146.52 712.551   2
   3   6  -5 5542.03 537.015   6
   3   6  -5 5765.73 448.215   1
   3   6  -4 13299.2 1021.84   2
   3   6  -4 13255.4 839.623   6
   3   6  -4 13302.4 746.451   1
   3   6  -3 13098.6 995.010   2
   3   6  -3 11497.4 781.225   6
   3   6  -3 11565.5 744.130   1
   3   6  -2 3047.13 472.096   2
   3   6  -2 1917.10 327.596   1
   3   6  -2 3260.04 417.006   6
  -3  -6   1 6655.12 680.048   3
  -3  -6   0 269.336 190.837   3
  -3  -6  -1 11571.1 944.294   3
  -3  -6  -2 2171.36 439.800   3
  -3  -6  -3 408.288 210.973   3
  -3  -6  -4 3098.94 548.841   3
  -3  -6  -5 928.516 329.076   3
  -3  -6  -6 751.778 314.123   3
  -3  -6  -7 338.013 251.292   3
   3   7  -9 307.085 264.335   2
   3   7  -8-175.624 204.041   2
   3   7  -7 3770.62 629.928   2
   3   7  -7 4570.47 567.357   6
   3   7  -6 5815.03 763.179   2
   3   7  -6 6043.36 627.145   6
   3   7  -5 2197.51 480.161   2
   3   7  -5 1963.55 361.044   6
   3   7  -4-108.670 179.473   2
   3   7  -4 243.169 191.138   6
   3   7  -3 3908.44 565.515   2
   3   7  -3 4780.74 551.535   6
   3   7  -3 4234.38 495.365   1
   3   7  -2 2675.70 458.910   2
   3   7  -2 3237.32 432.344   1
   3   7  -2 2781.63 441.174   6
   3   7  -1 2203.99 419.646   2
  -3  -7   1 3850.96 561.490   3
   3   7   0 50.9945 121.928   2
  -3  -7   0-11.3397 118.978   3
  -3  -7  -1 1309.73 351.399   3
  -3  -7  -2 814.950 324.458   3
  -3  -7  -3 469.135 251.358   3
  -3  -7  -4 543.757 211.339   3
  -3  -7  -5 93.9898 242.966   3
  -3  -7  -6 122.525 168.022   3
   3   8  -8-113.779 181.779   2
   3   8  -7-49.0746 230.024   2
   3   8  -6 1028.11 304.539   2
   3   8  -6 953.788 293.747   6
   3   8  -5 854.340 343.896   2
   3   8  -5 1114.55 304.746   6
   3   8  -4 773.159 315.789   2
   3   8  -4 1420.35 334.598   6
   3   8  -3 388.419 267.813   2
   3   8  -3 343.869 210.142   6
   3   8  -2-124.337 214.704   2
   3   8  -2-54.3525 171.801   1
   3   8  -2 153.662 136.377   6
   3   8  -1 49.2257 156.859   2
  -3  -8   1 159.605 158.116   3
   3   8   0 29.6148 124.612   2
  -3  -8   0 173.947 197.374   3
   3   8   1-4.93511 168.474   2
  -3  -8  -1-111.984 164.433   3
   3   8   2 597.689 227.631   2
  -3  -8  -2 980.562 329.519   3
  -3  -8  -3-91.5451 139.014   3
  -3  -8  -4 440.047 261.325   3
   3   9  -6 673.560 279.343   2
   3   9  -5 3526.71 651.575   2
   3   9  -4-37.1769 182.110   2
   3   9  -4 99.8914 105.230   6
   3   9  -3-82.2051 254.756   2
   3   9  -3 388.913 229.565   6
   3   9  -2-203.224 228.370   2
   3   9  -2-249.818 149.139   6
   3   9  -1 2078.00 454.266   2
   3   9  -1 2429.67 485.260   6
  -3  -9   1 2117.55 482.868   3
   3   9   0 8003.94 861.194   2
  -3  -9   0 8695.09 956.965   3
  -3  -9  -1 133.823 163.858   3
  -3  -9  -2 1823.82 459.983   3
   3  10  -3 45.0660 162.685   2
   3  10  -2 25.6640 153.928   6
   3  10  -2-56.4794 162.351   2
   3  10  -1 71.0675 144.444   6
  -3 -10   0-380.416 210.834   3
   4 -13   0 187.193 184.451   4
   4 -12  -2 464.462 300.305   4
   4 -12  -1 596.089 247.657   4
  -4  12   1 691.708 316.365   6
   4 -12   0-81.8699 205.720   4
  -4  12   0 99.6386 222.349   6
   4 -12   1-275.018 208.159   4
  -4  12  -1 17.8465 243.976   6
   4 -11  -5 410.885 297.315   4
   4 -11  -4 1998.04 515.261   4
   4 -11  -3 156.452 192.404   4
  -4  11   3 156.802 178.829   6
   4 -11  -2 3112.21 581.060   4
  -4  11   2 3256.76 587.754   6
   4 -11  -1 1204.79 346.023   4
  -4  11   1 731.704 289.456   6
   4 -11   0-110.221 163.344   4
  -4  11   0-48.5498 258.180   6
   4 -11   1 4090.06 582.747   4
  -4  11  -1 3642.16 652.392   6
   4 -11   2 326.492 159.322   4
  -4  11  -2-73.3586 211.070   6
   4 -11   3 496.196 234.528   4
  -4  11  -3 602.183 311.707   6
  -4  11  -4 239.211 217.198   6
  -4  11  -5-123.056 215.746   6
   4 -10  -6-143.263 206.013   4
   4 -10  -5 2326.83 508.990   4
   4 -10  -4 8493.18 958.239   4
   4 -10  -3 1494.81 415.088   4
   4 -10  -2 424.157 243.549   4
  -4  10   2 511.584 255.812   6
   4 -10  -1 5286.44 699.579   4
  -4  10   1 5434.31 727.933   6
   4 -10   0 2065.24 436.250   4
  -4  10   0 1706.97 413.358   6
   4 -10   1 5618.81 672.182   4
  -4  10  -1 5223.57 705.921   6
   4 -10   2 247.176 179.258   4
  -4  10  -2 112.145 136.106   6
   4 -10   3 1189.39 297.050   4
  -4  10  -3 699.019 331.999   6
   4 -10   4 29.6141 89.7902   4
  -4  10  -4 2.59031 169.801   6
  -4  10  -5-291.571 223.679   6
  -4  10  -6 264.007 229.382   6
  -4  10  -7 21.7026 153.838   6
   4  -9  -8 1789.48 484.018   4
   4  -9  -7 486.834 277.521   4
   4  -9  -6 402.714 309.298   4
   4  -9  -5 496.980 247.618   4
   4  -9  -4 1830.43 420.620   4
   4  -9  -3 214.219 192.497   4
   4  -9  -2 4919.78 663.434   4
  -4   9   2 4515.20 615.985   6
   4  -9  -1 4072.58 583.944   4
  -4   9   1 3979.87 580.187   6
   4  -9   0 6140.94 684.857   4
  -4   9   0 6296.65 739.323   6
   4  -9   1 958.255 293.775   4
  -4   9  -1 401.138 181.842   6
   4  -9   2 8898.76 782.983   4
  -4   9  -2 8139.64 831.221   6
   4  -9   3 423.885 194.540   4
  -4   9  -3 572.625 250.302   6
   4  -9   4 2814.90 426.747   4
  -4   9  -4 2042.61 433.709   6
   4  -9   5 363.085 187.313   4
  -4   9  -5 250.975 194.951   6
  -4   9  -6 271.430 264.488   6
  -4   9  -7 634.979 310.650   6
  -4   9  -8 523.586 289.185   6
   4  -8  -9 266.736 257.648   4
   4  -8  -8-93.3834 187.927   4
   4  -8  -7 5026.64 716.697   4
   4  -8  -6 14.1742 158.625   4
   4  -8  -5 394.788 215.628   4
   4  -8  -4 634.111 266.673   4
   4  -8  -3 3636.81 552.058   4
   4  -8  -2 1979.28 399.268   4
  -4   8   2 2699.89 437.243   6
   4  -8  -1 2713.22 452.463   4
  -4   8   1 2536.14 427.395   6
   4  -8   0 198.912 158.766   4
  -4   8   0 754.685 259.898   6
   4  -8   1 7064.42 683.434   4
  -4   8  -1 8199.75 771.503   6
  -4   8  -2 6381.01 698.318   6
   4  -8   3-91.3165 114.569   1
  -4   8  -3 151.680 116.645   6
  -4   8  -4 1732.86 390.200   6
   4  -8   4 2807.49 403.458   1
   4  -8   5-133.974 135.836   1
  -4   8  -5 81.4895 141.997   6
  -4   8  -6 5315.11 727.475   6
  -4   8  -7 494.142 268.380   6
  -4   8  -8-218.486 247.766   6
  -4   8  -9 209.843 219.122   6
   4  -7 -11 77.7417 169.081   4
   4  -7 -10 147.528 147.361   4
   4  -7  -9 562.376 255.615   4
   4  -7  -8 3837.89 616.210   4
   4  -7  -7 1727.28 405.430   4
   4  -7  -6 2405.48 470.145   4
   4  -7  -5 426.418 201.722   4
   4  -7  -4 505.280 221.144   4
   4  -7  -3 14099.5 1011.72   4
   4  -7  -2 2688.18 273.998   2
   4  -7  -2 2329.73 425.927   4
  -4   7   2 2417.78 399.192   6
   4  -7  -1 281.162 182.597   4
   4  -7  -1 310.508 142.631   2
  -4   7   1 119.769 117.618   6
  -4   7   0 21734.6 1154.40   6
  -4   7  -1 2302.16 391.041   6
   4  -7   1 2020.83 357.282   1
   4  -7   2 5222.45 526.033   1
  -4   7  -2 5560.37 617.141   6
   4  -7   3 3244.27 411.371   1
  -4   7  -3 2942.42 445.694   6
   4  -7   4 11902.0 774.138   1
  -4   7  -4 11287.7 910.816   6
  -4   7  -5 2312.64 442.318   6
   4  -7   5 1716.22 296.917   1
   4  -7   6 266.291 152.615   1
  -4   7  -6-12.3083 171.231   6
  -4   7  -7 402.266 228.295   6
  -4   7  -8-247.462 192.591   6
  -4   7  -9 374.392 220.434   6
  -4   7 -10 372.352 252.456   6
   4  -6 -12 236.737 202.649   4
   4  -6 -11 2694.23 553.086   4
   4  -6 -10 967.588 329.096   4
   4  -6  -9 2092.67 447.134   4
   4  -6  -8 345.232 182.036   4
   4  -6  -7 6655.79 739.738   4
   4  -6  -6 2637.94 474.400   4
   4  -6  -5 1252.59 279.357   4
   4  -6  -4 21173.4 1201.07   4
   4  -6  -3 827.646 267.309   4
  -4   6   2 4124.29 465.164   6
  -4   6   1 2123.50 342.268   6
   4  -6  -1 2621.83 416.906   1
  -4   6   0 3384.50 428.083   6
   4  -6   0 2709.56 400.647   1
   4  -6   1 107.822 91.9896   1
  -4   6  -1 177.400 159.607   6
   4  -6   2 123.377 104.621   1
  -4   6  -2 38.8043 119.700   6
   4  -6   3 456.584 176.110   1
  -4   6  -3 621.847 201.588   6
   4  -6   4 13439.0 812.792   1
  -4   6  -4 14595.7 988.728   6
   4  -6   4 13283.4 617.342   3
  -4   6  -5 1218.09 298.642   6
   4  -6   5 1299.79 267.447   1
   4  -6   6 3964.82 461.559   1
  -4   6  -6 4238.29 588.222   6
  -4   6  -7 379.945 244.273   6
   4  -6   7 117.195 101.665   1
  -4   6  -8 372.552 258.826   6
  -4   6  -9 1618.25 408.446   6
  -4   6 -10-25.2785 166.511   6
   4  -5 -13 1297.29 385.352   4
   4  -5 -12 4959.88 729.399   4
   4  -5 -11 647.949 282.521   4
   4  -5 -10 1946.12 425.986   4
   4  -5  -9 19998.0 1289.63   4
   4  -5  -8 219.348 173.183   4
   4  -5  -7 12619.6 961.639   4
   4  -5  -6-63.6517 174.739   4
   4  -5  -6 38.9029 40.8085   2
   4  -5  -5 1505.99 167.994   2
   4  -5  -5 1566.07 346.307   4
   4  -5  -4 177.176 159.179   4
   4  -5  -3 125.967 131.969   1
   4  -5  -2 1996.07 337.626   1
  -4   5   2 1819.59 279.580   6
   4  -5  -1 26994.5 1172.84   1
  -4   5   1 26213.6 1036.30   6
   4  -5   0 3466.91 412.553   1
  -4   5   0 3104.08 376.096   6
   4  -5   1 988.767 247.473   1
  -4   5  -1 1325.08 271.597   6
  -4   5  -2 92.5183 114.684   6
   4  -5   2 282.648 112.022   1
   4  -5   3 8127.64 623.873   1
  -4   5  -3 9462.19 722.190   6
   4  -5   4 8975.45 670.414   1
  -4   5  -4 7884.73 699.004   6
   4  -5   4 8599.52 517.545   3
  -4   5  -5 11210.5 872.603   6
   4  -5   5 11597.6 580.357   3
   4  -5   5 11790.5 779.091   1
   4  -5   6 2309.56 366.646   1
  -4   5  -6 2058.59 418.106   6
   4  -5   7 176.979 117.834   1
  -4   5  -7 600.638 260.850   6
   4  -5   8 255.456 129.877   1
  -4   5  -8 341.974 219.703   6
  -4   5  -9 777.600 328.193   6
  -4   5 -10 262.462 271.578   6
   4  -4 -12 1449.38 389.338   4
  -4   4  12 1725.57 522.016   5
   4  -4 -11 3435.01 538.627   4
   4  -4 -10 1655.03 378.979   4
   4  -4  -9 467.518 274.580   4
   4  -4  -8 212.943 165.900   4
   4  -4  -8 568.838 141.108   2
   4  -4  -7 1008.24 282.018   4
   4  -4  -7 837.454 158.247   2
   4  -4  -6 164.707 156.149   4
   4  -4  -6 136.986 90.5412   2
   4  -4  -5 140.943 106.924   4
   4  -4  -4 16978.5 969.149   1
   4  -4  -3 4468.77 488.831   1
  -4   4   2 1793.36 242.052   6
   4  -4  -2 1634.77 293.538   1
   4  -4  -1 11309.9 748.308   1
  -4   4   1 11579.5 615.187   6
   4  -4   0 924.191 215.257   1
  -4   4   0 810.626 177.652   6
   4  -4   1 14377.7 817.784   1
  -4   4  -1 14241.9 735.824   6
   4  -4   2 8238.21 635.898   1
  -4   4  -2 7828.49 583.830   6
  -4   4  -3 3523.02 424.480   6
   4  -4   3 3341.62 347.704   3
   4  -4   3 3392.43 407.587   1
   4  -4   4 712.235 219.598   1
  -4   4  -4 658.921 223.819   6
   4  -4   4 755.780 165.239   3
   4  -4   5 679.677 225.351   1
  -4   4  -5 613.564 240.800   6
   4  -4   5 683.563 173.441   3
  -4   4  -6 7947.60 740.454   6
   4  -4   6 8259.77 675.182   1
  -4   4  -7 1282.50 362.963   6
   4  -4   7 975.411 242.947   1
  -4   4  -8 135.736 144.720   6
   4  -4   8 62.0259 154.558   1
   4  -4   9-109.634 214.915   5
   4  -4   9-182.844 153.018   1
   4  -4  10 204.188 151.688   5
   4  -4  11 625.718 297.408   5
   4  -3 -12 488.689 211.871   4
  -4   3  12 533.923 315.408   5
   4  -3 -11 3835.55 552.750   4
  -4   3  11 3770.88 643.084   5
   4  -3 -10 1392.82 305.376   4
   4  -3  -9 10794.6 855.196   4
   4  -3  -9 13709.4 770.713   2
   4  -3  -8 5518.75 586.361   4
   4  -3  -8 5680.18 482.649   2
   4  -3  -7 1459.16 280.856   4
   4  -3  -7 1872.02 272.183   2
   4  -3  -6 697.184 163.662   2
   4  -3  -6 140.884 108.855   4
   4  -3  -5 1675.63 311.185   1
   4  -3  -4 16616.5 919.914   1
   4  -3  -3 598.895 172.207   1
   4  -3  -2 28026.5 1150.07   1
  -4   3   2 28312.2 796.996   6
   4  -3  -1 22686.8 1018.62   1
  -4   3   1 22227.1 733.835   6
   4  -3   0 61800.3 1684.72   1
  -4   3   0 57619.2 1266.77   6
   4  -3   0 59176.0 1281.41   6
   4  -3   1 2077.55 319.300   1
  -4   3  -1 2277.70 271.135   6
   4  -3   1 1903.54 252.208   6
  -4   3  -2 27364.4 1026.24   6
  -4   3  -2 26250.4 978.500   5
   4  -3   2 27953.5 1144.78   1
   4  -3   3 2560.81 357.053   1
  -4   3  -3 2863.86 373.564   6
  -4   3  -4 3049.37 412.036   6
   4  -3   4 2538.11 374.854   1
  -4   3  -5 78880.8 2169.30   6
   4  -3   5 81366.3 2086.75   1
  -4   3  -6 58.3476 155.991   6
   4  -3   6 79.6690 167.007   1
   4  -3   7 2045.35 369.035   5
   4  -3   7 3911.02 504.422   1
   4  -3   8 12459.6 910.713   1
   4  -3   8 13149.6 981.861   5
   4  -3   9 397.960 208.776   5
   4  -3   9 969.742 263.776   1
   4  -3  10-326.926 264.341   5
   4  -3  10 211.285 193.766   1
   4  -3  11 178.523 122.325   5
   4  -3  12 137.223 198.756   5
  -4   2  12 369.991 202.805   5
   4  -2 -11 1075.47 278.658   4
  -4   2  11 677.556 262.627   5
   4  -2 -10 427.078 192.592   4
   4  -2 -10 1157.19 283.468   2
  -4   2  10 553.607 261.347   5
   4  -2  -9 2028.66 360.618   4
   4  -2  -9 2865.90 389.793   2
   4  -2  -8-27.6086 127.879   4
   4  -2  -8 118.676 99.3053   2
   4  -2  -7 536.465 174.193   4
   4  -2  -7 719.091 217.077   2
  -4   2   7 687.235 168.475   6
   4  -2  -6 1143.10 236.515   2
   4  -2  -6 868.682 221.473   1
  -4   2   6 897.403 167.916   6
   4  -2  -5 27786.4 1173.70   1
   4  -2  -4 5170.10 499.460   1
   4  -2  -3 393.404 156.587   1
  -4   2   3 664.135 95.0621   6
  -4   2   2 1811.23 155.387   6
   4  -2  -2 2499.28 335.534   1
   4  -2  -1 50854.4 1500.94   1
  -4   2   1 48688.3 901.102   6
  -4   2   0 7337.95 407.021   6
   4  -2   0 7712.16 415.104   6
   4  -2   0 7373.56 574.841   1
  -4   2  -1 15835.0 661.757   6
   4  -2   1 16684.4 687.859   6
  -4   2  -1 16398.9 682.267   5
   4  -2   1 17300.6 892.732   1
  -4   2  -2 526.313 137.892   5
  -4   2  -2 454.761 126.682   6
   4  -2   2 525.112 136.781   6
  -4   2  -3 2451.60 321.513   6
   4  -2   3 2538.82 366.423   1
  -4   2  -3 1915.43 257.638   5
  -4   2  -4 30432.6 1244.32   6
   4  -2   4 31577.9 1295.36   1
   4  -2   5 66117.8 1970.69   1
   4  -2   6 8234.25 718.454   1
   4  -2   6 8535.83 688.813   5
   4  -2   7 1572.09 319.123   5
   4  -2   7 686.084 224.428   1
   4  -2   8 690.911 224.630   5
   4  -2   8 841.981 278.306   1
   4  -2   9 4029.67 565.167   5
   4  -2   9 4863.27 615.988   1
   4  -2  10-2.66349 161.865   5
   4  -2  10-305.394 194.432   1
   4  -2  11 228.473 139.400   5
   4  -2  11 204.838 157.382   1
   4  -2  12-478.941 250.804   5
  -4   1  13 2210.48 533.371   5
  -4   1  12 3005.66 596.449   5
   4  -1 -11 259.431 222.592   2
  -4   1  11 295.120 193.832   5
   4  -1 -10 13127.1 847.522   4
   4  -1 -10 12876.9 921.174   2
  -4   1  10 12433.9 1038.07   5
   4  -1  -9 541.651 170.164   4
   4  -1  -9 143.915 171.185   2
  -4   1   9 410.687 195.085   5
   4  -1  -8 102.368 97.9844   4
   4  -1  -8 26.0147 116.091   2
  -4   1   8-89.8124 127.671   5
   4  -1  -7 5095.74 502.860   2
   4  -1  -7 4914.41 485.341   4
  -4   1   7 4280.90 351.306   6
   4  -1  -6 237.689 134.618   1
   4  -1  -6 172.995 105.961   2
  -4   1   6 175.047 64.6162   6
  -4   1   5 202.804 52.7474   6
   4  -1  -5 268.523 163.713   1
   4  -1  -4 4445.05 452.593   1
   4  -1  -3 26199.8 1067.02   1
   4  -1  -2 12105.9 725.712   1
   4  -1  -1 3372.09 194.606   6
   4  -1  -1 4969.22 474.215   1
   4  -1   0 47742.5 945.682   6
   4  -1   0 48524.0 1479.25   1
   4  -1   1 4314.62 336.610   6
  -4   1  -1 4517.71 310.579   5
   4  -1   1 4237.01 455.262   1
   4  -1   2 7727.59 512.842   6
   4  -1   2 7744.90 624.406   1
  -4   1  -2 7314.38 421.996   5
   4  -1   3 1702.00 320.747   1
  -4   1  -3 1560.77 221.786   5
   4  -1   4 1136.47 292.458   1
  -4   1  -4 1012.40 199.535   5
   4  -1   5 75041.8 2139.24   1
   4  -1   5 73451.4 1745.22   5
   4  -1   6 4559.27 579.009   1
   4  -1   6 4896.31 498.301   5
   4  -1   7 6049.10 678.635   1
   4  -1   7 4475.54 509.305   5
   4  -1   8 3339.11 468.557   5
   4  -1   8 4615.81 603.598   1
  -4   1  -8 4290.97 534.753   3
   4  -1   9 168.919 172.205   5
   4  -1   9 498.354 220.420   1
  -4   1  -9 41.9931 160.647   3
   4  -1  10 119.518 115.968   5
   4  -1  10 321.368 158.043   1
   4  -1  11 86.9970 160.825   5
   4  -1  11-161.872 161.422   1
   4  -1  12-191.214 199.963   5
  -4   0  13 2865.45 586.014   5
   4   0 -12 199.048 240.301   2
  -4   0  12-32.0087 191.786   5
   4   0 -11 3093.02 514.060   2
  -4   0  11 2235.89 486.911   5
   4   0 -10 763.317 193.354   4
   4   0 -10 927.593 297.541   2
  -4   0  10 1257.80 340.701   5
   4   0  -9 50.4388 89.8642   4
   4   0  -9-33.2513 158.872   2
  -4   0   9 115.487 117.206   5
   4   0  -8 3023.65 353.884   4
   4   0  -8 3288.56 465.626   2
  -4   0   8 2807.82 425.727   5
   4   0  -7 1107.52 243.025   2
  -4   0   7 928.241 160.939   6
   4   0  -7 1078.16 227.141   1
  -4   0   7 1080.42 267.110   5
   4   0  -6 2948.29 412.989   2
   4   0  -6 2925.38 373.002   1
  -4   0   6 2788.19 214.910   6
  -4   0   6 3304.50 396.348   5
   4   0  -5 265.220 142.088   1
   4   0  -4 270.538 148.787   1
   4   0  -3 11783.0 710.448   1
   4   0  -2 3403.77 392.600   1
   4   0  -1 7314.42 275.867   6
   4   0  -1 11554.9 729.350   1
   4   0   0 3107.65 241.498   6
   4   0   0 2811.34 372.563   1
  -4   0   0 2793.07 173.966   5
   4   0   1 22419.0 782.660   6
   4   0   1 22998.3 1067.52   1
  -4   0  -1 21364.8 512.211   5
   4   0   2 8570.06 553.808   6
   4   0   2 8787.80 691.086   1
  -4   0  -2 8010.30 366.958   5
   4   0   3 2607.85 388.067   1
  -4   0  -3 2509.26 239.071   5
   4   0   4 1328.74 199.122   5
   4   0   4 1445.94 319.564   1
   4   0   5 43107.0 1693.72   1
  -4   0  -5 43964.2 1605.63   3
   4   0   5 39519.0 1209.48   5
   4   0   6 56246.6 2011.94   1
  -4   0  -6 52616.5 1820.58   3
   4   0   6 52921.6 1541.82   5
   4   0   7 1174.83 262.122   5
   4   0   7 1204.78 295.720   1
  -4   0  -7 717.133 226.637   3
   4   0   8 288.334 177.080   5
   4   0   8-54.8087 208.444   1
  -4   0  -8-53.1722 179.378   3
   4   0   9 256.445 176.299   5
   4   0   9-439.849 228.324   1
  -4   0  -9-207.713 184.180   3
   4   0  10 2067.97 442.949   5
   4   0  10 1872.15 455.420   1
  -4   0 -10 1451.72 346.721   3
   4   0  11 74.8145 154.161   1
  -4  -1  13 563.638 289.269   5
   4   1 -12 111.951 159.093   2
  -4  -1  12 24.7150 132.175   5
   4   1 -11 1213.03 320.722   2
  -4  -1  11 1879.78 430.663   5
   4   1 -10 2951.85 488.686   2
  -4  -1  10 2132.94 437.731   5
   4   1  -9 5572.65 454.685   4
   4   1  -9 4742.96 589.593   2
  -4  -1   9 6075.39 665.717   5
   4   1  -8 2866.64 329.804   4
   4   1  -8 3383.82 505.493   2
  -4  -1   8 2017.70 362.261   5
   4   1  -7 1044.32 304.335   2
  -4  -1   7 766.415 140.093   6
   4   1  -7 993.523 221.936   1
  -4  -1   7 729.168 203.865   5
   4   1  -6-40.0552 151.544   2
   4   1  -6 41.6280 69.4413   1
  -4  -1   6 39.9616 32.6633   6
  -4  -1   6 99.2802 107.365   5
  -4  -1   5 864.629 192.500   5
   4   1  -5 875.663 203.432   1
   4   1  -4 18337.2 885.610   1
  -4  -1   4 17159.4 709.202   5
   4   1  -3 66.8451 94.9168   1
  -4  -1   3 138.708 57.7626   5
   4   1  -2 409.223 52.5813   6
   4   1  -2 392.312 49.2470   6
  -4  -1   2 668.068 97.1807   5
   4   1  -2 602.986 188.205   1
   4   1  -1 198.695 59.4164   6
   4   1  -1 46.1515 111.377   1
   4   1   0 1987.44 219.067   6
   4   1   0 2085.36 332.199   1
   4   1   1 464.099 150.704   1
   4   1   1 277.718 103.198   6
   4   1   2 3116.38 437.195   1
  -4  -1  -3 1079.30 261.379   3
   4   1   3 1058.91 297.042   1
   4   1   4 1612.87 209.638   5
   4   1   4 1472.13 373.424   1
  -4  -1  -4 1481.35 277.323   3
   4   1   5 4202.08 570.316   1
   4   1   5 4108.24 377.841   5
  -4  -1  -5 3253.80 461.882   3
   4   1   6 4617.59 641.929   1
  -4  -1  -6 4261.59 578.949   3
   4   1   6 4482.92 443.278   5
   4   1   7 3154.28 402.530   5
   4   1   7 3653.74 578.195   1
  -4  -1  -7 2175.44 424.497   3
   4   1   8 34.9783 109.235   5
   4   1   8 164.458 158.549   1
  -4  -1  -8 65.2101 180.237   3
   4   1   9 793.582 260.279   1
  -4  -1  -9 591.098 253.863   3
   4   1  10-227.321 170.322   1
  -4  -1 -10 48.5070 189.193   3
   4   1  11-271.479 270.844   1
   4   2 -13 356.884 251.042   2
  -4  -2  13 190.981 185.285   5
   4   2 -12 2786.11 542.518   2
  -4  -2  12 2899.74 556.837   5
   4   2 -11 635.069 262.071   2
  -4  -2  11 346.727 228.386   5
   4   2 -10 441.778 270.888   2
  -4  -2  10 316.294 219.186   5
   4   2  -9 4966.84 633.107   2
  -4  -2   9 4940.09 588.572   5
   4   2  -8 11392.4 587.175   4
   4   2  -8 11623.8 954.932   2
  -4  -2   8 12636.1 886.652   5
   4   2  -7 2312.29 307.236   1
   4   2  -7 2794.93 463.522   2
  -4  -2   7 2513.57 378.871   5
   4   2  -6 1712.89 277.048   1
   4   2  -6 1894.41 381.389   2
  -4  -2   6 1668.47 275.897   5
   4   2  -5 73.2455 158.074   2
   4   2  -5 129.108 59.4223   6
   4   2  -5-56.9575 94.0262   1
  -4  -2   5 125.288 73.5634   5
   4   2  -4 30675.0 580.170   6
  -4  -2   4 31832.6 931.962   5
   4   2  -4 31853.4 1178.80   1
   4   2  -3 9399.22 335.473   6
  -4  -2   3 9755.34 412.753   5
   4   2  -3 9401.75 660.626   1
   4   2  -2 4498.02 460.051   1
   4   2  -1 4764.97 494.056   1
   4   2   0 1202.27 279.459   1
   4   2   1 599.283 224.292   1
  -4  -2  -2 1223.24 305.523   3
   4   2   2 1245.73 302.133   1
   4   2   3 1153.36 301.592   1
  -4  -2  -3 1032.36 273.317   3
   4   2   4 585.740 118.378   5
   4   2   4 719.132 259.808   1
  -4  -2  -4 927.635 274.018   3
   4   2   5 128.726 76.3715   5
  -4  -2  -5-184.633 186.192   3
  -4  -2  -6 48917.6 1968.79   3
   4   2   6 42248.7 1303.39   5
  -4  -2  -7 10817.7 956.921   3
  -4  -2  -8 1190.41 351.810   3
  -4  -2  -9 2586.94 501.726   3
  -4  -2 -10 221.666 204.098   3
  -4  -3  13-282.049 293.534   5
   4   3 -12 282.847 275.704   2
  -4  -3  12-87.5051 156.987   5
   4   3 -11 607.000 325.049   2
  -4  -3  11-0.46811 115.340   5
   4   3 -10 242.618 218.290   2
  -4  -3  10 626.204 268.828   5
   4   3  -9 454.682 272.056   2
  -4  -3   9 379.254 162.627   5
   4   3  -8 9073.33 880.461   2
  -4  -3   8 7009.64 665.347   5
   4   3  -7 3328.37 356.470   1
   4   3  -7 2629.58 450.369   2
   4   3  -7 3155.44 310.786   6
  -4  -3   7 2873.84 387.355   5
   4   3  -6 487.779 228.544   2
   4   3  -6 289.612 102.894   6
   4   3  -6 383.637 127.759   1
  -4  -3   6 484.904 154.984   5
   4   3  -5 12600.7 947.476   2
   4   3  -5 11155.9 499.323   6
  -4  -3   5 11814.7 650.209   5
   4   3  -5 12195.0 720.374   1
   4   3  -4 12101.2 505.116   6
  -4  -3   4 12178.4 562.377   5
   4   3  -4 12794.6 756.228   1
   4   3  -3 638.391 122.363   6
   4   3  -3 1062.14 235.749   1
   4   3  -2 29961.2 1224.97   1
   4   3  -1 269.843 164.690   1
   4   3   0 13386.2 904.643   1
   4   3   1 7575.20 690.346   1
   4   3   2 2699.52 438.469   1
  -4  -3  -2 2995.44 479.975   3
  -4  -3  -3 56.1476 179.298   3
  -4  -3  -4 2268.61 433.915   3
  -4  -3  -5 744.699 271.040   3
  -4  -3  -6 332.514 223.370   3
  -4  -3  -7 273.907 233.871   3
  -4  -3  -8 778.926 343.361   3
  -4  -3  -9-9.39203 145.240   3
  -4  -4  12 101.356 146.046   5
  -4  -4  11 961.311 301.777   5
   4   4 -11 1104.86 433.474   2
  -4  -4  10 143.010 107.410   5
   4   4 -10 373.014 295.963   2
  -4  -4   9 145.978 128.742   5
   4   4  -9 153.122 155.808   2
   4   4  -8 15695.1 1219.24   2
  -4  -4   8 15610.3 984.678   5
  -4  -4   7 697.128 237.442   5
   4   4  -7 791.271 294.271   2
  -4  -4   6 780.775 204.579   5
   4   4  -6 959.641 308.352   2
   4   4  -6 949.575 184.100   6
   4   4  -6 1284.87 238.106   1
   4   4  -5 9662.37 873.404   2
   4   4  -5 8677.28 520.720   6
  -4  -4   5 8495.71 562.728   5
   4   4  -5 8793.17 627.250   1
   4   4  -4 431.502 273.400   2
   4   4  -4 163.132 85.6920   6
   4   4  -4 256.789 147.212   1
   4   4  -3 90101.5 1716.96   6
   4   4  -3 91377.2 2136.64   1
   4   4  -2 9369.17 721.045   1
   4   4  -1 23322.4 1176.15   1
   4   4   0 11908.3 872.992   1
   4   4   1 77.6019 142.036   1
  -4  -4  -1 105.951 168.495   3
  -4  -4  -2 7248.32 755.057   3
  -4  -4  -3 2128.52 426.195   3
  -4  -4  -4 206.170 153.999   3
  -4  -4  -5 564.180 269.456   3
  -4  -4  -6 5762.23 765.874   3
  -4  -4  -7 2170.17 493.497   3
  -4  -4  -8 2575.90 560.151   3
  -4  -5  12 688.823 296.613   5
  -4  -5  11 2.41686 121.003   5
  -4  -5  10 173.585 120.806   5
   4   5 -10 243.406 254.728   2
  -4  -5   9 2000.88 398.249   5
   4   5  -9 1472.99 401.961   2
  -4  -5   8-16.7617 115.080   5
   4   5  -8 213.590 269.839   2
  -4  -5   7 1759.60 320.624   5
   4   5  -7 2174.60 477.621   2
   4   5  -6 2068.97 442.260   2
   4   5  -5 83.3044 106.833   1
   4   5  -5 270.565 239.745   2
   4   5  -5 161.307 73.6286   6
   4   5  -4 9231.34 884.784   2
   4   5  -4 9371.51 618.019   6
   4   5  -4 8683.35 674.736   1
   4   5  -3 101.383 192.379   2
   4   5  -3-32.0142 85.4466   1
   4   5  -3-44.0759 84.8494   6
   4   5  -2 10627.7 796.549   1
   4   5  -1 3060.63 455.298   1
   4   5   0 6552.42 688.464   1
   4   5   1 967.118 310.067   1
  -4  -5  -1 615.229 245.104   3
  -4  -5  -2 446.239 227.295   3
  -4  -5  -3 1208.68 354.587   3
  -4  -5  -4-104.886 204.376   3
  -4  -5  -5 249.670 203.114   3
  -4  -5  -6 3301.00 620.988   3
  -4  -5  -7 3166.97 631.867   3
   4   6  -9 618.206 333.928   2
   4   6  -8 315.998 283.942   2
   4   6  -7 703.660 349.640   2
   4   6  -6 324.684 224.406   2
   4   6  -5 1266.70 364.953   2
   4   6  -4-18.2365 175.374   2
   4   6  -4-108.654 128.371   6
   4   6  -4 118.317 79.9295   1
   4   6  -3 6198.74 752.643   2
   4   6  -3 6462.60 582.068   6
   4   6  -3 5944.11 605.450   1
   4   6  -2 16934.0 1202.00   2
   4   6  -2 15649.0 937.402   6
   4   6  -2 13344.7 949.088   1
   4   6  -1 5151.98 630.103   1
   4   6   0 1102.88 291.413   1
  -4  -6  -1 285.063 169.762   3
  -4  -6  -2 458.256 165.772   3
  -4  -6  -3 172.168 170.616   3
  -4  -6  -4-257.908 227.916   3
  -4  -6  -5-50.7765 244.945   3
   4   7  -8 291.947 265.817   2
   4   7  -7-60.5191 257.473   2
   4   7  -6 73.9660 228.391   2
   4   7  -5 2258.43 494.660   2
   4   7  -4-168.040 194.353   2
   4   7  -3 134.318 165.104   2
   4   7  -3 191.937 136.897   1
   4   7  -2 2807.70 539.133   2
   4   7  -2 2496.19 419.373   1
   4   7  -2 1874.08 372.773   6
   4   7  -1 2219.06 459.458   2
   4   7  -1 1166.63 321.285   1
   4   7   0 1793.23 393.925   1
  -4  -7  -1 2502.59 516.551   3
  -4  -7  -2-43.1139 158.797   3
  -4  -7  -3 269.401 245.223   3
   4   8  -6 472.941 270.499   2
   4   8  -5 53.6763 179.631   2
   4   8  -4 836.640 301.136   2
   4   8  -3 837.140 347.245   2
   4   8  -2 482.424 234.250   2
   4   8  -1 9673.63 987.789   2
   4   8  -1 10303.3 968.202   1
   4   8   0 2029.01 477.336   2
   4   8   0 3391.10 587.407   1
   4   8   1-195.859 194.825   2
  -4  -8  -1 311.723 267.947   3
   4   9  -3 545.171 330.903   2
   4   9  -2 1734.44 450.071   2
   4   9  -1 235.798 231.469   2
   4   9   0-68.3630 154.856   2
   4   9   1 127.571 158.938   1
   5 -12  -2 610.134 338.179   4
   5 -12  -1-222.295 216.381   4
   5 -12   0 352.435 202.640   4
   5 -12   1 419.580 204.450   4
   5 -12   2 3075.06 580.336   4
   5 -11  -4 375.992 250.775   4
  -5  11   4 146.316 207.675   6
   5 -11  -3 14.2701 200.850   4
  -5  11   3 244.289 181.363   6
   5 -11  -2 217.861 175.652   4
  -5  11   2 517.159 266.768   6
   5 -11  -1 177.037 249.552   4
  -5  11   1 387.099 250.370   6
   5 -11   0 245.956 182.421   4
  -5  11   0 104.093 183.551   6
   5 -11   1 8048.83 887.880   4
  -5  11  -1 7340.65 914.353   6
   5 -11   2 1631.26 413.909   4
  -5  11  -2 1447.40 427.036   6
   5 -11   3 751.321 285.315   4
  -5  11  -3 678.108 283.834   6
  -5  11  -4 126.574 207.405   6
   5 -10  -6 700.161 353.459   4
   5 -10  -5-51.9996 209.443   4
   5 -10  -4-107.364 224.308   4
  -5  10   4 201.033 144.420   6
   5 -10  -3 775.537 297.312   4
  -5  10   3 698.107 253.782   6
   5 -10  -2 355.617 195.549   4
  -5  10   2 1.92584 194.219   6
   5 -10  -1-237.659 160.024   4
  -5  10   1 18.5386 125.404   6
   5 -10   0 531.309 277.716   4
  -5  10   0 198.057 202.039   6
   5 -10   1 94.0953 152.216   4
  -5  10  -1 221.161 211.975   6
   5 -10   2 6852.82 772.449   4
  -5  10  -2 8219.35 925.866   6
   5 -10   3 5862.63 715.757   4
  -5  10  -3 4637.80 696.636   6
   5 -10   4 340.185 178.195   4
  -5  10  -4 464.683 304.466   6
  -5  10  -5 626.099 353.184   6
  -5  10  -6 232.830 279.518   6
   5  -9  -7 108.186 186.077   4
   5  -9  -6 178.188 206.386   4
   5  -9  -5 110.672 163.543   4
   5  -9  -4 1334.17 403.435   4
   5  -9  -3 70.3506 169.447   4
  -5   9   3-24.3589 130.659   6
   5  -9  -2-149.941 196.851   4
  -5   9   2-26.7760 183.105   6
   5  -9  -1-56.7973 228.171   4
  -5   9   1-165.240 192.110   6
   5  -9   0 189.064 179.774   4
  -5   9   0 779.751 280.012   6
   5  -9   1 322.473 211.839   4
  -5   9  -1 257.045 202.145   6
  -5   9  -2 779.054 285.586   6
  -5   9  -3 6492.30 787.252   6
   5  -9   4 1983.35 378.281   1
  -5   9  -4 1466.84 385.282   6
  -5   9  -5-70.0284 222.592   6
  -5   9  -6 976.695 333.893   6
  -5   9  -7 234.252 169.172   6
   5  -8  -9 3379.55 643.857   4
   5  -8  -8 652.930 317.167   4
   5  -8  -7 8498.04 950.252   4
   5  -8  -6 461.084 285.932   4
   5  -8  -5 57.3294 161.882   4
   5  -8  -4 1174.30 387.415   4
   5  -8  -3 741.695 304.782   4
  -5   8   3 210.227 167.147   6
   5  -8  -2 1340.10 336.170   4
  -5   8   2 924.687 278.555   6
   5  -8  -1 267.891 178.899   4
  -5   8   1 145.790 146.505   6
  -5   8   0 521.057 244.953   6
   5  -8   1-246.229 176.743   1
  -5   8  -1-139.143 230.591   6
   5  -8   2 13808.5 991.073   1
  -5   8  -2 11954.7 975.165   6
   5  -8   3 11350.9 870.217   1
  -5   8  -3 12730.2 1025.78   6
   5  -8   4 576.765 237.171   1
  -5   8  -4 742.440 256.393   6
   5  -8   5 7840.86 712.690   1
  -5   8  -5 7178.98 800.702   6
  -5   8  -6 850.856 370.240   6
  -5   8  -7 396.207 208.334   6
  -5   8  -8 165.272 155.209   6
   5  -7 -10 304.799 159.074   4
   5  -7  -9 401.234 216.676   4
   5  -7  -8 2436.90 511.495   4
   5  -7  -7 5709.52 767.472   4
   5  -7  -6 1820.81 433.962   4
   5  -7  -5 141.392 145.717   4
   5  -7  -4 205.171 209.547   4
   5  -7  -3 5768.72 675.500   4
  -5   7   3 5580.28 591.591   6
  -5   7   2-126.484 136.922   6
  -5   7   1 230.270 180.309   6
   5  -7  -1 204.906 122.802   1
  -5   7   0 2325.69 379.644   6
   5  -7   0 1843.62 366.762   1
   5  -7   1-83.2281 122.827   1
  -5   7  -1 16.5435 155.331   6
   5  -7   2 8093.76 727.317   1
  -5   7  -2 7117.81 695.318   6
   5  -7   3 275.712 188.949   1
  -5   7  -3 83.9281 165.225   6
   5  -7   4 726.915 209.407   1
  -5   7  -4 414.701 180.428   6
   5  -7   5 407.906 177.466   1
  -5   7  -5 472.193 241.977   6
   5  -7   6 843.847 247.749   1
  -5   7  -6 363.953 174.919   6
  -5   7  -7 65.0920 191.796   6
  -5   7  -8 414.551 280.285   6
  -5   7  -9 4.78374 265.473   6
   5  -6 -11 14.7108 173.315   4
   5  -6 -10 705.959 302.356   4
   5  -6  -9 1534.46 418.844   4
   5  -6  -8 707.256 297.775   4
   5  -6  -7 7892.84 838.493   4
   5  -6  -6 183.057 149.369   4
   5  -6  -5 3957.43 558.169   4
   5  -6  -4 5614.19 653.413   4
   5  -6  -3 5003.46 605.607   1
  -5   6   3 4090.69 461.394   6
   5  -6  -2 572.704 248.105   1
  -5   6   2 165.536 116.361   6
   5  -6  -1 887.627 290.267   1
  -5   6   1 625.679 195.267   6
  -5   6   0 982.356 229.855   6
   5  -6   0 1090.03 307.969   1
   5  -6   1 3476.74 479.102   1
  -5   6  -1 2720.21 388.034   6
   5  -6   2 12280.6 876.221   1
  -5   6  -2 13563.8 912.224   6
   5  -6   3 16899.3 1016.70   1
  -5   6  -3 16347.1 1039.32   6
   5  -6   4 13678.9 921.204   1
  -5   6  -4 13696.9 998.132   6
  -5   6  -5 2469.71 458.803   6
   5  -6   5 3194.84 460.626   1
  -5   6  -6 182.692 185.615   6
   5  -6   6 361.677 197.877   1
   5  -6   7 312.166 197.512   1
  -5   6  -7 755.843 277.722   6
  -5   6  -8 230.420 247.078   6
  -5   6  -9 135.136 172.386   6
   5  -5 -12 215.760 131.677   4
   5  -5 -11 281.351 147.732   4
   5  -5 -10 35.2023 131.677   4
   5  -5  -9 2892.35 521.638   4
   5  -5  -8-36.9918 159.363   4
   5  -5  -7 3301.14 517.335   4
   5  -5  -6 3673.94 340.534   2
   5  -5  -6 4447.63 581.133   4
   5  -5  -5 5584.83 640.900   4
   5  -5  -4 6238.39 673.565   1
   5  -5  -3 7351.68 706.282   1
  -5   5   3 7644.12 555.628   6
   5  -5  -2 4044.26 514.734   1
  -5   5   2 3459.55 371.796   6
   5  -5  -1 123.224 122.708   1
  -5   5   1-6.06017 84.0936   6
   5  -5   0 340.529 210.892   1
  -5   5   0 173.676 107.158   6
   5  -5   1 4859.06 553.786   1
  -5   5  -1 5079.44 513.348   6
  -5   5  -2 976.471 264.133   6
   5  -5   2 464.611 167.625   1
   5  -5   3 53789.5 1829.72   1
  -5   5  -3 51875.4 1764.32   6
   5  -5   4 2486.60 440.287   1
  -5   5  -4 1995.27 405.555   6
   5  -5   5 563.863 199.598   1
  -5   5  -5 1064.95 318.176   6
  -5   5  -6 7002.97 748.067   6
   5  -5   6 7813.01 736.513   1
   5  -5   7 1225.94 304.161   1
  -5   5  -7 2133.20 466.079   6
   5  -5   8 273.985 111.632   1
  -5   5  -8 370.895 262.038   6
  -5   5  -9 1608.73 473.025   6
   5  -4 -12-122.510 199.847   4
   5  -4 -11 699.031 277.350   4
   5  -4 -10 1835.39 419.402   4
   5  -4  -9-83.5299 156.639   4
   5  -4  -8 149.284 172.079   4
   5  -4  -8-24.0848 120.077   2
   5  -4  -7 5634.24 478.012   2
   5  -4  -7 6200.19 671.147   4
   5  -4  -6 884.975 203.983   2
   5  -4  -6 1029.08 287.275   4
   5  -4  -5 8521.10 764.325   1
   5  -4  -4 20176.1 1143.46   1
  -5   4   4 20125.0 790.057   6
  -5   4   3-27.0882 52.3959   6
   5  -4  -3 151.284 164.108   1
   5  -4  -2 1568.76 326.698   1
  -5   4   2 1648.99 224.964   6
   5  -4  -1-40.1629 100.380   1
  -5   4   1-14.4376 84.3801   6
   5  -4   0 15107.2 954.764   1
  -5   4   0 14462.8 733.294   6
   5  -4   1 11090.3 825.942   1
  -5   4  -1 9789.80 638.162   6
   5  -4   2 43.0807 108.254   1
  -5   4  -2-106.978 162.337   6
   5  -4   3 1055.41 298.997   1
  -5   4  -3 366.357 162.423   6
  -5   4  -4 88420.8 2290.49   6
   5  -4   4 91070.4 2407.58   1
  -5   4  -5 5822.43 626.629   6
   5  -4   5 5513.91 617.539   1
   5  -4   6 2364.74 432.097   1
  -5   4  -6 1928.93 418.818   6
   5  -4   7-132.029 153.400   1
  -5   4  -7-96.5851 154.602   6
   5  -4   8-81.4926 143.338   1
   5  -4   9 1875.49 385.513   1
  -5   3  12 2628.04 561.269   5
   5  -3 -11 262.962 157.754   4
  -5   3  11 229.165 205.016   5
   5  -3 -10 87.5852 129.515   4
   5  -3  -9 358.263 176.068   4
   5  -3  -9 39.7239 115.001   2
   5  -3  -8-62.9424 111.090   4
   5  -3  -8 33.2517 93.8667   2
   5  -3  -7 521.626 165.490   2
   5  -3  -7 527.464 208.209   4
   5  -3  -6-74.1423 228.707   1
   5  -3  -5 1.90886 164.805   1
   5  -3  -4 18751.4 1070.86   1
  -5   3   4 17629.5 587.722   6
   5  -3  -3 1257.70 295.293   1
  -5   3   3 1321.38 160.048   6
   5  -3  -2 808.661 224.081   1
  -5   3   2 758.026 135.777   6
   5  -3  -1 3661.35 475.719   1
  -5   3   1 2930.55 271.942   6
   5  -3   0 5448.06 572.453   1
  -5   3   0 5819.08 423.710   6
   5  -3   0 5905.48 426.475   6
   5  -3   1-95.1177 142.627   1
  -5   3  -1-10.4679 78.9897   6
   5  -3   1-80.4224 75.0345   6
  -5   3  -2 26564.9 1062.71   6
   5  -3   2 28800.2 1327.36   1
  -5   3  -3 40222.3 1411.99   6
   5  -3   3 41436.0 1604.48   1
  -5   3  -4 10681.5 801.742   6
   5  -3   4 9873.95 806.804   1
  -5   3  -5 1028.50 267.362   6
   5  -3   5 1299.75 321.362   1
   5  -3   6 45385.0 1819.75   1
   5  -3   7 241.865 201.256   1
   5  -3   8 1185.74 357.895   1
   5  -3   9 1516.82 390.944   1
   5  -3  10 526.478 259.865   1
  -5   2  12 99.8482 176.809   5
  -5   2  11-64.8864 239.845   5
   5  -2 -10 1303.95 313.829   4
   5  -2 -10 1445.73 316.794   2
  -5   2  10 1124.02 349.980   5
   5  -2  -9 3078.35 461.643   4
   5  -2  -9 3383.82 454.719   2
   5  -2  -8 406.610 189.804   4
   5  -2  -8 134.120 127.019   2
   5  -2  -7 6413.73 602.278   2
   5  -2  -7 6218.25 642.973   1
   5  -2  -6 1770.55 344.852   1
  -5   2   5 36030.9 594.044   6
  -5   2   5 36645.0 603.252   6
   5  -2  -4 24745.0 1205.78   1
   5  -2  -3 3200.69 427.939   1
   5  -2  -2 6725.01 622.681   1
  -5   2   2 6467.66 264.272   6
   5  -2  -1 1123.34 271.873   1
  -5   2   1 1084.33 140.897   6
   5  -2   0 554.339 195.214   1
  -5   2   0 629.749 140.127   6
   5  -2   0 513.265 122.638   6
  -5   2  -1 1464.42 215.117   5
   5  -2   1 1392.07 304.559   1
   5  -2   1 1251.18 205.608   6
   5  -2   2 112.716 187.331   1
  -5   2  -2 20.6341 68.8453   5
  -5   2  -3 7161.16 523.525   5
   5  -2   3 7305.28 701.129   1
   5  -2   4 3018.24 465.549   1
   5  -2   5 15890.6 1087.14   1
   5  -2   6 3588.93 530.854   1
   5  -2   7 1244.18 359.672   1
   5  -2   8-135.244 137.240   1
   5  -2   9 352.329 255.651   1
   5  -2  10 3668.13 622.642   1
   5  -2  11 470.235 249.116   1
  -5   1  12 2112.65 500.565   5
   5  -1 -11 335.793 165.355   2
  -5   1  11-196.081 240.758   5
   5  -1 -10 467.421 183.306   4
   5  -1 -10 491.971 209.954   2
  -5   1  10 817.833 296.520   5
   5  -1  -9 316.701 149.155   4
  -5   1   9 72.2440 132.468   5
   5  -1  -8 320.867 129.918   4
   5  -1  -8 505.324 229.353   2
  -5   1   8 486.541 212.714   5
   5  -1  -7 797.297 235.015   2
   5  -1  -7 1042.47 272.813   1
   5  -1  -6 8019.53 684.612   1
   5  -1  -5 14171.6 905.288   1
   5  -1  -4 536.938 198.197   1
   5  -1  -3 3463.20 461.140   1
   5  -1  -2 472.940 185.055   1
   5  -1  -1 5705.79 277.372   6
   5  -1  -1 8443.99 703.103   1
  -5   1   0 439.791 109.759   5
   5  -1   0 472.286 202.609   1
   5  -1   0 588.381 123.964   6
   5  -1   1 165.482 93.8239   6
   5  -1   1 223.418 184.174   1
  -5   1  -1 100.240 43.3471   5
   5  -1   2 351.110 190.335   1
  -5   1  -2 434.168 106.820   5
   5  -1   3 615.503 238.666   1
  -5   1  -3 739.853 155.514   5
   5  -1   4 605.436 286.359   1
   5  -1   5 7293.83 758.223   1
   5  -1   6 18861.8 1243.28   1
   5  -1   7 2283.59 461.360   1
   5  -1   8 972.471 258.459   5
   5  -1   8 475.552 235.485   1
   5  -1   9-173.333 194.982   1
   5  -1  10 1143.59 372.532   1
   5   0 -12 336.314 186.767   2
  -5   0  12 400.491 240.227   5
   5   0 -11 745.156 275.888   2
  -5   0  11 235.562 138.971   5
   5   0 -10 1329.27 334.286   2
  -5   0  10 1586.92 393.586   5
   5   0  -9 9997.12 716.050   4
   5   0  -9 10724.9 906.971   2
  -5   0   9 10557.5 888.999   5
   5   0  -8 476.018 184.053   1
   5   0  -8 710.289 251.388   2
  -5   0   8 617.737 216.983   5
   5   0  -7 2906.03 443.003   2
   5   0  -7 2315.69 372.669   1
  -5   0   7 3325.80 431.977   5
   5   0  -6 230.204 182.750   2
   5   0  -6 109.034 102.643   1
  -5   0   6 516.165 198.939   5
   5   0  -5 22359.6 1097.47   1
  -5   0   5 24285.0 1003.12   5
   5   0  -4 76592.1 2060.87   1
   5   0  -3 1011.67 245.072   1
   5   0  -2 35.1796 156.029   1
   5   0  -1 1689.19 341.703   1
   5   0  -1 1365.40 132.935   6
   5   0   0 6748.18 394.120   6
  -5   0   0 6301.45 236.878   5
   5   0   0 6516.32 643.442   1
   5   0   1 351.476 127.338   6
  -5   0  -1 238.084 50.1468   5
   5   0   2 225.856 164.234   1
   5   0   3 364.687 219.455   1
   5   0   4 12509.1 990.224   1
   5   0   5 672.506 295.504   1
   5   0   6 3420.80 563.954   1
   5   0   7 283.727 232.716   1
   5   0   8 742.630 321.700   1
   5   0   9-326.142 209.276   1
   5   0  10 511.417 239.648   1
   5   1 -13-148.514 286.839   2
   5   1 -12 152.568 187.479   2
  -5  -1  12-123.238 218.762   5
   5   1 -11 1252.49 340.778   2
  -5  -1  11 924.077 288.433   5
   5   1 -10 871.666 269.883   2
  -5  -1  10 935.134 274.327   5
   5   1  -9 1148.67 348.801   2
  -5  -1   9 815.114 272.169   5
   5   1  -8 815.314 272.487   2
   5   1  -8 528.668 201.512   1
  -5  -1   8 54.7696 139.065   5
   5   1  -7 131.516 123.880   2
   5   1  -7 69.9269 74.9835   1
  -5  -1   7 227.313 140.164   5
   5   1  -6-155.729 165.730   2
   5   1  -6-162.074 123.270   1
  -5  -1   6-43.5012 102.049   5
   5   1  -5-66.7463 202.111   1
  -5  -1   5 263.572 108.204   5
  -5  -1   4 71968.8 1418.38   5
   5   1  -4 75276.9 2054.68   1
  -5  -1   3 30812.7 758.285   5
   5   1  -3 32030.4 1354.24   1
   5   1  -2 340.580 171.584   1
   5   1  -1 1641.46 165.627   6
   5   1  -1 1416.67 310.295   1
   5   1   0 444.848 122.164   6
   5   1   0 304.408 211.825   1
   5   1   1 2130.13 275.442   6
   5   1   1 2379.18 426.762   1
   5   1   2 356.841 130.172   1
   5   1   3 380.700 183.966   1
   5   1   4 208.329 220.130   1
   5   1   5 1776.27 425.588   1
   5   1   6 2635.53 516.465   1
   5   1   7 1539.79 437.686   1
   5   1   8 17.1363 181.381   1
   5   1   9 77.0824 157.958   1
   5   2 -12 594.836 353.197   2
  -5  -2  12-15.8251 138.433   5
   5   2 -11 408.258 225.484   2
  -5  -2  11 252.421 210.526   5
   5   2 -10 2365.13 474.089   2
  -5  -2  10 2685.17 470.547   5
   5   2  -9 472.489 273.500   2
  -5  -2   9 547.207 213.987   5
   5   2  -8 5842.94 709.971   2
   5   2  -8 6199.87 567.942   1
  -5  -2   8 6376.51 643.295   5
   5   2  -7 469.131 197.791   2
   5   2  -7 233.207 132.970   1
  -5  -2   7 461.052 170.855   5
   5   2  -6 4109.82 464.596   1
   5   2  -6 4777.96 607.644   2
  -5  -2   6 3994.32 416.924   5
   5   2  -5 7594.29 664.471   1
  -5  -2   5 7877.08 523.829   5
  -5  -2   4 16101.2 612.270   5
   5   2  -4 11868.4 833.546   1
  -5  -2   3 81111.8 945.954   5
   5   2  -3 92635.1 2340.29   1
   5   2  -2 5110.06 276.195   6
   5   2  -2 5248.86 590.233   1
   5   2  -1 543.070 199.854   1
   5   2   0 2572.47 434.669   1
   5   2   1 3635.68 522.713   1
   5   2   2 448.849 165.666   1
   5   2   3-28.1347 150.488   1
   5   2   4 1730.45 422.176   1
   5   2   5 211.424 273.733   1
   5   2   6 1784.74 448.844   1
  -5  -2  -6 2287.34 502.669   3
   5   2   7 1555.62 414.211   1
  -5  -2  -7 1661.94 425.045   3
   5   2   8 208.434 156.586   1
  -5  -2  -8 908.572 385.036   3
  -5  -2  -9 195.237 251.412   3
  -5  -3  12 567.813 262.573   5
   5   3 -11 2174.70 540.294   2
  -5  -3  11 2224.43 462.938   5
   5   3 -10-305.524 275.423   2
  -5  -3  10 46.0144 115.666   5
   5   3  -9 176.249 148.616   2
  -5  -3   9 117.779 111.998   5
   5   3  -8 1491.88 362.122   2
  -5  -3   8 1321.05 276.008   5
   5   3  -7 579.543 159.089   1
   5   3  -7 708.346 293.356   2
  -5  -3   7 972.163 237.722   5
  -5  -3   6 1743.88 271.987   5
   5   3  -6 1633.54 375.460   2
   5   3  -6 1893.88 335.345   1
   5   3  -5 10827.3 951.329   2
   5   3  -5 6965.37 624.694   1
   5   3  -4 17653.5 1028.04   1
   5   3  -3 44959.5 1662.03   1
   5   3  -2 359.095 68.0232   6
   5   3  -2 471.916 211.074   1
   5   3  -1 15861.5 1042.81   1
   5   3   0 2066.68 399.933   1
   5   3   1 4098.28 576.388   1
   5   3   2 3555.49 560.530   1
   5   3   3 227.230 223.673   1
   5   3   4 8.74592 127.540   1
   5   3   5 649.027 279.770   1
  -5  -3  -5 618.398 224.212   3
   5   3   6 1001.60 378.769   1
  -5  -3  -6 265.094 186.830   3
   5   3   7 919.061 326.858   1
  -5  -3  -7 967.739 358.772   3
   5   4 -10-41.7989 214.086   2
   5   4  -9 434.254 298.471   2
   5   4  -8 190.620 229.227   2
   5   4  -7 788.764 294.572   2
   5   4  -6-111.088 241.430   2
   5   4  -6 25.9297 96.6439   1
   5   4  -5 3986.19 596.984   2
   5   4  -5 3140.85 435.053   1
   5   4  -4 1423.31 302.221   1
   5   4  -3 4233.62 543.217   1
   5   4  -2 131.361 131.579   1
   5   4  -1 1338.70 365.675   1
   5   4   0-34.7101 135.206   1
   5   4   1 2681.64 477.220   1
   5   4   2-1.38665 145.438   1
   5   4   3 380.422 181.602   1
  -5  -4  -4 119.985 229.488   3
   5   4   4-318.188 274.004   1
   5   4   5 739.638 327.261   1
  -5  -4  -5 713.300 291.568   3
   5   4   6 522.378 186.980   1
  -5  -4  -6 426.563 299.436   3
   5   5  -9 162.238 212.093   2
   5   5  -8 2196.07 517.823   2
   5   5  -7 818.054 326.697   2
   5   5  -6-53.7552 226.425   2
   5   5  -5 1452.96 309.946   1
   5   5  -5 2056.10 470.692   2
   5   5  -4 154.412 175.107   2
   5   5  -4-51.7400 156.268   1
   5   5  -3 5958.34 640.468   1
   5   5  -2 8176.85 779.849   1
   5   5  -1 1869.88 405.361   1
   5   5   0 860.909 278.901   1
   5   5   1 1016.68 317.024   1
   5   5   2 1865.04 434.635   1
   5   5   3 1310.25 376.091   1
   5   5   4 383.428 220.329   1
  -5  -5  -4-444.896 260.062   3
   5   6  -7 281.837 283.858   2
   5   6  -6 463.874 260.058   2
   5   6  -5-228.827 277.090   2
   5   6  -4-201.338 253.233   2
   5   6  -3 8059.75 911.623   2
   5   6  -3 7307.58 749.417   1
   5   6  -2 2077.73 454.127   1
   5   6  -1 282.154 171.174   1
   5   6   0-129.909 178.996   1
   5   6   1-71.7101 130.505   1
   5   6   2-240.171 254.868   1
   5   6   3 90.7333 161.450   1
   5   7  -5 15.7339 210.001   2
   5   7  -4-103.618 206.105   2
   5   7  -3 2526.57 572.217   2
   5   7  -2 3784.05 682.690   2
   5   7  -2 3828.52 596.344   1
   5   7  -1 550.600 332.292   2
   5   7  -1 970.985 317.026   1
   5   7   0 1250.78 396.932   1
   5   7   1-73.0149 140.699   1
   5   7   2 132.412 174.131   1
   5   8   0 256.956 227.255   1
   6 -12   0 356.640 291.079   4
   6 -12   1 211.382 210.238   4
   6 -12   2 1418.52 432.663   4
  -6  11   6 189.730 187.693   6
  -6  11   5-89.0539 196.557   6
  -6  11   4-49.5260 163.677   6
   6 -11  -3 45.1261 239.018   4
  -6  11   3 13.6932 163.717   6
   6 -11  -2 112.461 178.564   4
  -6  11   2 677.085 259.283   6
   6 -11  -1-28.2262 134.583   4
  -6  11   1 324.877 150.208   6
   6 -11   0 49.9814 170.357   4
  -6  11   0 178.886 221.792   6
   6 -11   1 2016.51 443.578   4
  -6  11  -1 2474.72 547.235   6
   6 -11   2 2173.41 455.068   4
  -6  11  -2 2314.64 529.194   6
   6 -11   3 1112.96 340.419   4
  -6  11  -3 880.661 351.443   6
  -6  10   6-139.153 214.063   6
   6 -10  -5 4.86922 172.663   4
  -6  10   5 175.236 213.421   6
   6 -10  -4 899.223 314.845   4
  -6  10   4 823.780 315.555   6
   6 -10  -3 567.530 334.184   4
  -6  10   3 479.535 216.373   6
   6 -10  -2 118.151 205.336   4
  -6  10   2 342.781 218.495   6
   6 -10  -1 251.725 200.149   4
  -6  10   1 886.716 313.837   6
   6 -10   0 1293.45 369.075   4
  -6  10   0 1128.83 331.696   6
   6 -10   1 889.514 332.346   4
  -6  10  -1 1350.18 394.901   6
   6 -10   2 320.792 150.508   4
  -6  10  -2 675.265 329.141   6
  -6  10  -3 170.223 153.102   6
  -6  10  -4 161.015 216.320   6
  -6  10  -5 27.0121 162.298   6
   6  -9  -7 1657.59 454.556   4
   6  -9  -6 2313.54 524.219   4
   6  -9  -5 269.553 164.536   4
  -6   9   5 374.192 246.020   6
   6  -9  -4 569.255 277.121   4
  -6   9   4 63.9559 187.203   6
   6  -9  -3 42.9841 149.673   4
  -6   9   3-195.707 159.280   6
   6  -9  -2 1678.54 447.122   4
  -6   9   2 2040.42 419.856   6
   6  -9  -1 21.3673 174.957   4
  -6   9   1 83.6623 120.183   6
  -6   9   0 1413.68 348.391   6
   6  -9   1 7476.36 817.255   1
  -6   9  -1 6644.98 773.696   6
   6  -9   2 6287.61 740.969   1
  -6   9  -2 8043.12 862.215   6
  -6   9  -3 722.810 336.554   6
   6  -9   3 436.289 176.712   1
   6  -9   4 880.677 268.243   1
  -6   9  -4 557.053 251.157   6
  -6   9  -5-176.818 277.360   6
  -6   9  -6 258.465 247.664   6
   6  -8  -8 2620.77 545.977   4
   6  -8  -7 3415.56 634.348   4
   6  -8  -6 401.040 231.010   4
   6  -8  -5 4353.28 661.642   4
  -6   8   5 3838.09 533.048   6
   6  -8  -4 182.683 134.007   4
  -6   8   4 441.914 206.240   6
   6  -8  -3 3012.44 538.037   4
  -6   8   3 2909.21 466.057   6
  -6   8   2 0.35746 115.531   6
   6  -8  -1-178.637 235.271   1
  -6   8   1 161.488 148.027   6
   6  -8   0 18.3088 184.414   1
  -6   8   0-128.831 146.144   6
   6  -8   1 923.601 312.747   1
  -6   8  -1 679.483 242.658   6
   6  -8   2 531.814 276.819   1
  -6   8  -2 36.8897 142.941   6
  -6   8  -3 4490.14 628.078   6
   6  -8   3 3692.37 570.134   1
  -6   8  -4 708.848 252.266   6
   6  -8   4 1729.19 394.209   1
   6  -8   5 293.294 247.688   1
  -6   8  -5-188.875 236.990   6
  -6   8  -6 112.317 164.154   6
  -6   8  -7 362.325 215.314   6
   6  -7  -9 882.006 379.891   4
   6  -7  -8 1366.51 399.625   4
   6  -7  -7 2178.63 499.182   4
   6  -7  -6 6237.89 788.101   4
   6  -7  -5 771.641 288.778   4
  -6   7   5 1546.12 321.293   6
   6  -7  -4 1735.78 395.919   4
  -6   7   4 1884.78 352.503   6
   6  -7  -3 104.205 160.195   1
  -6   7   3 220.800 179.215   6
   6  -7  -2 486.994 214.737   1
  -6   7   2 301.039 144.797   6
   6  -7  -1 879.056 270.830   1
  -6   7   1 589.403 183.579   6
   6  -7   0 190.327 200.619   1
  -6   7   0-1.28099 149.297   6
  -6   7  -1 3460.83 490.018   6
   6  -7   1 3313.34 529.546   1
   6  -7   2 5670.51 661.973   1
  -6   7  -2 4693.25 591.868   6
   6  -7   3 5500.37 649.453   1
  -6   7  -3 4908.01 629.747   6
   6  -7   4 3024.64 494.338   1
  -6   7  -4 2901.53 493.272   6
   6  -7   5 646.772 278.982   1
  -6   7  -5 233.894 174.810   6
  -6   7  -6 982.399 377.409   6
   6  -7   6 1389.19 364.886   1
  -6   7  -7 448.822 240.720   6
  -6   7  -8 3147.44 618.356   6
   6  -6 -11 69.9817 231.955   4
   6  -6 -10-154.293 134.528   4
   6  -6  -9 58.7773 223.148   4
   6  -6  -8 204.499 162.649   4
   6  -6  -7 306.695 236.184   4
   6  -6  -6-251.349 259.012   4
   6  -6  -5 2777.94 512.920   4
  -6   6   5 3188.01 407.426   6
   6  -6  -4 2589.40 481.649   1
  -6   6   4 2815.59 374.960   6
  -6   6   3 537.727 187.747   6
   6  -6  -3 589.784 256.261   1
   6  -6  -2 5357.58 670.192   1
  -6   6   2 5048.14 500.183   6
   6  -6  -1 6498.69 715.064   1
  -6   6   1 6833.29 594.224   6
   6  -6   0 788.443 273.679   1
  -6   6   0 678.108 214.804   6
   6  -6   1 6195.20 699.881   1
  -6   6  -1 5241.94 568.216   6
   6  -6   2 8260.93 800.779   1
  -6   6  -2 8042.72 725.646   6
  -6   6  -3 1235.03 316.250   6
   6  -6   3 1486.66 377.039   1
  -6   6  -4-43.0710 124.604   6
   6  -6   4-49.9268 157.391   1
  -6   6  -5 1463.60 366.885   6
   6  -6   5 2708.70 464.953   1
   6  -6   6 9705.49 895.936   1
  -6   6  -6 9152.36 911.290   6
   6  -6   7 1290.05 334.488   1
  -6   6  -7 1709.88 439.397   6
  -6   6  -8 4166.31 715.862   6
   6  -5 -12-368.234 229.516   4
   6  -5 -11 43.6816 131.026   4
   6  -5 -10 322.284 198.015   4
   6  -5  -9 260.283 216.302   4
   6  -5  -8 1068.98 307.104   4
   6  -5  -7 7527.71 813.407   4
   6  -5  -6 18676.9 1248.65   4
   6  -5  -5 6312.41 735.655   1
  -6   5   5 6134.97 493.615   6
   6  -5  -4 5813.12 679.393   1
  -6   5   4 4925.67 429.595   6
  -6   5   3 2002.12 281.270   6
   6  -5  -3 1794.25 376.946   1
   6  -5  -2 2043.50 399.866   1
  -6   5   2 1376.88 231.537   6
   6  -5  -1-64.5218 140.490   1
  -6   5   1 174.886 128.095   6
   6  -5   0 22098.7 1276.21   1
  -6   5   0 20706.8 973.581   6
   6  -5   1 22061.8 1284.09   1
  -6   5  -1 22110.5 1072.41   6
  -6   5  -2 1021.14 291.610   6
   6  -5   2 1122.72 338.844   1
   6  -5   3 5366.50 641.678   1
  -6   5  -3 5725.57 611.531   6
   6  -5   4 75.3370 149.162   1
  -6   5  -4 453.310 229.527   6
  -6   5  -5 5605.60 676.525   6
   6  -5   5 6226.34 723.759   1
   6  -5   6-65.7013 133.936   1
  -6   5  -6 311.533 207.933   6
   6  -5   7 350.603 160.973   1
  -6   5  -7 726.187 294.632   6
   6  -5   8 2337.19 526.197   1
   6  -4 -11 479.775 250.271   4
   6  -4 -10 291.478 177.210   4
   6  -4  -9-237.943 214.564   4
   6  -4  -8 2518.27 466.904   4
   6  -4  -7 6824.06 610.597   2
   6  -4  -7 6880.80 741.845   4
   6  -4  -6 7177.86 772.642   1
   6  -4  -5 47.2811 157.732   1
  -6   4   5 65.3654 69.0384   6
  -6   4   4 2866.65 267.198   6
   6  -4  -4 2444.56 449.929   1
   6  -4  -3 230.902 140.381   1
  -6   4   3 234.586 93.4146   6
   6  -4  -2 116.313 203.924   1
  -6   4   2 151.364 93.2234   6
   6  -4  -1 6172.35 687.197   1
  -6   4   1 5179.49 411.782   6
  -6   4   0 22.0276 84.9400   6
   6  -4   0-46.9187 162.246   1
   6  -4   1 2649.55 474.752   1
  -6   4  -1 2725.86 356.187   6
  -6   4  -2 4257.09 455.834   6
   6  -4   2 4830.38 609.506   1
   6  -4   3-48.0776 149.217   1
  -6   4  -3-92.9331 110.879   6
   6  -4   4 133.263 171.952   1
  -6   4  -4-38.0088 146.020   6
   6  -4   5 35.6774 172.613   1
  -6   4  -5 116.209 242.212   6
   6  -4   6 4287.97 619.431   1
   6  -4   7 1978.43 440.698   1
   6  -4   8 3127.12 550.964   1
   6  -4   9-148.439 175.553   1
  -6   3  11 567.470 327.649   5
   6  -3 -10 302.357 202.244   4
   6  -3  -9 92.4507 116.421   4
   6  -3  -9 124.721 150.804   2
   6  -3  -8 416.227 173.198   4
   6  -3  -8 554.667 227.711   2
   6  -3  -7 137.072 146.024   2
   6  -3  -7-61.5768 149.030   1
   6  -3  -6 24895.1 1398.35   1
   6  -3  -5 19151.5 1194.07   1
   6  -3  -4 8942.48 815.464   1
   6  -3  -3-55.9097 130.289   1
  -6   3   3 95.0307 49.0739   6
  -6   3   2 3234.85 240.008   6
   6  -3  -2 3501.78 521.426   1
  -6   3   1 171.718 93.3629   6
   6  -3  -1 58.7187 119.956   1
  -6   3   0 6405.77 460.565   6
   6  -3   0 6135.76 446.333   6
   6  -3   0 7546.07 737.806   1
   6  -3   1 507.723 213.810   1
  -6   3  -1 373.098 106.204   6
   6  -3   2-283.647 264.142   1
  -6   3  -2 48.8261 109.950   6
   6  -3   3-59.0898 184.671   1
   6  -3   4 5205.49 653.143   1
   6  -3   5 3549.19 545.713   1
   6  -3   6 1305.64 368.346   1
   6  -3   7-143.239 184.477   1
   6  -3   8-250.190 260.613   1
   6  -3   9 61.6071 232.992   1
   6  -3  10 537.301 288.520   1
  -6   2  12 742.710 319.823   5
  -6   2  11 2291.03 475.621   5
   6  -2 -10-82.2484 122.655   4
   6  -2 -10-32.4982 161.818   2
  -6   2  10-14.7678 143.380   5
   6  -2  -9 1476.62 340.071   4
   6  -2  -9 2117.66 402.596   2
   6  -2  -8 3415.54 492.255   2
   6  -2  -7 225.839 141.616   2
   6  -2  -7 167.326 146.371   1
   6  -2  -6 17187.5 1122.30   1
   6  -2  -5 232.262 177.341   1
   6  -2  -4 15188.3 1035.39   1
   6  -2  -3 30605.2 1468.95   1
   6  -2  -2 722.465 263.844   1
   6  -2  -1 1346.82 320.169   1
   6  -2   0 52.9963 107.672   1
   6  -2   1 1812.85 408.580   1
   6  -2   2-86.0012 200.225   1
   6  -2   3 307.991 176.594   1
   6  -2   4 373.514 198.170   1
   6  -2   5 522.615 242.230   1
   6  -2   6 98.0864 214.355   1
   6  -2   7-292.647 234.487   1
   6  -2   8 310.359 199.805   1
   6  -2   9 113.281 169.291   1
  -6   1  12-15.9130 232.534   5
   6  -1 -11 382.183 218.144   2
  -6   1  11 931.392 331.596   5
   6  -1 -10-29.9323 140.365   2
  -6   1  10 39.1749 142.829   5
   6  -1  -9 415.918 196.939   4
   6  -1  -9 194.816 163.661   2
  -6   1   9 127.206 119.033   5
   6  -1  -8-192.965 197.518   2
   6  -1  -8-96.8368 120.332   1
  -6   1   8 73.2333 113.406   5
   6  -1  -7 4.87688 149.103   2
   6  -1  -7-147.637 189.097   1
  -6   1   7 33.3932 143.728   5
   6  -1  -6 1737.74 370.315   1
   6  -1  -5 3953.36 539.311   1
   6  -1  -4 38031.9 1627.63   1
   6  -1  -3 5973.95 669.137   1
   6  -1  -2 7307.69 746.494   1
   6  -1  -1 737.987 277.624   1
   6  -1   0 432.723 217.826   1
   6  -1   1 7034.40 746.200   1
   6  -1   2 286.482 190.245   1
   6  -1   3 367.972 202.129   1
   6  -1   4-85.4993 152.549   1
   6  -1   5 435.926 215.692   1
   6  -1   6 234.746 146.628   1
   6  -1   7-7.45958 184.527   1
   6  -1   8 16.9912 193.455   1
   6   0 -12 65.8185 141.700   2
  -6   0  12 203.544 227.174   5
   6   0 -11 186.578 140.751   2
  -6   0  11 1042.47 351.908   5
   6   0 -10 961.472 357.896   2
  -6   0  10 1003.41 288.247   5
   6   0  -9-120.923 176.266   2
  -6   0   9 133.401 114.101   5
   6   0  -8 5154.85 658.239   2
   6   0  -8 5649.07 633.715   1
  -6   0   8 4829.34 573.920   5
   6   0  -7 3604.03 554.929   2
   6   0  -7 2678.27 434.932   1
  -6   0   7 3382.48 445.571   5
   6   0  -6 331.156 194.046   1
  -6   0   6 572.835 214.981   5
   6   0  -5 14324.2 992.947   1
  -6   0   5 17964.1 855.186   5
   6   0  -4 32.3962 127.755   1
  -6   0   4-45.2311 78.8359   5
  -6   0   3 11043.3 510.661   5
   6   0  -3 12717.4 955.898   1
   6   0  -2 13546.8 996.950   1
   6   0  -1 421.665 180.246   1
   6   0   0 2547.84 478.841   1
   6   0   1 4600.03 615.772   1
   6   0   2-113.923 181.980   1
   6   0   3 712.649 265.678   1
   6   0   4 28.3477 159.198   1
   6   0   5 409.194 244.625   1
   6   0   6 2090.50 500.890   1
   6   0   7 407.527 256.236   1
   6   0   8 483.026 293.946   1
   6   1 -12 86.3301 204.725   2
  -6  -1  12 217.342 211.361   5
   6   1 -11-208.788 262.726   2
  -6  -1  11 193.410 153.792   5
   6   1 -10 800.415 292.255   2
  -6  -1  10 1094.29 315.533   5
   6   1  -9 60.9681 229.836   2
  -6  -1   9 20.1732 132.791   5
   6   1  -8 93.6716 138.518   2
   6   1  -8 400.539 184.973   1
  -6  -1   8 108.638 105.715   5
   6   1  -7 6543.05 765.791   2
   6   1  -7 6145.08 653.107   1
  -6  -1   7 5718.75 552.320   5
   6   1  -6 7420.29 711.918   1
   6   1  -5 6851.40 694.195   1
   6   1  -4 8449.96 770.567   1
   6   1  -3 3973.02 559.243   1
   6   1  -2 124.052 138.220   1
   6   1  -1 84.1437 158.724   1
   6   1   0-110.592 192.243   1
   6   1   1 10765.4 944.115   1
   6   1   2 900.254 280.575   1
   6   1   3 644.270 299.614   1
   6   1   4 1723.72 429.336   1
   6   1   5 140.246 134.924   1
   6   1   6 245.271 157.311   1
   6   1   7-309.418 160.268   1
   6   2 -11-273.598 263.680   2
   6   2 -10 450.804 281.099   2
   6   2  -9 668.541 252.037   2
   6   2  -8 5334.26 742.818   2
   6   2  -7 620.860 303.854   2
   6   2  -7 431.886 201.003   1
   6   2  -6 982.346 343.264   2
   6   2  -6 960.175 271.493   1
   6   2  -5 8081.39 753.442   1
   6   2  -4-358.678 194.257   1
   6   2  -3 3261.12 504.457   1
   6   2  -2 2796.14 470.107   1
   6   2  -1-0.40658 151.048   1
   6   2   0 11.8958 172.986   1
   6   2   1 2584.44 475.164   1
   6   2   2 1953.19 451.083   1
   6   2   3 1933.89 447.100   1
   6   2   4 64.4175 192.998   1
   6   2   5 193.390 223.110   1
   6   2   6 882.779 403.587   1
   6   3 -10 126.558 186.362   2
   6   3  -9 611.117 338.963   2
   6   3  -8 1400.37 398.377   2
   6   3  -7 121.872 177.222   2
   6   3  -6 422.080 217.845   2
   6   3  -6 275.122 145.468   1
   6   3  -5 246.950 152.673   1
   6   3  -4 1909.67 394.780   1
   6   3  -3 1748.45 372.505   1
   6   3  -2 159.104 167.078   1
   6   3  -1-102.292 162.919   1
   6   3   0 122.818 194.410   1
   6   3   1 105.143 173.183   1
   6   3   2 528.508 285.105   1
   6   3   3-302.405 262.133   1
   6   3   4-32.1459 222.609   1
   6   3   5 658.957 310.214   1
   6   4  -8-225.643 268.737   2
   6   4  -7 939.072 348.123   2
   6   4  -6 121.279 186.202   2
   6   4  -5-54.4759 185.643   2
   6   4  -5-51.2565 169.329   1
   6   4  -4-161.108 104.029   1
   6   4  -3 3685.18 545.544   1
   6   4  -2 869.701 320.641   1
   6   4  -1 670.422 259.990   1
   6   4   0 237.491 174.336   1
   6   4   1-104.844 191.369   1
   6   4   2 858.005 370.398   1
   6   4   3 3827.42 662.343   1
   6   5  -6 282.930 273.889   2
   6   5  -5 109.243 187.108   2
   6   5  -4 5.86203 168.221   1
   6   5  -4 97.6494 211.507   2
   6   5  -3 191.600 130.253   1
   6   5  -2 1617.98 423.049   1
   6   5  -1 35.9779 198.183   1
   6   5   0 151.590 264.898   1
   6   5   1 768.950 368.978   1
   6   5   2 2264.72 525.221   1
   6   6  -2 173.283 188.821   1
   6   6  -1 1964.14 460.860   1
   6   6   0 609.838 274.947   1
  -7  11   3 796.215 336.188   6
  -7  11   2 1140.63 393.967   6
  -7  11   1 741.467 313.092   6
  -7  11   0 213.316 191.210   6
   7 -11   1 245.225 206.715   4
  -7  11  -1 104.127 164.007   6
   7 -11   2-227.899 239.147   4
  -7  11  -2 167.483 162.537   6
   7 -11   3 1075.40 382.318   4
   7 -10  -3 327.390 220.998   4
  -7  10   3 905.655 295.605   6
   7 -10  -2 477.953 285.084   4
  -7  10   2 388.762 246.698   6
   7 -10  -1-402.395 245.230   4
  -7  10   1-102.895 136.254   6
   7 -10   0 517.879 313.135   4
  -7  10   0 352.314 199.269   6
  -7  10  -1-91.6710 117.296   6
  -7  10  -2 371.559 249.105   6
   7 -10   2 930.581 293.817   1
  -7  10  -3 100.602 196.126   6
   7 -10   3 12.7832 148.835   1
  -7  10  -4-243.250 280.092   6
   7  -9  -5 60.5674 187.527   4
   7  -9  -4 291.917 280.386   4
   7  -9  -3-63.3655 143.050   4
  -7   9   3 380.514 219.405   6
   7  -9  -2 1703.90 471.537   4
  -7   9   2 830.876 297.590   6
   7  -9  -1 385.199 336.802   1
  -7   9   1 106.554 129.284   6
  -7   9   0-29.0900 184.463   6
   7  -9   0 297.936 288.114   1
   7  -9   1 631.595 264.588   1
  -7   9  -1 175.669 191.792   6
   7  -9   2-26.8732 211.263   1
  -7   9  -2 13.9160 182.078   6
   7  -9   3-456.849 245.210   1
  -7   9  -3 169.089 177.775   6
   7  -9   4 125.307 208.485   1
  -7   9  -4-95.9059 181.958   6
  -7   9  -5-54.1320 198.432   6
   7  -8  -7 2997.25 622.457   4
   7  -8  -6 1563.91 431.636   4
   7  -8  -5-137.944 161.688   4
   7  -8  -4 66.9332 204.485   4
   7  -8  -3 26.4588 198.633   1
  -7   8   3 218.072 164.487   6
  -7   8   2 1427.42 330.981   6
   7  -8  -2 1719.61 455.844   1
  -7   8   1 1561.16 341.264   6
   7  -8  -1 1712.06 441.947   1
   7  -8   0 84.9384 200.956   1
  -7   8   0 291.868 173.808   6
   7  -8   1 1406.37 400.085   1
  -7   8  -1 1896.81 405.565   6
  -7   8  -2 262.748 188.089   6
   7  -8   2 279.433 204.857   1
   7  -8   3 1283.02 338.832   1
  -7   8  -3 1199.70 313.796   6
   7  -8   4 513.983 315.551   1
  -7   8  -4 272.718 221.477   6
   7  -8   5 2376.41 487.853   1
  -7   8  -5 2462.07 505.332   6
  -7   8  -6 321.372 223.164   6
   7  -7  -8 458.458 254.610   4
   7  -7  -7-17.8898 197.552   4
   7  -7  -6 1798.94 462.093   4
   7  -7  -5-151.646 222.497   4
   7  -7  -4 1699.56 465.468   1
   7  -7  -3 347.634 201.681   1
   7  -7  -2 6163.50 781.290   1
  -7   7   2 4948.27 542.710   6
   7  -7  -1 3651.05 607.279   1
  -7   7   1 3133.48 437.990   6
  -7   7   0-171.162 146.247   6
   7  -7   0 7.55289 181.282   1
   7  -7   1 645.228 312.198   1
  -7   7  -1 779.450 267.802   6
   7  -7   2 133.805 190.261   1
  -7   7  -2 224.012 161.139   6
   7  -7   3 1522.37 410.381   1
  -7   7  -3 676.391 227.000   6
   7  -7   4 2666.64 507.440   1
  -7   7  -4 2029.58 433.663   6
  -7   7  -5-184.909 244.585   6
   7  -7   5 145.589 161.550   1
  -7   7  -6-82.6705 249.648   6
   7  -7   6-266.171 157.304   1
  -7   7  -7 180.171 191.089   6
   7  -6  -9 1450.90 443.535   4
   7  -6  -8-222.391 241.245   4
   7  -6  -7 3833.34 637.291   4
   7  -6  -6 5836.78 761.129   4
   7  -6  -5 862.231 334.575   1
   7  -6  -4-52.8646 221.614   1
   7  -6  -3 181.199 185.893   1
   7  -6  -2 9119.12 929.822   1
   7  -6  -1 5268.93 712.570   1
  -7   6   1 5521.01 535.129   6
   7  -6   0 295.123 177.304   1
  -7   6   0 744.690 206.565   6
   7  -6   1 1346.73 397.140   1
  -7   6  -1 562.266 226.696   6
  -7   6  -2 562.383 226.205   6
   7  -6   2 67.4797 134.900   1
  -7   6  -3 266.174 179.041   6
   7  -6   3 351.133 229.317   1
  -7   6  -4 221.018 130.183   6
   7  -6   4 614.917 288.127   1
  -7   6  -5 658.616 299.210   6
   7  -6   5 309.063 158.649   1
  -7   6  -6 4785.94 705.160   6
   7  -6   6 5654.12 764.196   1
  -7   6  -7 55.7740 170.372   6
   7  -6   7 131.015 203.694   1
   7  -5 -11-89.4079 141.239   4
   7  -5 -10 433.088 215.067   4
   7  -5  -9-76.9445 155.748   4
   7  -5  -8 351.383 276.112   4
   7  -5  -7 254.165 204.683   4
   7  -5  -6 693.093 270.596   1
   7  -5  -5-119.184 174.512   1
   7  -5  -4 4485.55 651.630   1
   7  -5  -3 6573.05 781.081   1
   7  -5  -2 8393.59 876.919   1
   7  -5  -1 182.635 164.781   1
  -7   5   0 318.256 91.2126   6
   7  -5   0 327.142 239.342   1
  -7   5  -1 1707.26 323.638   6
   7  -5   1 1758.75 395.056   1
  -7   5  -2 1816.35 332.504   6
   7  -5   2 964.102 292.375   1
  -7   5  -3 86.6815 163.736   6
   7  -5   3-9.52066 137.287   1
   7  -5   4 941.976 317.313   1
  -7   5  -4 821.885 257.470   6
  -7   5  -5 2047.29 426.629   6
   7  -5   5 1957.67 490.582   1
   7  -5   6 832.493 332.169   1
   7  -5   7 107.701 168.302   1
   7  -5   8 68.6329 148.066   1
   7  -4 -10 2245.05 476.719   4
   7  -4  -9 60.1834 170.094   4
   7  -4  -8 4128.62 648.183   4
   7  -4  -7 329.786 271.252   1
   7  -4  -6 280.782 199.952   1
   7  -4  -5 31.3931 169.033   1
   7  -4  -4 5938.83 728.500   1
   7  -4  -3 1393.26 360.487   1
   7  -4  -2 13127.7 1085.36   1
   7  -4  -1 5133.93 667.863   1
   7  -4   0 204.753 222.369   1
   7  -4   1 6028.73 744.765   1
  -7   4  -1 6040.26 535.854   6
  -7   4  -2 129.227 110.848   6
   7  -4   2 86.9995 158.342   1
   7  -4   3-12.5699 143.109   1
   7  -4   4 360.709 252.295   1
   7  -4   5 1009.39 354.431   1
   7  -4   6 1745.60 436.360   1
   7  -4   7 22.2440 170.541   1
   7  -4   8 959.368 338.530   1
  -7   3  11-89.0237 139.146   5
   7  -3 -10-506.786 237.250   4
   7  -3  -9 326.612 172.895   4
   7  -3  -8 228.540 205.135   2
   7  -3  -8-62.3020 179.797   1
   7  -3  -7 85.6228 218.929   1
   7  -3  -6 1312.55 338.740   1
   7  -3  -5 72.9053 125.644   1
   7  -3  -4 2110.61 450.091   1
   7  -3  -3 7769.48 811.483   1
   7  -3  -2 1810.38 415.841   1
   7  -3  -1 3375.48 544.040   1
   7  -3   0 598.995 256.149   1
   7  -3   1 1318.15 366.842   1
   7  -3   2 1092.27 332.634   1
   7  -3   3-20.4389 204.954   1
   7  -3   4 288.570 216.504   1
   7  -3   5-184.223 147.871   1
   7  -3   6 3007.49 592.883   1
   7  -3   7 163.402 206.930   1
  -7   2  11 790.767 266.291   5
  -7   2  10-129.192 214.600   5
   7  -2  -9 3185.17 534.018   4
   7  -2  -9 2707.84 525.171   2
  -7   2   9 3036.03 526.771   5
   7  -2  -8 141.979 189.860   2
   7  -2  -8 21.3062 157.123   1
   7  -2  -7 2290.98 462.893   1
   7  -2  -6 384.542 220.672   1
   7  -2  -5 138.801 167.343   1
   7  -2  -4 1927.81 413.946   1
   7  -2  -3 1309.62 391.616   1
   7  -2  -2-77.3225 164.264   1
   7  -2  -1 216.026 144.655   1
   7  -2   0 5669.46 717.732   1
   7  -2   1 2321.57 455.182   1
   7  -2   2 593.809 269.044   1
   7  -2   3 284.613 237.031   1
   7  -2   4-41.8425 157.655   1
   7  -2   5 3870.16 645.337   1
   7  -2   6 2022.23 485.583   1
   7  -2   7 671.148 359.481   1
   7  -1 -10 407.635 235.697   2
   7  -1  -9 1471.38 420.273   2
   7  -1  -9 1872.57 441.096   1
   7  -1  -8 311.862 208.867   2
   7  -1  -8 157.650 100.001   1
   7  -1  -7 362.778 237.095   2
   7  -1  -7 101.728 146.064   1
   7  -1  -6 1340.73 358.161   1
   7  -1  -5 823.078 291.657   1
   7  -1  -4 5636.52 694.072   1
   7  -1  -3 1029.63 315.605   1
   7  -1  -2 3073.11 538.955   1
   7  -1  -1 3886.87 612.492   1
   7  -1   0-131.223 216.367   1
   7  -1   1-164.496 209.210   1
   7  -1   2 6654.53 813.650   1
   7  -1   3 466.321 284.668   1
   7  -1   4-148.079 177.017   1
   7  -1   5 461.357 322.830   1
   7  -1   6 287.909 284.696   1
   7   0 -11 1652.33 428.596   2
   7   0 -10 287.974 266.331   2
   7   0  -9 3708.92 617.908   2
   7   0  -8 5174.50 740.207   2
   7   0  -8 3972.77 577.683   1
   7   0  -7 1131.29 331.720   2
   7   0  -7 1098.31 328.672   1
   7   0  -6 8.98649 132.710   1
   7   0  -5 188.766 162.671   1
   7   0  -4 270.301 225.844   1
   7   0  -3-134.242 170.056   1
   7   0  -2-125.406 213.820   1
   7   0  -1 1765.65 382.296   1
   7   0   0-598.808 269.862   1
   7   0   1 858.122 298.605   1
   7   0   2 1162.76 359.923   1
   7   0   3-176.025 168.306   1
   7   0   4 199.621 165.515   1
   7   0   5 2194.02 520.874   1
   7   1 -10 628.792 306.737   2
   7   1  -9 836.824 361.885   2
   7   1  -8 280.417 281.185   2
   7   1  -8 50.6363 123.210   1
   7   1  -7 1844.96 484.515   2
   7   1  -7 1392.63 354.458   1
   7   1  -6 253.156 168.227   1
   7   1  -5 640.057 270.873   1
   7   1  -4 1401.92 366.810   1
   7   1  -3 120.838 174.929   1
   7   1  -2 510.461 254.956   1
   7   1  -1 2028.40 467.585   1
   7   1   0 396.548 257.450   1
   7   1   1 522.452 248.409   1
   7   1   2 881.018 326.175   1
   7   1   3 612.770 311.146   1
   7   1   4 315.789 195.807   1
   7   2  -8 2905.69 590.361   2
   7   2  -7-454.448 266.041   2
   7   2  -6 510.905 221.943   2
   7   2  -6 844.810 302.184   1
   7   2  -5 170.310 153.994   1
   7   2  -4-157.698 157.035   1
   7   2  -3 1070.24 369.101   1
   7   2  -2 142.738 257.702   1
   7   2  -1 156.796 214.335   1
   7   2   0 622.906 264.854   1
   7   2   1 1493.51 401.547   1
   7   2   2 114.264 168.314   1
   7   2   3-154.430 200.075   1
   7   3  -6 982.438 367.886   2
   7   3  -5 604.658 259.536   1
   7   3  -4 41.9805 139.141   1
   7   3  -3 2174.60 496.430   1
   7   3  -2 546.858 265.694   1
   7   3  -1 2926.78 574.502   1
   7   3   0 309.709 262.037   1
   7   3   1-390.489 295.611   1
   7   3   2 4671.69 753.456   1
   7   4  -4 1297.97 377.530   1
   7   4  -3 451.918 279.349   1
   7   4  -2 1736.81 444.279   1
   7   4  -1 1027.87 358.608   1
   7   4   0 944.965 362.470   1
   7   5  -3 359.783 284.674   1
   7   5  -2 1263.86 387.165   1
   8  -9  -1 422.262 299.924   1
   8  -9   0 373.220 243.156   1
   8  -9   1 266.211 185.197   1
   8  -9   2-3.47743 257.668   1
   8  -9   3 353.995 306.962   1
   8  -9   4-89.7914 289.733   1
   8  -8  -4 411.763 259.641   1
   8  -8  -3-18.0149 203.164   1
   8  -8  -2 732.514 341.068   1
   8  -8  -1 670.140 254.466   1
   8  -8   0-29.1586 138.431   1
   8  -8   1 167.308 178.977   1
   8  -8   2 904.709 338.710   1
   8  -8   3 657.391 288.407   1
   8  -8   4 388.879 220.370   1
   8  -8   5 1466.93 495.026   1
   8  -7  -5 2.40920 196.179   1
   8  -7  -4 5676.39 840.280   1
   8  -7  -3 2653.61 568.678   1
   8  -7  -2 4275.98 685.983   1
   8  -7  -1 754.711 354.640   1
   8  -7   0 222.054 148.259   1
   8  -7   1 401.784 263.000   1
   8  -7   2 116.075 166.205   1
   8  -7   3 285.019 252.731   1
   8  -7   4 312.203 219.897   1
   8  -7   5 159.222 190.163   1
   8  -6  -7 1044.67 377.478   4
   8  -6  -6 2192.51 521.774   1
   8  -6  -5 670.024 327.736   1
   8  -6  -4 3030.05 595.351   1
   8  -6  -3 68.0331 237.877   1
   8  -6  -2 3387.62 609.798   1
   8  -6  -1 3021.80 603.004   1
   8  -6   0 40.6879 215.781   1
   8  -6   1 296.384 222.538   1
   8  -6   2-46.1487 172.633   1
   8  -6   3-208.557 255.552   1
   8  -6   4 251.373 231.413   1
   8  -6   5 533.226 258.086   1
   8  -5  -8 251.273 211.225   4
   8  -5  -7-10.5085 200.266   1
   8  -5  -6 52.8021 260.908   1
   8  -5  -5 1059.22 386.523   1
   8  -5  -4 2549.23 543.418   1
   8  -5  -3 1485.28 410.430   1
   8  -5  -2 343.556 208.313   1
   8  -5  -1 1379.07 408.636   1
   8  -5   0 696.170 303.080   1
   8  -5   1 1235.22 399.161   1
   8  -5   2 278.759 244.327   1
   8  -5   3 203.506 213.839   1
   8  -5   4 2931.30 609.384   1
   8  -5   5 1021.41 367.748   1
   8  -4 -10 81.9090 173.601   4
   8  -4  -9-69.3357 224.243   4
   8  -4  -7 256.189 302.277   1
   8  -4  -6-174.682 205.916   1
   8  -4  -5 1542.39 443.967   1
   8  -4  -4 4187.59 681.388   1
   8  -4  -3 70.2771 189.187   1
   8  -4  -2 124.522 222.098   1
   8  -4  -1 278.162 222.504   1
   8  -4   0 64.5945 129.080   1
   8  -4   1 119.986 177.082   1
   8  -4   2-225.949 224.724   1
   8  -4   3 1011.95 382.180   1
   8  -4   4 857.037 363.371   1
   8  -3  -9 930.133 350.895   4
   8  -3  -8 378.393 310.141   1
   8  -3  -7 404.240 265.810   1
   8  -3  -6 1693.70 464.065   1
   8  -3  -5 761.178 325.374   1
   8  -3  -4 1401.13 431.721   1
   8  -3  -3 3480.87 625.577   1
   8  -3  -2 1460.79 451.827   1
   8  -3  -1-113.817 181.970   1
   8  -3   0 751.400 298.528   1
   8  -3   1 1184.59 384.904   1
   8  -3   2 554.009 337.355   1
   8  -3   3 606.782 211.941   1
   8  -3   4 1333.53 430.127   1
   8  -2  -9-482.111 265.230   1
   8  -2  -8 748.675 267.423   2
   8  -2  -8 394.755 221.575   1
   8  -2  -7-168.612 196.330   1
   8  -2  -6 210.502 241.297   1
   8  -2  -5 549.306 271.674   1
   8  -2  -4 617.297 280.338   1
   8  -2  -3 496.274 219.445   1
   8  -2  -2 1323.56 370.268   1
   8  -2  -1 51.8632 174.811   1
   8  -2   0 48.2229 195.540   1
   8  -2   1 574.608 278.070   1
   8  -2   2 62.1227 171.023   1
   8  -2   3 980.047 362.660   1
   8  -1  -9 188.288 248.482   2
   8  -1  -9 248.036 184.238   1
   8  -1  -8 996.060 332.495   2
   8  -1  -8 974.654 324.486   1
   8  -1  -7 810.447 316.030   1
   8  -1  -6 189.625 188.632   1
   8  -1  -5 467.870 258.066   1
   8  -1  -4 946.230 323.880   1
   8  -1  -3 763.448 362.571   1
   8  -1  -2-128.763 194.973   1
   8  -1  -1-29.9440 209.501   1
   8  -1   0 626.155 315.074   1
   8  -1   1 43.8788 187.807   1
   8  -1   2-127.791 232.244   1
   8   0  -8 881.302 332.850   1
   8   0  -8 1010.19 354.528   2
   8   0  -7 1104.83 413.405   2
   8   0  -7 1504.59 390.924   1
   8   0  -6-3.58498 171.412   1
   8   0  -5-76.2126 154.609   1
   8   0  -4-6.32634 200.270   1
   8   0  -3 423.382 266.521   1
   8   0  -2-49.2114 166.378   1
   8   0  -1 108.756 178.414   1
   8   0   0 658.424 300.721   1
   8   0   1 195.686 209.256   1
   8   1  -7 1433.85 348.664   1
   8   1  -6 117.781 154.968   1
   8   1  -5 171.904 159.496   1
   8   1  -4 1288.07 388.094   1
   8   1  -3 7215.68 893.593   1
   8   1  -2 90.3122 180.023   1
   8   1  -1 155.649 194.644   1
   8   1   0 28.8956 252.653   1
   8   2  -5 165.126 197.141   1
   8   2  -4 201.359 183.378   1
   8   2  -3 745.921 342.230   1
   8   2  -2 46.9072 183.913   1
   8   3  -4-178.042 281.072   1
   8   3  -3 3566.07 674.024   1
   0   0   0    0.00    0.00   0
TITL 200821_s2_lwj in P-1
REM P-1 (#2 in standard setting)
CELL 0.71073   7.115424   9.638669  10.833272  93.4731  98.5826 109.4158
ZERR    2.00   0.000676   0.000837   0.000902   0.0069   0.0074   0.0082
LATT  1
SFAC C H N O
UNIT 24.00 24.00 4.00 6.00
TREF
HKLF 4
END
;
_shelx_hkl_checksum              45883
loop_
_space_group_symop_operation_xyz
'x, y, z'
'-x, -y, -z'
loop_
_atom_site_label
_atom_site_type_symbol
_atom_site_fract_x
_atom_site_fract_y
_atom_site_fract_z
_atom_site_U_iso_or_equiv
_atom_site_adp_type
_atom_site_occupancy
_atom_site_site_symmetry_order
_atom_site_calc_flag
_atom_site_refinement_flags_posn
_atom_site_refinement_flags_adp
_atom_site_refinement_flags_occupancy
_atom_site_disorder_assembly
_atom_site_disorder_group
N1 N 0.1878(2) 0.78294(14) 0.44800(11) 0.0416(3) Uani 1 1 d . . . . .
C5 C 0.2754(2) 0.75734(17) 0.55856(15) 0.0411(4) Uani 1 1 d . . . . .
C13 C 0.1431(2) 0.71237(17) 0.65356(14) 0.0398(4) Uani 1 1 d . . . . .
C6 C 0.2094(3) 0.86674(19) 0.24237(15) 0.0484(4) Uani 1 1 d . . . . .
C18 C -0.0596(2) 0.62474(18) 0.61712(15) 0.0460(4) Uani 1 1 d . . . . .
H18 H -0.1135 0.5947 0.5322 0.055 Uiso 1 1 calc R U . . .
C7 C -0.0134(3) 0.80557(18) 0.19781(14) 0.0427(4) Uani 1 1 d . . . . .
C1 C 0.3058(3) 0.82889(17) 0.36220(14) 0.0436(4) Uani 1 1 d . . . . .
O1 O 0.31792(19) 0.95024(16) 0.18090(12) 0.0715(4) Uani 1 1 d . . . . .
C8 C -0.1314(3) 0.66351(18) 0.21519(15) 0.0465(4) Uani 1 1 d . . . . .
H8 H -0.0738 0.6062 0.2632 0.056 Uiso 1 1 calc R U . . .
C14 C 0.2188(3) 0.7581(2) 0.78120(15) 0.0500(4) Uani 1 1 d . . . . .
H14 H 0.3541 0.8170 0.8074 0.060 Uiso 1 1 calc R U . . .
C4 C 0.4790(3) 0.7728(2) 0.58331(16) 0.0505(4) Uani 1 1 d . . . . .
H4 H 0.5351 0.7523 0.6601 0.061 Uiso 1 1 calc R U . . .
C3 C 0.5972(3) 0.8186(2) 0.49384(17) 0.0555(5) Uani 1 1 d . . . . .
H3 H 0.7334 0.8286 0.5089 0.067 Uiso 1 1 calc R U . . .
C2 C 0.5102(3) 0.8495(2) 0.38171(16) 0.0512(5) Uani 1 1 d . . . . .
H2 H 0.5872 0.8834 0.3203 0.061 Uiso 1 1 calc R U . . .
C9 C -0.3341(3) 0.6073(2) 0.16130(16) 0.0528(5) Uani 1 1 d . . . . .
H9 H -0.4120 0.5114 0.1716 0.063 Uiso 1 1 calc R U . . .
C15 C 0.0953(3) 0.7171(2) 0.86901(16) 0.0577(5) Uani 1 1 d . . . . .
H15 H 0.1472 0.7490 0.9539 0.069 Uiso 1 1 calc R U . . .
C16 C -0.1040(3) 0.6292(2) 0.83162(18) 0.0588(5) Uani 1 1 d . . . . .
H16 H -0.1869 0.6015 0.8912 0.071 Uiso 1 1 calc R U . . .
C12 C -0.1039(3) 0.8897(2) 0.12735(15) 0.0532(5) Uani 1 1 d . . . . .
H12 H -0.0264 0.9849 0.1149 0.064 Uiso 1 1 calc R U . . .
C10 C -0.4216(3) 0.6924(2) 0.09237(17) 0.0587(5) Uani 1 1 d . . . . .
H10 H -0.5586 0.6543 0.0570 0.070 Uiso 1 1 calc R U . . .
C17 C -0.1818(3) 0.5818(2) 0.70563(18) 0.0552(5) Uani 1 1 d . . . . .
H17 H -0.3165 0.5211 0.6805 0.066 Uiso 1 1 calc R U . . .
C11 C -0.3067(3) 0.8339(2) 0.07572(17) 0.0607(5) Uani 1 1 d . . . . .
H11 H -0.3660 0.8917 0.0296 0.073 Uiso 1 1 calc R U . . .
loop_
_atom_site_aniso_label
_atom_site_aniso_U_11
_atom_site_aniso_U_22
_atom_site_aniso_U_33
_atom_site_aniso_U_23
_atom_site_aniso_U_13
_atom_site_aniso_U_12
N1 0.0471(8) 0.0390(7) 0.0356(7) 0.0058(6) 0.0067(6) 0.0108(6)
C5 0.0457(10) 0.0352(8) 0.0400(9) 0.0036(7) 0.0055(7) 0.0120(7)
C13 0.0465(10) 0.0365(8) 0.0381(8) 0.0078(7) 0.0066(7) 0.0163(7)
C6 0.0575(12) 0.0447(9) 0.0390(9) 0.0062(8) 0.0124(8) 0.0106(8)
C18 0.0496(11) 0.0465(9) 0.0428(9) 0.0072(8) 0.0055(7) 0.0184(8)
C7 0.0530(11) 0.0449(9) 0.0304(8) 0.0073(7) 0.0111(7) 0.0154(8)
C1 0.0501(11) 0.0377(9) 0.0384(9) 0.0023(7) 0.0086(7) 0.0095(8)
O1 0.0664(9) 0.0806(10) 0.0539(8) 0.0286(7) 0.0158(6) 0.0017(7)
C8 0.0551(11) 0.0447(9) 0.0398(9) 0.0073(8) 0.0061(8) 0.0180(8)
C14 0.0505(11) 0.0529(10) 0.0423(9) 0.0056(8) 0.0053(8) 0.0136(8)
C4 0.0527(11) 0.0540(10) 0.0457(10) 0.0072(8) 0.0045(8) 0.0214(9)
C3 0.0469(11) 0.0617(11) 0.0586(11) 0.0040(9) 0.0097(9) 0.0201(9)
C2 0.0519(11) 0.0515(10) 0.0482(10) 0.0043(8) 0.0167(8) 0.0123(8)
C9 0.0529(12) 0.0510(10) 0.0489(10) 0.0041(8) 0.0078(8) 0.0116(9)
C15 0.0675(13) 0.0687(12) 0.0388(9) 0.0070(9) 0.0100(9) 0.0256(11)
C16 0.0642(13) 0.0685(12) 0.0556(11) 0.0187(10) 0.0275(10) 0.0295(11)
C12 0.0702(13) 0.0509(10) 0.0421(9) 0.0142(8) 0.0161(9) 0.0217(9)
C10 0.0540(12) 0.0755(14) 0.0481(10) 0.0040(10) 0.0054(8) 0.0265(10)
C17 0.0477(11) 0.0559(11) 0.0646(12) 0.0129(10) 0.0143(9) 0.0183(9)
C11 0.0735(14) 0.0744(13) 0.0481(10) 0.0185(10) 0.0117(10) 0.0413(11)
loop_
_atom_type_symbol
_atom_type_description
_atom_type_scat_dispersion_real
_atom_type_scat_dispersion_imag
_atom_type_scat_source
C C 0.0033 0.0016 'International Tables Vol C Tables 4.2.6.8 and 6.1.1.4'
H H 0.0000 0.0000 'International Tables Vol C Tables 4.2.6.8 and 6.1.1.4'
N N 0.0061 0.0033 'International Tables Vol C Tables 4.2.6.8 and 6.1.1.4'
O O 0.0106 0.0060 'International Tables Vol C Tables 4.2.6.8 and 6.1.1.4'
loop_
_geom_angle_atom_site_label_1
_geom_angle_atom_site_label_2
_geom_angle_atom_site_label_3
_geom_angle
_geom_angle_site_symmetry_1
_geom_angle_site_symmetry_3
_geom_angle_publ_flag
C5 N1 C1 117.51(14) . . ?
N1 C5 C4 121.91(14) . . ?
N1 C5 C13 116.37(14) . . ?
C4 C5 C13 121.71(14) . . ?
C18 C13 C14 118.45(15) . . ?
C18 C13 C5 120.72(14) . . ?
C14 C13 C5 120.83(15) . . ?
O1 C6 C7 119.85(15) . . ?
O1 C6 C1 118.63(16) . . ?
C7 C6 C1 121.52(13) . . ?
C17 C18 C13 120.64(16) . . ?
C17 C18 H18 119.7 . . ?
C13 C18 H18 119.7 . . ?
C8 C7 C12 118.83(16) . . ?
C8 C7 C6 122.58(15) . . ?
C12 C7 C6 118.39(15) . . ?
N1 C1 C2 123.51(14) . . ?
N1 C1 C6 117.03(15) . . ?
C2 C1 C6 119.39(14) . . ?
C9 C8 C7 120.04(16) . . ?
C9 C8 H8 120.0 . . ?
C7 C8 H8 120.0 . . ?
C15 C14 C13 120.67(17) . . ?
C15 C14 H14 119.7 . . ?
C13 C14 H14 119.7 . . ?
C3 C4 C5 119.76(15) . . ?
C3 C4 H4 120.1 . . ?
C5 C4 H4 120.1 . . ?
C2 C3 C4 118.75(17) . . ?
C2 C3 H3 120.6 . . ?
C4 C3 H3 120.6 . . ?
C3 C2 C1 118.51(15) . . ?
C3 C2 H2 120.7 . . ?
C1 C2 H2 120.7 . . ?
C10 C9 C8 120.39(17) . . ?
C10 C9 H9 119.8 . . ?
C8 C9 H9 119.8 . . ?
C16 C15 C14 120.17(17) . . ?
C16 C15 H15 119.9 . . ?
C14 C15 H15 119.9 . . ?
C15 C16 C17 120.10(16) . . ?
C15 C16 H16 119.9 . . ?
C17 C16 H16 119.9 . . ?
C11 C12 C7 120.82(17) . . ?
C11 C12 H12 119.6 . . ?
C7 C12 H12 119.6 . . ?
C9 C10 C11 120.05(18) . . ?
C9 C10 H10 120.0 . . ?
C11 C10 H10 120.0 . . ?
C18 C17 C16 119.96(17) . . ?
C18 C17 H17 120.0 . . ?
C16 C17 H17 120.0 . . ?
C12 C11 C10 119.87(17) . . ?
C12 C11 H11 120.1 . . ?
C10 C11 H11 120.1 . . ?
loop_
_geom_bond_atom_site_label_1
_geom_bond_atom_site_label_2
_geom_bond_distance
_geom_bond_site_symmetry_2
_geom_bond_publ_flag
N1 C5 1.3414(19) . ?
N1 C1 1.3420(19) . ?
C5 C4 1.388(2) . ?
C5 C13 1.485(2) . ?
C13 C18 1.389(2) . ?
C13 C14 1.394(2) . ?
C6 O1 1.2219(18) . ?
C6 C7 1.486(2) . ?
C6 C1 1.499(2) . ?
C18 C17 1.380(2) . ?
C18 H18 0.9300 . ?
C7 C8 1.389(2) . ?
C7 C12 1.389(2) . ?
C1 C2 1.382(2) . ?
C8 C9 1.381(2) . ?
C8 H8 0.9300 . ?
C14 C15 1.378(2) . ?
C14 H14 0.9300 . ?
C4 C3 1.375(2) . ?
C4 H4 0.9300 . ?
C3 C2 1.374(2) . ?
C3 H3 0.9300 . ?
C2 H2 0.9300 . ?
C9 C10 1.376(2) . ?
C9 H9 0.9300 . ?
C15 C16 1.371(3) . ?
C15 H15 0.9300 . ?
C16 C17 1.382(3) . ?
C16 H16 0.9300 . ?
C12 C11 1.375(3) . ?
C12 H12 0.9300 . ?
C10 C11 1.376(3) . ?
C10 H10 0.9300 . ?
C17 H17 0.9300 . ?
C11 H11 0.9300 . ?
loop_
_geom_torsion_atom_site_label_1
_geom_torsion_atom_site_label_2
_geom_torsion_atom_site_label_3
_geom_torsion_atom_site_label_4
_geom_torsion
_geom_torsion_site_symmetry_1
_geom_torsion_site_symmetry_2
_geom_torsion_site_symmetry_3
_geom_torsion_site_symmetry_4
_geom_torsion_publ_flag
C1 N1 C5 C4 -2.0(2) . . . . ?
C1 N1 C5 C13 177.66(14) . . . . ?
N1 C5 C13 C18 34.7(2) . . . . ?
C4 C5 C13 C18 -145.67(17) . . . . ?
N1 C5 C13 C14 -144.72(16) . . . . ?
C4 C5 C13 C14 34.9(2) . . . . ?
C14 C13 C18 C17 -1.2(2) . . . . ?
C5 C13 C18 C17 179.36(15) . . . . ?
O1 C6 C7 C8 144.86(18) . . . . ?
C1 C6 C7 C8 -35.3(2) . . . . ?
O1 C6 C7 C12 -29.8(3) . . . . ?
C1 C6 C7 C12 149.94(16) . . . . ?
C5 N1 C1 C2 0.6(2) . . . . ?
C5 N1 C1 C6 -176.08(14) . . . . ?
O1 C6 C1 N1 157.26(17) . . . . ?
C7 C6 C1 N1 -22.5(2) . . . . ?
O1 C6 C1 C2 -19.6(3) . . . . ?
C7 C6 C1 C2 160.63(16) . . . . ?
C12 C7 C8 C9 1.0(3) . . . . ?
C6 C7 C8 C9 -173.71(15) . . . . ?
C18 C13 C14 C15 0.1(3) . . . . ?
C5 C13 C14 C15 179.52(15) . . . . ?
N1 C5 C4 C3 1.4(3) . . . . ?
C13 C5 C4 C3 -178.21(15) . . . . ?
C5 C4 C3 C2 0.6(3) . . . . ?
C4 C3 C2 C1 -1.9(3) . . . . ?
N1 C1 C2 C3 1.3(3) . . . . ?
C6 C1 C2 C3 177.93(16) . . . . ?
C7 C8 C9 C10 -1.4(3) . . . . ?
C13 C14 C15 C16 0.6(3) . . . . ?
C14 C15 C16 C17 -0.2(3) . . . . ?
C8 C7 C12 C11 0.1(3) . . . . ?
C6 C7 C12 C11 175.04(16) . . . . ?
C8 C9 C10 C11 0.6(3) . . . . ?
C13 C18 C17 C16 1.6(3) . . . . ?
C15 C16 C17 C18 -0.9(3) . . . . ?
C7 C12 C11 C10 -0.8(3) . . . . ?
C9 C10 C11 C12 0.5(3) . . . . ?
