#------------------------------------------------------------------------------
#$Date: 2021-07-05 20:13:42 +0300 (Mon, 05 Jul 2021) $
#$Revision: 267133 $
#$URL: file:///home/coder/svn-repositories/cod/cif/7/24/28/7242803.cif $
#------------------------------------------------------------------------------
#
# This file is available in the Crystallography Open Database (COD),
# http://www.crystallography.net/
#
# All data on this site have been placed in the public domain by the
# contributors.
#
data_7242803
loop_
_publ_author_name
'Iqbal, Muhammad Javed'
'Li, Zhongkui'
'Khan, Maroof Ahmad'
'Zhu, Yanhong'
'Hussain, Wajid'
'Su, Hao'
'Qiu, Qi-Ming'
'Shoukat, Rizwan'
'Li, Hui'
_publ_section_title
;
 Studies on the structure and chirality of A-motif in adenosine
 monophosphate nucleotide metal coordination complexes
;
_journal_issue                   23
_journal_name_full               CrystEngComm
_journal_page_first              4175
_journal_page_last               4180
_journal_paper_doi               10.1039/D1CE00276G
_journal_volume                  23
_journal_year                    2021
_chemical_absolute_configuration ad
_chemical_formula_moiety         'C22 H28 Cd N7 O10 P, 2(H2 O), 5(O)'
_chemical_formula_sum            'C22 H42 Cd N7 O17 P'
_chemical_formula_weight         819.99
_chemical_name_systematic        amp-cd-bpe
_space_group_crystal_system      triclinic
_space_group_IT_number           1
_space_group_name_Hall           'P 1'
_space_group_name_H-M_alt        'P 1'
_atom_sites_solution_hydrogens   mixed
_atom_sites_solution_primary     dual
_audit_creation_date             2021-04-26
_audit_creation_method
;
Olex2 1.3
(compiled 2020.11.12 svn.r5f609507 for OlexSys, GUI svn.r6272)
;
_audit_update_record
;
2021-04-26 deposited with the CCDC.	2021-05-10 downloaded from the CCDC.
;
_cell_angle_alpha                111.040(2)
_cell_angle_beta                 93.282(2)
_cell_angle_gamma                92.104(2)
_cell_formula_units_Z            1
_cell_length_a                   6.8541(5)
_cell_length_b                   10.2632(7)
_cell_length_c                   14.0271(10)
_cell_measurement_reflns_used    9959
_cell_measurement_temperature    296.15
_cell_measurement_theta_max      31.51
_cell_measurement_theta_min      2.98
_cell_volume                     917.70(11)
_computing_cell_refinement       'SAINT v8.34A (Bruker, 2013)'
_computing_data_reduction        'SAINT v8.34A (Bruker, 2013)'
_computing_molecular_graphics    'Olex2 1.3 (Dolomanov et al., 2009)'
_computing_publication_material  'Olex2 1.3 (Dolomanov et al., 2009)'
_computing_structure_refinement  'SHELXL 2014/7 (Sheldrick, 2015)'
_computing_structure_solution    'SHELXT 2018/2 (Sheldrick, 2018)'
_diffrn_ambient_temperature      296.15
_diffrn_detector                 'Bruker APEX2 area detector'
_diffrn_detector_area_resol_mean 7.9
_diffrn_detector_type            'CCD area detector'
_diffrn_measured_fraction_theta_full 0.998
_diffrn_measured_fraction_theta_max 0.887
_diffrn_measurement_device       'three-circle diffractometer'
_diffrn_measurement_device_type  'Bruker SMART APEX2 area detector'
_diffrn_measurement_method       '\w and \f scans'
_diffrn_radiation_monochromator  'mirror optics'
_diffrn_radiation_probe          x-ray
_diffrn_radiation_type           MoK\a
_diffrn_radiation_wavelength     0.71073
_diffrn_reflns_av_R_equivalents  0.0146
_diffrn_reflns_av_unetI/netI     0.0368
_diffrn_reflns_Laue_measured_fraction_full 0.998
_diffrn_reflns_Laue_measured_fraction_max 0.887
_diffrn_reflns_limit_h_max       9
_diffrn_reflns_limit_h_min       -9
_diffrn_reflns_limit_k_max       14
_diffrn_reflns_limit_k_min       -14
_diffrn_reflns_limit_l_max       20
_diffrn_reflns_limit_l_min       -19
_diffrn_reflns_number            12548
_diffrn_reflns_point_group_measured_fraction_full 0.984
_diffrn_reflns_point_group_measured_fraction_max 0.820
_diffrn_reflns_theta_full        25.242
_diffrn_reflns_theta_max         31.622
_diffrn_reflns_theta_min         2.130
_diffrn_source                   'microfocus sealed X-ray tube'
_diffrn_source_type              'Incoatec I\ms'
_diffrn_standards_number         0
_exptl_absorpt_coefficient_mu    0.715
_exptl_absorpt_correction_T_max  0.863
_exptl_absorpt_correction_T_min  0.840
_exptl_absorpt_correction_type   none
_exptl_crystal_colour            'clear whiteish white'
_exptl_crystal_colour_lustre     clear
_exptl_crystal_colour_modifier   whiteish
_exptl_crystal_colour_primary    white
_exptl_crystal_density_diffrn    1.484
_exptl_crystal_description       plate
_exptl_crystal_F_000             422
_exptl_crystal_size_max          0.25
_exptl_crystal_size_mid          0.24
_exptl_crystal_size_min          0.21
_refine_diff_density_max         0.666
_refine_diff_density_min         -0.354
_refine_diff_density_rms         0.068
_refine_ls_abs_structure_details
;
 Flack x determined using 4614 quotients [(I+)-(I-)]/[(I+)+(I-)]
 (Parsons, Flack and Wagner, Acta Cryst. B69 (2013) 249-259).
;
_refine_ls_abs_structure_Flack   0.012(5)
_refine_ls_extinction_method     none
_refine_ls_goodness_of_fit_ref   1.085
_refine_ls_hydrogen_treatment    constr
_refine_ls_matrix_type           full
_refine_ls_number_parameters     444
_refine_ls_number_reflns         10115
_refine_ls_number_restraints     17
_refine_ls_restrained_S_all      1.434
_refine_ls_R_factor_all          0.0244
_refine_ls_R_factor_gt           0.0243
_refine_ls_shift/su_max          0.000
_refine_ls_shift/su_mean         0.000
_refine_ls_structure_factor_coef Fsqd
_refine_ls_weighting_details
'w=1/[\s^2^(Fo^2^)+(0.0364P)^2^] where P=(Fo^2^+2Fc^2^)/3'
_refine_ls_weighting_scheme      calc
_refine_ls_wR_factor_gt          0.0660
_refine_ls_wR_factor_ref         0.0660
_reflns_Friedel_coverage         0.850
_reflns_Friedel_fraction_full    0.970
_reflns_Friedel_fraction_max     0.753
_reflns_number_gt                10096
_reflns_number_total             10115
_reflns_threshold_expression     'I > 2\s(I)'
_cod_data_source_file            d1ce00276g2.cif
_cod_data_source_block           1
_cod_depositor_comments
'Adding full bibliography for 7242802--7242804.cif.'
_cod_database_code               7242803
_shelx_shelxl_version_number     2014/7
_shelx_space_group_comment
;
The symmetry employed for this shelxl refinement is uniquely defined
by the following loop, which should always be used as a source of
symmetry information in preference to the above space-group names.
They are only intended as comments.
;
_shelx_estimated_absorpt_t_max   0.864
_shelx_estimated_absorpt_t_min   0.842
_olex2_refinement_description
;
1. Fixed Uiso
 At 1.2 times of:
  All C(H) groups, All C(H,H) groups, All N(H,H) groups
 At 1.5 times of:
  All O(H) groups, All O(H,H) groups
2. Restrained distances
 H7B-N7
 2.12 with sigma of 0.02
 H14-C14
 2.12 with sigma of 0.02
3. Uiso/Uaniso restraints and constraints
Uanis(N7) \\sim Ueq: with sigma of 0.001 and sigma for terminal atoms of 0.002
Uanis(O15) \\sim Ueq: with sigma of 0.001 and sigma for terminal atoms of 0.002
4.a Free rotating group:
 O11(H11A,H11B), O13(H13C,H13D)
4.b Rotating group:
 O1(H1A,H1B), O2(H2A,H2B), O3(H3A,H3B)
4.c Ternary CH refined with riding coordinates:
 C14(H14), C15(H15), C16(H16), C23(H23)
4.d Secondary CH2 refined with riding coordinates:
 C13(H13A,H13B)
4.e Aromatic/amide H refined with riding coordinates:
 C1(H1), C2(H2), C4(H4), C5(H5), C6(H6), C7(H7), C9(H9A), C10(H10), C11(H11),
 C12(H12), C17(H17), C20(H20)
4.f X=CH2 refined with riding coordinates:
 N7(H7A,H7B)
4.g Idealised tetrahedral OH refined as rotating group:
 O8(H8), O9(H9)
;
_smtbx_masks_special_details
;
A solvent mask was calculated and 45 electrons were
found in a volume of 91\%A^3 in 1 void per unit cell.
This is consistent with the presence of 
4.5[H2O] per Formula Unit 
which account for 45 electrons 
per unit cell.
;
_smtbx_masks_void_probe_radius   1.2
_smtbx_masks_void_truncation_radius 1.2
_shelx_res_file
;
    1.res created by SHELXL-2014/7

TITL 1_a.res in P1
REM Old TITL
REM SHELXT solution in P1: R1 0.099, Rweak 0.129, Alpha 0.000
REM <I/s> 0.000 for 0 systematic absences, Orientation as input
REM Flack x = 0.114 ( 0.006 ) from 3605 Parsons' quotients
REM Formula found by SHELXT: C30 N14 O8 Cd
CELL 0.71073 6.8541 10.2632 14.0271 111.04 93.282 92.104
ZERR 1 0.0005 0.0007 0.001 0.002 0.002 0.002
LATT -1
SFAC C H Cd N O P
UNIT 22 42 1 7 17 1
EQIV $1 -1+X,-1+Y,+Z
EQIV $2 -1+X,+Y,+Z
EQIV $3 +X,-1+Y,-1+Z
EQIV $4 1+X,1+Y,+Z
EQIV $5 1+X,+Y,+Z
EQIV $6 +X,1+Y,+Z
ISOR 0.001 0.002 N7
ISOR 0.001 0.002 O15
DFIX 2.12 H7b N7
DFIX 2.12 H14 C14

L.S. 30
PLAN  15
SIZE 0.21 0.24 0.25
TEMP 23
CONF
HTAB O3 O5
HTAB O9 O15_$1
HTAB O11 O6
HTAB O11 N6_$3
HTAB O2 O14
HTAB O2 O13
HTAB N7 O17
HTAB O8 O5_$2
HTAB O1 O9_$4
HTAB O1 O13_$5
HTAB O13 O12
HTAB O13 O11_$6
BOND
list 4
MORE -1
BOND $H
ABIN
fmap 2 53
acta
OMIT 0 0 -1
OMIT 0 3 -1
OMIT -1 0 -2
OMIT 1 0 2
OMIT -1 2 1
OMIT 0 1 1
OMIT 0 1 -1
OMIT 0 -1 -1
OMIT 0 -1 1
OMIT -1 -1 -1
OMIT -1 2 -1
REM <olex2.extras>
REM <HklSrc "%.\\1.hkl">
REM </olex2.extras>

WGHT    0.036400
FVAR       0.76213
CD1   3    0.863380    0.715970    0.628480    11.00000    0.03085    0.02246 =
         0.01575    0.00945    0.00122   -0.00079
P1    6    0.688372    0.367462    0.547802    11.00000    0.03890    0.02103 =
         0.02483    0.00966    0.00273   -0.00351
O1    5    1.096774    0.907665    0.670221    11.00000    0.03650    0.02644 =
         0.03171    0.01033    0.00397   -0.00329
AFIX   7
H1A   2    1.039183    0.987886    0.679004    11.00000   -1.50000
H1B   2    1.170871    0.900017    0.617990    11.00000   -1.50000
AFIX   0
O2    5    0.643494    0.887030    0.663841    11.00000    0.03748    0.04788 =
         0.03951    0.01993    0.00416    0.01333
AFIX   7
H2A   2    0.564592    0.884659    0.605881    11.00000   -1.50000
H2B   2    0.546216    0.876591    0.705802    11.00000   -1.50000
AFIX   0
O3    5    1.127031    0.572217    0.615195    11.00000    0.03331    0.03864 =
         0.05014    0.01993    0.00172    0.00555
AFIX   7
H3A   2    1.094200    0.503297    0.633079    11.00000   -1.50000
H3B   2    1.221301    0.616643    0.659026    11.00000   -1.50000
AFIX   0
O4    5    0.666633    0.520592    0.564078    11.00000    0.03401    0.02402 =
         0.03825    0.01657   -0.00175   -0.00335
O5    5    0.901014    0.333957    0.553664    11.00000    0.04316    0.03727 =
         0.07099    0.02712    0.01665    0.00930
O6    5    0.571291    0.269643    0.452687    11.00000    0.08945    0.03422 =
         0.04076    0.01138   -0.01849   -0.01830
O7    5    0.590331    0.352559    0.644505    11.00000    0.05732    0.02131 =
         0.03667    0.01191    0.01824   -0.00198
O8    5    0.112807    0.160635    0.620826    11.00000    0.04458    0.02231 =
         0.04339    0.00788   -0.01170   -0.00172
AFIX 147
H8    2    0.033864    0.196107    0.592823    11.00000   -1.50000
AFIX   0
O9    5    0.056385    0.185237    0.814605    11.00000    0.05550    0.02944 =
         0.05723    0.00643    0.02795   -0.00994
AFIX 147
H9    2    0.004079    0.205442    0.868774    11.00000   -1.50000
AFIX   0
O10   5    0.481418    0.317582    0.827489    11.00000    0.03478    0.03617 =
         0.02574    0.00594    0.00223    0.00633
N1    4    0.866756    0.710369    0.459852    11.00000    0.04191    0.03595 =
         0.01928    0.01599   -0.00006   -0.00370
N2    4    0.863342    0.744424   -0.200838    11.00000    0.03449    0.03316 =
         0.01863    0.01213    0.00345    0.00362
N3    4    0.334272    0.524382    0.916529    11.00000    0.04204    0.02233 =
         0.02459    0.00643    0.00461   -0.00075
N4    4    0.369003    0.741446    0.915626    11.00000    0.04249    0.02529 =
         0.03376    0.00969    0.00068   -0.00260
N5    4    0.352269    0.578831    1.101069    11.00000    0.04493    0.03183 =
         0.02805    0.01120    0.00646    0.00003
N6    4    0.397836    0.826109    1.196461    11.00000    0.05068    0.03635 =
         0.02943    0.00102    0.00251   -0.00100
N7    4    0.431969    0.990816    1.120926    11.00000    0.07761    0.03627 =
         0.05503    0.00950   -0.00068   -0.00465
AFIX  93
H7A   2    0.447733    1.055345    1.180739    11.00000   -1.20000
H7B   2    0.435236    1.012259    1.067111    11.00000   -1.20000
AFIX   0
C1    1    0.859093    0.823663    0.435996    11.00000    0.05164    0.03296 =
         0.02528    0.01638    0.00204    0.00026
AFIX  43
H1    2    0.848528    0.909083    0.488627    11.00000   -1.20000
AFIX   0
C2    1    0.865871    0.822567    0.337323    11.00000    0.06164    0.03406 =
         0.02233    0.01538   -0.00032   -0.00207
AFIX  43
H2    2    0.866602    0.905531    0.324665    11.00000   -1.20000
AFIX   0
C3    1    0.871576    0.694267    0.257337    11.00000    0.03591    0.04517 =
         0.01960    0.01804    0.00289    0.00176
C4    1    0.870199    0.577466    0.281952    11.00000    0.08520    0.03599 =
         0.01681    0.00955    0.00999    0.00674
AFIX  43
H4    2    0.868906    0.489820    0.230298    11.00000   -1.20000
AFIX   0
C5    1    0.870711    0.588004    0.384065    11.00000    0.06552    0.03309 =
         0.02139    0.01650    0.00490    0.00197
AFIX  43
H5    2    0.873912    0.506998    0.399243    11.00000   -1.20000
AFIX   0
C6    1    0.870885    0.681172    0.149714    11.00000    0.04323    0.04345 =
         0.01623    0.01056    0.00018    0.00172
AFIX  43
H6    2    0.861269    0.591015    0.100889    11.00000   -1.20000
AFIX   0
C7    1    0.882616    0.785215    0.115640    11.00000    0.03726    0.04186 =
         0.01797    0.01208    0.00186    0.00219
AFIX  43
H7    2    0.896062    0.875824    0.163775    11.00000   -1.20000
AFIX   0
C8    1    0.875829    0.767579    0.005866    11.00000    0.02808    0.03915 =
         0.01773    0.01073    0.00249    0.00271
C9    1    0.894599    0.885522   -0.021537    11.00000    0.05906    0.02684 =
         0.02262    0.01049    0.00337    0.00569
AFIX  43
H9A   2    0.909674    0.974355    0.028986    11.00000   -1.20000
AFIX   0
C10   1    0.890741    0.870036   -0.123692    11.00000    0.05281    0.02622 =
         0.02543    0.00950    0.00327    0.00288
AFIX  43
H10   2    0.907772    0.949666   -0.140050    11.00000   -1.20000
AFIX   0
C11   1    0.845569    0.639796   -0.073223    11.00000    0.04863    0.03130 =
         0.02381    0.01614    0.00481    0.00204
AFIX  43
H11   2    0.832651    0.558482   -0.058673    11.00000   -1.20000
AFIX   0
C12   1    0.834220    0.631586   -0.174595    11.00000    0.04398    0.03625 =
         0.01764    0.00934    0.00158    0.00489
AFIX  43
H12   2    0.805397    0.544786   -0.226254    11.00000   -1.20000
AFIX   0
C13   1    0.577218    0.219602    0.655491    11.00000    0.03972    0.02062 =
         0.03055    0.00957    0.01236    0.00285
AFIX  23
H13A  2    0.702129    0.201602    0.682991    11.00000   -1.20000
H13B  2    0.544843    0.146447    0.589175    11.00000   -1.20000
AFIX   0
C14   1    0.421364    0.219493    0.726643    11.00000    0.03204    0.01796 =
         0.02499    0.00933    0.00483    0.00244
AFIX  13
H14   2    0.404207    0.125726    0.729403    11.00000   -1.20000
AFIX   0
C15   1    0.133080    0.307966    0.804190    11.00000    0.03389    0.02081 =
         0.04728    0.00637    0.01340    0.00019
AFIX  13
H15   2    0.033297    0.375996    0.810590    11.00000   -1.20000
AFIX   0
C16   1    0.313010    0.371356    0.880101    11.00000    0.04822    0.01978 =
         0.02919    0.00982    0.00975    0.00523
AFIX  13
H16   2    0.305418    0.341617    0.938891    11.00000   -1.20000
AFIX   0
C17   1    0.345422    0.608783    0.860312    11.00000    0.04748    0.02770 =
         0.02979    0.01208    0.00204   -0.00419
AFIX  43
H17   2    0.336928    0.574495    0.789081    11.00000   -1.20000
AFIX   0
C18   1    0.376220    0.746322    1.015409    11.00000    0.03089    0.02433 =
         0.03048    0.00465    0.00185    0.00096
C19   1    0.355317    0.613089    1.017912    11.00000    0.03128    0.02465 =
         0.02564    0.00558    0.00318    0.00232
C20   1    0.374644    0.692128    1.187017    11.00000    0.04766    0.04604 =
         0.02685    0.00728    0.00368    0.00401
AFIX  43
H20   2    0.373972    0.675533    1.247966    11.00000   -1.20000
AFIX   0
C21   1    0.402351    0.857021    1.111589    11.00000    0.04270    0.02798 =
         0.04160    0.00151   -0.00157    0.00023
C23   1    0.221690    0.266440    0.701524    11.00000    0.03278    0.01710 =
         0.03099    0.00720   -0.00210    0.00050
AFIX  13
H23   2    0.240734    0.349254    0.683054    11.00000   -1.20000
AFIX   6

O11   5    0.365723    0.017699    0.395403    11.00000    0.12331    0.03655 =
         0.03227    0.00553    0.01036   -0.01359
H11A  2    0.449162    0.087280    0.416920    11.00000   -1.50000
H11B  2    0.418486   -0.042839    0.346819    11.00000   -1.50000
AFIX   6

O13   5    0.345562    0.862965    0.517979    11.00000    0.05076    0.03931 =
         0.03661    0.01793    0.00410    0.00291
H13C  2    0.325593    0.778385    0.477661    11.00000   -1.50000
H13D  2    0.312980    0.910654    0.481747    11.00000   -1.50000
AFIX   0

O16   5    0.256369    0.320227    0.122341    11.00000    0.16697    0.06708 =
         0.08197    0.03530    0.03242    0.00019
O15   5    0.873875    1.292703    0.991847    11.00000    0.11789    0.11297 =
         0.10743    0.03514    0.02089    0.00439
O12   5    0.362890    0.580227    0.457521    11.00000    0.04594    0.04726 =
         0.09444    0.02905   -0.00576    0.00551
O14   5    0.403561    0.934850    0.822421    11.00000    0.05164    0.06863 =
         0.06355    0.04876    0.01150    0.01121
O17   5    0.527235    1.156328    0.999054    11.00000    0.11812    0.07614 =
         0.06500    0.02535    0.00430    0.00598
HKLF 4

REM  1_a.res in P1
REM R1 =  0.0243 for   10096 Fo > 4sig(Fo)  and  0.0244 for all   10115 data
REM    444 parameters refined using     17 restraints

END

WGHT      0.0364      0.0000

REM Highest difference peak  0.666,  deepest hole -0.354,  1-sigma level  0.068
Q1    1   0.7533  0.7239  0.6181  11.00000  0.05    0.67
Q2    1   0.9751  0.7140  0.6377  11.00000  0.05    0.57
Q3    1   0.3461  0.9951  1.1210  11.00000  0.05    0.47
Q4    1   0.3559  0.3538  0.2998  11.00000  0.05    0.45
Q5    1   0.3980  0.5766  0.4017  11.00000  0.05    0.42
Q6    1   0.4096  0.3353  0.1435  11.00000  0.05    0.41
Q7    1   0.3808  0.4385  0.1396  11.00000  0.05    0.39
Q8    1   0.5217  0.9777  1.1197  11.00000  0.05    0.36
Q9    1   0.2787  0.8941  0.7690  11.00000  0.05    0.35
Q10   1   0.3453  0.8681  0.8565  11.00000  0.05    0.35
Q11   1   0.4552  0.5586  0.4833  11.00000  0.05    0.35
Q12   1   0.4323  0.9943  0.8727  11.00000  0.05    0.34
Q13   1   0.3110  1.1030  1.1174  11.00000  0.05    0.33
Q14   1   0.4349  0.3285  0.3531  11.00000  0.05    0.31
Q15   1   0.3488  0.8458  0.7805  11.00000  0.05    0.30
;
_shelx_res_checksum              95547
_shelx_hkl_file
;
  -1   0   0  535.85   16.90
   1   0   0  522.05   17.00
  -2   0   0 9999.00  301.37
   2   0   0 9432.46  301.67
  -3   0   0  410.56   13.60
   3   0   0  406.66   13.60
  -4   0   0 5230.28  163.08
  -5   0   0  612.34   20.90
   5   0   0  636.24   21.10
  -6   0   0  727.43   24.90
   6   0   0  754.32   25.10
  -7   0   0  122.79    6.30
   7   0   0  118.79    6.30
  -8   0   0  136.19    7.30
   8   0   0  145.99    7.60
  -9   0   0   34.10    4.20
   9   0   0   37.40    4.20
   9  -1   0   44.50    4.50
  -9   1   0   51.49    4.70
   8  -1   0  262.17   11.10
  -8   1   0  242.58   10.80
   7  -1   0   85.59    5.20
  -7   1   0   85.49    5.10
   6  -1   0  878.21   29.50
  -6   1   0  895.21   29.30
   5  -1   0   95.39    4.70
  -5   1   0   94.09    4.60
   4  -1   0 2795.52   89.09
  -4   1   0 2836.02   87.29
  -3   1   0  180.48    6.60
   1  -1   0 3152.08   98.49
   1  -1   0 3106.89   98.69
   1  -1   0 3175.08   98.39
  -1   1   0 3253.07   98.49
  -1   1   0 3058.39   98.49
  -1   1   0 3184.18   98.79
   0  -1   0 2212.98   66.79
   0   1   0 2064.79   67.19
  -1  -1   0 1978.40   64.39
  -1  -1   0 2022.60   64.29
   1   1   0 2006.90   63.89
   1   1   0 2092.99   64.29
   1   1   0 2107.29   64.59
  -2  -1   0 5868.91  172.58
  -2  -1   0 5599.54  172.58
  -2  -1   0 5618.44  170.28
   2   1   0 4995.90  172.08
   2   1   0 5443.16  171.78
  -3  -1   0 1586.54   48.00
  -3  -1   0 1522.95   48.30
   3   1   0 1509.35   48.30
   3   1   0 1565.54   48.20
  -4  -1   0 2240.38   69.89
   4   1   0 2247.18   70.09
  -5  -1   0  532.95   17.50
   5   1   0  485.85   17.50
  -6  -1   0  300.77   11.40
   6   1   0  290.27   11.40
  -7  -1   0   75.39    4.80
   7   1   0   77.09    4.90
  -8  -1   0  117.29    6.70
   8   1   0  123.39    6.90
  -9  -1   0   81.09    5.90
   9   1   0   82.49    5.90
   9  -2   0   38.30    4.20
  -9   2   0   34.60    4.10
   8  -2   0  150.48    7.60
  -8   2   0  143.09    7.40
   7  -2   0  150.98    7.40
  -7   2   0  164.28    7.50
   6  -2   0  526.25   18.30
  -6   2   0  514.25   18.10
   5  -2   0  440.56   15.80
  -5   2   0  470.95   15.80
   4  -2   0 1517.05   48.60
   4  -2   0 1545.95   47.70
  -4   2   0 1550.04   48.50
  -4   2   0 1556.54   48.10
   3  -2   0 3257.17  108.69
   3  -2   0 3427.06  106.59
  -3   2   0 3464.55  105.99
  -3   2   0 3461.55  106.89
   2  -2   0 1671.93   50.49
   2  -2   0 1625.54   49.80
   2  -2   0 1594.34   51.79
  -2   2   0 1579.64   51.19
  -2   2   0 1535.05   49.70
  -2   2   0 1628.14   49.80
   1  -2   0 1559.34   47.90
   1  -2   0 1515.95   48.90
   1  -2   0 1528.65   48.50
  -1   2   0 1528.65   49.40
  -1   2   0 1551.04   48.50
  -1   2   0 1568.34   48.50
  -1  -2   0 4620.84  145.29
  -1  -2   0 4623.54  144.79
  -1  -2   0 4543.35  143.99
   1   2   0 4633.44  145.69
   1   2   0 4597.34  143.79
   1   2   0 4765.12  144.59
  -2  -2   0 1703.93   53.79
  -2  -2   0 1580.64   52.99
   2   2   0 1725.53   52.59
   2   2   0 1625.64   53.89
   2   2   0 1741.23   53.59
   2   2   0 1817.32   53.19
  -3  -2   0  948.11   29.90
  -3  -2   0  925.81   30.30
   3   2   0  970.50   30.40
   3   2   0  977.70   29.80
  -4  -2   0  359.16   12.30
  -4  -2   0  361.66   11.40
   4   2   0  341.77   11.20
   4   2   0  337.57   12.20
  -5  -2   0  238.48    9.20
   5   2   0  233.28    9.20
  -6  -2   0  172.48    7.70
   6   2   0  179.48    7.80
  -7  -2   0  158.88    7.60
   7   2   0  154.48    7.60
  -8  -2   0   92.89    5.90
   8   2   0   90.49    5.90
  -9  -2   0   31.90    4.00
   9   2   0   28.80    4.00
   9  -3   0   24.60    3.60
  -9   3   0   26.90    3.80
   8  -3   0   68.39    4.90
  -8   3   0   69.89    4.90
   7  -3   0  146.29    7.10
  -7   3   0  144.29    6.90
   6  -3   0  279.37   11.00
  -6   3   0  296.37   11.00
   5  -3   0  314.27   10.70
   5  -3   0  323.07   11.70
  -5   3   0  335.27   10.60
  -5   3   0  319.67   11.60
   4  -3   0   75.49    3.20
   4  -3   0   85.19    3.70
  -4   3   0   65.69    3.00
  -4   3   0   65.89    3.40
   3  -3   0  981.00   30.90
   3  -3   0 1012.70   30.90
  -3   3   0  949.21   30.80
  -3   3   0  960.30   30.70
   2  -3   0 1803.82   54.69
   2  -3   0 1746.13   56.19
  -2   3   0 1748.03   55.09
  -2   3   0 1661.33   56.09
  -2   3   0 1820.92   54.79
   1  -3   0 2163.78   67.59
   1  -3   0 2093.89   68.19
   1  -3   0 2067.59   68.69
   1  -3   0 2175.48   67.59
  -1   3   0 2217.78   67.69
  -1   3   0 2196.98   69.99
   0  -3   0 1431.86   42.20
   0  -3   0 1335.97   43.30
   0   3   0 1304.97   41.40
   0   3   0 1288.77   42.20
   0   3   0 1297.97   41.80
  -1  -3   0  992.60   32.50
  -1  -3   0 1044.90   32.80
  -1  -3   0 1012.30   32.20
   1   3   0 1071.49   32.20
   1   3   0 1031.30   32.70
   1   3   0 1078.79   32.50
  -2  -3   0 1351.36   40.50
  -2  -3   0 1316.57   40.40
   2   3   0 1249.57   40.20
   2   3   0 1253.37   40.30
   2   3   0 1276.27   40.10
  -3  -3   0  980.40   30.50
  -3  -3   0  948.01   30.70
   3   3   0  956.00   30.60
   3   3   0  961.70   30.40
  -4  -3   0  117.59    5.30
  -4  -3   0  123.49    4.80
   4   3   0  120.19    5.20
   4   3   0  123.19    4.60
  -5  -3   0  366.76   13.40
   5   3   0  365.56   12.10
   5   3   0  380.16   13.40
  -6  -3   0  202.58    8.40
   6   3   0  185.58    8.40
  -7  -3   0  133.89    7.10
   7   3   0  153.68    7.40
  -8  -3   0   26.10    3.60
   8   3   0   23.80    3.40
  -9  -3   0   22.70    4.90
   9   3   0   25.80    3.90
   9  -4   0   66.99    5.30
  -9   4   0   73.59    5.40
   8  -4   0   48.30    4.10
  -8   4   0   53.79    4.30
   7  -4   0  127.89    6.50
  -7   4   0  131.09    6.40
   6  -4   0   91.79    4.80
  -6   4   0   85.39    4.70
   5  -4   0  192.58    7.90
  -5   4   0  202.78    7.90
  -5   4   0  208.88    7.40
   4  -4   0  192.78    7.40
  -4   4   0  196.38    7.40
  -4   4   0  193.18    7.20
   3  -4   0  713.23   23.50
  -3   4   0  751.42   23.60
  -3   4   0  734.83   23.70
   2  -4   0  141.49    5.40
  -2   4   0  162.68    5.60
  -2   4   0  153.78    6.00
  -2   4   0  161.58    5.60
   1  -4   0  969.90   30.30
   1  -4   0  963.40   30.00
  -1   4   0  961.40   29.70
  -1   4   0  921.01   30.40
   0  -4   0    3.70    0.50
   0   4   0    6.60    0.60
  -1  -4   0 1363.96   43.00
  -1  -4   0 1410.26   42.90
   1   4   0 1346.27   43.30
   1   4   0 1374.36   42.60
  -2  -4   0  705.73   24.30
   2   4   0  811.72   24.50
   2   4   0  751.52   24.10
  -3  -4   0  255.47    9.50
   3   4   0  267.97    9.40
   3   4   0  271.17    9.50
  -4  -4   0   91.89    4.40
   4   4   0   81.79    3.80
   4   4   0   79.49    4.10
  -5  -4   0  364.66   13.10
   5   4   0  348.67   12.00
   5   4   0  348.17   12.90
  -6  -4   0  104.89    5.60
   6   4   0  104.09    5.60
  -7  -4   0   54.89    4.40
   7   4   0   51.29    4.10
  -8  -4   0   28.80    3.80
   8   4   0   30.30    3.60
   9  -5   0   38.00    4.00
   8  -5   0   51.89    4.20
  -8   5   0   47.30    4.20
   7  -5   0   24.20    2.80
  -7   5   0   23.90    2.90
   6  -5   0   71.99    4.30
  -6   5   0   81.69    4.50
   5  -5   0  512.65   17.40
  -5   5   0  502.35   17.30
  -5   5   0  504.25   17.10
   4  -5   0  277.77    9.90
  -4   5   0  276.47   10.00
  -4   5   0  272.07   10.00
   3  -5   0  592.44   18.50
  -3   5   0  545.25   19.00
  -3   5   0  567.94   18.60
   2  -5   0  196.08    6.90
   2  -5   0  194.98    7.20
  -2   5   0  191.18    7.60
  -2   5   0  211.28    7.30
   1  -5   0  847.72   26.20
   1  -5   0  822.52   26.70
  -1   5   0  863.01   26.20
  -1   5   0  820.02   27.30
   0  -5   0 1567.54   52.09
   0  -5   0 1664.63   52.49
   0   5   0 1778.92   52.09
   0   5   0 1682.43   52.79
  -1  -5   0  547.45   18.00
  -1  -5   0  554.54   17.30
   1   5   0  555.54   17.30
   1   5   0  526.95   18.30
  -2  -5   0  221.88    8.20
   2   5   0  218.78    8.30
   2   5   0  218.98    7.70
  -3  -5   0  770.12   25.10
   3   5   0  766.72   24.70
   3   5   0  751.52   25.00
  -4  -5   0  223.98    8.90
   4   5   0  226.38    8.70
   4   5   0  229.88    8.60
  -5  -5   0  112.09    5.90
   5   5   0  126.29    5.30
   5   5   0  130.69    5.90
  -6  -5   0  100.69    5.70
   6   5   0  103.49    5.50
  -7  -5   0   65.79    4.90
   7   5   0   66.39    4.70
  -8  -5   0   59.09    5.10
   8   5   0   60.59    4.80
   9  -6   0   26.50    3.80
   8  -6   0   22.40    3.10
  -8   6   0   30.00    3.60
   7  -6   0   48.80    3.70
  -7   6   0   51.59    4.00
   6  -6   0  157.68    7.00
  -6   6   0  158.28    7.10
   5  -6   0  147.99    6.20
  -5   6   0  137.09    6.20
  -5   6   0  142.99    6.30
   4  -6   0  338.57   11.80
  -4   6   0  336.97   12.30
  -4   6   0  337.57   12.00
   3  -6   0   31.20    2.20
   3  -6   0   30.60    2.00
  -3   6   0   21.70    2.20
   2  -6   0  274.67    9.30
   2  -6   0  267.77    9.80
  -2   6   0  293.07   10.60
   1  -6   0  636.64   21.00
   1  -6   0  635.64   20.20
  -1   6   0  637.74   21.70
  -1   6   0  661.03   20.40
   0  -6   0 1243.78   40.00
   0  -6   0 1312.07   39.20
   0   6   0 1264.87   39.20
   0   6   0 1239.38   40.60
  -1  -6   0  344.17   11.80
  -1  -6   0  339.77   10.90
   1   6   0  336.27   10.90
   1   6   0  311.07   12.10
  -2  -6   0  299.97   10.90
   2   6   0  301.67   11.20
   2   6   0  302.07   10.30
  -3  -6   0   88.99    4.90
   3   6   0  111.69    5.20
   3   6   0  112.29    4.60
  -4  -6   0  458.65   16.40
   4   6   0  472.15   16.20
   4   6   0  459.05   16.00
  -5  -6   0  213.48    9.00
   5   6   0  206.38    8.30
   5   6   0  208.68    8.60
  -6  -6   0  105.79    6.10
   6   6   0  107.89    5.70
  -7  -6   0   58.09    4.80
   7   6   0   51.19    4.20
  -8  -6   0   21.40    3.60
   8   6   0   24.40    3.40
   8  -7   0   99.19    5.90
  -8   7   0   98.49    6.10
   7  -7   0   56.19    4.00
  -7   7   0   49.30    4.00
   6  -7   0   76.59    4.40
  -6   7   0   77.49    4.60
   5  -7   0   84.49    4.30
  -5   7   0   79.29    4.50
  -5   7   0   83.19    4.50
   4  -7   0  244.58    9.00
   4  -7   0  238.58    9.50
  -4   7   0  255.47    9.90
   3  -7   0  249.38    9.40
   3  -7   0  247.68    8.90
  -3   7   0  263.17   10.10
   2  -7   0  787.72   25.90
   2  -7   0  791.22   25.10
  -2   7   0  806.32   26.80
   1  -7   0  406.86   13.80
   1  -7   0  414.86   12.80
  -1   7   0  376.96   14.40
  -1   7   0  393.66   13.00
   0  -7   0  637.34   20.50
   0  -7   0  621.04   21.40
   0   7   0  658.83   22.30
   0   7   0  684.13   20.60
  -1  -7   0   47.90    2.30
  -1  -7   0   45.70    3.10
  -2  -7   0  446.36   15.90
   2   7   0  458.75   16.30
   2   7   0  454.55   15.10
  -3  -7   0  460.85   16.00
   3   7   0  446.16   15.20
   3   7   0  435.86   16.10
  -4  -7   0  375.56   14.30
   4   7   0  392.56   14.20
   4   7   0  390.36   13.80
  -5  -7   0   14.70    2.50
   5   7   0   13.70    2.00
   5   7   0   11.60    2.00
  -6  -7   0   64.39    4.90
   6   7   0   62.69    4.30
  -7  -7   0   16.50    3.10
   7   7   0   18.30    3.00
   8   7   0   85.29    5.90
   8  -8   0   19.40    3.00
  -8   8   0    9.60    3.90
   7  -8   0   59.79    4.20
  -7   8   0   48.20    4.20
   6  -8   0   59.29    3.90
   5  -8   0   35.30    2.80
   5  -8   0   37.00    3.20
  -5   8   0   37.80    3.30
   4  -8   0  227.18    8.90
   4  -8   0  215.58    8.20
  -4   8   0  216.88    9.30
   3  -8   0  363.96   13.00
   3  -8   0  363.16   12.10
  -3   8   0  346.97   13.60
   2  -8   0  295.07    9.80
   2  -8   0  290.17   10.80
  -2   8   0  291.57   11.70
   1  -8   0    2.40    1.10
   1  -8   0    2.30    0.70
  -1   8   0    2.70    1.30
   0  -8   0  393.66   14.30
   0  -8   0  410.46   13.20
   0   8   0  419.56   15.30
  -1  -8   0  534.95   16.90
  -1  -8   0  523.35   18.10
   1   8   0  504.75   18.70
  -2  -8   0  698.73   24.00
   2   8   0  726.73   24.60
   2   8   0  701.53   22.90
  -3  -8   0   77.29    4.70
   3   8   0   71.39    3.70
   3   8   0   66.59    4.40
  -4  -8   0   98.99    5.70
   4   8   0  105.29    5.60
   4   8   0  106.09    5.00
  -5  -8   0   64.09    4.70
   5   8   0   61.99    3.90
   5   8   0   61.49    4.20
  -6  -8   0  115.39    6.90
   6   8   0  115.09    6.20
  -7  -8   0   69.49    5.70
   7   8   0   71.69    6.50
   7  -9   0   22.20    3.40
   6  -9   0   58.49    4.40
   5  -9   0   26.80    2.90
  -5   9   0   24.00    3.00
   4  -9   0   53.79    3.80
   4  -9   0   54.69    3.20
  -4   9   0   59.99    4.40
   3  -9   0   19.20    1.80
   3  -9   0   21.60    2.40
  -3   9   0   18.20    2.70
   2  -9   0  190.28    6.80
   2  -9   0  184.98    7.80
  -2   9   0  196.78    8.90
   1  -9   0  216.58    8.50
   1  -9   0  209.48    7.60
  -1   9   0  205.08    9.40
   0  -9   0  220.28    8.90
   0  -9   0  230.98    8.40
   0   9   0  208.58    9.70
  -1  -9   0  107.99    5.50
   1   9   0  104.69    6.00
  -2  -9   0   82.69    5.00
   2   9   0   82.99    5.20
  -3  -9   0   87.09    5.40
   3   9   0   87.19    5.40
  -4  -9   0  134.89    7.10
   4   9   0  132.39    6.90
  -5  -9   0   87.99    5.90
   5   9   0   84.99    5.40
  -6  -9   0  119.69    7.30
   6 -10   0   21.90    3.10
   5 -10   0   13.40    2.30
  -5  10   0   16.20    2.80
   4 -10   0   61.39    4.10
  -4  10   0   60.99    4.70
   3 -10   0  105.99    5.60
  -3  10   0  114.89    6.60
   2 -10   0  177.68    7.70
  -2  10   0  177.68    8.80
   1 -10   0   40.10    3.20
  -1  10   0   34.30    3.60
   0 -10   0   80.19    4.70
   0  10   0   80.49    5.40
  -1 -10   0  115.99    6.10
   1  10   0  118.69    6.70
  -2 -10   0  216.18    9.40
   2  10   0  206.88    9.80
  -3 -10   0   98.59    5.90
   3  10   0   90.59    5.80
  -4 -10   0   94.79    6.10
   4  10   0   91.89    5.90
  -5 -10   0   78.69    5.80
   5  10   0   74.89    5.40
  -6 -10   0   29.10    4.80
   6 -11   0   29.90    3.60
   5 -11   0   54.99    4.20
  -5  11   0   47.20    4.60
   4 -11   0   30.80    3.30
  -4  11   0   29.20    3.80
   3 -11   0   49.50    3.80
  -3  11   0   43.90    4.30
   2 -11   0    5.10    1.60
  -2  11   0    7.80    2.20
   1 -11   0  122.89    6.30
  -1  11   0  129.29    7.40
   0 -11   0  128.99    6.60
   0  11   0  127.29    7.50
  -1 -11   0  160.08    7.70
   1  11   0  154.58    8.40
  -2 -11   0   58.49    4.70
   2  11   0   51.99    4.60
  -3 -11   0   85.89    5.90
   3  11   0   90.69    6.10
  -4 -11   0   45.70    4.70
   4  11   0   41.70    4.20
  -5 -11   0   80.99    6.20
   5 -12   0   32.90    3.70
  -5  12   0   29.80    4.20
   4 -12   0   21.40    3.00
  -4  12   0   22.20    3.60
   3 -12   0   25.30    3.10
  -3  12   0   30.60    3.90
   2 -12   0   86.19    5.30
  -2  12   0   88.39    6.40
   1 -12   0  167.98    8.00
  -1  12   0  169.98    9.30
   0 -12   0   43.20    4.00
   0  12   0   42.60    4.50
  -1 -12   0   44.90    4.40
   1  12   0   43.50    4.50
  -2 -12   0    9.90    2.60
   2  12   0    8.60    2.40
  -3 -12   0  150.68    8.30
   3  12   0  154.68    8.70
  -4 -12   0   30.20    4.30
   4  12   0   26.80    3.90
   3 -13   0  136.79    7.30
   2 -13   0   38.00    3.90
  -2  13   0   30.80    4.40
   1 -13   0   58.79    4.80
  -1  13   0   56.69    5.40
   0 -13   0    8.10    2.50
   0  13   0    6.50    2.50
  -1 -13   0  110.99    7.00
   1  13   0  126.49    8.80
  -2 -13   0   49.20    5.10
  -1 -14   1   28.80    4.20
   0 -14   1   77.99    5.70
   1 -14   1    4.50    2.10
   2 -14   1   34.40    3.80
  -3 -13   1   26.90    4.10
   2  13  -1  107.19    7.30
  -2 -13   1   94.39    6.50
   1  13  -1   29.00    4.00
  -1 -13   1   30.00    3.90
   0  13  -1   22.40    3.80
   0 -13   1   20.40    3.20
  -1  13  -1   73.49    6.10
   1 -13   1   80.59    5.30
  -2  13  -1   76.19    6.20
   2 -13   1   83.29    5.30
  -3  13  -1   66.99    5.90
   3 -13   1   79.89    5.10
  -4  13  -1   31.60    6.60
   4 -13   1   33.20    3.60
   4  12  -1   70.99    5.60
  -4 -12   1   67.39    5.50
   3  12  -1   54.29    4.90
  -3 -12   1   61.69    5.10
   2  12  -1   25.50    3.70
  -2 -12   1   25.70    3.70
   1  12  -1   24.00    3.70
  -1 -12   1   36.70    3.80
   0  12  -1   96.49    6.70
   0 -12   1  110.39    6.10
  -1  12  -1  145.79    8.30
   1 -12   1  139.69    7.00
  -2  12  -1   58.69    5.20
   2 -12   1   64.09    4.40
  -3  12  -1   13.60    2.90
   3 -12   1   12.60    2.30
  -4  12  -1   24.30    3.80
   4 -12   1   28.30    3.20
  -5  12  -1   34.60    4.40
   5 -12   1   37.30    3.70
  -5 -11   1   52.49    5.00
   4  11  -1   44.30    4.30
  -4 -11   1   44.20    4.40
   3  11  -1   73.69    5.40
  -3 -11   1   71.89    5.20
   2  11  -1   81.29    5.70
  -2 -11   1   88.09    5.40
   1  11  -1  229.98   10.70
  -1 -11   1  220.38    9.60
   0  11  -1  205.18    9.90
   0 -11   1  191.88    8.60
  -1  11  -1  111.59    6.80
   1 -11   1  106.79    5.70
  -2  11  -1   62.79    5.00
   2 -11   1   61.59    4.10
  -3  11  -1   42.80    4.30
   3 -11   1   43.10    3.50
  -4  11  -1  129.29    7.40
   4 -11   1  127.19    6.50
  -5  11  -1  104.59    6.60
   5 -11   1   97.09    5.70
   6 -11   1   52.39    4.40
  -6 -10   1   25.30    3.90
   5  10  -1   63.29    4.70
  -5 -10   1   57.39    5.00
   4  10  -1  138.99    7.30
  -4 -10   1  129.39    7.10
   3  10  -1  123.69    6.70
  -3 -10   1  110.49    6.30
   2  10  -1  395.46   15.60
  -2 -10   1  386.76   14.70
   1  10  -1  136.29    7.20
  -1 -10   1  122.69    6.30
   0  10  -1  148.69    7.70
   0 -10   1  144.39    6.70
  -1  10  -1  231.28   10.20
   1 -10   1  209.68    8.80
  -2  10  -1  378.06   14.80
   2 -10   1  359.36   13.50
  -3  10  -1  360.16   14.20
   3 -10   1  333.17   12.90
  -4  10  -1  161.38    8.10
   4 -10   1  152.98    7.20
  -5  10  -1   81.09    5.40
   5 -10   1   76.29    4.80
   6 -10   1   91.19    5.50
   7 -10   1   60.39    4.90
  -7  -9   1   30.90    5.40
  -6  -9   1  163.48    8.60
   5   9  -1  189.98    8.60
   5   9  -1  186.58    8.10
  -5  -9   1  173.28    8.70
   4   9  -1  187.78    8.60
   4   9  -1  190.08    7.80
  -4  -9   1  180.38    8.40
   3   9  -1  171.68    8.10
   3   9  -1  168.78    6.80
  -3  -9   1  154.08    7.50
   2   9  -1  238.08   10.30
   2   9  -1  241.48    8.90
  -2  -9   1  242.58    9.80
   1   9  -1  550.74   19.30
  -1  -9   1  512.85   18.20
  -1  -9   1  508.05   17.10
   0   9  -1  764.32   26.40
   0  -9   1  741.63   25.20
   0  -9   1  770.22   24.20
  -1   9  -1  372.06   14.10
   1  -9   1  354.86   11.90
   1  -9   1  352.06   12.90
  -2   9  -1  550.04   19.40
   2  -9   1  512.95   18.10
   2  -9   1  525.45   17.20
  -3   9  -1  231.08    9.80
   3  -9   1  211.88    8.00
   3  -9   1  214.38    8.70
  -4   9  -1  196.18    9.00
   4  -9   1  195.28    7.70
   4  -9   1  205.18    8.40
  -5   9  -1  149.99    7.30
   5  -9   1  147.59    6.90
   5  -9   1  141.29    6.30
   6  -9   1  117.99    6.00
   6  -9   1  124.99    6.50
   7  -9   1   68.99    4.90
   8   8  -1   54.29    6.20
   7   8  -1  127.09    6.90
  -7  -8   1  110.49    7.00
   6   8  -1  174.48    7.90
  -6  -8   1  157.98    8.20
   5   8  -1   89.79    5.10
   5   8  -1   97.99    5.10
  -5  -8   1   79.69    5.30
   4   8  -1  218.28    8.70
   4   8  -1  217.88    9.20
  -4  -8   1  209.38    9.10
   3   8  -1  326.67   11.40
   3   8  -1  326.47   12.50
  -3  -8   1  296.77   11.90
   2   8  -1 1440.36   46.00
  -2  -8   1 1383.36   45.20
   1   8  -1  794.82   26.50
  -1  -8   1  769.22   25.60
  -1  -8   1  758.92   24.60
   0   8  -1  532.25   18.60
   0  -8   1  509.15   17.50
   0  -8   1  507.45   16.60
  -1   8  -1  387.36   14.10
   1  -8   1  366.86   12.20
   1  -8   1  357.76   13.00
  -2   8  -1  507.55   18.20
   2  -8   1  500.65   17.20
   2  -8   1  513.05   16.60
  -3   8  -1  783.42   26.60
   3  -8   1  773.02   25.00
   3  -8   1  776.22   25.60
  -4   8  -1  425.36   15.50
   4  -8   1  414.76   14.30
   4  -8   1  406.16   14.70
  -5   8  -1  132.09    6.40
   5  -8   1  124.19    5.80
  -6   8  -1  132.69    6.30
   6  -8   1  126.29    6.10
  -7   8  -1   93.29    5.60
   7  -8   1   96.49    5.60
  -8   8  -1   26.50    3.60
   8  -8   1   30.10    3.60
   8   7  -1   95.99    6.30
  -8  -7   1   96.59    9.60
   7   7  -1   42.70    3.90
  -7  -7   1   35.90    4.10
   6   7  -1   96.89    5.40
  -6  -7   1   94.09    5.80
   5   7  -1  162.78    7.40
   5   7  -1  175.28    7.40
  -5  -7   1  171.18    7.90
   4   7  -1  626.04   21.30
   4   7  -1  611.54   20.80
  -4  -7   1  605.44   21.10
   3   7  -1  717.83   23.80
   3   7  -1  721.93   24.50
  -3  -7   1  734.83   24.30
   2   7  -1  218.78    8.70
  -2  -7   1  197.58    7.50
  -2  -7   1  203.98    8.10
   1   7  -1  354.76   12.90
  -1  -7   1  339.67   11.40
  -1  -7   1  334.77   12.10
   0   7  -1  678.33   22.20
   0  -7   1  634.74   20.50
   0  -7   1  623.14   21.10
  -1   7  -1  973.40   32.20
   1  -7   1  969.20   31.30
   1  -7   1  986.90   30.60
  -2   7  -1  691.33   22.80
   2  -7   1  662.33   21.30
   2  -7   1  647.44   21.80
  -3   7  -1  401.86   14.10
   3  -7   1  368.36   13.30
   3  -7   1  376.36   12.90
  -4   7  -1  362.76   13.00
   4  -7   1  334.17   12.20
  -5   7  -1  113.09    5.60
  -5   7  -1  119.49    5.50
   5  -7   1  121.59    5.50
  -6   7  -1  108.99    5.50
   6  -7   1  101.39    5.30
  -7   7  -1   62.99    4.40
   7  -7   1   57.19    4.20
  -8   7  -1  105.29    6.20
   8  -7   1  103.79    6.20
   8   6  -1   46.00    4.40
  -8  -6   1   44.30    4.70
   7   6  -1  119.99    6.60
  -7  -6   1  119.89    6.80
   6   6  -1  206.98    9.10
  -6  -6   1  215.58    9.40
   5   6  -1  311.27   11.40
   5   6  -1  318.07   11.90
  -5  -6   1  305.17   11.90
   4   6  -1  384.36   13.40
   4   6  -1  373.86   13.40
  -4  -6   1  362.96   13.50
   3   6  -1  339.27   12.10
   3   6  -1  356.96   12.60
  -3  -6   1  342.87   12.40
   2   6  -1  604.64   20.10
  -2  -6   1  587.64   19.60
  -2  -6   1  581.14   19.20
   1   6  -1  589.04   20.30
  -1  -6   1  598.64   19.70
  -1  -6   1  609.94   19.10
   0   6  -1 1960.90   63.69
   0   6  -1 2098.69   62.39
   0  -6   1 2013.40   62.89
   0  -6   1 2006.60   63.29
  -1   6  -1  483.65   16.80
  -1   6  -1  492.15   15.70
   1  -6   1  480.15   15.50
   1  -6   1  476.85   16.00
  -2   6  -1  617.54   20.00
   2  -6   1  582.44   18.90
   2  -6   1  564.24   19.20
  -3   6  -1   11.80    1.70
  -4   6  -1  542.95   18.10
  -4   6  -1  537.65   18.50
   4  -6   1  544.75   18.10
  -5   6  -1  128.89    5.80
  -5   6  -1  139.29    6.00
   5  -6   1  133.39    5.90
  -6   6  -1  159.78    7.00
   6  -6   1  156.08    7.10
  -7   6  -1   40.10    3.60
   7  -6   1   35.60    3.40
  -8   6  -1   30.40    3.70
   8  -6   1   31.40    3.60
   9  -6   1   18.50    4.00
   8   5  -1   74.09    5.40
  -8  -5   1   69.49    5.40
   7   5  -1  108.29    6.10
  -7  -5   1  106.49    6.20
   6   5  -1   87.09    5.00
  -6  -5   1   89.69    5.20
   5   5  -1  131.99    5.40
   5   5  -1  129.09    6.00
  -5  -5   1  113.49    5.90
   4   5  -1  427.86   15.00
   4   5  -1  433.96   14.80
  -4  -5   1  432.96   15.10
   3   5  -1  234.78    9.00
   3   5  -1  243.38    8.80
  -3  -5   1  249.18    9.00
   2   5  -1  647.74   21.70
  -2  -5   1  648.84   21.00
  -2  -5   1  669.83   21.40
   1   5  -1  293.17   10.00
   1   5  -1  300.07    9.10
  -1  -5   1  244.38    9.30
  -1  -5   1  250.97    9.00
   0   5  -1 1550.74   50.89
   0   5  -1 1689.83   49.99
   0  -5   1 1653.33   50.89
   0  -5   1 1563.04   50.79
  -1   5  -1  726.33   21.60
  -1   5  -1  705.73   22.50
   1  -5   1  641.04   21.40
   1  -5   1  649.64   21.70
  -2   5  -1  572.44   19.60
   2  -5   1  593.34   19.10
   2  -5   1  603.64   18.90
  -3   5  -1  169.68    6.40
  -3   5  -1  172.68    6.70
   3  -5   1  165.58    6.30
  -4   5  -1  643.14   21.20
  -4   5  -1  649.14   21.30
   4  -5   1  641.54   21.20
  -5   5  -1  216.18    8.00
  -5   5  -1  219.78    8.40
   5  -5   1  202.98    8.30
  -6   5  -1  110.09    5.40
   6  -5   1  107.29    5.50
  -7   5  -1   15.30    2.40
   7  -5   1   11.80    2.10
  -8   5  -1   54.89    4.40
   8  -5   1   55.59    4.40
  -9   5  -1   39.90    5.70
   9  -5   1   42.90    4.20
   8   4  -1   47.80    4.30
  -8  -4   1   45.60    4.30
   7   4  -1   38.70    3.60
  -7  -4   1   39.60    3.80
   6   4  -1  206.88    8.90
  -6  -4   1  208.68    8.80
   5   4  -1  215.38    8.70
   5   4  -1  206.48    7.70
  -5  -4   1  223.38    8.70
   4   4  -1  284.77   10.70
   4   4  -1  287.97   10.20
  -4  -4   1  306.77   10.70
   3   4  -1  380.46   12.40
   3   4  -1  362.76   12.20
  -3  -4   1  328.97   12.20
   2   4  -1 1019.80   33.50
  -2  -4   1 1101.09   33.20
  -2  -4   1 1046.50   33.30
   1   4  -1  963.90   28.00
   1   4  -1  888.41   27.40
   1   4  -1  888.11   28.20
  -1  -4   1  840.82   27.50
  -1  -4   1  815.22   27.70
   0   4  -1  617.84   19.90
   0   4  -1  610.14   19.70
   0   4  -1  591.54   20.40
   0  -4   1  643.44   19.90
   0  -4   1  667.33   19.60
  -1   4  -1  373.06   12.30
  -1   4  -1  367.66   12.90
   1  -4   1  389.26   12.40
   1  -4   1  385.76   12.40
   1  -4   1  395.36   12.30
  -2   4  -1  928.31   30.20
  -2   4  -1  963.40   29.80
   2  -4   1  950.30   29.80
  -3   4  -1  922.51   28.90
  -3   4  -1  910.21   28.70
   3  -4   1  879.71   28.80
  -4   4  -1   79.69    3.70
  -4   4  -1   77.49    3.90
   4  -4   1   99.99    4.20
  -5   4  -1  168.18    6.10
  -5   4  -1  163.78    6.80
   5  -4   1  167.18    6.90
   5  -4   1  160.68    6.40
  -6   4  -1   61.99    3.90
   6  -4   1   66.49    4.00
  -7   4  -1  128.99    6.50
   7  -4   1  131.49    6.60
  -8   4  -1   53.19    4.30
   8  -4   1   50.89    4.30
  -9   4  -1   35.90    4.20
   9  -4   1   37.90    4.10
   9   3  -1   13.80    3.10
  -9  -3   1   13.70    3.00
   8   3  -1   27.90    3.60
  -8  -3   1   27.80    3.60
   7   3  -1   92.69    5.60
  -7  -3   1   89.19    5.40
   6   3  -1  281.57   11.00
  -6  -3   1  269.57   10.80
   5   3  -1  190.08    7.80
   5   3  -1  193.28    6.50
  -5  -3   1  174.58    7.60
   4   3  -1  155.18    5.70
   4   3  -1  156.68    6.40
  -4  -3   1  157.48    6.40
  -4  -3   1  156.88    5.80
   3   3  -1  570.54   18.10
   3   3  -1  557.84   18.40
  -3  -3   1  546.95   18.30
  -3  -3   1  563.04   18.20
   2   3  -1 1246.48   38.60
  -2  -3   1 1210.18   38.50
  -2  -3   1 1242.68   38.70
   1   3  -1 1227.78   38.70
   1   3  -1 1202.78   38.30
   1   3  -1 1166.88   37.90
  -1  -3   1 1214.48   38.60
  -1  -3   1 1260.67   38.40
  -1  -3   1 1260.37   38.00
   0   3  -1   25.90    1.30
   0   3  -1   22.90    1.30
   0   3  -1   25.30    1.70
   0  -3   1   33.10    1.30
  -1   3  -1 2569.04   80.49
  -1   3  -1 2582.84   80.09
   1  -3   1 2437.26   79.39
   1  -3   1 2509.05   78.79
   1  -3   1 2519.55   78.59
  -2   3  -1  800.32   25.90
  -2   3  -1  814.22   26.10
  -2   3  -1  864.21   26.10
   2  -3   1  845.02   26.20
   2  -3   1  792.62   25.90
  -3   3  -1  953.70   31.40
  -3   3  -1  970.70   31.30
   3  -3   1 1023.20   31.60
   3  -3   1 1036.10   31.40
  -4   3  -1  172.38    6.10
   4  -3   1  174.88    6.20
   4  -3   1  173.28    6.80
  -5   3  -1  228.88    8.80
  -5   3  -1  233.18    7.70
   5  -3   1  224.48    8.80
   5  -3   1  227.98    7.80
  -6   3  -1  244.38    9.90
   6  -3   1  270.77   10.30
  -7   3  -1  110.89    5.90
   7  -3   1  116.49    6.10
  -8   3  -1   13.70    2.60
   8  -3   1   12.80    2.50
  -9   3  -1   20.90    3.30
   9  -3   1   28.00    3.70
   9   2  -1   18.70    3.50
  -9  -2   1   19.70    3.30
   8   2  -1   94.59    6.00
  -8  -2   1   98.69    6.00
   7   2  -1   97.29    5.50
  -7  -2   1   84.09    5.20
   6   2  -1   62.99    4.00
  -6  -2   1   56.49    3.80
   5   2  -1  153.38    6.60
  -5  -2   1  144.99    6.40
   4   2  -1  206.68    7.90
   4   2  -1  222.08    6.90
  -4  -2   1  201.18    6.90
  -4  -2   1  193.68    7.70
   3   2  -1  455.15   16.00
   3   2  -1  470.25   15.50
  -3  -2   1  507.05   16.00
  -3  -2   1  513.15   15.60
   2   2  -1  728.93   23.20
   2   2  -1  745.43   23.10
   2   2  -1  770.72   23.10
   2   2  -1  719.93   23.30
  -2  -2   1  728.33   23.10
  -2  -2   1  706.33   23.20
   1   2  -1 2671.43   82.29
   1   2  -1 2699.33   82.49
   1   2  -1 2639.84   83.79
  -1  -2   1 2585.44   82.29
  -1  -2   1 2574.74   83.29
  -1  -2   1 2576.14   82.39
   0   2  -1  651.13   19.30
   0   2  -1  621.94   19.40
   0   2  -1  627.44   19.70
   0  -2   1  583.84   19.80
   0  -2   1  568.14   19.50
  -1   2  -1   75.59    3.10
  -1   2  -1   75.79    3.00
  -1   2  -1   72.79    2.90
   1  -2   1   93.99    3.00
  -2   2  -1 1292.17   42.70
  -2   2  -1 1330.47   42.20
  -2   2  -1 1354.16   42.40
   2  -2   1 1334.77   43.50
   2  -2   1 1422.96   42.30
   2  -2   1 1427.36   43.00
  -3   2  -1 2740.43   85.29
  -3   2  -1 2674.63   85.89
   3  -2   1 2722.03   84.99
   3  -2   1 2730.93   85.39
  -4   2  -1  137.49    5.60
  -4   2  -1  135.09    4.60
   4  -2   1  139.79    4.80
   4  -2   1  139.49    5.70
  -5   2  -1  330.87   11.90
   5  -2   1  331.17   12.00
  -6   2  -1   28.00    2.80
   6  -2   1   33.50    3.00
  -7   2  -1  193.28    8.60
   7  -2   1  197.88    8.70
  -8   2  -1   31.20    3.70
   8  -2   1   36.30    3.80
  -9   2  -1   46.10    4.60
   9  -2   1   49.00    4.60
   9   1  -1   57.79    5.00
  -9  -1   1   54.99    5.00
   8   1  -1   47.70    4.40
  -8  -1   1   42.40    4.10
   7   1  -1   27.50    3.10
  -7  -1   1   31.10    3.20
   6   1  -1   85.89    5.10
  -6  -1   1  103.39    5.10
   5   1  -1  425.66   15.10
  -5  -1   1  435.96   15.00
   4   1  -1  535.65   17.80
  -4  -1   1  523.35   17.60
   3   1  -1 1378.86   42.00
   3   1  -1 1360.36   41.80
  -3  -1   1 1266.57   41.80
   2   1  -1   20.90    1.10
   2   1  -1   20.50    1.40
   2   1  -1   18.50    1.30
  -2  -1   1   24.90    1.10
  -2  -1   1   26.20    1.50
   1   1  -1 1046.00   33.40
   1   1  -1 1069.59   33.90
   1   1  -1 1035.80   33.00
  -1  -1   1 1079.59   34.10
  -1  -1   1 1076.49   33.10
  -1  -1   1 1064.19   33.60
   0   1  -1  238.28    8.60
   0   1  -1  249.38    8.70
   0  -1   1  296.77    8.80
   0  -1   1  310.27    8.60
  -2   1  -1  165.88    6.60
  -2   1  -1  203.38    6.60
  -2   1  -1  211.58    6.20
   2  -1   1  191.68    6.60
   2  -1   1  186.88    6.20
  -3   1  -1  488.45   15.90
   3  -1   1  483.45   16.00
  -4   1  -1   17.60    1.90
  -5   1  -1  401.46   13.90
   5  -1   1  386.36   13.90
  -6   1  -1   63.39    4.10
   6  -1   1   73.49    4.30
  -7   1  -1  138.79    6.90
   7  -1   1  141.49    7.00
  -8   1  -1   22.50    3.40
   8  -1   1   21.60    3.40
  -9   1  -1   45.80    4.60
   9  -1   1   38.00    4.10
   9   0  -1   25.10    3.80
  -9   0   1   19.20    3.20
   8   0  -1   30.70    3.80
  -8   0   1   42.50    4.00
   7   0  -1  119.59    6.30
  -7   0   1  120.19    6.20
   6   0  -1   53.39    3.80
  -6   0   1   55.39    3.70
   5   0  -1  418.86   14.60
  -5   0   1  408.26   14.40
   4   0  -1  332.07   11.60
  -4   0   1  326.67   11.50
   3   0  -1  112.49    4.50
   2   0  -1  898.61   29.10
   2   0  -1  893.21   29.20
  -2   0   1  929.31   29.10
  -2   0   1 1007.80   29.30
   1   0  -1 2960.50   93.49
   1   0  -1 3179.58   93.49
   1   0  -1 2930.21   92.79
   1   0  -1 2967.60   93.29
  -1   0   1 2916.71   92.79
   0   0  -1   -2.20    0.10
  -1   0  -1 1633.84   50.29
   1   0   1 1563.54   50.59
   1   0   1 1615.14   50.29
  -2   0  -1 1645.84   52.59
  -2   0  -1 1628.44   51.99
  -2   0  -1 1721.23   51.59
   2   0   1 1631.74   52.99
  -3   0  -1  877.01   27.80
   3   0   1  872.71   27.90
  -4   0  -1  660.13   21.50
   4   0   1  645.64   21.50
  -5   0  -1  448.56   15.40
   5   0   1  434.66   15.40
  -6   0  -1   89.49    4.90
   6   0   1   86.99    4.80
  -7   0  -1   83.89    5.10
   7   0   1   75.09    4.90
  -8   0  -1   34.20    4.00
   8   0   1   36.40    3.70
  -9   0  -1   29.00    4.00
   9   0   1   29.50    4.00
   9  -1  -1   33.30    4.00
  -9   1   1   38.30    4.20
   8  -1  -1   59.99    4.80
  -8   1   1   69.29    4.90
   7  -1  -1  114.09    6.00
  -7   1   1  104.69    5.70
   6  -1  -1  134.59    6.70
  -6   1   1  166.58    6.90
   5  -1  -1  184.78    7.40
  -5   1   1  173.78    7.20
   4  -1  -1  503.15   18.50
  -4   1   1  615.94   18.60
   3  -1  -1 1103.39   34.40
   3  -1  -1 1125.99   34.70
  -3   1   1 1072.59   34.50
  -3   1   1 1088.79   34.50
   2  -1  -1  640.84   21.50
   2  -1  -1  656.23   21.20
  -2   1   1  744.73   21.60
  -2   1   1  682.23   21.20
   1  -1  -1 1568.84   47.20
   1  -1  -1 1589.34   47.00
  -1   1   1 1468.55   47.60
  -1   1   1 1415.56   46.90
  -1   1   1 1381.66   47.10
   0  -1  -1  115.59    3.90
   0  -1  -1  121.29    3.80
   0   1   1   91.49    3.80
  -1  -1  -1  124.69    4.40
  -1  -1  -1  123.29    4.40
  -1  -1  -1  120.29    4.50
   1   1   1  130.59    4.40
   1   1   1  133.39    4.50
  -2  -1  -1 1394.46   44.60
  -2  -1  -1 1487.35   45.60
  -2  -1  -1 1462.65   44.60
   2   1   1 1448.46   45.20
   2   1   1 1384.86   45.80
  -3  -1  -1  379.96   11.00
  -3  -1  -1  356.86   11.70
   3   1   1  318.27   10.90
   3   1   1  318.47   11.60
  -4  -1  -1  571.94   18.30
   4   1   1  518.45   18.20
  -5  -1  -1  209.08    8.00
   5   1   1  184.28    7.90
  -6  -1  -1  167.68    7.30
   6   1   1  153.28    7.10
  -7  -1  -1   42.40    3.70
   7   1   1   48.50    3.80
  -8  -1  -1   78.69    5.50
   8   1   1   85.59    5.60
  -9  -1  -1   50.39    4.80
   9   1   1   47.70    4.70
   9  -2  -1   37.00    4.20
  -9   2   1   34.90    4.00
   8  -2  -1   21.50    3.20
  -8   2   1   27.40    3.40
   7  -2  -1  125.19    6.50
  -7   2   1  124.29    6.20
   6  -2  -1  100.99    5.40
  -6   2   1  111.79    5.40
   5  -2  -1  169.88    7.20
  -5   2   1  183.88    7.20
   4  -2  -1  272.97   10.00
   4  -2  -1  262.47    9.20
  -4   2   1  283.27    9.90
  -4   2   1  295.57    9.20
   3  -2  -1  961.00   31.30
   3  -2  -1  995.20   31.00
  -3   2   1 1017.40   31.00
  -3   2   1  986.70   31.30
   2  -2  -1  386.36   12.60
   2  -2  -1  367.66   12.50
  -2   2   1  382.66   12.50
  -2   2   1  388.76   12.50
  -2   2   1  400.56   12.50
  -1   2   1    2.20    0.60
   0  -2  -1  449.86   14.30
  -1  -2  -1 1431.26   47.90
  -1  -2  -1 1555.54   46.50
   1   2   1 1492.05   46.90
   1   2   1 1472.35   46.60
   1   2   1 1472.85   47.00
  -2  -2  -1  554.54   17.40
  -2  -2  -1  555.64   17.60
  -2  -2  -1  563.44   17.50
   2   2   1  503.15   17.30
   2   2   1  541.25   17.40
  -3  -2  -1  539.45   18.00
  -3  -2  -1  584.04   17.60
   3   2   1  534.85   17.90
   3   2   1  531.55   17.40
  -4  -2  -1  240.88    8.80
  -4  -2  -1  245.48    7.90
   4   2   1  221.18    7.70
   4   2   1  219.68    8.60
  -5  -2  -1  102.09    5.00
   5   2   1   97.79    4.90
  -6  -2  -1  172.78    7.80
   6   2   1  190.08    8.00
  -7  -2  -1  127.59    6.60
   7   2   1  123.69    6.50
  -8  -2  -1   72.29    5.30
   8   2   1   68.19    5.00
  -9  -2  -1   28.20    4.10
   9   2   1   25.60    3.70
   9  -3  -1    8.80    2.50
  -9   3   1    9.30    2.40
   8  -3  -1   38.20    3.80
  -8   3   1   41.00    3.90
   7  -3  -1  113.79    6.00
  -7   3   1  107.29    5.70
   6  -3  -1   62.99    4.00
  -6   3   1   68.99    4.00
   5  -3  -1  237.38    9.10
   5  -3  -1  232.38    8.30
  -5   3   1  242.28    8.20
  -5   3   1  240.58    9.00
   4  -3  -1    8.80    1.30
  -4   3   1    4.90    0.90
  -4   3   1    4.80    1.10
   3  -3  -1  715.03   22.40
   3  -3  -1  674.33   22.20
  -3   3   1  682.93   22.30
  -3   3   1  702.93   22.30
   2  -3  -1 1156.08   36.90
   2  -3  -1 1181.98   37.30
  -2   3   1 1183.78   37.30
  -2   3   1 1213.18   36.90
  -2   3   1 1192.08   37.00
   1  -3  -1 2358.06   72.39
   1  -3  -1 2258.17   72.69
   1  -3  -1 2194.68   71.19
  -1   3   1 2260.97   74.09
  -1   3   1 2324.87   71.29
   0  -3  -1  397.36   13.40
   0  -3  -1  424.76   12.80
   0   3   1  416.06   12.80
   0   3   1  415.36   13.40
   0   3   1  404.86   13.70
  -1  -3  -1 2030.10   62.29
  -1  -3  -1 2004.60   63.49
   1   3   1 2093.49   62.79
   1   3   1 1915.71   64.49
   1   3   1 1979.60   63.49
  -2  -3  -1 1730.23   53.39
  -2  -3  -1 1671.43   53.29
   2   3   1 1695.93   53.29
   2   3   1 1694.63   52.89
   2   3   1 1755.12   53.89
  -3  -3  -1  583.74   19.70
  -3  -3  -1  620.14   19.60
   3   3   1  587.94   19.30
   3   3   1  602.14   19.50
  -4  -3  -1  251.77    8.70
  -4  -3  -1  236.68    9.20
   4   3   1  245.08    9.10
   4   3   1  249.28    8.60
  -5  -3  -1  300.87   11.50
   5   3   1  301.07   10.30
   5   3   1  317.07   11.50
  -6  -3  -1  306.27   12.00
   6   3   1  306.97   11.90
  -7  -3  -1   85.39    5.40
   7   3   1   83.39    5.20
  -8  -3  -1   33.40    3.80
   8   3   1   29.20    3.50
   9   3   1   18.30    3.70
   9  -4  -1   51.89    4.60
  -9   4   1   52.39    4.80
   8  -4  -1   26.20    3.30
  -8   4   1   24.10    3.30
   7  -4  -1   48.80    3.80
  -7   4   1   54.09    3.90
   6  -4  -1  137.89    6.40
  -6   4   1  142.69    6.40
   5  -4  -1   91.09    4.60
  -5   4   1  101.49    4.30
  -5   4   1   98.69    4.80
   4  -4  -1  532.25   17.30
  -4   4   1  521.35   17.20
  -4   4   1  498.45   17.20
   3  -4  -1  512.45   16.80
  -3   4   1  512.95   17.10
  -3   4   1  519.65   17.00
   2  -4  -1  880.41   28.60
   2  -4  -1  887.71   28.20
  -2   4   1  931.21   28.30
  -2   4   1  903.81   28.90
   1  -4  -1  269.37    9.30
   1  -4  -1  268.27    8.70
  -1   4   1  277.67    8.70
  -1   4   1  269.47    9.70
   0  -4  -1  743.53   22.60
   0  -4  -1  715.03   23.40
   0   4   1  724.23   23.80
   0   4   1  743.83   22.60
  -1  -4  -1  326.77   11.40
   1   4   1  345.47   10.70
   1   4   1  330.17   11.70
   1   4   1  343.17   10.80
  -2  -4  -1  859.51   29.20
   2   4   1  945.41   28.80
   2   4   1  925.71   28.90
   2   4   1  927.81   29.40
  -3  -4  -1  411.56   14.40
   3   4   1  423.36   14.20
   3   4   1  414.96   14.00
  -4  -4  -1  340.07   12.00
   4   4   1  324.47   11.60
   4   4   1  316.27   11.30
  -5  -4  -1  320.37   11.90
   5   4   1  312.47   10.90
   5   4   1  305.47   11.60
  -6  -4  -1   73.69    4.80
   6   4   1   86.99    4.90
  -7  -4  -1   82.99    5.40
   7   4   1   82.49    5.20
  -8  -4  -1   17.40    3.20
   8   4   1   17.80    3.10
   9  -5  -1   24.60    3.40
   8  -5  -1   44.70    3.90
  -8   5   1   44.40    4.10
   7  -5  -1   14.80    2.40
  -7   5   1   20.00    2.80
   6  -5  -1   90.09    4.80
  -6   5   1   90.99    4.90
   5  -5  -1  533.35   18.20
  -5   5   1  525.45   17.90
  -5   5   1  537.05   18.20
   4  -5  -1  536.15   17.70
  -4   5   1  526.45   18.00
  -4   5   1  528.85   17.80
   3  -5  -1  153.98    5.70
  -3   5   1  155.08    6.00
  -3   5   1  152.88    6.30
   2  -5  -1  241.58    8.90
   2  -5  -1  251.37    8.40
  -2   5   1  257.87    8.50
  -2   5   1  252.67    9.30
   1  -5  -1 1420.96   44.50
   1  -5  -1 1418.16   43.70
  -1   5   1 1435.16   44.20
  -1   5   1 1388.06   45.00
   0  -5  -1  958.60   29.70
   0  -5  -1  908.91   30.60
   0   5   1  988.50   31.20
   0   5   1  993.10   29.90
  -1  -5  -1 1422.56   47.00
   1   5   1 1493.45   47.40
   1   5   1 1530.15   46.10
   1   5   1 1534.15   47.00
  -2  -5  -1  225.88    8.10
   2   5   1  200.18    8.00
   2   5   1  196.78    7.20
  -3  -5  -1  641.14   20.60
   3   5   1  580.74   19.90
   3   5   1  609.24   20.40
  -4  -5  -1  221.48    9.40
   4   5   1  248.18    9.10
   4   5   1  250.67    9.10
  -5  -5  -1  172.88    7.90
   5   5   1  183.48    7.10
   5   5   1  177.38    7.50
  -6  -5  -1   75.09    4.90
   6   5   1   69.79    4.50
  -7  -5  -1   88.19    5.80
   7   5   1   85.49    5.30
  -8  -5  -1   25.70    4.00
   8   5   1   23.10    3.30
   9  -6  -1   19.90    3.10
   8  -6  -1   21.60    3.00
  -8   6   1   25.00    3.50
   7  -6  -1   67.19    4.40
  -7   6   1   67.49    4.50
   6  -6  -1  111.99    5.50
  -6   6   1  112.79    5.70
   5  -6  -1   94.99    4.50
  -5   6   1   89.79    4.60
  -5   6   1   80.29    4.50
   4  -6  -1   72.19    3.60
  -4   6   1   76.89    4.20
  -4   6   1   77.09    4.00
   3  -6  -1  206.88    7.30
   3  -6  -1  205.48    7.90
  -3   6   1  198.28    8.20
   2  -6  -1   65.79    2.90
   2  -6  -1   66.69    3.50
  -2   6   1   80.09    4.10
  -2   6   1   74.39    3.00
   1  -6  -1  808.12   25.00
   1  -6  -1  760.82   26.00
  -1   6   1  830.32   25.20
  -1   6   1  823.92   26.80
   0  -6  -1  727.43   22.40
   0  -6  -1  713.93   23.50
   0   6   1  717.03   24.10
   0   6   1  719.43   22.40
  -1  -6  -1  403.16   13.50
   1   6   1  395.46   12.40
   1   6   1  360.96   13.70
   1   6   1  379.06   12.40
  -2  -6  -1   14.90    2.30
   2   6   1   22.20    1.50
   2   6   1   24.10    2.30
  -3  -6  -1  296.27   11.10
   3   6   1  282.07   10.20
   3   6   1  289.67   10.90
  -4  -6  -1  205.48    8.60
   4   6   1  198.48    8.20
   4   6   1  200.08    7.90
  -5  -6  -1  305.27   12.20
   5   6   1  313.77   11.50
   5   6   1  301.07   11.60
  -6  -6  -1   26.20    3.40
   6   6   1   19.90    2.60
  -7  -6  -1   56.19    4.80
   7   6   1   56.79    4.30
  -8  -6  -1    8.90    3.60
   8   6   1    8.80    2.50
   8  -7  -1   48.70    4.20
  -8   7   1   53.09    4.50
   7  -7  -1   46.50    3.70
  -7   7   1   43.30    3.90
   6  -7  -1   18.40    2.20
  -6   7   1   17.70    2.50
   5  -7  -1   81.89    4.20
  -5   7   1   85.79    4.80
   4  -7  -1  123.49    5.20
   4  -7  -1  126.39    5.90
  -4   7   1  133.19    6.20
   3  -7  -1  191.48    7.00
   3  -7  -1  197.18    7.80
  -3   7   1  198.78    8.30
   2  -7  -1  279.87    9.20
   2  -7  -1  271.77   10.10
  -2   7   1  268.07   10.80
  -2   7   1  282.57    9.50
   1  -7  -1  305.37    9.40
   1  -7  -1  298.87   10.70
  -1   7   1  274.97   11.20
  -1   7   1  291.17    9.50
   0  -7  -1   36.10    1.50
   0  -7  -1   34.10    2.60
   0   7   1   27.30    1.40
  -1  -7  -1  411.46   15.50
   1   7   1  471.35   14.40
   1   7   1  457.75   14.40
   1   7   1  448.66   16.10
  -2  -7  -1  297.17   10.60
   2   7   1  249.18   10.40
   2   7   1  257.27    9.20
  -3  -7  -1  471.35   16.70
   3   7   1  469.55   16.70
   3   7   1  456.45   15.60
  -4  -7  -1   52.39    3.90
   4   7   1   40.40    2.80
   4   7   1   40.10    3.20
  -5  -7  -1   21.40    3.10
   5   7   1   25.70    2.50
   5   7   1   24.70    2.50
  -6  -7  -1   34.20    3.90
   6   7   1   28.20    3.00
  -7  -7  -1   44.00    4.70
   7   7   1   48.80    4.10
   8   7   1   27.70    3.90
   7  -8  -1   51.89    4.90
   6  -8  -1   18.50    2.80
   6  -8  -1   19.40    2.40
   5  -8  -1   48.00    3.10
   5  -8  -1   47.10    3.60
  -5   8   1   44.40    3.70
   4  -8  -1   53.49    2.90
   4  -8  -1   50.09    3.40
  -4   8   1   40.40    3.60
   3  -8  -1  335.87   11.10
   3  -8  -1  326.67   12.20
  -3   8   1  325.37   12.80
   2  -8  -1  100.29    4.80
   2  -8  -1   98.19    3.60
  -2   8   1   74.49    4.90
   1  -8  -1   64.69    3.80
   1  -8  -1   67.69    2.60
  -1   8   1   69.79    4.40
   0  -8  -1   82.09    4.50
   0  -8  -1   82.79    3.10
   0   8   1   85.59    5.00
  -1  -8  -1  652.23   22.10
   1   8   1  648.64   20.60
   1   8   1  645.64   22.80
  -2  -8  -1   77.39    4.70
   2   8   1   73.29    4.70
   2   8   1   70.89    3.30
  -3  -8  -1   81.49    4.90
   3   8   1   72.29    3.60
   3   8   1   69.59    4.50
  -4  -8  -1   22.90    3.20
   4   8   1   21.30    2.10
   4   8   1   17.90    2.50
  -5  -8  -1   95.39    6.00
   5   8   1   98.39    6.10
   5   8   1   98.59    5.50
  -6  -8  -1   37.80    4.30
  -7  -8  -1   84.99    7.20
   7  -9  -1   52.49    4.60
   6  -9  -1   10.10    2.20
   5  -9  -1   84.29    5.00
  -5   9   1   84.19    5.40
   4  -9  -1    7.00    1.70
  -4   9   1    1.50    1.40
   3  -9  -1  157.48    7.10
  -3   9   1  156.88    7.80
   2  -9  -1   55.59    3.70
  -2   9   1   67.69    4.60
   1  -9  -1  275.47   10.50
  -1   9   1  265.47   11.30
   0  -9  -1  109.69    5.40
   0   9   1   93.79    5.80
  -1  -9  -1   78.49    4.70
   1   9   1   68.29    4.70
  -2  -9  -1   31.30    3.40
   2   9   1   36.30    3.50
  -3  -9  -1   94.69    5.80
   3   9   1   96.69    5.70
  -4  -9  -1   43.20    4.20
   4   9   1   46.40    3.90
  -5  -9  -1   97.39    6.30
   5   9   1   92.99    5.70
  -6  -9  -1   36.30    4.50
   6 -10  -1   11.10    2.40
   5 -10  -1   79.69    5.00
  -5  10   1   76.29    5.50
   4 -10  -1   62.99    4.40
  -4  10   1   67.69    5.10
   3 -10  -1  100.29    5.40
  -3  10   1   98.09    6.20
   2 -10  -1  117.39    5.90
  -2  10   1  114.59    6.80
   1 -10  -1   96.99    5.20
  -1  10   1   92.79    5.90
   0 -10  -1   51.09    4.00
   0  10   1   59.39    4.60
  -1 -10  -1  231.08    9.90
   1  10   1  228.08   10.50
  -2 -10  -1   80.89    5.50
   2  10   1   94.39    5.90
  -3 -10  -1  111.29    6.60
   3  10   1  111.99    6.60
  -4 -10  -1   43.50    4.60
   4  10   1   51.99    4.40
  -5 -10  -1   43.30    4.80
   5 -11  -1   74.49    5.10
  -5  11   1   71.39    5.60
   4 -11  -1   29.70    3.30
  -4  11   1   22.60    3.60
   3 -11  -1   78.69    5.00
  -3  11   1   80.49    5.80
   2 -11  -1   24.30    3.10
  -2  11   1   32.00    3.80
   1 -11  -1  160.08    7.70
  -1  11   1  171.18    8.90
   0 -11  -1  173.18    8.20
   0  11   1  173.58    9.10
  -1 -11  -1   85.59    5.50
   1  11   1   78.49    5.80
  -2 -11  -1   69.09    5.30
   2  11   1   71.29    5.40
  -3 -11  -1   33.80    4.30
   3  11   1   37.70    4.10
  -4 -11  -1   73.69    6.00
   4  11   1   80.79    5.80
  -5  12   1   32.50    4.30
   4 -12  -1   55.89    4.50
  -4  12   1   57.89    5.40
   3 -12  -1   15.60    2.70
  -3  12   1   23.60    3.80
   2 -12  -1  149.59    7.70
  -2  12   1  165.48    9.10
   1 -12  -1   94.09    5.80
  -1  12   1  101.39    6.90
   0 -12  -1   70.59    5.10
   0  12   1   76.49    5.90
  -1 -12  -1    8.20    2.50
   1  12   1   14.50    3.00
  -2 -12  -1   68.29    5.50
   2  12   1   73.69    5.80
  -3 -12  -1   64.59    5.80
   3  12   1   80.99    6.10
   4  12   1   69.49    5.80
   2 -13  -1   77.49    5.40
   1 -13  -1   10.40    2.60
   0 -13  -1   40.90    4.60
  -1 -13  -1   64.99    5.60
   3  13  -2   74.39    6.00
  -3 -13   2   63.09    5.50
   2  13  -2   63.59    5.60
  -2 -13   2   62.09    5.20
   1  13  -2   30.20    4.20
  -1 -13   2   29.30    3.90
   0  13  -2   19.80    3.50
   0 -13   2   22.70    3.30
  -1  13  -2   61.59    5.70
   1 -13   2   68.49    4.70
  -2  13  -2   98.49    7.20
   2 -13   2  102.69    5.90
  -3  13  -2   54.49    5.30
   3 -13   2   57.89    4.30
  -4  13  -2   25.60    4.00
   4 -13   2   33.50    3.50
  -5 -12   2   22.30    3.80
   4  12  -2   80.79    6.00
  -4 -12   2   82.39    5.90
   3  12  -2   18.90    3.40
  -3 -12   2   22.40    3.50
   2  12  -2   41.80    4.40
  -2 -12   2   43.10    4.10
   1  12  -2   42.80    4.50
  -1 -12   2   55.49    4.40
   0  12  -2  120.29    7.50
   0 -12   2  118.19    6.30
  -1  12  -2  186.48    9.60
   1 -12   2  172.38    8.00
  -2  12  -2   35.50    4.20
   2 -12   2   39.10    3.40
  -3  12  -2   14.10    2.90
   3 -12   2   18.20    2.60
  -4  12  -2   19.00    3.30
   4 -12   2   20.80    2.80
  -5  12  -2   68.29    5.60
   5 -12   2   70.69    4.70
  -6 -11   2   29.40    6.40
   5  11  -2   32.60    4.30
  -5 -11   2   32.60    4.10
   4  11  -2   26.80    3.50
  -4 -11   2   25.60    3.70
   3  11  -2  105.29    6.60
  -3 -11   2  109.49    6.20
   2  11  -2   66.29    5.10
  -2 -11   2   69.49    4.70
   1  11  -2  218.58   10.30
  -1 -11   2  211.48    9.20
   0  11  -2  139.09    7.70
   0 -11   2  135.89    6.50
  -1  11  -2   64.09    5.00
   1 -11   2   67.69    4.20
  -2  11  -2   68.59    5.40
   2 -11   2   81.49    4.60
  -3  11  -2   80.09    5.70
   3 -11   2   81.79    4.70
  -4  11  -2  129.59    7.50
   4 -11   2  136.49    6.60
  -5  11  -2   93.59    6.20
   5 -11   2   99.29    5.60
   6 -11   2   22.80    3.20
  -6 -10   2   14.50    3.00
   5  10  -2   83.29    5.40
  -5 -10   2   81.89    5.60
   4  10  -2   77.09    5.20
  -4 -10   2   81.39    5.20
   3  10  -2  109.59    6.30
  -3 -10   2  101.79    5.80
   2  10  -2   97.09    5.90
  -2 -10   2   97.99    5.30
   1  10  -2   86.59    5.50
  -1 -10   2   84.99    3.90
  -1 -10   2   84.19    4.70
   0  10  -2   70.69    5.20
   0 -10   2   90.29    3.80
   0 -10   2   94.09    4.80
  -1  10  -2  260.57   11.20
   1 -10   2  257.47    9.00
   1 -10   2  249.08    9.80
  -2  10  -2  131.79    7.30
   2 -10   2  143.39    5.60
   2 -10   2  145.09    6.30
  -3  10  -2  217.08    9.80
   3 -10   2  207.88    7.90
   3 -10   2  209.58    8.60
  -4  10  -2   14.10    2.50
   4 -10   2   17.50    2.40
   4 -10   2   14.70    2.00
  -5  10  -2   44.90    4.00
   5 -10   2   38.50    3.50
   5 -10   2   42.40    3.40
   6 -10   2   48.50    4.10
   7 -10   2   67.69    5.00
   7   9  -2   46.10    4.40
  -7  -9   2   49.50    4.90
   6   9  -2   70.39    4.80
  -6  -9   2   76.69    5.40
   5   9  -2  146.69    6.80
   5   9  -2  133.89    7.00
  -5  -9   2  135.59    7.20
   4   9  -2   11.70    2.00
   4   9  -2   12.10    2.30
  -4  -9   2   14.60    2.50
   3   9  -2  121.09    5.60
   3   9  -2  116.69    6.40
  -3  -9   2  133.49    6.30
   2   9  -2   56.89    4.40
  -2  -9   2   75.99    3.60
  -2  -9   2   73.79    4.30
   1   9  -2  524.35   19.20
  -1  -9   2  527.85   18.10
  -1  -9   2  519.75   17.30
   0   9  -2  104.79    6.10
   0  -9   2  122.29    4.70
   0  -9   2  118.89    5.40
  -1   9  -2  118.49    6.40
   1  -9   2  125.49    5.50
   1  -9   2  128.59    4.90
  -2   9  -2   22.60    2.90
   2  -9   2   27.50    2.40
   2  -9   2   26.50    2.00
  -3   9  -2  131.19    6.70
   3  -9   2  128.09    5.80
   3  -9   2  127.99    5.40
  -4   9  -2   57.29    4.30
   4  -9   2   68.19    3.70
   4  -9   2   64.49    3.90
  -5   9  -2   75.99    5.00
   5  -9   2   81.19    4.70
   5  -9   2   81.89    4.40
   6  -9   2   26.50    2.90
   6  -9   2   25.40    3.10
   7  -9   2   24.10    3.20
   8  -9   2   23.50    3.40
   8   8  -2   25.30    4.90
   7   8  -2   73.99    5.20
  -7  -8   2   82.09    5.70
   6   8  -2   27.80    3.10
  -6  -8   2   25.70    3.40
   5   8  -2   35.00    3.10
   5   8  -2   37.20    3.10
  -5  -8   2   38.70    3.60
   4   8  -2   90.49    5.30
   4   8  -2   94.59    5.00
  -4  -8   2  116.69    5.60
   3   8  -2  382.56   13.80
   3   8  -2  397.96   14.70
  -3  -8   2  389.86   14.10
   2   8  -2  298.97   12.10
  -2  -8   2  312.47   10.90
  -2  -8   2  317.57   11.40
   1   8  -2  215.08    9.20
  -1  -8   2  215.58    7.80
  -1  -8   2  218.38    8.40
   0   8  -2   50.89    3.80
   0  -8   2   54.59    2.70
   0  -8   2   57.49    3.20
  -1   8  -2  144.39    6.90
   1  -8   2  145.39    5.40
   1  -8   2  143.49    5.90
  -2   8  -2  223.18    9.80
   2  -8   2  249.48    8.50
   2  -8   2  239.88    8.90
  -3   8  -2  319.37   12.50
   3  -8   2  323.97   11.30
   3  -8   2  320.27   11.50
  -4   8  -2  139.99    6.70
   4  -8   2  140.09    5.90
   4  -8   2  136.79    6.20
  -5   8  -2   42.80    3.40
   5  -8   2   34.30    2.90
  -6   8  -2   18.10    2.60
   6  -8   2   23.40    2.80
  -7   8  -2   59.99    4.40
   7  -8   2   66.89    4.60
  -8   8  -2    8.90    2.30
   8  -8   2    8.70    2.20
   8   7  -2   24.70    3.60
  -8  -7   2   23.70    3.70
   7   7  -2   33.20    3.50
  -7  -7   2   34.50    3.90
   6   7  -2   84.69    5.20
  -6  -7   2   97.69    5.60
   5   7  -2  210.48    8.80
   5   7  -2  201.58    8.60
  -5  -7   2  214.18    8.90
   4   7  -2  254.87    9.90
   4   7  -2  250.67   10.10
  -4  -7   2  260.77   10.00
   3   7  -2  132.49    6.30
   3   7  -2  137.59    5.90
  -3  -7   2  146.39    6.20
   2   7  -2   31.50    2.80
  -2  -7   2   42.40    2.80
  -2  -7   2   43.40    2.40
  -1  -7   2  142.49    5.40
  -1  -7   2  141.19    5.80
   0   7  -2  179.18    7.70
   0  -7   2  181.38    6.90
   0  -7   2  189.18    6.50
  -1   7  -2  405.86   15.30
   1  -7   2  438.96   14.50
   1  -7   2  444.86   14.10
  -2   7  -2  192.38    7.90
   2  -7   2  185.88    6.80
   2  -7   2  180.28    7.00
  -3   7  -2  228.88    8.90
   3  -7   2  205.68    7.80
   3  -7   2  205.08    8.00
  -4   7  -2   74.19    4.10
  -4   7  -2   70.49    3.60
   4  -7   2   56.09    3.50
  -5   7  -2  129.39    6.10
  -5   7  -2  133.59    5.90
   5  -7   2  138.69    6.10
  -6   7  -2   36.50    3.20
   6  -7   2   34.00    3.10
  -7   7  -2   57.99    4.20
   7  -7   2   51.39    4.00
  -8   7  -2   25.00    3.60
   8  -7   2   28.10    3.50
   8   6  -2   32.30    3.90
  -8  -6   2   30.60    4.00
   7   6  -2   79.29    5.30
  -7  -6   2   94.49    5.70
   6   6  -2  184.88    8.30
  -6  -6   2  181.58    8.30
   5   6  -2  116.69    5.80
   5   6  -2  116.59    5.40
  -5  -6   2  122.29    5.90
   4   6  -2  223.08    8.80
   4   6  -2  220.68    8.80
  -4  -6   2  229.08    8.80
   3   6  -2  408.46   14.20
   3   6  -2  406.66   14.50
  -3  -6   2  414.56   14.20
   2   6  -2  226.38    9.20
  -2  -6   2  242.18    8.50
  -2  -6   2  255.77    8.90
   1   6  -2  473.45   17.00
  -1  -6   2  498.65   16.30
  -1  -6   2  502.65   16.00
   0   6  -2 1179.28   38.60
   0  -6   2 1217.18   37.70
   0  -6   2 1202.78   37.40
  -1   6  -2 1736.43   53.19
   1  -6   2 1648.34   52.89
   1  -6   2 1640.64   52.19
   2  -6   2   12.80    1.30
   2  -6   2   11.10    1.30
  -3   6  -2  230.98    9.00
  -3   6  -2  230.18    8.40
   3  -6   2  244.38    8.60
  -4   6  -2  221.28    8.50
  -4   6  -2  220.88    8.80
   4  -6   2  244.28    8.70
  -5   6  -2  442.66   15.10
  -5   6  -2  431.16   15.10
   5  -6   2  421.96   15.20
  -6   6  -2   30.20    2.90
  -7   6  -2   81.59    4.90
   7  -6   2   76.19    4.90
  -8   6  -2   11.30    2.50
   8  -6   2   10.70    2.40
   8   5  -2   40.00    4.10
  -8  -5   2   43.70    4.30
   7   5  -2  100.19    5.90
  -7  -5   2  101.69    6.00
   6   5  -2   49.40    3.70
  -6  -5   2   47.80    3.80
   5   5  -2  176.48    7.50
   5   5  -2  166.08    6.70
  -5  -5   2  170.28    7.30
   4   5  -2  255.97    9.60
   4   5  -2  260.37    9.90
  -4  -5   2  269.67    9.80
   3   5  -2  603.24   19.80
   3   5  -2  619.34   19.90
  -3  -5   2  569.44   19.60
   2   5  -2  461.25   16.40
  -2  -5   2  499.05   15.90
  -2  -5   2  497.75   16.10
   1   5  -2 2899.61   92.99
  -1  -5   2 2891.01   90.79
  -1  -5   2 2815.22   91.29
   0   5  -2  429.56   13.50
   0   5  -2  449.66   13.90
   0   5  -2  406.06   14.30
   0  -5   2  394.76   13.30
   0  -5   2  392.76   13.50
  -1   5  -2 1220.58   38.30
   1  -5   2 1191.28   37.50
   1  -5   2 1193.88   37.50
  -2   5  -2  375.76   13.20
  -2   5  -2  372.16   12.40
   2  -5   2  391.46   12.60
  -3   5  -2  710.83   23.20
  -3   5  -2  714.63   22.70
   3  -5   2  694.13   22.80
  -4   5  -2  665.83   21.40
  -4   5  -2  657.13   21.20
   4  -5   2  615.74   21.30
  -5   5  -2  424.16   14.60
  -5   5  -2  417.36   14.30
   5  -5   2  416.16   14.80
  -6   5  -2   91.19    4.90
   6  -5   2   90.69    4.90
  -7   5  -2   36.60    3.30
   7  -5   2   34.00    3.30
  -8   5  -2   33.90    3.70
   8  -5   2   34.60    3.60
  -9   5  -2   57.49    5.40
   9  -5   2   64.69    5.50
  -9  -4   2   34.90    6.50
   8   4  -2   30.90    3.70
  -8  -4   2   32.70    3.80
   7   4  -2   84.09    5.30
  -7  -4   2   78.79    5.10
   6   4  -2  167.18    7.80
  -6  -4   2  179.18    7.80
   5   4  -2  512.35   16.60
   5   4  -2  518.75   17.70
  -5  -4   2  479.25   17.30
   4   4  -2  240.48    8.90
   4   4  -2  242.08    9.40
  -4  -4   2  275.67    9.50
   3   4  -2 1242.18   38.30
   3   4  -2 1197.48   38.10
  -3  -4   2 1173.98   38.00
   2   4  -2  822.32   26.40
  -2  -4   2  819.72   26.00
  -2  -4   2  819.22   26.00
   1   4  -2  739.83   22.60
   1   4  -2  748.93   22.60
   1   4  -2  713.83   23.20
  -1  -4   2  697.13   22.60
  -1  -4   2  686.03   22.60
   0   4  -2  921.91   30.30
   0   4  -2  939.61   29.60
   0   4  -2  936.01   29.60
   0  -4   2  985.30   30.40
   0  -4   2  959.30   29.90
  -1   4  -2 1429.56   43.50
  -1   4  -2 1410.06   43.60
   1  -4   2 1365.46   43.60
   1  -4   2 1339.97   43.30
   1  -4   2 1382.56   42.90
  -2   4  -2 1276.77   39.50
  -2   4  -2 1232.28   38.90
   2  -4   2 1240.68   39.10
  -3   4  -2 1393.26   43.80
  -3   4  -2 1441.46   44.00
   3  -4   2 1364.06   43.90
  -4   4  -2   84.69    4.10
  -4   4  -2   87.19    3.90
   4  -4   2  105.99    4.50
  -5   4  -2  124.89    4.80
  -5   4  -2  120.89    5.40
   5  -4   2  125.39    5.10
   5  -4   2  124.69    5.60
  -6   4  -2  130.09    6.10
   6  -4   2  133.69    6.30
  -7   4  -2  118.09    6.10
   7  -4   2  119.19    6.20
  -8   4  -2   71.79    5.00
   8  -4   2   67.09    4.90
  -9   4  -2   11.40    2.70
   9  -4   2   10.00    2.50
   9   3  -2   23.90    3.80
  -9  -3   2   20.30    3.40
   8   3  -2   23.70    3.60
  -8  -3   2   25.10    3.50
   7   3  -2  210.78    9.40
  -7  -3   2  212.48    9.20
   6   3  -2  257.07   10.60
  -6  -3   2  271.57   10.50
   5   3  -2  333.37   12.30
   5   3  -2  331.67   10.90
  -5  -3   2  323.67   12.00
  -5  -3   2  337.77   11.80
   4   3  -2   64.59    3.50
   4   3  -2   60.99    2.80
  -4  -3   2   61.59    3.30
  -4  -3   2   62.89    2.90
   3   3  -2 1299.67   39.60
   3   3  -2 1280.97   40.00
  -3  -3   2 1230.88   39.70
  -3  -3   2 1239.38   39.60
   2   3  -2 1679.53   52.59
   2   3  -2 1734.63   51.39
  -2  -3   2 1599.14   51.39
  -2  -3   2 1587.44   51.89
  -2  -3   2 1690.23   51.69
   1   3  -2 4708.03  147.89
   1   3  -2 4578.64  149.99
   1   3  -2 4732.93  147.09
  -1  -3   2 4707.43  147.89
  -1  -3   2 4903.31  151.08
  -1  -3   2 4741.93  147.49
   0   3  -2  543.95   16.80
   0   3  -2  571.84   16.60
   0  -3   2  507.85   16.70
   0  -3   2  492.35   16.60
  -1   3  -2 2501.65   80.89
  -1   3  -2 2486.55   79.29
  -1   3  -2 2541.45   78.29
   1  -3   2 2460.65   79.49
   1  -3   2 2570.24   77.69
   1  -3   2 2385.76   79.39
  -2   3  -2 1705.13   54.39
  -2   3  -2 1698.53   53.79
   2  -3   2 1681.53   54.59
   2  -3   2 1795.52   53.69
   2  -3   2 1780.82   53.99
  -3   3  -2  365.96   12.60
  -3   3  -2  369.96   12.70
   3  -3   2  401.46   12.80
   3  -3   2  392.86   12.90
  -4   3  -2  529.85   16.90
  -4   3  -2  535.95   17.50
   4  -3   2  514.45   17.10
   4  -3   2  526.85   17.70
  -5   3  -2  215.98    7.00
  -5   3  -2  216.58    8.20
   5  -3   2  196.88    7.10
   5  -3   2  200.98    8.20
  -6   3  -2  306.17   11.50
   6  -3   2  299.27   11.60
  -7   3  -2   44.30    3.70
   7  -3   2   41.30    3.50
  -8   3  -2   26.20    3.40
   8  -3   2   26.80    3.30
  -9   3  -2   10.70    2.70
   9  -3   2   10.70    2.70
   9   2  -2   44.80    4.70
  -9  -2   2   45.70    4.60
   8   2  -2   92.09    6.00
  -8  -2   2   90.49    5.70
   7   2  -2   77.89    5.00
  -7  -2   2   79.19    4.90
   6   2  -2   25.00    2.60
  -6  -2   2   17.20    2.40
   5   2  -2  133.49    6.30
  -5  -2   2  157.08    6.40
   4   2  -2  473.75   15.30
   4   2  -2  485.95   16.40
  -4  -2   2  495.05   15.40
  -4  -2   2  467.55   16.10
   3   2  -2  191.28    6.70
   3   2  -2  176.48    7.10
  -3  -2   2  205.78    6.80
  -3  -2   2  200.78    7.00
   2   2  -2  904.41   27.30
   2   2  -2  883.01   27.20
  -2  -2   2  872.21   27.30
  -2  -2   2  852.31   27.20
  -2  -2   2  825.72   27.30
   1   2  -2   71.79    2.80
  -1  -2   2   55.19    2.60
   0   2  -2  559.84   17.70
   0   2  -2  569.94   17.30
   0   2  -2  563.44   17.40
   0  -2   2  539.65   17.30
   0  -2   2  541.95   18.00
  -1   2  -2  624.94   20.10
  -1   2  -2  628.64   20.30
  -1   2  -2  626.34   19.90
   1  -2   2  668.53   19.90
   1  -2   2  647.34   20.30
   1  -2   2  635.64   20.10
  -2   2  -2 1179.48   38.80
  -2   2  -2 1258.17   38.50
   2  -2   2 1225.38   38.70
   2  -2   2 1284.17   38.60
   2  -2   2 1250.07   38.60
  -3   2  -2 1024.10   32.20
  -3   2  -2 1012.60   31.80
   3  -2   2 1044.10   31.90
   3  -2   2  997.40   32.30
  -4   2  -2  286.47   10.00
  -4   2  -2  284.27    9.00
   4  -2   2  266.47   10.00
  -5   2  -2    5.40    1.30
   5  -2   2    5.70    1.40
  -6   2  -2  137.09    6.40
   6  -2   2  135.99    6.40
  -7   2  -2   55.89    4.10
   7  -2   2   60.79    4.20
  -8   2  -2   81.69    5.40
   8  -2   2   84.39    5.50
  -9   2  -2   21.30    3.50
   9  -2   2   27.00    3.60
   9   1  -2   36.50    4.30
  -9  -1   2   36.00    4.20
   8   1  -2   59.69    4.80
  -8  -1   2   50.89    4.40
   7   1  -2   20.10    2.80
  -7  -1   2   27.40    3.10
   6   1  -2  222.28    9.30
  -6  -1   2  234.88    9.20
   5   1  -2  349.47   12.80
  -5  -1   2  358.96   12.60
   4   1  -2  735.63   24.10
  -4  -1   2  733.33   23.80
   3   1  -2  369.46   12.30
   3   1  -2  374.06   13.00
   3   1  -2  381.66   12.20
  -3  -1   2  418.16   12.90
   2   1  -2  198.08    6.40
   2   1  -2  208.58    6.40
  -2  -1   2  165.68    6.30
  -2  -1   2  173.08    6.30
   1   1  -2 1344.67   46.50
   1   1  -2 1362.96   45.00
  -1  -1   2 1519.75   46.20
  -1  -1   2 1468.65   45.30
  -1  -1   2 1503.35   46.30
   0   1  -2 1865.41   57.39
   0  -1   2 1678.23   56.09
  -1   1  -2 2173.78   70.19
  -1   1  -2 2126.49   70.49
   1  -1   2 2313.87   70.19
   1  -1   2 2323.77   71.49
  -2   1  -2  164.88    5.50
  -2   1  -2  175.28    5.40
  -2   1  -2  167.58    5.70
   2  -1   2  144.19    5.60
  -3   1  -2  152.98    5.20
  -3   1  -2  148.09    5.80
  -3   1  -2  147.89    5.10
   3  -1   2  169.18    5.90
  -4   1  -2  123.99    5.20
   4  -1   2  122.59    5.20
  -5   1  -2  191.88    7.90
   5  -1   2  208.08    8.00
  -6   1  -2   77.09    4.50
   6  -1   2   76.39    4.40
  -7   1  -2   88.19    5.30
   7  -1   2   96.29    5.50
  -8   1  -2   21.60    3.30
   8  -1   2   20.20    3.00
  -9   1  -2   21.40    3.50
   9  -1   2   28.60    3.70
   9   0  -2   11.50    2.80
  -9   0   2   10.90    2.60
   8   0  -2   50.29    4.40
  -8   0   2   47.80    4.10
   7   0  -2  105.19    6.00
  -7   0   2  118.89    6.00
   6   0  -2  275.97   10.50
  -6   0   2  242.58    9.90
   5   0  -2   42.00    3.00
  -5   0   2   54.29    3.20
   4   0  -2  662.43   21.10
  -4   0   2  612.94   20.80
   3   0  -2   51.99    2.00
   3   0  -2   51.79    2.20
   3   0  -2   46.30    2.60
  -3   0   2   63.19    2.70
   2   0  -2  173.98    5.70
   2   0  -2  164.58    5.70
   2   0  -2  172.88    5.40
   2   0  -2  177.78    5.70
  -2   0   2  140.29    5.50
  -2   0   2  139.39    5.30
   1   0  -2 1636.34   50.79
   1   0  -2 1709.13   51.39
   1   0  -2 1592.74   50.99
  -1   0   2 1608.14   51.29
  -1   0   2 1658.03   51.69
  -1   0   2 1543.65   51.39
   0   0  -2 1494.95   46.50
   0   0  -2 1479.65   46.60
   0   0   2 1420.66   47.50
   0   0   2 1541.45   46.70
   0   0   2 1436.96   46.60
  -1   0  -2  217.08    6.80
  -1   0  -2  222.78    6.80
  -1   0  -2  225.38    6.70
   1   0   2  188.28    6.70
   1   0   2  188.58    6.70
   1   0   2  187.28    6.70
  -2   0  -2  826.82   24.20
  -2   0  -2  847.12   24.70
   2   0   2  745.23   24.20
   2   0   2  695.23   24.50
   2   0   2  769.32   24.50
  -3   0  -2  966.60   30.20
  -3   0  -2  986.20   30.90
  -3   0  -2  995.70   30.40
   3   0   2  948.41   30.90
  -4   0  -2  519.55   17.90
   4   0   2  555.84   18.00
  -5   0  -2  569.94   19.50
   5   0   2  580.84   19.60
  -6   0  -2   37.80    3.20
   6   0   2   33.00    2.90
  -7   0  -2   62.99    4.40
   7   0   2   60.59    4.20
  -8   0  -2   34.20    3.70
   8   0   2   36.40    3.70
  -9   0  -2   55.09    5.10
   9   0   2   62.79    5.20
   9  -1  -2   35.80    4.10
  -9   1   2   39.40    4.20
   8  -1  -2   84.79    5.50
  -8   1   2   76.19    5.20
   7  -1  -2   82.89    5.10
  -7   1   2   86.39    5.00
   6  -1  -2   34.40    3.00
  -6   1   2   31.10    2.90
   5  -1  -2  223.38    8.70
  -5   1   2  219.88    8.50
   4  -1  -2  106.19    3.90
   4  -1  -2  100.39    4.70
  -4   1   2  118.19    3.90
   3  -1  -2  786.22   24.40
   3  -1  -2  743.43   24.80
  -3   1   2  767.02   24.80
  -3   1   2  813.42   24.40
   2  -1  -2 1023.20   31.50
   2  -1  -2 1052.19   31.60
   2  -1  -2 1057.69   31.40
  -2   1   2  962.00   31.40
  -2   1   2  939.11   31.90
   1  -1  -2   60.19    2.20
   1  -1  -2   62.69    2.50
   1  -1  -2   58.89    2.40
   1  -1  -2   62.49    2.30
  -1   1   2   62.29    2.50
   0  -1  -2  323.27   10.00
   0  -1  -2  312.57   10.20
   0  -1  -2  345.47    9.90
   0   1   2  301.97    9.70
   0   1   2  306.67   10.00
   0   1   2  283.67   10.10
  -1  -1  -2 1165.48   35.90
  -1  -1  -2 1104.69   36.00
  -1  -1  -2 1133.79   36.30
   1   1   2 1217.18   36.10
   1   1   2 1175.08   36.10
   1   1   2 1165.08   37.20
  -2  -1  -2  351.36   12.20
  -2  -1  -2  356.36   12.30
  -2  -1  -2  366.86   12.00
   2   1   2  397.46   12.10
   2   1   2  394.66   12.20
  -3  -1  -2  777.32   25.00
  -3  -1  -2  792.12   24.40
   3   1   2  799.22   24.30
   3   1   2  739.63   24.90
  -4  -1  -2  322.67   10.10
  -4  -1  -2  309.87   11.10
   4   1   2  312.47   10.00
   4   1   2  293.17   10.90
  -5  -1  -2  101.79    5.00
   5   1   2  102.99    5.00
  -6  -1  -2   97.69    5.20
   6   1   2   92.79    5.00
  -7  -1  -2  102.29    5.90
   7   1   2  114.89    6.00
  -8  -1  -2   65.59    5.10
   8   1   2   75.29    5.20
  -9  -1  -2   48.00    4.80
   9   1   2   49.50    4.70
   9  -2  -2   34.00    4.00
  -9   2   2   31.50    3.90
   8  -2  -2   20.20    3.00
  -8   2   2   13.90    2.50
   7  -2  -2  129.09    6.60
  -7   2   2  127.99    6.40
   6  -2  -2  298.47   11.40
  -6   2   2  293.17   11.10
   5  -2  -2   81.19    3.20
   5  -2  -2   78.29    4.10
  -5   2   2   79.29    4.00
  -5   2   2   76.09    3.10
   4  -2  -2  557.44   18.00
   4  -2  -2  580.34   18.70
  -4   2   2  560.34   17.90
  -4   2   2  539.15   18.40
   3  -2  -2 2077.49   63.59
   3  -2  -2 2176.78   63.49
  -3   2   2 1991.50   64.29
  -3   2   2 1949.20   63.49
   2  -2  -2 1849.52   56.19
   2  -2  -2 1796.02   57.69
  -2   2   2 1791.02   58.49
  -2   2   2 1794.52   56.69
  -2   2   2 1817.22   57.19
   1  -2  -2 1607.14   49.40
   1  -2  -2 1583.94   49.60
  -1   2   2 1531.95   48.90
   0  -2  -2 1111.69   36.30
   0   2   2 1223.08   37.60
  -1  -2  -2 2799.52   92.99
  -1  -2  -2 2948.61   91.49
  -1  -2  -2 2926.61   93.09
   1   2   2 2969.60   93.59
   1   2   2 3011.00   91.79
  -2  -2  -2 2833.62   90.69
  -2  -2  -2 2827.02   88.49
  -2  -2  -2 2872.11   90.19
   2   2   2 2846.62   90.39
   2   2   2 2815.52   91.29
  -3  -2  -2  397.96   13.80
  -3  -2  -2  423.86   13.40
   3   2   2  405.66   13.60
   3   2   2  397.96   13.30
  -4  -2  -2  225.78    8.90
  -4  -2  -2  243.58    8.20
   4   2   2  234.58    8.80
   4   2   2  243.48    8.10
  -5  -2  -2  389.46   14.30
   5   2   2  394.26   12.80
   5   2   2  410.66   14.20
  -6  -2  -2  206.08    9.00
   6   2   2  218.98    8.90
  -7  -2  -2  149.39    7.50
   7   2   2  149.69    7.30
  -8  -2  -2   53.09    4.70
   8   2   2   47.10    4.20
   9   2   2   23.40    3.70
   9  -3  -2   13.40    2.80
  -9   3   2   14.80    2.80
   8  -3  -2   60.09    4.50
  -8   3   2   60.89    4.60
   7  -3  -2  132.99    6.60
  -7   3   2  128.69    6.40
   6  -3  -2   99.69    5.10
  -6   3   2   92.59    4.90
   5  -3  -2  401.06   13.80
  -5   3   2  387.06   13.00
  -5   3   2  381.46   13.60
   4  -3  -2  108.59    4.80
  -4   3   2  120.99    4.70
  -4   3   2  116.49    4.90
   3  -3  -2  648.54   20.90
  -3   3   2  653.63   21.00
  -3   3   2  643.64   21.00
   2  -3  -2 1232.98   39.80
  -2   3   2 1258.47   39.70
  -2   3   2 1264.47   39.20
  -2   3   2 1289.17   39.40
   1  -3  -2  863.01   25.90
  -1   3   2  807.32   25.70
  -1   3   2  810.62   26.40
   0  -3  -2  738.93   23.70
   0   3   2  753.12   24.00
  -1  -3  -2 1434.66   44.90
   1   3   2 1411.86   44.00
   1   3   2 1393.66   43.50
   1   3   2 1392.36   44.20
  -2  -3  -2  867.51   28.60
   2   3   2  911.61   28.20
   2   3   2  897.91   28.60
   2   3   2  904.81   28.10
  -3  -3  -2  861.81   27.90
   3   3   2  850.61   27.50
   3   3   2  871.31   27.50
  -4  -3  -2  348.77   12.80
   4   3   2  367.26   12.60
   4   3   2  361.46   12.20
  -5  -3  -2  253.37    9.90
   5   3   2  244.48    8.60
   5   3   2  247.58    9.60
  -6  -3  -2  320.47   12.60
   6   3   2  330.77   12.50
  -7  -3  -2   59.99    4.60
   7   3   2   66.09    4.50
  -8  -3  -2   32.10    3.90
   8   3   2   38.60    3.80
   9  -4  -2   51.59    4.60
  -9   4   2   52.99    6.10
   8  -4  -2   54.99    4.30
  -8   4   2   46.80    4.10
   7  -4  -2   84.99    5.00
  -7   4   2   85.09    5.00
   6  -4  -2  187.98    8.00
  -6   4   2  196.38    8.10
   5  -4  -2  204.08    8.20
  -5   4   2  214.78    8.30
  -5   4   2  209.78    7.80
   4  -4  -2  528.75   17.70
  -4   4   2  532.05   17.80
  -4   4   2  534.85   17.80
   3  -4  -2  774.12   24.80
  -3   4   2  771.42   25.30
  -3   4   2  788.12   25.00
   2  -4  -2  949.11   31.20
   2  -4  -2  973.60   30.70
  -2   4   2  997.20   31.60
  -2   4   2 1016.30   30.70
   1  -4  -2 1269.07   39.90
   1  -4  -2 1261.37   40.40
  -1   4   2 1320.07   39.90
  -1   4   2 1298.77   40.80
   0  -4  -2  799.62   26.50
   0   4   2  859.21   26.90
  -1  -4  -2  816.62   28.40
   1   4   2  923.91   27.70
   1   4   2  901.91   28.80
   1   4   2  921.71   27.60
  -2  -4  -2 1242.38   39.70
   2   4   2 1275.77   38.90
   2   4   2 1244.08   39.70
   2   4   2 1236.88   39.00
  -3  -4  -2  428.26   14.80
   3   4   2  422.76   14.50
   3   4   2  420.96   14.20
  -4  -4  -2  335.27   12.10
   4   4   2  308.77   11.50
   4   4   2  329.77   11.50
  -5  -4  -2  243.08    9.80
   5   4   2  252.47    8.90
   5   4   2  230.18    9.40
  -6  -4  -2   69.29    4.80
   6   4   2   75.69    4.50
  -7  -4  -2   61.99    4.90
   7   4   2   71.89    4.70
  -8  -4  -2   56.49    5.00
   8   4   2   52.49    4.40
   9  -5  -2   36.60    3.90
   8  -5  -2   33.00    3.50
  -8   5   2   36.30    3.70
   7  -5  -2   24.70    2.80
  -7   5   2   29.00    3.00
   6  -5  -2  114.49    5.60
  -6   5   2  114.59    5.70
   5  -5  -2  472.95   16.20
  -5   5   2  467.35   16.20
  -5   5   2  472.25   16.40
   4  -5  -2  390.16   13.20
  -4   5   2  387.36   13.50
  -4   5   2  382.46   13.60
   3  -5  -2   78.99    3.40
  -3   5   2   81.99    4.10
   2  -5  -2  142.99    5.10
   2  -5  -2  147.39    5.90
  -2   5   2  153.68    5.30
  -2   5   2  149.88    6.30
   1  -5  -2  693.73   22.60
  -1   5   2  696.33   23.10
   0  -5  -2  988.40   31.10
   0   5   2  957.30   31.50
  -1  -5  -2  601.74   21.20
   1   5   2  656.63   21.60
   1   5   2  671.93   20.10
   1   5   2  653.53   20.20
  -2  -5  -2  712.93   22.40
   2   5   2  656.33   21.20
   2   5   2  668.43   21.30
   2   5   2  636.84   22.20
  -3  -5  -2  265.87   10.50
   3   5   2  293.57   10.50
   3   5   2  283.17    9.90
  -4  -5  -2  273.37   10.90
   4   5   2  289.47   10.50
   4   5   2  279.57   10.30
  -5  -5  -2  108.69    5.90
   5   5   2  111.69    5.10
   5   5   2  112.19    5.40
  -6  -5  -2  237.68   10.20
   6   5   2  227.18    9.60
  -7  -5  -2   41.90    4.20
   7   5   2   39.90    3.60
  -8  -5  -2   53.19    5.00
   8   5   2   48.10    4.30
   9  -6  -2   20.00    3.00
   8  -6  -2   44.90    3.90
  -8   6   2   42.90    4.20
   7  -6  -2   88.49    5.20
  -7   6   2   97.89    5.50
   6  -6  -2   69.19    4.10
  -6   6   2   73.39    4.40
   5  -6  -2   65.49    3.60
  -5   6   2   71.79    4.10
  -5   6   2   70.39    4.10
   4  -6  -2   77.39    4.20
   4  -6  -2   73.49    3.50
  -4   6   2   75.19    4.20
   3  -6  -2  238.98    8.40
   3  -6  -2  235.08    9.20
  -3   6   2  260.07    9.70
   2  -6  -2  304.47    9.60
   2  -6  -2  298.17   10.60
  -2   6   2  280.37   11.10
  -2   6   2  293.37    9.70
   1  -6  -2  656.13   22.10
  -1   6   2  690.93   22.80
   0  -6  -2  695.93   22.40
   0   6   2  660.93   22.90
  -1  -6  -2   44.90    3.00
   1   6   2   36.10    1.70
   1   6   2   37.10    2.80
   1   6   2   39.60    1.70
  -2  -6  -2   59.89    3.90
   2   6   2   61.29    3.70
   2   6   2   62.99    2.70
  -3  -6  -2  217.68    9.10
   3   6   2  223.58    9.00
   3   6   2  226.38    8.10
  -4  -6  -2  544.35   19.20
   4   6   2  534.75   18.30
   4   6   2  545.05   18.80
  -5  -6  -2   66.29    4.70
   5   6   2   64.89    3.90
   5   6   2   59.29    3.70
  -6  -6  -2   81.79    5.50
   6   6   2   70.39    4.50
  -7  -6  -2   18.10    3.30
   7   6   2   17.50    2.80
   8   6   2   52.89    4.50
   8  -7  -2   40.60    3.80
  -8   7   2   37.80    4.20
   7  -7  -2   19.20    2.70
  -7   7   2   16.70    2.60
   6  -7  -2   43.90    3.20
   5  -7  -2   90.19    5.10
   5  -7  -2   91.29    4.50
  -5   7   2  103.59    5.40
   4  -7  -2  221.08    9.10
   4  -7  -2  228.68    8.20
  -4   7   2  231.98    9.50
   3  -7  -2  253.97    9.80
   3  -7  -2  251.67    8.80
  -3   7   2  268.57   10.50
   2  -7  -2  468.55   14.50
   2  -7  -2  452.65   15.80
  -2   7   2  442.16   16.40
   1  -7  -2   30.30    2.50
  -1   7   2   28.70    2.70
   0  -7  -2  184.68    7.40
   0   7   2  175.88    7.80
  -1  -7  -2  256.57   10.40
   1   7   2  294.07   11.00
  -2  -7  -2 1076.89   35.60
   2   7   2 1078.89   35.80
   2   7   2 1099.19   34.10
  -3  -7  -2   74.29    4.70
   3   7   2   71.69    3.40
   3   7   2   65.39    4.30
  -4  -7  -2  147.09    7.30
   4   7   2  149.49    6.20
   4   7   2  142.79    6.90
  -5  -7  -2    2.50    1.80
   5   7   2    1.90    1.10
   5   7   2    2.50    1.20
  -6  -7  -2   76.39    5.60
   6   7   2   80.09    4.70
  -7  -7  -2   24.50    3.90
   7  -8  -2   37.30    3.90
   6  -8  -2  101.99    5.90
   5  -8  -2    5.50    1.70
  -5   8   2    5.90    1.70
   4  -8  -2  242.48    9.70
  -4   8   2  236.88   10.20
   3  -8  -2    6.30    1.50
  -3   8   2    8.10    2.00
   2  -8  -2  391.96   14.00
  -2   8   2  384.36   14.80
   1  -8  -2   29.60    2.80
  -1   8   2   38.30    3.30
   0  -8  -2  618.64   21.40
   0   8   2  640.44   22.30
  -1  -8  -2  232.38    9.30
   1   8   2  215.08    9.60
  -2  -8  -2  177.68    7.90
   2   8   2  160.98    7.80
  -3  -8  -2   13.40    2.50
   3   8   2   13.50    2.30
  -4  -8  -2   85.49    5.50
   4   8   2   78.49    4.90
  -5  -8  -2   47.40    4.50
   5   8   2   51.39    3.90
  -6  -8  -2   80.69    6.00
   7  -9  -2   20.60    4.00
   6  -9  -2   58.69    4.50
   5  -9  -2   14.50    2.40
  -5   9   2   11.40    2.30
   4  -9  -2   86.89    5.00
  -4   9   2   77.09    5.20
   3  -9  -2  118.09    6.00
  -3   9   2  121.99    6.70
   2  -9  -2  170.58    7.60
  -2   9   2  178.48    8.50
   1  -9  -2  155.48    7.00
  -1   9   2  151.18    7.70
   0  -9  -2  179.48    7.60
   0   9   2  153.78    8.00
  -1  -9  -2   32.70    3.30
   1   9   2   33.60    3.40
  -2  -9  -2  118.99    6.50
   2   9   2  124.39    6.70
  -3  -9  -2   48.40    4.30
   3   9   2   46.10    4.00
  -4  -9  -2   62.29    5.10
   4   9   2   61.39    4.60
  -5  -9  -2   73.79    5.80
   5   9   2   72.89    5.10
  -6  -9  -2   23.00    3.90
   6 -10  -2   45.50    4.20
   5 -10  -2   64.59    4.60
  -5  10   2   55.39    4.80
   4 -10  -2   74.69    4.80
  -4  10   2   74.09    5.40
   3 -10  -2   59.99    4.20
  -3  10   2   53.29    4.60
   2 -10  -2  121.99    6.10
  -2  10   2  104.59    6.60
   1 -10  -2   70.79    4.50
  -1  10   2   61.09    4.80
   0 -10  -2   50.99    4.10
   0  10   2   57.99    4.70
  -1 -10  -2  148.99    7.50
   1  10   2  155.78    8.10
  -2 -10  -2   53.49    4.50
   2  10   2   45.30    4.20
  -3 -10  -2   76.39    5.60
   3  10   2   73.19    5.40
  -4 -10  -2   33.00    4.40
   4  10   2   33.50    3.80
  -5 -10  -2   22.20    3.80
   5 -11  -2   43.60    4.00
  -5  11   2   34.00    4.20
   4 -11  -2   50.39    4.10
  -4  11   2   42.50    4.40
   3 -11  -2   25.10    3.10
  -3  11   2   22.30    3.60
   2 -11  -2   11.00    2.20
  -2  11   2    9.30    2.50
   1 -11  -2   97.29    5.80
  -1  11   2  103.09    6.70
   0 -11  -2  113.89    6.30
   0  11   2  101.79    6.80
  -1 -11  -2   62.09    4.80
   1  11   2   53.89    4.90
  -2 -11  -2   31.20    4.10
   2  11   2   24.60    3.50
  -3 -11  -2   33.40    4.40
   3  11   2   32.00    4.00
  -4 -11  -2   30.90    4.50
   4  11   2   28.00    3.80
   4 -12  -2   17.80    3.80
  -4  12   2   16.90    3.30
   3 -12  -2   38.10    3.90
  -3  12   2   31.30    4.40
   2 -12  -2   69.69    5.00
  -2  12   2   67.39    5.90
   1 -12  -2   95.49    5.90
  -1  12   2   87.89    6.60
   0 -12  -2   12.40    2.70
   0  12   2   13.70    3.00
  -1 -12  -2   24.70    3.70
   1  12   2   19.70    3.50
  -2 -12  -2   28.80    4.30
   2  12   2   39.30    4.50
   3  12   2   56.59    5.30
   4  13  -3   34.10    4.60
   3  13  -3  142.19    8.50
   2  13  -3   25.00    3.90
   1  13  -3   52.59    5.00
  -1 -13   3   43.90    4.30
   0  13  -3   44.00    4.70
   0 -13   3   41.10    3.90
  -1  13  -3   93.39    6.80
   1 -13   3   93.89    5.50
  -2  13  -3  144.09    8.50
   2 -13   3  134.49    6.90
  -3  13  -3   75.29    6.00
   3 -13   3   67.09    4.70
  -4  13  -3   39.40    4.50
  -5  13  -3   21.00    3.70
  -5 -12   3   46.30    6.10
   4  12  -3   77.19    5.90
  -4 -12   3   75.29    5.50
   3  12  -3   23.70    3.40
  -3 -12   3   19.50    3.20
   2  12  -3  100.49    6.70
  -2 -12   3   99.29    5.90
   1  12  -3   55.99    4.90
  -1 -12   3   58.39    4.40
   0  12  -3  216.88   10.60
   0 -12   3  211.88    9.10
  -1  12  -3  171.38    9.00
   1 -12   3  160.98    7.50
  -2  12  -3   63.59    5.20
   2 -12   3   57.69    4.00
  -3  12  -3    7.00    2.30
   3 -12   3   11.40    2.00
  -4  12  -3   49.10    4.70
   4 -12   3   48.60    3.70
  -5  12  -3   57.49    5.10
   5 -12   3   56.49    4.20
   6 -12   3   52.69    4.30
  -6 -11   3   27.60    3.90
   5  11  -3   21.00    3.20
  -5 -11   3   21.00    3.40
   4  11  -3   86.59    5.90
  -4 -11   3   83.99    5.50
   3  11  -3  106.09    6.60
  -3 -11   3  108.19    6.10
   2  11  -3  202.18    9.80
  -2 -11   3  205.18    8.90
   1  11  -3   85.89    5.80
  -1 -11   3   82.49    4.90
   0  11  -3  185.58    9.30
   0 -11   3  193.08    8.10
  -1  11  -3   37.70    3.90
   1 -11   3   45.10    3.30
  -2  11  -3  118.09    6.90
   2 -11   3  110.79    5.50
  -3  11  -3   67.99    5.20
   3 -11   3   75.69    4.30
  -4  11  -3  145.59    7.90
   4 -11   3  141.69    6.70
  -5  11  -3   32.40    3.90
   5 -11   3   39.90    3.50
   6 -11   3   25.80    3.20
  -6 -10   3   53.09    4.80
   5  10  -3   84.19    5.20
   5  10  -3   83.99    5.60
  -5 -10   3   95.79    5.80
   4  10  -3  110.59    5.80
   4  10  -3  117.29    6.60
  -4 -10   3  123.39    6.40
   3  10  -3   52.19    3.40
   3  10  -3   51.39    4.20
  -3 -10   3   41.90    3.70
   2  10  -3   61.89    4.70
  -2 -10   3   61.49    3.40
  -2 -10   3   62.79    4.10
   1  10  -3  101.59    6.30
  -1 -10   3  117.99    5.60
  -1 -10   3  121.89    5.00
   0  10  -3   67.19    4.80
   0 -10   3   68.99    4.00
   0 -10   3   69.89    3.40
  -1  10  -3  102.59    6.20
   1 -10   3  117.09    5.20
   1 -10   3  110.39    4.70
  -2  10  -3  199.78    9.20
   2 -10   3  184.38    7.60
   2 -10   3  183.88    7.20
  -3  10  -3   48.60    4.20
   3 -10   3   51.89    3.40
   3 -10   3   52.09    3.10
  -4  10  -3   31.70    3.40
   4 -10   3   30.80    2.80
   4 -10   3   31.20    2.70
  -5  10  -3    9.50    2.30
   5 -10   3   12.50    2.00
   5 -10   3   12.20    2.10
   6 -10   3   62.09    4.30
   6 -10   3   59.29    4.30
   7 -10   3   43.80    4.20
   7 -10   3   40.80    4.00
   7   9  -3   53.19    4.60
  -7  -9   3   65.19    5.20
   6   9  -3   70.79    4.90
  -6  -9   3   78.29    5.30
   5   9  -3   83.89    5.30
   5   9  -3   86.89    5.10
  -5  -9   3   86.59    5.30
   4   9  -3   30.20    3.00
   4   9  -3   26.50    2.60
  -4  -9   3   20.10    2.80
   3   9  -3  239.68   10.70
  -3  -9   3  273.07   10.20
   2   9  -3  240.18   10.10
  -2  -9   3  221.68    8.50
  -2  -9   3  217.28    8.90
   1   9  -3  377.76   14.90
  -1  -9   3  392.46   13.20
  -1  -9   3  389.96   13.70
   0   9  -3   89.99    5.40
   0  -9   3   96.99    4.60
   0  -9   3   95.19    4.10
  -1   9  -3   97.69    5.90
   1  -9   3  122.19    4.80
   1  -9   3  124.89    5.20
  -2   9  -3  106.49    5.80
   2  -9   3   98.49    4.30
   2  -9   3   90.09    4.50
  -3   9  -3  168.88    8.20
   3  -9   3  181.78    7.20
   3  -9   3  180.08    7.00
  -4   9  -3   56.29    4.20
   4  -9   3   59.99    3.60
   4  -9   3   63.99    3.70
  -5   9  -3   72.59    4.90
   5  -9   3   84.89    4.70
   5  -9   3   81.99    4.50
   6  -9   3   44.20    3.60
  -7   9  -3   26.40    3.40
   7  -9   3   26.60    3.30
  -8   9  -3   20.10    4.80
   8  -9   3   22.60    3.40
   8   8  -3   36.00    6.70
   7   8  -3   39.60    3.90
  -7  -8   3   41.40    4.20
   6   8  -3   52.29    4.00
  -6  -8   3   39.20    3.80
   5   8  -3   46.70    3.60
   5   8  -3   47.20    3.60
  -5  -8   3   59.19    4.10
   4   8  -3   92.49    5.20
   4   8  -3   87.19    4.80
  -4  -8   3   93.59    5.00
   3   8  -3  372.66   14.10
  -3  -8   3  378.16   13.40
  -3  -8   3  362.46   13.10
   2   8  -3  138.19    6.50
  -2  -8   3  123.09    5.60
  -2  -8   3  126.19    5.30
   1   8  -3  153.38    7.40
  -1  -8   3  167.98    6.30
  -1  -8   3  170.18    6.60
   0   8  -3  158.98    7.00
   0  -8   3  132.19    5.70
   0  -8   3  135.59    5.40
  -1   8  -3  269.67   10.90
   1  -8   3  268.47    9.70
   1  -8   3  277.97    9.50
  -2   8  -3  195.18    8.70
   2  -8   3  205.88    7.70
   2  -8   3  215.98    7.70
  -3   8  -3  526.45   19.00
   3  -8   3  532.45   17.90
   3  -8   3  538.45   17.80
  -4   8  -3  143.39    6.80
   4  -8   3  140.29    6.00
   4  -8   3  133.29    6.00
  -5   8  -3   75.69    4.10
  -5   8  -3   72.09    4.40
   5  -8   3   67.39    4.20
  -6   8  -3   43.80    3.50
   6  -8   3   46.50    3.70
  -7   8  -3   89.79    5.40
   7  -8   3   96.89    5.70
  -8   8  -3   39.40    4.00
   8  -8   3   49.10    4.30
   8   7  -3   27.00    3.60
  -8  -7   3   25.60    3.90
   7   7  -3   32.00    3.50
  -7  -7   3   33.90    3.80
   6   7  -3   46.30    3.80
  -6  -7   3   54.39    4.10
   5   7  -3  213.38    9.20
   5   7  -3  220.88    9.00
  -5  -7   3  227.08    9.20
   4   7  -3  320.17   11.70
   4   7  -3  316.87   11.90
  -4  -7   3  296.27   11.50
   3   7  -3  173.28    7.50
  -3  -7   3  167.28    6.90
  -3  -7   3  175.98    7.00
   2   7  -3   64.59    4.00
  -2  -7   3   74.49    3.70
  -2  -7   3   72.29    3.40
   1   7  -3  412.16   14.70
  -1  -7   3  398.56   13.40
  -1  -7   3  398.16   13.60
   0   7  -3  412.76   15.10
   0  -7   3  424.46   14.00
   0  -7   3  415.46   13.80
  -1   7  -3  635.74   21.90
   1  -7   3  648.94   20.70
   1  -7   3  638.64   20.70
  -2   7  -3  471.85   16.50
   2  -7   3  458.35   15.40
   2  -7   3  458.15   15.40
  -3   7  -3  104.09    5.10
   3  -7   3   89.99    4.30
   3  -7   3   88.99    4.20
  -4   7  -3  190.48    7.40
  -4   7  -3  193.28    8.00
   4  -7   3  186.08    7.60
  -5   7  -3  154.38    6.90
  -5   7  -3  158.88    6.70
   5  -7   3  159.48    6.90
  -6   7  -3  161.88    7.30
   6  -7   3  169.58    7.50
  -7   7  -3   65.99    4.40
   7  -7   3   58.39    4.40
  -8   7  -3   44.20    4.10
   8  -7   3   44.30    4.20
   8   6  -3   33.30    3.80
  -8  -6   3   36.10    4.10
   7   6  -3   50.19    4.30
  -7  -6   3   57.89    4.50
   6   6  -3  174.28    8.00
  -6  -6   3  161.08    7.70
   5   6  -3  198.58    7.90
   5   6  -3  210.18    8.50
  -5  -6   3  183.58    8.10
   4   6  -3  248.78    9.70
   4   6  -3  267.27    9.90
  -4  -6   3  248.58    9.60
   3   6  -3  362.96   13.00
  -3  -6   3  361.16   12.50
  -3  -6   3  349.47   12.40
   2   6  -3  342.87   12.50
  -2  -6   3  345.27   11.80
  -2  -6   3  350.36   11.80
   1   6  -3  236.88    9.20
  -1  -6   3  239.08    8.30
  -1  -6   3  233.38    8.20
   0   6  -3 2317.87   73.09
   0  -6   3 2359.76   73.89
   0  -6   3 2304.67   73.79
  -1   6  -3 1052.09   33.50
   1  -6   3 1022.40   32.40
   1  -6   3 1012.00   32.40
  -2   6  -3  154.08    6.20
   2  -6   3  126.09    5.10
   2  -6   3  127.69    5.20
  -3   6  -3  348.37   12.10
  -3   6  -3  359.76   12.90
   3  -6   3  364.86   12.40
  -4   6  -3  610.54   20.10
  -4   6  -3  594.24   20.50
   4  -6   3  626.04   20.40
  -5   6  -3  398.66   14.30
  -5   6  -3  415.56   14.40
   5  -6   3  414.86   14.60
  -6   6  -3  105.99    5.30
   6  -6   3   99.49    5.40
  -7   6  -3   44.80    3.70
   7  -6   3   42.10    3.60
  -8   6  -3   44.40    4.10
   8  -6   3   41.10    3.90
   8   5  -3   53.09    4.70
  -8  -5   3   57.99    4.70
   7   5  -3   84.29    5.30
  -7  -5   3   76.79    5.10
   6   5  -3  130.49    6.40
  -6  -5   3  116.29    6.10
   5   5  -3   78.99    4.00
   5   5  -3   81.39    4.60
  -5  -5   3   97.69    4.70
   4   5  -3  464.15   15.70
   4   5  -3  469.45   16.00
  -4  -5   3  437.56   15.60
   3   5  -3  267.87    9.70
  -3  -5   3  257.87    9.20
  -3  -5   3  250.67    9.30
   2   5  -3 1363.86   43.10
  -2  -5   3 1353.06   42.50
  -2  -5   3 1346.27   42.40
   1   5  -3  917.61   29.70
   1   5  -3  913.11   28.70
  -1  -5   3  915.01   28.90
  -1  -5   3  917.91   28.80
   0   5  -3 1249.77   36.60
   0   5  -3 1174.38   37.50
   0  -5   3 1135.09   36.60
   0  -5   3 1134.29   36.50
  -1   5  -3  293.57   11.10
   1  -5   3  316.17   10.20
   1  -5   3  313.47   10.10
   1  -5   3  313.97   10.40
  -2   5  -3 1648.73   50.59
  -2   5  -3 1636.54   51.49
   2  -5   3 1609.14   50.89
  -3   5  -3  245.38    8.50
  -3   5  -3  246.98    9.00
   3  -5   3  232.58    8.70
  -4   5  -3  888.51   28.20
  -4   5  -3  878.31   28.00
   4  -5   3  845.02   28.20
  -5   5  -3  178.68    6.90
  -5   5  -3  171.48    7.10
   5  -5   3  175.18    7.40
  -6   5  -3  146.39    6.60
   6  -5   3  148.59    6.80
  -7   5  -3   29.10    3.10
   7  -5   3   34.00    3.30
  -8   5  -3   68.39    4.90
   8  -5   3   71.49    5.00
  -9   5  -3   55.79    5.30
   9  -5   3   52.69    6.90
  -9  -4   3   28.40    4.00
   8   4  -3   42.30    4.20
  -8  -4   3   42.20    4.10
   7   4  -3   50.39    4.10
  -7  -4   3   48.80    4.00
   6   4  -3  283.77   11.40
  -6  -4   3  281.17   11.00
   5   4  -3  267.87    9.60
   5   4  -3  289.37   10.80
  -5  -4   3  270.77   10.30
   4   4  -3  509.25   17.00
   4   4  -3  529.05   17.60
  -4  -4   3  495.05   17.10
   3   4  -3  213.48    8.20
  -3  -4   3  231.38    8.30
  -3  -4   3  230.28    8.10
   2   4  -3 2240.38   72.39
  -2  -4   3 2260.67   71.39
  -2  -4   3 2330.77   70.99
  -1  -4   3   42.40    2.00
  -1  -4   3   37.30    1.80
   0   4  -3 1983.90   64.59
   0   4  -3 1974.50   63.09
   0   4  -3 2115.39   63.39
   0  -4   3 2034.70   63.59
   0  -4   3 2003.70   64.99
  -1   4  -3  369.96   12.50
   1  -4   3  353.16   11.90
   1  -4   3  369.36   11.70
  -2   4  -3 2079.19   64.99
  -2   4  -3 2047.30   65.39
   2  -4   3 2064.79   63.89
   2  -4   3 2020.80   63.69
  -3   4  -3  329.47   11.50
  -3   4  -3  346.07   11.80
   3  -4   3  353.76   11.80
  -4   4  -3  195.08    7.10
  -4   4  -3  190.88    7.30
   4  -4   3  191.38    7.50
  -5   4  -3   19.40    1.50
  -5   4  -3   17.80    2.10
  -6   4  -3  294.87   11.10
   6  -4   3  283.67   11.20
  -7   4  -3   76.09    4.70
   7  -4   3   75.49    4.80
  -8   4  -3   77.39    5.20
   8  -4   3   80.79    5.40
  -9   4  -3    4.40    2.10
   9  -4   3    6.90    2.30
   9   3  -3   17.20    3.30
  -9  -3   3   20.10    3.20
   8   3  -3   39.20    4.10
  -8  -3   3   46.00    4.10
   7   3  -3  185.28    8.50
  -7  -3   3  173.78    8.10
   6   3  -3  249.08   10.20
  -6  -3   3  251.17    9.90
   5   3  -3   94.49    3.90
   5   3  -3   99.49    5.00
  -5  -3   3  101.49    4.80
   4   3  -3  119.69    4.70
   4   3  -3  112.69    5.20
  -4  -3   3  116.89    5.00
  -4  -3   3  123.39    4.80
   3   3  -3  519.15   16.70
  -3  -3   3  503.15   16.70
  -3  -3   3  501.45   16.60
   2   3  -3 1602.04   51.49
   2   3  -3 1676.03   50.59
  -2  -3   3 1582.14   50.69
  -2  -3   3 1682.63   51.09
  -2  -3   3 1618.54   50.49
   1   3  -3 1739.23   56.19
   1   3  -3 1744.73   57.49
   1   3  -3 1758.42   56.99
  -1  -3   3 1879.41   55.99
  -1  -3   3 1819.02   57.49
  -1  -3   3 1807.92   56.29
   0   3  -3 1376.56   42.40
   0   3  -3 1398.36   43.40
   0  -3   3 1323.17   43.40
   0  -3   3 1299.77   42.20
  -1   3  -3  174.18    6.30
  -1   3  -3  168.58    5.90
  -1   3  -3  166.68    6.50
   1  -3   3  193.98    6.70
   1  -3   3  188.38    5.90
   1  -3   3  182.98    6.30
  -2   3  -3 2368.56   75.79
  -2   3  -3 2364.86   75.09
   2  -3   3 2317.57   77.29
   2  -3   3 2485.15   74.39
   2  -3   3 2523.95   74.89
  -3   3  -3  118.29    4.70
  -3   3  -3  118.49    4.70
   3  -3   3  124.19    4.90
   3  -3   3  121.69    4.80
  -4   3  -3  435.86   14.10
  -4   3  -3  432.66   14.60
   4  -3   3  431.76   14.30
   4  -3   3  423.36   14.80
  -5   3  -3  233.08    8.00
  -5   3  -3  236.18    9.00
  -5   3  -3  253.37    8.30
   5  -3   3  221.08    9.10
  -6   3  -3  207.58    8.50
   6  -3   3  205.18    8.70
  -7   3  -3   48.80    3.90
   7  -3   3   50.29    4.00
  -8   3  -3   25.00    3.40
   8  -3   3   27.10    3.30
  -9   3  -3   21.20    3.40
   9  -3   3   22.50    3.50
   9   2  -3   61.69    5.30
  -9  -2   3   67.19    5.30
   8   2  -3   89.29    5.90
  -8  -2   3   87.29    5.60
   7   2  -3   45.60    3.90
  -7  -2   3   59.09    4.10
   6   2  -3   39.30    3.30
  -6  -2   3   40.10    3.20
   5   2  -3  257.17    8.50
   5   2  -3  259.07    8.60
   5   2  -3  249.97   10.00
  -5  -2   3  275.87    9.80
   4   2  -3  704.53   23.50
   4   2  -3  725.83   22.70
   4   2  -3  725.13   22.60
  -4  -2   3  700.73   23.20
   3   2  -3  675.23   22.40
   3   2  -3  675.33   22.00
  -3  -2   3  693.03   22.10
  -3  -2   3  717.73   22.10
   2   2  -3  459.75   14.50
   2   2  -3  445.76   14.70
  -2  -2   3  442.66   14.60
  -2  -2   3  454.65   14.70
  -2  -2   3  449.26   14.40
   1   2  -3  574.44   18.20
   1   2  -3  580.54   17.60
  -1  -2   3  548.35   17.60
  -1  -2   3  560.94   18.20
  -1  -2   3  558.44   17.90
   0   2  -3  575.54   19.20
   0  -2   3  623.24   18.90
  -1   2  -3  436.76   13.40
  -1   2  -3  430.26   14.00
   1  -2   3  413.66   14.00
   1  -2   3  426.46   13.40
  -2   2  -3  659.33   20.30
  -2   2  -3  684.83   20.50
   2  -2   3  626.44   20.50
   2  -2   3  626.34   20.30
   2  -2   3  615.94   20.50
  -3   2  -3 1136.89   35.30
  -3   2  -3 1127.79   35.60
   3  -2   3 1105.69   35.70
   3  -2   3 1148.19   35.40
  -4   2  -3  259.67    8.20
  -4   2  -3  259.77    8.40
  -4   2  -3  256.87    9.10
   4  -2   3  221.58    9.00
  -5   2  -3   95.89    4.60
   5  -2   3   84.99    4.50
  -6   2  -3   77.99    4.60
   6  -2   3   85.99    4.70
  -7   2  -3  112.49    6.10
   7  -2   3  118.79    6.20
  -8   2  -3   65.59    4.90
   8  -2   3   60.59    4.70
  -9   2  -3   22.70    3.60
   9  -2   3   24.40    3.70
   9   1  -3   29.30    4.00
  -9  -1   3   21.10    3.30
   8   1  -3   30.40    3.70
  -8  -1   3   29.10    3.60
   7   1  -3   63.59    4.60
  -7  -1   3   75.89    4.60
   6   1  -3  158.78    7.30
  -6  -1   3  168.08    7.10
   5   1  -3  776.32   25.80
  -5  -1   3  775.52   25.50
   4   1  -3  403.86   14.30
   4   1  -3  424.66   13.30
   4   1  -3  416.86   13.40
  -4  -1   3  413.86   14.10
   3   1  -3  149.59    5.40
   3   1  -3  146.09    5.80
   3   1  -3  155.38    5.30
  -3  -1   3  157.58    5.70
   2   1  -3   23.40    1.50
   2   1  -3   24.70    1.40
   2   1  -3   22.20    1.40
   2   1  -3   24.30    1.40
   1   1  -3  935.81   30.10
   1   1  -3  951.90   30.50
   1   1  -3  991.90   30.30
   1   1  -3  955.40   30.60
  -1  -1   3 1040.80   30.70
  -1  -1   3  950.20   30.40
   0   1  -3 2384.66   75.89
   0   1  -3 2338.17   73.59
   0   1  -3 2532.95   72.49
   0   1  -3 2009.60   74.39
   0  -1   3 2436.96   72.39
   0  -1   3 2254.07   73.99
  -1   1  -3 1628.24   52.79
  -1   1  -3 1678.13   53.69
  -1   1  -3 1660.13   53.79
  -1   1  -3 1718.63   53.99
   1  -1   3 1778.32   52.99
   1  -1   3 1649.83   53.99
  -2   1  -3   22.20    1.50
  -2   1  -3   23.90    1.30
  -2   1  -3   22.00    1.40
   2  -1   3   26.60    1.50
   2  -1   3   25.30    1.50
  -3   1  -3  225.68    7.40
  -3   1  -3  220.38    7.50
  -3   1  -3  228.68    7.90
   3  -1   3  211.38    7.90
  -4   1  -3  128.49    5.40
  -4   1  -3  125.19    4.50
  -4   1  -3  126.29    4.40
   4  -1   3  140.99    5.50
  -5   1  -3  439.16   15.80
   5  -1   3  478.25   16.10
  -6   1  -3  150.38    6.70
   6  -1   3  141.89    6.60
  -7   1  -3   63.59    4.40
   7  -1   3   63.29    4.40
  -8   1  -3   25.00    3.50
   8  -1   3   26.30    3.40
  -9   1  -3   18.70    3.30
   9  -1   3   21.90    3.50
   9   0  -3   20.80    3.50
  -9   0   3   23.80    3.60
   8   0  -3   61.69    4.90
  -8   0   3   72.09    4.90
   7   0  -3   90.59    5.40
  -7   0   3   89.39    5.20
   6   0  -3  166.28    7.40
  -6   0   3  163.38    7.10
   5   0  -3  118.89    5.30
  -5   0   3  101.29    5.00
   4   0  -3  282.87   10.40
   4   0  -3  291.97    9.50
   4   0  -3  295.87    9.70
  -4   0   3  288.97   10.20
   3   0  -3  828.42   26.40
   3   0  -3  826.32   25.90
  -3   0   3  824.82   26.20
  -3   0   3  822.92   25.90
   2   0  -3   37.90    1.80
   2   0  -3   37.30    1.80
   2   0  -3   36.50    1.80
  -2   0   3   38.50    1.80
   1   0  -3 4004.30  124.59
   1   0  -3 3949.50  124.59
   1   0  -3 4119.69  125.79
  -1   0   3 4038.00  124.49
  -1   0   3 3996.10  124.79
  -1   0   3 3866.51  126.29
   0   0  -3  817.52   28.10
   0   0  -3  921.11   28.90
   0   0  -3  951.40   29.10
   0   0   3  909.61   28.80
   0   0   3  887.81   28.20
   0   0   3  901.11   27.90
  -1   0  -3 1914.91   61.29
  -1   0  -3 1963.60   61.09
  -1   0  -3 1911.11   60.39
   1   0   3 1896.91   61.29
   1   0   3 1936.51   60.59
   1   0   3 1873.01   60.29
  -2   0  -3  510.35   15.20
  -2   0  -3  494.45   14.90
  -2   0  -3  475.35   15.10
   2   0   3  421.16   15.00
   2   0   3  450.05   15.40
   2   0   3  433.36   14.80
  -3   0  -3 1195.28   37.10
  -3   0  -3 1130.89   37.60
   3   0   3 1258.67   37.10
   3   0   3 1186.28   37.60
  -4   0  -3  751.92   23.80
  -4   0  -3  794.62   23.70
  -4   0  -3  748.33   24.60
   4   0   3  725.43   24.60
  -5   0  -3  453.45   15.80
   5   0   3  455.35   15.90
  -6   0  -3   24.70    2.70
   6   0   3   21.10    2.40
  -7   0  -3   42.30    3.70
   7   0   3   40.40    3.60
  -8   0  -3   38.80    4.10
   8   0   3   44.80    4.00
  -9   0  -3   35.20    4.20
   9   0   3   38.20    4.30
   9  -1  -3   27.60    3.90
  -9   1   3   28.70    3.70
   8  -1  -3   63.39    4.90
  -8   1   3   69.49    4.80
   7  -1  -3   98.39    5.50
  -7   1   3   89.59    5.20
   6  -1  -3   25.60    2.60
  -6   1   3   23.10    2.50
   5  -1  -3  444.36   14.50
   5  -1  -3  449.86   14.30
   5  -1  -3  437.16   15.50
  -5   1   3  448.16   15.30
   4  -1  -3  117.29    4.90
   4  -1  -3  119.49    4.30
  -4   1   3  107.59    4.70
  -4   1   3  110.09    4.20
   3  -1  -3  839.72   26.70
   3  -1  -3  829.92   27.00
  -3   1   3  854.31   26.90
  -3   1   3  867.21   26.70
   2  -1  -3 1055.69   31.80
   2  -1  -3 1046.70   31.90
   2  -1  -3 1075.39   32.10
  -2   1   3  967.40   32.00
  -2   1   3  959.70   31.90
   1  -1  -3  330.27   11.10
   1  -1  -3  320.77   10.80
   1  -1  -3  347.37   10.60
   1  -1  -3  317.67   10.90
  -1   1   3  358.16   11.10
  -1   1   3  339.07   10.60
   0  -1  -3  353.26   11.70
   0  -1  -3  402.66   11.20
   0  -1  -3  382.06   11.60
   0   1   3  338.37   11.50
   0   1   3  351.16   11.20
   0   1   3  316.17   11.70
  -1  -1  -3 1523.65   48.60
  -1  -1  -3 1551.94   48.50
  -1  -1  -3 1478.15   48.30
   1   1   3 1647.24   49.30
   1   1   3 1597.54   50.69
   1   1   3 1565.84   49.50
  -2  -1  -3  556.94   17.40
  -2  -1  -3  556.24   17.20
  -2  -1  -3  571.74   17.30
   2   1   3  493.75   17.10
   2   1   3  494.75   17.10
  -3  -1  -3  670.03   20.70
  -3  -1  -3  647.74   21.10
   3   1   3  653.93   20.70
   3   1   3  623.94   21.00
  -4  -1  -3  190.08    6.30
  -4  -1  -3  176.48    7.00
   4   1   3  169.78    6.10
   4   1   3  163.78    6.80
  -5  -1  -3    0.50    0.50
  -5  -1  -3    0.60    1.10
   5   1   3    0.60    0.90
  -6  -1  -3   99.39    5.40
   6   1   3  102.39    5.30
  -7  -1  -3   46.00    3.90
   7   1   3   42.50    3.70
  -8  -1  -3   57.99    4.90
   8   1   3   66.49    4.80
  -9  -1  -3   28.00    5.40
   9   1   3   28.40    4.00
   9  -2  -3    9.40    2.60
  -9   2   3    9.80    2.50
   8  -2  -3   17.50    2.90
  -8   2   3   15.00    2.60
   7  -2  -3   87.99    5.30
  -7   2   3   87.99    5.10
   6  -2  -3  249.28   10.00
  -6   2   3  255.77    9.90
   5  -2  -3   33.40    1.90
   5  -2  -3   34.70    2.60
  -5   2   3   24.00    2.30
  -5   2   3   24.80    1.70
   4  -2  -3  267.97    9.40
   4  -2  -3  271.07    9.20
  -4   2   3  251.07    9.00
  -4   2   3  247.98    9.30
   3  -2  -3  415.26   13.40
  -3   2   3  394.06   13.30
  -3   2   3  393.46   13.30
   2  -2  -3 1271.37   43.80
   2  -2  -3 1415.06   43.10
   2  -2  -3 1413.86   42.70
  -2   2   3 1372.46   43.10
  -2   2   3 1412.46   42.90
   1  -2  -3  270.27    9.40
   1  -2  -3  280.87   10.10
   1  -2  -3  269.17    8.90
   1  -2  -3  274.27    9.00
  -1   2   3  319.17    9.80
   0  -2  -3 1212.08   38.30
   0   2   3 1192.58   37.80
  -1  -2  -3  293.17    8.60
  -1  -2  -3  268.47    9.10
  -1  -2  -3  278.97    9.60
   1   2   3  246.08    8.50
   1   2   3  232.48    9.00
  -2  -2  -3 2127.29   65.89
  -2  -2  -3 2109.49   66.89
   2   2   3 2171.48   68.09
   2   2   3 2117.89   68.79
  -3  -2  -3  165.38    6.10
   3   2   3  137.99    5.50
   3   2   3  139.59    5.60
  -4  -2  -3  137.69    5.40
  -4  -2  -3  132.39    6.00
   4   2   3  137.39    5.70
   4   2   3  146.59    5.30
  -5  -2  -3  106.19    5.50
   5   2   3  116.59    4.40
   5   2   3  117.09    5.40
  -6  -2  -3  141.99    6.90
   6   2   3  144.49    6.70
  -7  -2  -3   49.90    4.10
   7   2   3   44.50    3.70
  -8  -2  -3   43.20    4.40
   8   2   3   43.00    4.00
   9   2   3    3.00    2.90
   9  -3  -3   14.00    2.80
  -9   3   3   12.90    2.80
   8  -3  -3   45.00    4.10
  -8   3   3   45.50    4.00
   7  -3  -3   35.10    3.30
  -7   3   3   34.10    3.30
   6  -3  -3  102.49    5.20
  -6   3   3   94.09    5.00
   5  -3  -3   14.70    1.80
  -5   3   3   15.20    2.10
  -5   3   3   12.50    1.40
   4  -3  -3  155.58    6.20
  -4   3   3  153.08    6.20
  -4   3   3  161.18    6.10
  -3   3   3   40.60    2.40
  -3   3   3   41.00    2.40
   2  -3  -3 1061.79   33.50
   2  -3  -3 1070.49   34.10
   2  -3  -3 1112.09   33.60
  -2   3   3 1071.69   34.30
   1  -3  -3  522.95   15.70
  -1   3   3  433.16   15.80
   0   3   3  252.97    9.00
  -1  -3  -3  430.86   13.20
   1   3   3  363.96   12.20
   1   3   3  365.56   13.10
  -2  -3  -3  447.86   14.20
  -2  -3  -3  440.86   14.80
   2   3   3  433.46   14.10
   2   3   3  426.06   14.70
  -3  -3  -3   67.19    3.70
   3   3   3   67.89    3.30
   3   3   3   69.09    3.20
  -4  -3  -3  304.97   11.20
   4   3   3  294.57   10.40
   4   3   3  296.57   10.70
  -5  -3  -3  160.28    6.80
   5   3   3  133.49    5.60
   5   3   3  138.49    6.20
  -6  -3  -3  182.28    8.20
   6   3   3  176.58    7.80
  -7  -3  -3   20.30    3.10
   7   3   3   14.20    2.40
  -8  -3  -3   15.20    3.10
   8   3   3   18.20    3.00
   9  -4  -3   15.60    2.90
   8  -4  -3   44.00    3.90
  -8   4   3   39.40    3.90
   7  -4  -3   11.20    2.10
  -7   4   3    9.90    2.00
   6  -4  -3   80.09    4.50
  -6   4   3   83.09    4.60
   5  -4  -3   65.19    3.70
  -5   4   3   63.89    3.80
  -5   4   3   64.49    3.50
   4  -4  -3  227.78    8.20
  -4   4   3  219.78    8.40
  -4   4   3  220.08    8.40
   3  -4  -3  153.98    5.40
  -3   4   3  135.69    5.90
   2  -4  -3   74.39    3.00
  -2   4   3   90.69    4.10
   1  -4  -3   44.10    2.50
   0  -4  -3  138.69    5.40
   0   4   3  129.59    5.60
   1   4   3   99.39    3.40
   1   4   3  100.59    4.60
   1   4   3  100.09    3.40
  -2  -4  -3  386.16   14.30
   2   4   3  406.86   14.30
   2   4   3  426.46   13.40
   2   4   3  437.06   13.50
  -3  -4  -3  226.38    8.30
   3   4   3  192.08    7.80
   3   4   3  193.38    7.30
  -4  -4  -3  104.79    5.20
   4   4   3   90.59    4.40
   4   4   3   94.79    4.40
  -5  -4  -3   44.30    3.60
   5   4   3   48.70    2.90
   5   4   3   44.90    3.10
  -6  -4  -3   45.10    4.00
   6   4   3   45.60    3.40
  -7  -4  -3   23.40    3.50
   7   4   3   23.30    2.80
  -8  -4  -3   58.99    5.10
   8   4   3   48.50    4.30
   9  -5  -3   17.30    3.00
   8  -5  -3    7.40    2.00
  -8   5   3   10.30    2.30
   7  -5  -3    6.50    1.80
  -7   5   3   10.90    2.10
   6  -5  -3   90.39    4.80
  -6   5   3   87.49    4.90
   5  -5  -3  239.58    8.90
  -5   5   3  229.98    9.00
  -5   5   3  221.78    9.00
   4  -5  -3  105.99    4.40
  -4   5   3   91.49    4.80
   3  -5  -3    6.30    0.90
  -3   5   3    3.90    1.10
   2  -5  -3  172.78    6.60
   2  -5  -3  171.18    5.60
  -2   5   3  151.18    6.80
   1  -5  -3  438.16   15.00
  -1   5   3  444.76   15.50
   0  -5  -3  877.81   27.90
   0   5   3  843.52   28.30
  -1  -5  -3  170.48    7.10
   1   5   3  188.78    5.80
   1   5   3  175.68    7.30
  -2  -5  -3  571.14   18.70
   2   5   3  525.85   17.20
   2   5   3  541.75   18.60
   2   5   3  529.55   17.30
  -3  -5  -3   51.19    3.70
   3   5   3   64.09    3.00
   3   5   3   59.19    3.50
  -4  -5  -3  252.07   10.20
   4   5   3  254.37    9.80
   4   5   3  257.47    9.40
  -5  -5  -3  158.38    7.60
   5   5   3  155.48    6.70
   5   5   3  154.98    6.70
  -6  -5  -3   92.59    5.80
   6   5   3   83.69    4.90
  -7  -5  -3   56.19    4.90
   7   5   3   53.19    4.00
   8   5   3   12.20    2.60
   9  -6  -3    8.00    2.10
   8  -6  -3   43.20    3.80
  -8   6   3   39.70    4.00
   7  -6  -3   60.49    4.10
  -7   6   3   61.29    4.40
   6  -6  -3   39.60    2.90
  -6   6   3   31.90    3.10
   5  -6  -3   16.10    1.80
  -5   6   3   17.90    2.30
   4  -6  -3  120.39    5.80
   4  -6  -3  122.39    5.00
  -4   6   3  125.79    6.00
   3  -6  -3  101.09    4.90
   3  -6  -3  100.19    4.00
  -3   6   3  112.29    5.40
   2  -6  -3  191.58    7.50
   2  -6  -3  193.58    6.20
  -2   6   3  184.18    8.00
   1  -6  -3  338.67   12.30
  -1   6   3  352.36   12.90
   0  -6  -3  131.19    5.70
   0   6   3  121.99    5.90
  -1  -6  -3  114.69    5.20
   1   6   3   93.99    5.10
   2   6   3   28.00    2.60
   2   6   3   29.00    1.60
  -3  -6  -3  684.23   23.80
   3   6   3  691.63   23.60
   3   6   3  707.93   22.50
  -4  -6  -3  115.29    6.10
   4   6   3  104.79    4.90
   4   6   3  106.29    5.40
  -5  -6  -3  127.49    6.90
   5   6   3  133.79    6.00
   5   6   3  128.69    6.20
  -6  -6  -3   22.70    3.40
   6   6   3   16.80    2.30
  -7  -6  -3   62.19    5.30
   7   6   3   56.79    4.20
   6  -7  -3   24.20    2.40
   6  -7  -3   23.70    3.00
   5  -7  -3  144.59    6.90
   5  -7  -3  145.09    6.00
  -5   7   3  143.99    7.00
   4  -7  -3   80.59    3.60
   4  -7  -3   75.49    4.40
  -4   7   3   79.49    4.80
   3  -7  -3  556.64   19.30
   3  -7  -3  556.94   17.90
  -3   7   3  565.34   19.90
   2  -7  -3   89.59    4.60
  -2   7   3   90.39    5.10
  -1   7   3  314.97   12.30
   0  -7  -3   83.39    4.70
   0   7   3  105.29    5.40
  -1  -7  -3  778.12   26.60
   1   7   3  810.32   27.10
  -2  -7  -3  249.18   10.20
   2   7   3  253.87   10.40
  -3  -7  -3  348.47   13.20
   3   7   3  328.67   13.00
   3   7   3  334.67   12.30
  -4  -7  -3   10.50    2.40
   4   7   3    8.80    1.90
  -5  -7  -3   83.29    5.70
   5   7   3   88.79    5.00
  -6  -7  -3   31.00    4.10
  -7  -7  -3   63.39    6.60
   7  -8  -3   68.39    5.20
   6  -8  -3   41.20    3.90
   5  -8  -3   65.09    4.30
  -5   8   3   57.99    4.40
   4  -8  -3   52.19    3.80
  -4   8   3   57.39    4.20
   3  -8  -3  185.38    7.90
  -3   8   3  176.38    8.40
   2  -8  -3   82.39    4.60
  -2   8   3   90.89    5.30
   1  -8  -3  249.88    9.90
  -1   8   3  252.67   10.60
   0  -8  -3  107.39    5.50
   0   8   3  109.39    6.00
  -1  -8  -3  481.45   17.30
   1   8   3  478.35   17.80
  -2  -8  -3   83.59    5.10
   2   8   3   73.49    4.90
  -3  -8  -3   98.19    6.00
   3   8   3  104.09    5.80
  -4  -8  -3   57.49    4.80
   4   8   3   61.59    4.30
  -5  -8  -3   79.39    5.90
   5   8   3   88.39    5.30
  -6  -8  -3   71.49    5.90
   6  -9  -3   31.20    3.60
   5  -9  -3   59.29    4.30
  -5   9   3   49.60    4.30
   4  -9  -3   44.90    3.70
  -4   9   3   47.10    4.20
   3  -9  -3  162.48    7.60
  -3   9   3  168.68    8.30
   2  -9  -3  126.69    6.40
  -2   9   3  139.19    7.30
   1  -9  -3  106.89    5.60
  -1   9   3   99.69    6.10
   0  -9  -3  194.78    8.50
   0   9   3  190.18    9.10
  -1  -9  -3   38.30    3.70
   1   9   3   47.40    4.00
  -2  -9  -3  159.08    8.20
   2   9   3  184.48    8.70
  -3  -9  -3   52.59    4.60
   3   9   3   46.00    4.10
  -4  -9  -3   91.39    6.30
   4   9   3   96.99    5.90
  -5  -9  -3   63.19    5.50
   5 -10  -3   59.89    4.60
  -5  10   3   53.69    4.80
   4 -10  -3   61.59    4.50
  -4  10   3   56.59    4.90
   3 -10  -3   78.79    4.90
  -3  10   3   68.59    5.30
   2 -10  -3  101.89    5.80
  -2  10   3  102.19    6.50
   1 -10  -3   59.99    4.30
  -1  10   3   54.99    4.70
   0 -10  -3  103.09    6.00
   0  10   3  108.89    6.70
  -1 -10  -3  117.79    6.60
   1  10   3  113.09    6.90
  -2 -10  -3  104.29    6.60
   2  10   3  110.89    6.70
  -3 -10  -3   55.29    5.00
   3  10   3   52.99    4.60
  -4 -10  -3   57.29    5.30
   4  10   3   56.69    4.80
  -5  11   3   22.30    3.60
   4 -11  -3   42.70    3.90
  -4  11   3   37.60    4.40
   3 -11  -3    9.80    2.20
  -3  11   3   13.20    2.80
   2 -11  -3   37.30    3.70
  -2  11   3   35.20    4.10
   1 -11  -3   75.99    5.10
  -1  11   3   70.69    5.70
   0 -11  -3  129.89    7.00
   0  11   3  126.69    7.70
  -1 -11  -3   25.40    3.70
   1  11   3   18.70    3.30
  -2 -11  -3   37.30    4.40
   2  11   3   33.80    4.00
  -3 -11  -3   20.30    3.70
   3  11   3   20.10    3.40
   4  11   3   39.70    4.40
   3 -12  -3   52.59    5.50
  -3  12   3   43.60    6.20
   2 -12  -3   97.59    6.10
  -2  12   3   90.99    6.80
   1 -12  -3   43.00    4.30
  -1  12   3   39.80    4.60
   0 -12  -3   14.70    3.00
   0  12   3   14.00    3.20
  -1 -12  -3   15.80    3.30
   1  12   3   17.00    3.40
   4  13  -4  108.79    7.40
   3  13  -4   55.29    5.40
   2  13  -4   15.40    3.20
   1  13  -4   26.40    3.80
   0  13  -4  103.09    7.00
  -1  13  -4   62.59    5.50
  -2  13  -4   94.59    6.80
  -3  13  -4   41.70    4.70
  -4  13  -4   17.30    3.40
  -5  13  -4   19.20    3.50
   4  12  -4   32.70    4.10
   3  12  -4   37.10    4.00
  -3 -12   4   34.60    3.80
   2  12  -4  122.99    7.50
  -2 -12   4  131.09    6.70
   1  12  -4   99.09    6.60
  -1 -12   4  103.59    5.60
   0  12  -4   98.09    6.50
   0 -12   4   93.39    5.20
  -1  12  -4  132.49    7.80
   1 -12   4  138.39    6.40
  -2  12  -4   18.20    3.30
   2 -12   4   21.20    2.50
  -3  12  -4    6.10    2.10
  -4  12  -4   48.70    4.80
   4 -12   4   56.09    3.90
  -5  12  -4   55.59    5.10
   5 -12   4   60.89    5.00
  -6 -11   4   17.00    4.90
   5  11  -4   34.10    3.80
  -5 -11   4   37.60    4.00
   4  11  -4  107.29    6.60
  -4 -11   4  115.09    6.30
   3  11  -4  125.29    7.30
  -3 -11   4  134.59    6.60
   2  11  -4  137.79    7.60
  -2 -11   4  128.99    6.40
  -2 -11   4  129.79    5.90
   1  11  -4   85.59    5.70
  -1 -11   4   82.39    4.10
  -1 -11   4   77.09    4.60
   0  11  -4  135.59    7.60
   0 -11   4  139.79    5.80
   0 -11   4  142.69    6.40
  -1  11  -4   36.90    3.90
   1 -11   4   39.40    2.70
   1 -11   4   42.20    3.10
  -2  11  -4  123.39    7.20
   2 -11   4  122.59    5.40
   2 -11   4  128.69    5.80
  -3  11  -4   90.79    6.00
   3 -11   4   92.49    4.60
   3 -11   4   91.39    4.80
  -4  11  -4   75.59    5.40
   4 -11   4   73.09    4.30
   4 -11   4   69.59    4.10
  -5  11  -4   34.10    3.90
   5 -11   4   43.50    3.50
   5 -11   4   36.70    3.40
   6 -11   4   11.50    2.10
   7 -11   4   10.60    2.40
   7  10  -4   15.50    3.20
  -7 -10   4   13.10    2.80
   6  10  -4   86.09    5.70
  -6 -10   4   92.79    5.90
   5  10  -4   91.39    5.70
   5  10  -4   91.49    5.40
  -5 -10   4   87.39    5.50
   4  10  -4   91.89    5.10
   4  10  -4   87.69    5.70
  -4 -10   4   95.69    5.30
   3  10  -4   64.29    4.60
  -3 -10   4   54.59    3.90
  -3 -10   4   57.39    3.60
   2  10  -4  118.49    6.70
  -2 -10   4  124.79    5.80
  -2 -10   4  121.39    5.40
   1  10  -4   91.19    5.70
  -1 -10   4   96.59    4.50
  -1 -10   4   97.39    4.80
   0  10  -4  154.68    8.00
   0 -10   4  172.28    6.90
   0 -10   4  170.88    6.60
  -1  10  -4   99.79    5.90
   1 -10   4   95.69    4.40
   1 -10   4   96.99    4.60
  -2  10  -4  128.19    7.00
   2 -10   4  124.39    5.50
   2 -10   4  123.69    5.40
  -3  10  -4  126.39    6.80
   3 -10   4  115.49    5.50
   3 -10   4  119.69    5.40
  -4  10  -4   22.90    3.00
   4 -10   4   21.40    2.30
   4 -10   4   18.20    2.40
  -5  10  -4   23.40    3.10
   5 -10   4   25.20    2.80
   5 -10   4   24.60    2.70
   6 -10   4   60.79    4.30
   6 -10   4   60.49    4.30
   7 -10   4   36.00    3.70
   7 -10   4   35.50    3.80
   7   9  -4   73.69    5.40
  -7  -9   4   67.89    5.20
   6   9  -4   71.99    5.00
  -6  -9   4   70.69    5.00
   5   9  -4   89.39    5.20
   5   9  -4   90.79    5.40
  -5  -9   4   85.89    5.20
   4   9  -4   39.60    3.50
   4   9  -4   39.20    3.20
  -4  -9   4   42.20    3.40
   3   9  -4  142.49    7.20
  -3  -9   4  147.59    6.40
  -3  -9   4  145.09    6.50
   2   9  -4  400.06   15.60
  -2  -9   4  412.46   14.30
  -2  -9   4  418.26   14.50
   1   9  -4  505.55   18.50
  -1  -9   4  505.75   17.10
  -1  -9   4  499.95   16.90
   0   9  -4   64.79    4.60
   0  -9   4   74.79    3.60
   0  -9   4   77.79    3.80
  -1   9  -4  139.09    7.10
   1  -9   4  144.49    5.70
   1  -9   4  146.09    5.90
  -2   9  -4  227.68    9.90
   2  -9   4  232.38    8.60
   2  -9   4  225.78    8.50
  -3   9  -4  116.99    6.50
   3  -9   4  133.99    5.60
   3  -9   4  132.99    5.60
  -4   9  -4  154.08    7.50
   4  -9   4  152.78    6.50
   4  -9   4  151.38    6.60
  -5   9  -4   45.00    3.80
   5  -9   4   52.09    3.50
   5  -9   4   53.19    3.70
  -6   9  -4   41.60    3.50
   6  -9   4   39.50    3.50
  -7   9  -4   26.70    3.30
   7  -9   4   29.20    3.60
  -8   9  -4   11.70    2.60
   8  -9   4   16.10    3.10
  -8  -8   4   49.10    5.10
   7   8  -4   30.50    3.50
  -7  -8   4   24.20    3.50
   6   8  -4   24.90    3.10
  -6  -8   4   22.70    3.10
   5   8  -4   39.90    3.40
   5   8  -4   39.80    3.30
  -5  -8   4   49.00    3.70
   4   8  -4  195.88    8.60
   4   8  -4  196.58    8.40
  -4  -8   4  201.68    8.20
   3   8  -4  399.56   14.90
  -3  -8   4  392.86   13.90
  -3  -8   4  395.16   13.90
   2   8  -4  197.28    8.10
  -2  -8   4  162.48    6.80
  -2  -8   4  160.38    6.70
   1   8  -4  110.99    5.90
  -1  -8   4  116.49    4.90
  -1  -8   4  121.29    5.00
   0   8  -4  315.57   12.40
   0  -8   4  326.27   11.10
   0  -8   4  320.57   11.10
  -1   8  -4  143.99    6.90
   1  -8   4  150.28    5.80
   1  -8   4  150.38    5.80
  -2   8  -4  182.48    8.30
   2  -8   4  192.38    7.30
   2  -8   4  192.88    7.10
  -3   8  -4  601.44   20.90
   3  -8   4  601.54   19.90
   3  -8   4  585.34   19.70
  -4   8  -4   74.69    4.50
   4  -8   4   69.89    4.00
  -5   8  -4   65.89    4.20
  -5   8  -4   69.49    3.90
   5  -8   4   65.69    4.10
  -6   8  -4   29.10    3.00
   6  -8   4   37.20    3.40
  -7   8  -4   88.39    5.30
   7  -8   4   93.89    5.70
  -8   8  -4   31.30    3.70
   8  -8   4   31.00    3.90
   8   7  -4   27.70    3.70
  -8  -7   4   25.40    3.60
   7   7  -4   37.70    3.80
  -7  -7   4   46.70    4.10
   6   7  -4   96.89    5.80
  -6  -7   4  106.19    5.80
   5   7  -4  200.68    8.40
   5   7  -4  198.68    8.60
  -5  -7   4  201.18    8.40
   4   7  -4  341.47   12.60
   4   7  -4  348.07   12.70
  -4  -7   4  320.87   12.10
   3   7  -4   72.39    4.30
  -3  -7   4   75.99    3.90
  -3  -7   4   80.39    3.90
   2   7  -4  160.98    7.50
  -2  -7   4  182.38    6.80
  -2  -7   4  187.48    6.90
   1   7  -4  237.88   10.00
  -1  -7   4  266.37    9.00
  -1  -7   4  263.47    9.10
   0   7  -4  145.79    6.80
   0  -7   4  160.28    5.80
   0  -7   4  153.28    5.80
  -1   7  -4  730.23   25.20
   1  -7   4  756.72   24.10
   1  -7   4  754.52   23.90
  -2   7  -4  106.39    5.60
   2  -7   4  118.49    4.90
   2  -7   4  117.09    4.60
  -3   7  -4   53.19    3.50
   3  -7   4   37.30    2.80
  -4   7  -4  108.79    4.80
  -4   7  -4   98.39    5.30
   4  -7   4  125.39    5.40
  -5   7  -4  149.88    6.40
  -5   7  -4  145.19    6.70
   5  -7   4  163.28    6.90
  -6   7  -4   51.49    3.60
   6  -7   4   55.59    4.00
  -7   7  -4   60.49    4.30
   7  -7   4   55.29    4.30
  -8   7  -4    9.00    2.30
   8  -7   4   10.00    2.50
   8   6  -4   36.00    4.10
  -8  -6   4   43.80    4.20
   7   6  -4   62.49    4.70
  -7  -6   4   56.59    4.40
   6   6  -4  113.29    6.10
  -6  -6   4  107.89    5.80
   5   6  -4  119.29    5.40
   5   6  -4  121.59    5.90
  -5  -6   4  106.99    5.50
   4   6  -4  159.98    7.20
   4   6  -4  165.18    7.10
  -4  -6   4  182.18    7.00
   3   6  -4  218.38    8.70
  -3  -6   4  214.08    8.20
  -3  -6   4  218.38    8.00
   2   6  -4  169.48    7.60
  -2  -6   4  198.28    7.20
  -2  -6   4  199.38    6.90
   1   6  -4  605.54   20.20
  -1  -6   4  584.84   19.20
  -1  -6   4  587.14   19.00
   0   6  -4 1120.89   37.90
   0  -6   4 1196.98   36.90
   0  -6   4 1204.18   36.60
  -1   6  -4  435.46   14.50
   1  -6   4  386.16   13.40
   1  -6   4  391.56   13.10
  -2   6  -4  152.58    7.00
   2  -6   4  184.38    6.30
   2  -6   4  180.98    6.60
  -3   6  -4  267.77   10.20
  -3   6  -4  258.67    9.30
   3  -6   4  284.97    9.90
  -4   6  -4  241.58    8.90
  -4   6  -4  236.68    9.40
   4  -6   4  260.27    9.40
  -5   6  -4  186.98    7.40
  -5   6  -4  172.88    7.30
   5  -6   4  182.18    7.60
  -6   6  -4   38.20    3.10
   6  -6   4   34.80    3.20
  -7   6  -4    4.40    1.60
   7  -6   4    7.00    2.00
  -8   6  -4   18.10    2.90
   8  -6   4   24.80    3.40
   8   5  -4   32.40    3.90
  -8  -5   4   35.20    3.80
   7   5  -4   47.50    4.00
  -7  -5   4   48.90    4.00
   6   5  -4   64.69    4.50
  -6  -5   4   68.89    4.30
   5   5  -4   54.59    3.20
   5   5  -4   51.49    3.60
  -5  -5   4   69.49    3.70
   4   5  -4   74.39    4.00
   4   5  -4   82.99    4.40
  -4  -5   4   93.99    4.20
   3   5  -4  199.08    7.70
  -3  -5   4  192.48    7.20
  -3  -5   4  192.68    7.40
   2   5  -4  133.39    6.10
  -2  -5   4  158.28    5.80
  -2  -5   4  148.09    5.40
   1   5  -4   86.79    4.60
   1   5  -4   87.09    3.70
  -1  -5   4  119.19    4.30
  -1  -5   4  115.49    3.90
   0   5  -4  242.68    8.70
   0  -5   4  208.98    7.70
   0  -5   4  222.28    7.40
  -1   5  -4  303.07   12.20
   1  -5   4  365.16   11.30
   1  -5   4  363.46   11.80
   1  -5   4  366.86   11.30
  -2   5  -4  357.16   11.60
  -2   5  -4  357.06   12.60
   2  -5   4  354.76   12.10
  -3   5  -4   75.79    3.30
  -3   5  -4   74.89    3.80
   3  -5   4   70.69    3.60
  -4   5  -4  148.19    5.90
  -4   5  -4  154.98    6.20
   4  -5   4  139.39    6.10
  -5   5  -4   47.00    3.10
  -5   5  -4   44.10    2.70
   5  -5   4   48.80    3.30
  -6   5  -4   26.10    2.70
   6  -5   4   30.10    2.90
  -7   5  -4   28.60    3.10
   7  -5   4   31.90    3.30
  -8   5  -4   35.90    3.80
   8  -5   4   39.40    4.00
  -9   5  -4   30.10    4.40
  -9  -4   4   15.70    3.00
   8   4  -4   24.90    3.50
  -8  -4   4   30.00    3.60
   7   4  -4   29.10    3.40
  -7  -4   4   30.50    3.30
   6   4  -4  240.68   10.00
  -6  -4   4  226.48    9.40
   5   4  -4  157.98    7.00
   5   4  -4  153.98    6.10
  -5  -4   4  162.08    6.70
   4   4  -4  175.68    7.00
   4   4  -4  179.98    7.50
  -4  -4   4  196.78    7.20
   3   4  -4   70.89    3.70
  -3  -4   4   85.79    3.90
  -3  -4   4   88.79    3.60
   2   4  -4  578.14   18.00
   2   4  -4  568.44   18.70
  -2  -4   4  555.54   18.00
  -2  -4   4  548.55   18.30
   1   4  -4  462.15   15.10
   1   4  -4  469.95   16.20
  -1  -4   4  490.15   15.10
  -1  -4   4  496.15   15.60
   0   4  -4  660.43   23.00
   0  -4   4  702.83   22.40
   0  -4   4  720.83   22.00
   0  -4   4  731.83   21.80
  -1   4  -4  216.18    8.70
  -1   4  -4  215.68    7.70
   1  -4   4  271.07    7.90
   1  -4   4  259.67    8.40
  -2   4  -4  734.83   23.50
  -2   4  -4  751.22   24.30
   2  -4   4  749.73   24.00
   2  -4   4  758.82   23.70
  -3   4  -4   38.10    2.40
  -3   4  -4   38.80    2.10
  -4   4  -4   54.19    3.10
  -4   4  -4   60.29    3.10
   4  -4   4   66.19    3.50
  -5   4  -4    8.80    1.20
  -5   4  -4    8.90    1.50
  -6   4  -4  190.68    8.20
   6  -4   4  201.18    8.40
  -7   4  -4   54.39    4.00
   7  -4   4   49.00    3.90
  -8   4  -4   24.20    3.30
   8  -4   4   24.00    3.40
  -9   4  -4    2.60    1.90
   9   3  -4    7.80    2.70
  -9  -3   4    8.50    2.50
   8   3  -4   42.30    4.10
  -8  -3   4   42.40    4.00
   7   3  -4  117.49    6.40
  -7  -3   4  110.09    6.00
   6   3  -4   64.79    4.30
  -6  -3   4   69.39    4.20
   5   3  -4   34.20    2.80
   5   3  -4   33.30    2.00
   5   3  -4   35.60    2.00
   4   3  -4   37.30    2.20
   4   3  -4   35.90    2.60
  -4  -3   4   41.70    2.40
  -4  -3   4   36.20    2.40
   3   3  -4  185.48    6.80
  -3  -3   4  174.08    6.70
  -3  -3   4  173.68    6.50
  -3  -3   4  180.18    7.20
   2   3  -4 2422.56   78.49
   2   3  -4 2481.45   76.69
  -2  -3   4 2574.34   77.99
  -2  -3   4 2524.25   79.69
  -2  -3   4 2457.85   77.39
  -1  -3   4   94.69    4.10
  -1  -3   4   94.29    3.70
  -1  -3   4   90.29    3.20
   0   3  -4  715.73   23.10
   0  -3   4  711.93   22.60
  -1   3  -4  956.50   28.20
  -1   3  -4  928.31   29.00
   1  -3   4  884.61   29.00
   1  -3   4  890.41   28.10
   1  -3   4  873.41   28.50
  -2   3  -4 2015.60   65.49
  -2   3  -4 2002.90   64.79
   2  -3   4 2064.39   66.89
   2  -3   4 2157.98   64.39
   2  -3   4 2184.68   64.99
  -3   3  -4  436.36   14.40
  -3   3  -4  437.86   14.50
   3  -3   4  429.76   14.60
  -4   3  -4  253.17    9.20
  -4   3  -4  251.37    8.80
   4  -3   4  251.97    9.30
  -5   3  -4  209.48    8.20
  -5   3  -4  208.88    7.30
   5  -3   4  203.38    8.30
  -6   3  -4  105.29    5.30
   6  -3   4  100.39    5.30
  -7   3  -4   54.39    4.10
   7  -3   4   60.49    4.30
  -8   3  -4   16.50    2.80
   8  -3   4   20.00    3.10
  -9   3  -4   25.20    3.80
   9  -3   4   25.30    3.90
   9   2  -4   54.09    5.10
  -9  -2   4   53.99    4.80
   8   2  -4   42.10    4.10
  -8  -2   4   48.30    4.20
   7   2  -4    8.60    2.10
  -7  -2   4    8.10    2.00
   6   2  -4   78.39    4.70
  -6  -2   4   85.19    4.60
   5   2  -4  180.08    6.40
   5   2  -4  178.28    7.60
   5   2  -4  183.58    6.30
  -5  -2   4  177.78    7.20
   4   2  -4  960.90   30.10
   4   2  -4  937.01   31.00
   4   2  -4  953.20   30.30
  -4  -2   4  968.10   30.50
   3   2  -4  627.04   19.00
   3   2  -4  600.54   19.20
  -3  -2   4  576.14   19.30
  -3  -2   4  554.94   19.00
   2   2  -4  208.18    7.90
   2   2  -4  210.78    8.30
  -2  -2   4  264.67    8.40
  -2  -2   4  255.07    8.00
  -2  -2   4  261.67    8.60
   1   2  -4 1767.62   54.29
   1   2  -4 1759.42   55.59
  -1  -2   4 1654.83   56.09
  -1  -2   4 1760.12   54.09
  -1  -2   4 1763.12   54.39
   0   2  -4  366.96   13.30
   0  -2   4  431.16   12.90
  -1   2  -4 2372.36   73.29
  -1   2  -4 2266.17   75.79
   1  -2   4 2236.18   74.29
   1  -2   4 2354.56   72.99
   1  -2   4 2472.55   73.39
  -2   2  -4   82.99    3.60
  -2   2  -4   79.39    3.80
   2  -2   4  110.89    3.80
   2  -2   4  108.49    4.10
  -3   2  -4  821.82   26.30
  -3   2  -4  848.62   26.10
  -3   2  -4  822.02   26.30
   3  -2   4  813.02   26.50
  -4   2  -4  106.29    4.70
  -4   2  -4  109.29    4.00
  -4   2  -4  106.69    4.20
   4  -2   4   98.29    4.70
  -5   2  -4  176.08    5.90
  -5   2  -4  172.08    7.00
   5  -2   4  159.98    7.10
  -6   2  -4   68.39    4.30
   6  -2   4   80.49    4.60
  -7   2  -4  121.79    6.30
   7  -2   4  119.19    6.30
  -8   2  -4   49.10    4.40
   8  -2   4   52.19    4.40
  -9   2  -4   18.50    3.20
   9  -2   4   18.50    3.30
   9   1  -4   26.00    3.90
  -9  -1   4   24.10    3.70
   8   1  -4   25.20    3.40
  -8  -1   4   24.60    3.40
   7   1  -4   97.19    5.70
  -7  -1   4  100.69    5.50
   6   1  -4  103.39    5.50
  -6  -1   4  112.69    5.40
   5   1  -4  958.70   30.50
   5   1  -4 1006.70   32.10
   5   1  -4  968.80   30.70
  -5  -1   4  976.10   31.60
   4   1  -4  342.17   12.20
   4   1  -4  350.16   11.50
   4   1  -4  349.47   11.30
  -4  -1   4  327.77   11.80
   3   1  -4  480.85   16.30
   3   1  -4  507.45   15.90
   3   1  -4  491.85   16.10
  -3  -1   4  477.95   15.90
   2   1  -4  328.97   11.30
   2   1  -4  347.27   11.50
   2   1  -4  342.67   11.70
  -2  -1   4  352.76   11.20
  -2  -1   4  358.26   11.50
   1   1  -4 3927.61  122.59
   1   1  -4 3967.50  126.89
   1   1  -4 4046.60  125.59
   1   1  -4 3837.52  123.59
  -1  -1   4 3901.21  123.89
  -1  -1   4 3987.30  122.39
   0   1  -4 2419.36   78.29
   0   1  -4 2557.54   77.69
   0  -1   4 2525.95   78.69
   0  -1   4 2434.06   77.49
  -1   1  -4 1747.03   55.19
  -1   1  -4 1780.72   55.89
  -1   1  -4 1755.32   55.49
  -1   1  -4 1834.62   55.29
   1  -1   4 1780.12   54.79
   1  -1   4 1656.23   56.19
  -2   1  -4  276.27    9.30
  -2   1  -4  280.77    9.60
  -2   1  -4  273.37    9.30
   2  -1   4  287.67    9.30
   2  -1   4  273.17    9.40
  -3   1  -4  448.56   14.20
  -3   1  -4  437.66   14.50
  -3   1  -4  445.86   14.40
   3  -1   4  412.76   14.50
  -4   1  -4  628.74   20.30
  -4   1  -4  623.44   20.50
  -4   1  -4  640.44   21.20
   4  -1   4  677.83   21.30
  -5   1  -4  302.27   10.50
  -5   1  -4  286.27   11.00
  -5   1  -4  290.47    9.70
   5  -1   4  312.57   11.20
  -6   1  -4  238.28    9.70
   6  -1   4  242.28    9.70
  -7   1  -4   48.00    3.90
   7  -1   4   38.60    3.60
  -8   1  -4   19.10    3.00
   8  -1   4   18.10    3.00
  -9   1  -4   25.50    3.90
   9  -1   4   31.90    4.10
   9   0  -4   30.10    4.00
  -9   0   4   31.90    3.90
   8   0  -4   55.89    4.60
  -8   0   4   60.19    4.50
   7   0  -4  117.79    6.30
  -7   0   4  118.49    6.10
   6   0  -4  107.09    5.50
  -6   0   4  107.69    5.30
   5   0  -4  100.59    4.90
   5   0  -4  101.19    4.00
   5   0  -4   99.09    3.80
  -5   0   4   84.39    4.50
   4   0  -4  471.15   15.50
   4   0  -4  476.95   16.00
   4   0  -4  453.55   15.20
  -4   0   4  479.95   15.70
   3   0  -4  709.53   22.90
   3   0  -4  703.13   22.50
  -3   0   4  705.83   22.60
  -3   0   4  711.93   22.50
   2   0  -4  308.57   10.30
   2   0  -4  307.87   10.10
   2   0  -4  316.87   10.20
  -2   0   4  300.47   10.00
  -2   0   4  298.97   10.20
  -2   0   4  298.87   10.10
   1   0  -4  934.81   28.40
   1   0  -4  925.91   28.80
   1   0  -4  894.71   28.40
   1   0  -4  991.40   28.90
  -1   0   4  853.01   28.80
  -1   0   4  880.11   28.40
   0   0  -4 3124.99   97.89
   0   0  -4 3122.79   97.29
   0   0   4 3097.89   97.39
   0   0   4 3216.28   97.59
   0   0   4 2956.30   98.39
  -1   0  -4  285.77    9.60
  -1   0  -4  296.57    9.80
  -1   0  -4  294.87    9.60
   1   0   4  291.47    9.80
   1   0   4  287.87    9.50
   1   0   4  278.87    9.50
  -2   0  -4  253.67    8.90
  -2   0  -4  254.47    8.90
   2   0   4  267.17    8.90
   2   0   4  270.27    8.90
  -3   0  -4  268.27    9.00
  -3   0  -4  259.77    9.40
   3   0   4  266.87    9.00
   3   0   4  265.67    9.30
  -4   0  -4  996.80   31.00
  -4   0  -4  983.30   31.80
  -4   0  -4  976.10   31.20
   4   0   4  988.80   31.70
  -5   0  -4  433.76   13.90
  -5   0  -4  431.96   15.20
   5   0   4  422.66   15.10
  -6   0  -4   15.50    2.40
   6   0   4   11.10    2.00
  -7   0  -4   67.89    4.70
   7   0   4   71.59    4.70
  -8   0  -4   62.89    4.90
   8   0   4   60.89    4.70
  -9   0  -4   37.20    5.70
   9   0   4   46.10    5.20
   9  -1  -4   39.90    4.30
  -9   1   4   41.00    4.20
   8  -1  -4   64.39    4.80
  -8   1   4   66.49    4.80
   7  -1  -4   68.69    4.60
  -7   1   4   65.79    4.30
   6  -1  -4  133.59    6.40
  -6   1   4  143.89    6.40
   5  -1  -4  334.57   12.10
   5  -1  -4  317.77   11.10
  -5   1   4  343.57   11.90
   4  -1  -4  765.52   25.30
   4  -1  -4  801.82   25.00
  -4   1   4  757.82   24.70
  -4   1   4  777.72   25.10
   3  -1  -4  436.26   13.80
   3  -1  -4  397.16   13.40
  -3   1   4  387.66   13.30
  -3   1   4  387.36   13.30
   2  -1  -4 2349.76   73.09
   2  -1  -4 2410.66   74.39
   2  -1  -4 2356.96   75.09
  -2   1   4 2376.76   73.99
  -2   1   4 2255.27   75.69
   1  -1  -4  923.21   29.50
   1  -1  -4  942.71   29.80
   1  -1  -4 1006.70   30.60
   1  -1  -4  940.51   29.80
  -1   1   4  950.10   30.20
  -1   1   4  954.90   29.50
   0  -1  -4  416.26   14.70
   0  -1  -4  428.26   14.40
   0   1   4  495.55   14.90
   0   1   4  478.35   15.10
   0   1   4  478.45   14.40
  -1  -1  -4  549.95   17.80
  -1  -1  -4  533.15   17.60
  -1  -1  -4  550.84   17.30
   1   1   4  555.34   17.20
   1   1   4  539.35   17.70
  -2  -1  -4  943.41   29.50
  -2  -1  -4  881.71   29.10
  -2  -1  -4  947.81   29.50
   2   1   4  900.91   29.00
   2   1   4  905.41   28.80
  -3  -1  -4 1483.05   47.00
  -3  -1  -4 1572.74   46.80
   3   1   4 1454.95   46.80
   3   1   4 1465.15   46.60
  -4  -1  -4   34.90    2.10
  -4  -1  -4   33.80    2.60
   4   1   4   36.20    2.50
   4   1   4   37.90    2.00
  -5  -1  -4   52.69    3.60
   5   1   4   49.30    3.20
  -6  -1  -4  120.19    6.10
   6   1   4  119.29    5.90
  -7  -1  -4  132.69    6.90
   7   1   4  132.19    6.70
  -8  -1  -4   21.10    3.30
   8   1   4   22.30    3.30
   9   1   4   51.79    7.10
   9  -2  -4    2.20    1.80
  -9   2   4    4.10    2.10
   8  -2  -4   41.80    4.00
  -8   2   4   39.80    3.70
   7  -2  -4   76.39    4.80
  -7   2   4   75.89    4.70
   6  -2  -4  289.97   11.30
  -6   2   4  291.97   11.00
   5  -2  -4  111.49    4.90
  -5   2   4   95.49    4.20
  -5   2   4   91.69    4.60
   4  -2  -4  253.57    9.00
  -4   2   4  242.88    9.00
  -4   2   4  244.98    8.80
   3  -2  -4  764.12   23.90
  -3   2   4  732.63   24.00
  -3   2   4  735.03   23.90
   2  -2  -4  557.04   17.50
   2  -2  -4  548.85   17.70
  -2   2   4  557.94   18.20
   1  -2  -4  294.87    8.90
   1  -2  -4  291.87    9.60
  -1   2   4  259.27    9.80
   0  -2  -4  185.58    5.90
   0   2   4  186.78    5.90
   0   2   4  181.98    6.90
  -1  -2  -4 2808.42   86.59
  -1  -2  -4 2922.11   86.59
   1   2   4 2725.13   86.69
   1   2   4 2617.54   88.59
  -2  -2  -4  485.35   16.60
  -2  -2  -4  514.95   16.20
   2   2   4  508.35   16.10
   2   2   4  489.75   16.50
  -3  -2  -4  163.18    6.60
   3   2   4  166.48    6.30
   3   2   4  165.68    6.20
  -4  -2  -4   40.60    2.90
   4   2   4   35.00    2.20
   4   2   4   35.70    2.40
  -5  -2  -4  467.05   16.60
   5   2   4  458.05   16.20
   5   2   4  475.15   15.50
  -6  -2  -4   81.89    5.00
   6   2   4   82.69    4.70
  -7  -2  -4  104.49    6.20
   7   2   4  108.99    5.90
  -8  -2  -4   30.40    4.00
   8   2   4   26.40    3.40
   9  -3  -4   35.10    4.00
  -9   3   4   33.50    5.80
   8  -3  -4   51.99    4.30
  -8   3   4   49.70    4.20
   7  -3  -4   75.99    4.70
  -7   3   4   67.79    4.50
   6  -3  -4  108.19    5.50
  -6   3   4  109.89    5.50
   5  -3  -4   93.89    4.80
  -5   3   4  111.09    4.70
  -5   3   4  102.19    4.90
   4  -3  -4  172.28    7.10
  -4   3   4  193.58    7.30
  -4   3   4  203.28    7.40
   3  -3  -4  443.96   14.30
  -3   3   4  417.26   14.40
  -3   3   4  438.66   14.80
   2  -3  -4  487.35   15.30
   2  -3  -4  469.35   15.10
  -2   3   4  477.95   16.20
   1  -3  -4 1031.30   33.30
  -1   3   4 1072.09   33.70
   0  -3  -4  399.76   13.20
   0   3   4  383.36   13.50
  -1  -3  -4   65.09    3.40
  -1  -3  -4   70.49    2.60
   1   3   4   69.59    2.50
   1   3   4   68.69    3.50
  -2  -3  -4  278.37   10.20
  -2  -3  -4  287.97    9.40
   2   3   4  272.17   10.00
   2   3   4  281.57    9.40
  -3  -3  -4  431.96   15.20
   3   3   4  447.56   15.00
   3   3   4  434.76   14.60
  -4  -3  -4  209.78    8.30
   4   3   4  200.38    7.60
   4   3   4  187.78    7.60
  -5  -3  -4  195.08    8.20
   5   3   4  180.88    7.00
   5   3   4  174.68    7.40
  -6  -3  -4   82.39    5.10
   6   3   4   84.99    4.80
  -7  -3  -4   35.50    3.90
   7   3   4   36.30    3.40
  -8  -3  -4   13.90    3.00
   8   3   4   15.50    2.90
   9  -4  -4   38.80    4.10
   8  -4  -4   27.40    3.30
  -8   4   4   25.20    3.40
   7  -4  -4   43.70    3.50
  -7   4   4   41.00    3.60
   6  -4  -4   58.49    3.80
  -6   4   4   68.69    4.10
   5  -4  -4  458.85   15.40
  -5   4   4  426.96   15.30
  -5   4   4  433.06   15.30
   4  -4  -4  342.87   11.90
  -4   4   4  340.47   12.30
  -4   4   4  342.47   12.10
   3  -4  -4  367.76   12.80
   3  -4  -4  366.46   12.20
  -3   4   4  366.26   13.00
   2  -4  -4  167.28    5.70
   2  -4  -4  163.88    6.50
   2  -4  -4  162.48    5.60
  -2   4   4  182.18    7.00
   1  -4  -4  500.15   16.50
  -1   4   4  488.25   16.90
   0  -4  -4  217.68    8.40
   0   4   4  239.68    8.80
  -1  -4  -4 1010.00   33.40
   1   4   4 1073.89   33.70
  -2  -4  -4  418.16   15.40
   2   4   4  461.75   14.40
   2   4   4  448.16   14.30
   2   4   4  448.76   15.40
  -3  -4  -4  265.67   10.00
   3   4   4  248.78    9.50
   3   4   4  248.48    8.90
  -4  -4  -4   94.49    5.10
   4   4   4   93.79    4.60
   4   4   4   96.99    4.40
  -5  -4  -4   72.49    4.80
   5   4   4   79.39    4.00
   5   4   4   75.09    4.10
  -6  -4  -4   80.39    5.40
   6   4   4   85.59    4.80
  -7  -4  -4   41.80    4.20
   7   4   4   38.90    3.60
  -8  -4  -4   53.69    5.30
   8   4   4   53.49    4.40
   9  -5  -4   32.20    3.70
   8  -5  -4    9.40    2.20
  -8   5   4   12.40    2.60
   7  -5  -4   55.39    4.00
  -7   5   4   59.79    4.20
   6  -5  -4   83.69    4.50
  -6   5   4   83.59    4.80
   5  -5  -4  329.17   11.70
  -5   5   4  322.47   12.10
  -5   5   4  322.87   11.90
   4  -5  -4   14.00    1.50
   4  -5  -4   12.50    1.90
  -4   5   4   13.90    2.00
   3  -5  -4  156.78    6.60
   3  -5  -4  165.78    5.80
  -3   5   4  157.18    6.90
   2  -5  -4   51.39    2.00
   2  -5  -4   49.50    3.00
  -2   5   4   53.49    3.40
   1  -5  -4  951.40   30.30
  -1   5   4  923.01   30.80
   0  -5  -4  957.20   31.00
   0   5   4  962.80   31.50
  -1  -5  -4  139.79    5.90
   1   5   4  122.39    5.80
  -2  -5  -4   96.59    5.00
   2   5   4   90.19    3.50
   2   5   4   90.39    4.70
   2   5   4   89.69    3.40
  -3  -5  -4   96.79    5.30
   3   5   4   99.59    4.10
   3   5   4   96.79    4.90
  -4  -5  -4  372.76   14.50
   4   5   4  390.66   13.40
   4   5   4  393.16   14.00
  -5  -5  -4  143.39    7.20
   5   5   4  132.69    6.10
   5   5   4  138.59    6.30
  -6  -5  -4  106.39    6.40
   6   5   4   98.29    5.30
  -7  -5  -4   20.90    3.50
   7   5   4   19.20    2.70
   8   5   4   40.90    3.90
  -8   6   4   46.00    4.30
   7  -6  -4   70.09    4.40
  -7   6   4   71.49    4.80
   6  -6  -4   37.20    2.90
   5  -6  -4   33.30    3.10
   5  -6  -4   33.90    2.50
  -5   6   4   34.10    3.00
   4  -6  -4  294.97   11.60
   4  -6  -4  304.17   10.60
  -4   6   4  325.47   12.10
   3  -6  -4  178.28    6.30
   3  -6  -4  189.08    7.70
  -3   6   4  182.88    8.00
   2  -6  -4  526.55   18.00
  -2   6   4  523.25   18.50
   1  -6  -4  197.08    7.90
  -1   6   4  202.58    8.50
   0  -6  -4  111.89    5.30
   0   6   4  111.39    5.60
  -1  -6  -4   69.19    4.10
   1   6   4   72.89    4.30
  -2  -6  -4  338.57   13.30
   2   6   4  371.56   11.60
   2   6   4  354.36   13.30
  -3  -6  -4  257.87   10.90
   3   6   4  271.27   10.70
   3   6   4  281.77    9.50
  -4  -6  -4  295.67   11.90
   4   6   4  281.67   11.20
   4   6   4  285.37   10.30
  -5  -6  -4   14.90    2.80
   5   6   4    9.90    1.90
   5   6   4   10.60    1.80
  -6  -6  -4   60.49    5.10
   6   6   4   58.79    4.40
  -7  -6  -4   27.20    4.20
   7  -7  -4   21.00    3.20
   6  -7  -4   61.89    4.50
   5  -7  -4   82.69    5.00
  -5   7   4   91.89    5.30
   4  -7  -4  224.58    9.20
  -4   7   4  220.28    9.60
   3  -7  -4  142.79    6.60
  -3   7   4  148.49    7.20
   2  -7  -4  224.38    8.80
  -2   7   4  208.88    9.20
   1  -7  -4   32.60    2.80
  -1   7   4   28.70    2.90
   0  -7  -4  451.35   16.20
   0   7   4  462.75   16.90
  -1  -7  -4  209.48    9.10
   1   7   4  230.48    9.50
  -2  -7  -4  412.76   15.50
   2   7   4  414.76   15.50
  -3  -7  -4  140.89    7.00
   3   7   4  121.29    6.40
  -4  -7  -4   56.99    4.70
   4   7   4   53.59    3.90
  -5  -7  -4   65.79    5.30
   5   7   4   68.59    4.50
  -6  -7  -4   63.49    5.50
   7  -8  -4   49.80    5.40
   6  -8  -4   92.99    5.70
   5  -8  -4    9.10    2.00
  -5   8   4   13.30    2.40
   4  -8  -4   63.39    4.20
  -4   8   4   63.09    4.70
   3  -8  -4  100.79    5.40
  -3   8   4   97.09    5.80
   2  -8  -4  218.28    9.10
  -2   8   4  225.38    9.90
   1  -8  -4  137.09    6.60
  -1   8   4  147.29    7.30
   0  -8  -4  162.28    7.40
   0   8   4  158.08    7.80
  -1  -8  -4  288.37   11.50
   1   8   4  279.77   11.80
  -2  -8  -4   87.89    5.50
   2   8   4   92.09    5.50
  -3  -8  -4   86.69    5.70
   3   8   4   88.49    5.40
  -4  -8  -4   64.09    5.20
   4   8   4   68.99    4.80
  -5  -8  -4  108.19    7.00
   5   8   4  108.19    6.60
  -6  -8  -4   75.59    7.20
   6  -9  -4   26.70    3.50
   5  -9  -4   47.60    4.10
  -5   9   4   45.70    4.20
   4  -9  -4  139.69    7.00
  -4   9   4  134.39    7.50
   3  -9  -4   95.19    5.50
  -3   9   4  103.19    6.30
   2  -9  -4  124.09    6.40
  -2   9   4  127.59    7.10
   1  -9  -4  123.89    6.30
  -1   9   4  120.19    6.90
   0  -9  -4  136.79    6.90
   0   9   4  141.29    7.50
  -1  -9  -4  103.99    6.10
   1   9   4  114.09    6.60
  -2  -9  -4   88.89    5.90
   2   9   4   91.19    5.80
  -3  -9  -4   91.89    6.20
   3   9   4   95.19    5.90
  -4  -9  -4  109.09    7.10
   4   9   4  107.49    6.50
  -5  -9  -4   58.19    5.60
   5 -10  -4   56.19    4.60
  -5  10   4   51.89    4.70
   4 -10  -4   33.60    3.60
  -4  10   4   33.20    3.90
   3 -10  -4   93.39    5.60
  -3  10   4   85.99    6.10
   2 -10  -4   68.19    4.80
  -2  10   4   68.49    5.30
   1 -10  -4  111.69    6.30
  -1  10   4  114.69    7.00
   0 -10  -4   77.49    5.30
   0  10   4   81.99    5.80
  -1 -10  -4  128.29    7.10
   1  10   4  118.09    7.20
  -2 -10  -4   87.29    6.10
   2  10   4   83.89    6.00
  -3 -10  -4   72.89    5.90
   3  10   4   76.39    5.60
  -4 -10  -4   29.40    4.40
   4  10   4   30.70    3.80
  -5  11   4   35.50    4.30
   4 -11  -4   29.00    3.80
  -4  11   4   26.30    3.90
   3 -11  -4   30.30    3.60
  -3  11   4   30.40    4.00
   2 -11  -4   46.20    4.20
  -2  11   4   43.40    4.60
   1 -11  -4  127.49    7.00
  -1  11   4  117.49    7.60
   0 -11  -4   72.29    5.40
   0  11   4   73.99    5.90
  -1 -11  -4   41.40    4.50
   1  11   4   35.60    4.20
  -2 -11  -4   25.60    3.90
   2  11   4   27.30    3.80
   3  11   4   28.40    3.90
   4  11   4   62.89    6.30
   1 -12  -4   35.20    5.30
   0  14  -5   14.00    5.00
  -1  14  -5   71.79    7.90
   4  13  -5   84.39    6.50
   3  13  -5   11.40    2.90
   2  13  -5    8.40    2.50
   1  13  -5   40.10    4.60
   0  13  -5  112.99    7.50
  -1  13  -5   52.79    5.10
  -2  13  -5   41.00    4.60
  -3  13  -5   14.60    3.10
  -4  13  -5    4.30    2.10
  -5  13  -5   24.30    3.90
   5  12  -5   22.10    5.10
   4  12  -5   10.00    2.60
   3  12  -5   76.89    5.80
   2  12  -5  133.69    7.80
   1  12  -5  110.19    7.00
   0  12  -5   56.89    5.00
  -1  12  -5  108.19    7.00
  -2  12  -5   20.20    3.30
  -3  12  -5   21.90    3.30
  -4  12  -5   56.19    5.00
  -5  12  -5   64.09    5.40
   5  11  -5   51.29    4.50
   5  11  -5   50.39    4.20
   4  11  -5  110.39    6.00
   4  11  -5  110.39    6.80
  -4 -11   5  114.49    6.10
   3  11  -5   99.89    6.40
  -3 -11   5  102.39    5.30
  -3 -11   5  101.09    5.40
   2  11  -5   93.69    6.00
  -2 -11   5   81.09    4.70
  -2 -11   5   80.79    4.40
   1  11  -5   82.59    5.70
  -1 -11   5   87.59    4.60
  -1 -11   5   83.19    4.30
   0  11  -5   96.69    6.10
   0 -11   5   94.79    4.60
   0 -11   5   95.79    4.80
  -1  11  -5  107.09    6.50
   1 -11   5  104.59    4.90
   1 -11   5  109.29    5.10
  -2  11  -5  144.79    8.00
   2 -11   5  150.98    6.40
   2 -11   5  146.59    6.20
  -3  11  -5  113.89    6.90
   3 -11   5  119.39    5.60
   3 -11   5  121.59    5.60
  -4  11  -5   88.09    5.90
   4 -11   5   80.79    4.60
   4 -11   5   83.19    4.60
  -5  11  -5   26.40    3.60
   5 -11   5   29.60    3.10
   5 -11   5   32.10    3.00
   6 -11   5   31.60    4.20
   6 -11   5   29.60    3.40
   7 -11   5   18.60    4.80
   7  10  -5   27.50    3.70
   6  10  -5   84.89    5.70
  -6 -10   5   87.59    5.60
   5  10  -5  105.39    6.30
   5  10  -5  109.59    6.10
  -5 -10   5  106.99    5.90
   4  10  -5   48.60    3.70
   4  10  -5   51.69    4.30
  -4 -10   5   46.80    3.60
   3  10  -5   51.19    4.10
  -3 -10   5   45.10    3.40
  -3 -10   5   49.00    3.40
   2  10  -5  151.68    7.70
  -2 -10   5  148.49    6.40
  -2 -10   5  146.89    6.40
   1  10  -5  264.17   11.60
  -1 -10   5  268.67   10.00
  -1 -10   5  281.27   10.10
   0  10  -5  162.88    8.10
   0 -10   5  156.68    6.50
   0 -10   5  161.98    6.50
  -1  10  -5   92.79    5.90
   1 -10   5  107.99    4.70
   1 -10   5  104.79    4.70
  -2  10  -5  181.38    8.70
   2 -10   5  176.38    7.10
   2 -10   5  178.08    7.10
  -3  10  -5  102.39    6.10
   3 -10   5  101.19    4.90
   3 -10   5  100.79    4.80
  -4  10  -5   49.50    4.20
   4 -10   5   49.70    3.50
   4 -10   5   51.59    3.30
  -5  10  -5   25.40    3.20
   5 -10   5   26.90    3.00
   5 -10   5   24.80    2.70
   6 -10   5   77.59    5.10
   6 -10   5   82.19    4.90
   7 -10   5   27.90    3.60
   7   9  -5   70.79    5.30
  -7  -9   5   66.49    5.20
   6   9  -5   78.29    5.20
  -6  -9   5   73.79    5.00
   5   9  -5   53.99    4.20
   5   9  -5   58.39    4.20
  -5  -9   5   51.29    3.90
   4   9  -5   86.39    5.30
  -4  -9   5   88.49    4.80
   3   9  -5  189.28    8.80
  -3  -9   5  194.58    7.90
  -3  -9   5  190.68    7.70
   2   9  -5  534.05   19.50
  -2  -9   5  531.65   18.10
  -2  -9   5  530.75   17.90
   1   9  -5  237.08   10.00
  -1  -9   5  224.28    8.40
  -1  -9   5  217.88    8.40
   0   9  -5  288.77   11.80
   0  -9   5  289.97   10.40
   0  -9   5  288.87   10.20
  -1   9  -5   56.99    4.10
   1  -9   5   46.70    2.90
   1  -9   5   50.09    2.80
  -2   9  -5  547.65   20.10
   2  -9   5  553.14   18.50
   2  -9   5  569.44   18.70
  -3   9  -5   75.89    4.90
   3  -9   5   72.49    3.70
   3  -9   5   71.99    4.00
  -4   9  -5  231.68   10.10
   4  -9   5  242.38    9.10
   4  -9   5  239.38    9.40
  -5   9  -5   49.50    3.90
   5  -9   5   50.69    3.70
  -6   9  -5   46.70    3.50
   6  -9   5   46.30    3.90
  -7   9  -5   29.70    3.30
   7  -9   5   28.00    3.60
  -8   9  -5   15.30    2.70
  -8  -8   5   46.40    4.60
   7   8  -5   30.80    3.60
  -7  -8   5   28.70    3.60
   6   8  -5   37.80    3.70
  -6  -8   5   41.60    3.70
   5   8  -5   80.99    4.90
   5   8  -5   81.59    5.00
  -5  -8   5   87.99    4.80
   4   8  -5  377.46   14.30
  -4  -8   5  373.56   13.50
   3   8  -5  252.47   10.10
  -3  -8   5  234.18    9.20
  -3  -8   5  233.18    8.90
   2   8  -5  269.47   11.10
  -2  -8   5  281.97   10.10
  -2  -8   5  275.27    9.80
   1   8  -5  140.39    6.70
  -1  -8   5  130.69    5.30
  -1  -8   5  130.59    5.50
   0   8  -5  473.45   17.80
   0  -8   5  503.55   16.50
   0  -8   5  507.85   16.30
  -1   8  -5  239.08    9.90
   1  -8   5  235.18    8.40
   1  -8   5  235.48    8.70
  -2   8  -5  202.38    8.90
   2  -8   5  207.88    7.90
   2  -8   5  211.48    7.60
  -3   8  -5  397.56   14.80
   3  -8   5  397.16   13.90
   3  -8   5  391.76   13.50
  -4   8  -5  100.89    5.50
  -4   8  -5  102.09    4.50
   4  -8   5   96.39    5.00
  -5   8  -5   35.70    3.10
  -5   8  -5   37.80    2.80
   5  -8   5   32.90    3.10
  -6   8  -5   67.09    4.20
   6  -8   5   71.19    4.70
  -7   8  -5   67.19    4.60
   7  -8   5   71.59    5.00
  -8   8  -5   39.60    4.00
   8  -8   5   40.10    4.30
   8   7  -5   37.20    4.20
  -8  -7   5   34.70    3.90
   7   7  -5   48.80    4.40
  -7  -7   5   53.29    4.30
   6   7  -5  149.79    7.60
  -6  -7   5  158.98    7.30
   5   7  -5  189.88    8.10
   5   7  -5  183.88    8.30
  -5  -7   5  189.08    7.90
   4   7  -5  427.66   15.10
  -4  -7   5  407.86   14.40
  -4  -7   5  401.56   14.80
   3   7  -5  210.78    9.00
  -3  -7   5  213.58    8.10
  -3  -7   5  227.98    8.50
   2   7  -5  212.78    9.30
  -2  -7   5  243.28    8.60
  -2  -7   5  231.48    8.20
   1   7  -5  377.76   14.30
  -1  -7   5  398.36   13.30
  -1  -7   5  392.26   12.90
   0   7  -5  625.04   21.10
   0  -7   5  601.24   19.90
   0  -7   5  599.14   19.40
  -1   7  -5  717.63   24.50
   1  -7   5  715.13   22.90
   1  -7   5  732.53   23.40
  -2   7  -5  132.09    6.20
   2  -7   5  131.09    5.00
   2  -7   5  127.49    5.40
  -3   7  -5   34.20    2.10
  -3   7  -5   32.80    2.80
  -4   7  -5  127.79    5.30
  -4   7  -5  121.59    6.00
   4  -7   5  131.29    5.80
  -5   7  -5  274.37   10.80
  -5   7  -5  278.27   10.40
   5  -7   5  290.17   11.00
  -6   7  -5   43.40    3.30
   6  -7   5   41.70    3.60
  -7   7  -5   58.99    4.20
   7  -7   5   57.99    4.50
  -8   7  -5   12.80    2.50
   8  -7   5   14.50    2.90
   8   6  -5   44.80    4.50
  -8  -6   5   51.19    4.40
   7   6  -5   76.29    5.30
  -7  -6   5   70.89    4.80
   6   6  -5  174.38    8.10
  -6  -6   5  161.48    7.50
   5   6  -5  104.39    5.60
   5   6  -5  108.39    5.20
  -5  -6   5  111.09    5.30
   4   6  -5  145.99    6.40
  -4  -6   5  144.79    6.40
  -4  -6   5  142.89    6.00
   3   6  -5  246.08    9.90
  -3  -6   5  261.77    9.10
  -3  -6   5  258.87    9.50
   2   6  -5  516.75   17.30
  -2  -6   5  488.95   16.40
  -2  -6   5  466.35   15.90
   1   6  -5  876.81   26.50
   1   6  -5  823.82   27.90
  -1  -6   5  836.92   26.50
  -1  -6   5  840.12   27.10
   0   6  -5  878.31   28.40
   0  -6   5  838.72   26.80
   0  -6   5  856.11   26.70
   0  -6   5  857.41   27.40
  -1   6  -5  402.66   14.80
   1  -6   5  415.56   13.40
   1  -6   5  424.16   14.00
   1  -6   5  418.26   13.40
  -2   6  -5   86.69    4.30
   2  -6   5   69.09    3.60
  -3   6  -5  475.85   15.80
  -3   6  -5  475.55   16.90
   3  -6   5  502.15   16.50
  -4   6  -5  483.85   16.80
  -4   6  -5  491.85   16.20
   4  -6   5  471.55   16.60
  -5   6  -5  176.58    7.30
  -5   6  -5  182.48    7.20
   5  -6   5  173.28    7.60
  -6   6  -5   91.89    4.90
   6  -6   5   90.99    5.20
  -7   6  -5   10.50    2.00
   7  -6   5   10.60    2.30
  -8   6  -5   45.60    4.20
   8  -6   5   47.20    4.30
  -9  -5   5   37.80    6.40
   8   5  -5   46.70    4.50
  -8  -5   5   42.90    4.10
   7   5  -5   86.49    5.60
  -7  -5   5   90.59    5.30
   6   5  -5   32.50    3.20
  -6  -5   5   33.10    3.10
   5   5  -5  191.88    8.20
   5   5  -5  182.78    7.50
  -5  -5   5  189.88    7.60
   4   5  -5  359.66   12.30
  -4  -5   5  332.37   12.30
  -4  -5   5  325.47   11.80
   3   5  -5  741.83   24.30
  -3  -5   5  726.63   23.50
  -3  -5   5  725.53   24.00
   2   5  -5  680.93   21.50
   2   5  -5  686.83   22.70
  -2  -5   5  667.23   21.50
  -2  -5   5  683.43   22.10
   1   5  -5  173.38    7.30
   1   5  -5  177.48    6.10
  -1  -5   5  190.78    6.20
  -1  -5   5  194.18    6.80
   0   5  -5  243.78    8.80
   0  -5   5  221.58    7.20
   0  -5   5  218.68    7.90
   0  -5   5  215.38    7.20
  -1   5  -5  597.14   20.40
   1  -5   5  616.64   19.10
   1  -5   5  633.54   19.10
   1  -5   5  588.24   19.70
  -2   5  -5 1093.19   35.60
  -2   5  -5 1091.09   34.50
   2  -5   5 1127.49   35.10
   2  -5   5 1113.29   34.70
  -3   5  -5  505.85   16.20
  -3   5  -5  511.35   17.00
   3  -5   5  469.65   16.60
  -4   5  -5  205.98    7.70
  -4   5  -5  214.98    8.10
   4  -5   5  200.18    8.10
  -5   5  -5  125.69    5.50
  -5   5  -5  124.79    5.60
   5  -5   5  129.59    6.00
  -6   5  -5   68.09    4.10
   6  -5   5   67.19    4.30
  -7   5  -5   87.79    5.10
   7  -5   5   89.69    5.40
  -8   5  -5   62.09    4.60
   8  -5   5   54.89    4.60
  -9   5  -5   29.20    4.80
  -9  -4   5   25.80    3.70
   8   4  -5   19.70    3.20
  -8  -4   5   21.10    3.10
   7   4  -5   74.89    5.10
  -7  -4   5   72.99    4.80
   6   4  -5  435.76   16.00
  -6  -4   5  419.36   15.30
   5   4  -5  243.88    9.10
   5   4  -5  244.68    9.90
  -5  -4   5  252.07    9.40
   4   4  -5  161.78    6.60
  -4  -4   5  170.58    6.50
   3   4  -5  275.47    9.80
  -3  -4   5  254.37    9.00
  -3  -4   5  255.37    9.50
   2   4  -5  789.02   26.00
   2   4  -5  819.32   25.00
  -2  -4   5  772.52   24.90
  -2  -4   5  799.02   25.50
   1   4  -5 1193.88   37.30
   1   4  -5 1197.98   38.30
  -1  -4   5 1203.88   37.70
  -1  -4   5 1208.38   37.10
   0   4  -5  823.02   27.40
   0  -4   5  863.81   26.80
  -1   4  -5  641.64   22.00
  -1   4  -5  665.93   20.80
   1  -4   5  677.53   20.80
   1  -4   5  691.63   21.50
  -2   4  -5  958.40   30.50
  -2   4  -5  941.61   29.50
   2  -4   5  912.41   30.00
   2  -4   5  962.30   29.60
  -3   4  -5  575.64   18.90
  -3   4  -5  573.64   19.40
   3  -4   5  601.64   19.30
  -4   4  -5   91.29    4.10
  -4   4  -5   91.79    4.10
   4  -4   5   77.99    4.20
  -5   4  -5  179.28    6.90
  -5   4  -5  180.98    7.40
   5  -4   5  187.78    7.70
  -6   4  -5  204.98    8.50
   6  -4   5  203.18    8.70
  -7   4  -5   96.79    5.50
   7  -4   5   92.49    5.60
  -8   4  -5   29.00    3.60
   8  -4   5   27.40    3.50
  -9   4  -5    6.90    2.40
   9   3  -5   29.20    5.10
  -9  -3   5   30.50    3.90
   8   3  -5   85.89    5.80
  -8  -3   5   82.89    5.50
   7   3  -5  156.88    7.80
  -7  -3   5  152.68    7.20
   6   3  -5   64.29    4.30
  -6  -3   5   61.79    4.00
   5   3  -5  110.59    4.60
   5   3  -5  111.39    5.40
  -5  -3   5  100.49    4.90
   4   3  -5  299.57   11.00
   4   3  -5  307.57   10.60
  -4  -3   5  281.97   10.40
   3   3  -5  678.03   22.30
  -3  -3   5  687.63   22.30
  -3  -3   5  683.23   21.90
   2   3  -5 3208.88  102.39
   2   3  -5 3284.27  100.39
  -2  -3   5 3193.58  100.59
  -2  -3   5 3228.78  101.99
   1   3  -5  870.01   26.20
   1   3  -5  856.11   27.40
  -1  -3   5  838.32   26.10
  -1  -3   5  829.72   26.80
   0   3  -5  230.58    7.90
   0  -3   5  187.78    7.20
  -1   3  -5  881.11   27.10
  -1   3  -5  879.41   28.30
   1  -3   5  862.61   27.70
   1  -3   5  887.41   27.20
  -2   3  -5 1384.06   43.40
  -2   3  -5 1391.06   44.10
   2  -3   5 1443.06   43.40
   2  -3   5 1375.26   43.80
  -3   3  -5  812.72   26.10
  -3   3  -5  807.72   26.40
   3  -3   5  833.72   26.40
  -4   3  -5  386.86   13.20
  -4   3  -5  382.26   13.10
   4  -3   5  379.76   13.40
  -5   3  -5  190.78    7.60
  -5   3  -5  190.48    6.90
   5  -3   5  179.58    7.70
  -6   3  -5  192.88    8.20
   6  -3   5  191.38    8.20
  -7   3  -5   69.19    4.60
   7  -3   5   71.99    4.70
  -8   3  -5   34.00    3.80
   8  -3   5   40.30    4.00
  -9   3  -5   37.80    4.40
   9   2  -5   67.19    5.60
  -9  -2   5   66.79    5.20
   8   2  -5   39.90    4.00
  -8  -2   5   43.40    4.00
   7   2  -5   33.60    3.40
  -7  -2   5   29.40    3.20
   6   2  -5  168.98    7.80
  -6  -2   5  177.18    7.40
   5   2  -5  509.55   15.90
   5   2  -5  475.35   15.80
   5   2  -5  462.95   16.80
  -5  -2   5  458.35   16.30
   4   2  -5  829.02   27.20
   4   2  -5  850.31   27.70
  -4  -2   5  856.01   27.20
   3   2  -5  968.50   30.30
  -3  -2   5  940.61   29.90
  -3  -2   5  930.21   30.20
   2   2  -5  229.18    7.70
   2   2  -5  228.48    8.40
  -2  -2   5  230.88    7.60
  -2  -2   5  223.28    8.00
   1   2  -5  635.54   20.80
   1   2  -5  641.94   19.70
  -1  -2   5  626.44   19.70
  -1  -2   5  635.64   20.20
   0   2  -5 2641.34   86.39
   0   2  -5 2754.72   82.19
   0   2  -5 2621.34   84.89
   0  -2   5 2538.35   84.69
   0  -2   5 2720.23   82.09
  -1   2  -5  736.63   23.70
  -1   2  -5  740.93   22.70
  -1   2  -5  754.32   23.80
   1  -2   5  690.33   23.10
   1  -2   5  723.33   22.70
  -2   2  -5  548.25   18.50
  -2   2  -5  565.84   18.00
  -2   2  -5  544.05   18.70
   2  -2   5  592.44   18.00
   2  -2   5  563.14   18.30
  -3   2  -5  322.57   10.80
  -3   2  -5  309.87   10.80
  -3   2  -5  318.27   11.00
   3  -2   5  313.27   11.00
  -4   2  -5  365.16   12.10
  -4   2  -5  372.66   12.70
  -4   2  -5  372.46   12.40
   4  -2   5  345.07   12.70
  -5   2  -5  143.29    6.30
  -5   2  -5  147.19    5.50
   5  -2   5  148.79    6.50
  -6   2  -5   87.39    4.90
   6  -2   5   95.69    5.10
  -7   2  -5  121.39    6.40
   7  -2   5  124.09    6.50
  -8   2  -5   77.19    5.30
   8  -2   5   76.19    5.30
  -9   2  -5   15.70    3.30
   9   1  -5   37.10    4.30
  -9  -1   5   44.30    4.30
   8   1  -5   40.20    4.10
  -8  -1   5   42.90    3.90
   7   1  -5  145.79    7.40
  -7  -1   5  158.98    7.20
   6   1  -5  139.79    6.60
  -6  -1   5  135.49    6.20
   5   1  -5  728.53   23.60
   5   1  -5  752.82   23.90
   5   1  -5  732.33   24.80
  -5  -1   5  750.32   24.40
   4   1  -5  389.06   12.90
   4   1  -5  384.06   13.30
  -4  -1   5  353.06   12.70
   3   1  -5  130.99    5.60
  -3  -1   5  140.29    5.20
  -3  -1   5  149.19    5.60
   2   1  -5 1948.51   63.29
   2   1  -5 1962.30   61.29
  -2  -1   5 2003.30   62.39
  -2  -1   5 2020.80   63.09
   1   1  -5 3538.65  114.49
   1   1  -5 3722.83  119.19
   1   1  -5 3741.33  115.49
   1   1  -5 3935.21  115.49
  -1  -1   5 3483.65  116.29
   0   1  -5 1090.29   34.70
   0   1  -5 1102.19   35.70
   0  -1   5 1094.19   36.30
   0  -1   5 1157.68   34.40
   0  -1   5 1114.09   35.10
  -1   1  -5 1291.87   40.60
  -1   1  -5 1302.57   40.00
  -1   1  -5 1300.77   40.30
   1  -1   5 1263.47   40.50
   1  -1   5 1261.77   39.70
  -2   1  -5  301.47    9.90
  -2   1  -5  295.87   10.20
  -2   1  -5  293.77    9.70
   2  -1   5  258.57    9.70
  -3   1  -5  601.54   19.60
  -3   1  -5  603.64   19.30
  -3   1  -5  618.14   19.70
   3  -1   5  573.44   19.60
  -4   1  -5  677.83   22.10
  -4   1  -5  653.23   21.30
  -4   1  -5  656.93   21.60
   4  -1   5  680.83   22.10
  -5   1  -5  397.36   13.10
  -5   1  -5  406.76   14.20
   5  -1   5  377.96   14.00
  -6   1  -5  218.78    9.10
   6  -1   5  216.28    9.00
  -7   1  -5   50.99    4.10
   7  -1   5   53.49    4.00
  -8   1  -5   31.70    3.90
   8  -1   5   37.20    3.90
  -9   1  -5   31.50    5.70
   9   0  -5   31.80    4.10
  -9   0   5   43.40    4.20
   8   0  -5   63.49    5.00
  -8   0   5   66.49    4.80
   7   0  -5  158.58    7.60
  -7   0   5  155.78    7.30
   6   0  -5   85.39    4.80
  -6   0   5   77.39    4.40
   5   0  -5   98.09    4.30
   5   0  -5   96.39    4.80
  -5   0   5   92.49    4.60
   4   0  -5  463.65   16.10
  -4   0   5  482.95   15.80
   3   0  -5 1778.52   54.99
  -3   0   5 1754.82   54.69
  -3   0   5 1740.43   54.79
  -2   0   5  290.17   10.00
  -2   0   5  287.07    9.80
  -2   0   5  297.47    9.70
   1   0  -5 1022.80   31.80
   1   0  -5 1034.90   31.90
   1   0  -5 1059.99   31.80
  -1   0   5 1012.00   31.90
  -1   0   5  985.80   32.40
   0   0  -5 1626.64   54.49
   0   0  -5 1787.92   53.99
   0   0   5 1711.43   55.29
   0   0   5 1747.83   55.09
   0   0   5 1735.13   53.69
  -1   0  -5 1284.67   39.40
  -1   0  -5 1331.17   39.40
   1   0   5 1253.47   39.40
   1   0   5 1196.08   40.00
   1   0   5 1254.47   39.80
  -2   0  -5  360.26   12.90
   2   0   5  404.56   12.90
   2   0   5  403.16   13.10
  -3   0  -5  634.24   19.90
   3   0   5  600.44   19.60
   3   0   5  579.94   19.70
  -4   0  -5 1120.29   36.10
  -4   0  -5 1116.99   35.70
   4   0   5 1132.19   36.00
  -5   0  -5  177.38    7.30
  -5   0  -5  172.18    6.40
   5   0   5  160.08    7.10
  -6   0  -5   53.59    3.90
   6   0   5   49.90    3.60
  -7   0  -5   41.90    3.80
   7   0   5   44.20    3.70
  -8   0  -5  140.39    7.70
   8   0   5  152.28    7.80
   9  -1  -5   45.90    4.60
  -9   1   5   48.10    4.40
   8  -1  -5   60.29    4.80
  -8   1   5   63.19    4.60
   7  -1  -5   72.09    4.80
  -7   1   5   74.79    4.70
   6  -1  -5  190.48    8.20
   6  -1  -5  191.68    8.00
  -6   1   5  189.78    7.90
   5  -1  -5  349.67   13.20
  -5   1   5  376.76   12.60
  -5   1   5  382.66   13.10
   4  -1  -5  424.96   14.60
  -4   1   5  423.66   14.30
  -4   1   5  428.96   14.40
   3  -1  -5  628.44   19.30
  -3   1   5  569.74   19.20
  -3   1   5  565.14   19.00
   2  -1  -5 2202.48   68.39
  -2   1   5 2202.98   68.99
  -2   1   5 2191.38   69.49
   1  -1  -5  316.87   10.80
   1  -1  -5  326.97   10.50
  -1   1   5  318.07   11.20
  -1   1   5  342.47   10.50
   0  -1  -5  684.93   21.60
   0  -1  -5  657.23   22.00
   0   1   5  690.23   22.40
   0   1   5  729.83   21.60
  -1  -1  -5  216.58    7.80
  -1  -1  -5  204.78    8.10
   1   1   5  255.97    8.50
   1   1   5  255.27    7.80
  -2  -1  -5 2844.22   87.79
   2   1   5 2666.33   90.19
   2   1   5 2933.61   88.49
  -3  -1  -5  332.97   11.70
   3   1   5  327.47   11.30
   3   1   5  331.27   11.40
  -4  -1  -5  139.69    6.10
   4   1   5  137.89    5.80
   4   1   5  138.79    5.50
  -5  -1  -5   30.80    2.80
   5   1   5   35.60    2.70
  -6  -1  -5  243.38   10.20
   6   1   5  255.37   10.10
  -7  -1  -5  102.19    6.10
   7   1   5  103.89    5.80
  -8  -1  -5   48.60    4.50
   8   1   5   48.10    4.30
   9  -2  -5    4.60    2.10
  -9   2   5    3.50    2.20
   8  -2  -5   44.80    4.10
  -8   2   5   45.10    4.00
   7  -2  -5  117.69    6.30
  -7   2   5  117.19    6.10
   6  -2  -5  236.98    9.70
  -6   2   5  243.18    9.50
   5  -2  -5  110.59    5.10
  -5   2   5  101.09    4.60
  -5   2   5  105.09    4.90
   4  -2  -5  493.65   16.20
  -4   2   5  466.05   16.10
  -4   2   5  473.35   16.10
   3  -2  -5  696.93   23.10
  -3   2   5  736.43   23.30
  -3   2   5  729.03   23.60
   2  -2  -5 1230.68   39.30
   2  -2  -5 1268.17   38.90
   2  -2  -5 1258.97   38.70
  -2   2   5 1233.88   39.60
   1  -2  -5  249.78    8.10
   1  -2  -5  243.08    8.80
  -1   2   5  257.27    9.20
  -1   2   5  256.37    8.10
   0  -2  -5 1121.69   34.70
   0  -2  -5 1111.19   35.30
   0   2   5 1105.19   35.60
   0   2   5 1133.19   35.00
  -1  -2  -5 2456.25   73.99
  -1  -2  -5 2307.97   74.59
   1   2   5 2289.87   75.79
   1   2   5 2327.07   73.39
  -2  -2  -5  636.94   21.00
   2   2   5  634.14   21.00
   2   2   5  647.74   20.40
  -3  -2  -5  172.98    7.30
   3   2   5  186.38    7.10
   3   2   5  187.88    6.80
  -4  -2  -5  338.97   12.40
   4   2   5  340.07   12.00
   4   2   5  337.27   11.80
  -5  -2  -5  314.57   12.30
   5   2   5  331.97   11.40
   5   2   5  331.07   12.00
  -6  -2  -5  225.28    9.70
   6   2   5  222.88    9.30
  -7  -2  -5   56.09    4.70
   7   2   5   56.39    4.20
  -8  -2  -5   43.80    4.60
   8   2   5   42.20    4.00
   9  -3  -5   41.20    4.20
   8  -3  -5   65.69    4.90
  -8   3   5   69.89    4.80
   7  -3  -5   49.80    3.80
  -7   3   5   47.40    3.80
   6  -3  -5  165.28    7.30
  -6   3   5  162.58    7.20
   5  -3  -5  208.58    8.60
  -5   3   5  231.58    8.60
  -5   3   5  230.28    8.70
   4  -3  -5  182.08    6.90
  -4   3   5  174.98    7.00
  -4   3   5  172.58    7.10
   3  -3  -5  357.96   12.80
   3  -3  -5  366.76   12.30
  -3   3   5  377.06   13.00
   2  -3  -5  798.22   25.70
   2  -3  -5  818.52   25.00
   2  -3  -5  795.22   24.80
  -2   3   5  773.62   26.00
   1  -3  -5  588.84   20.10
  -1   3   5  644.44   20.60
   0  -3  -5  886.01   28.10
   0   3   5  860.01   28.40
   1   3   5   60.39    2.30
   1   3   5   60.09    3.30
  -2  -3  -5  865.31   28.60
  -2  -3  -5  932.11   28.00
   2   3   5  860.81   27.60
   2   3   5  856.71   28.60
  -3  -3  -5  461.05   16.70
   3   3   5  486.25   16.50
   3   3   5  499.05   16.00
  -4  -3  -5  380.86   13.60
   4   3   5  359.56   12.90
   4   3   5  356.86   12.70
  -5  -3  -5  136.09    6.80
   5   3   5  140.69    5.90
   5   3   5  141.59    6.20
  -6  -3  -5   89.79    5.50
   6   3   5   84.09    4.90
  -7  -3  -5   55.69    4.80
   7   3   5   66.59    4.40
  -8  -3  -5   40.90    4.60
   8   3   5   39.40    3.90
   9  -4  -5   39.80    4.10
   8  -4  -5   33.50    3.50
  -8   4   5   30.50    3.60
   7  -4  -5   44.80    3.70
  -7   4   5   49.30    3.90
   6  -4  -5  112.39    5.50
  -6   4   5  113.29    5.60
  -6   4   5  112.79    7.20
   5  -4  -5  323.77   11.80
  -5   4   5  329.57   12.10
  -5   4   5  331.57   12.10
   4  -4  -5  711.53   22.70
  -4   4   5  677.63   23.30
   3  -4  -5  122.39    4.70
  -3   4   5  126.69    5.70
   2  -4  -5  531.65   16.50
   2  -4  -5  522.45   17.70
   2  -4  -5  537.75   16.60
  -2   4   5  513.45   18.10
   1  -4  -5  578.44   19.70
  -1   4   5  610.24   20.20
   0  -4  -5  682.93   22.40
   0   4   5  676.83   22.80
  -1  -4  -5 1266.87   41.90
   1   4   5 1363.16   42.30
  -2  -4  -5  526.55   17.70
   2   4   5  513.05   17.60
   2   4   5  484.75   16.20
  -3  -4  -5  242.18   10.10
   3   4   5  262.27    9.10
   3   4   5  268.37   10.00
  -4  -4  -5  164.18    7.40
   4   4   5  151.38    6.70
   4   4   5  157.18    6.30
  -5  -4  -5  183.48    8.50
   5   4   5  197.18    7.80
   5   4   5  185.48    7.70
  -6  -4  -5  102.29    6.20
   6   4   5  101.29    5.40
  -7  -4  -5   93.99    6.40
   7   4   5  101.59    5.70
   8   4   5   24.90    3.30
   8  -5  -5   33.00    3.40
  -8   5   5   30.10    3.70
   7  -5  -5   73.39    4.60
  -7   5   5   79.99    5.00
   6  -5  -5  114.19    5.40
  -6   5   5  101.19    7.60
  -6   5   5  109.79    5.60
   5  -5  -5  203.98    7.90
  -5   5   5  202.08    8.50
   4  -5  -5   43.80    3.20
   4  -5  -5   42.40    2.40
  -4   5   5   36.30    3.10
   3  -5  -5  265.77    8.90
   3  -5  -5  255.97   10.00
  -3   5   5  272.67   10.50
  -2   5   5  116.09    5.60
   1  -5  -5 1122.29   36.00
  -1   5   5 1117.49   36.60
   0  -5  -5  510.35   17.90
   0   5   5  542.65   18.50
  -1  -5  -5  245.58    9.40
   1   5   5  230.08    9.50
  -2  -5  -5   31.60    3.20
   2   5   5   39.80    1.80
   2   5   5   37.90    3.00
  -3  -5  -5  554.44   19.70
   3   5   5  551.14   19.40
   3   5   5  565.04   18.20
  -4  -5  -5  270.67   11.40
   4   5   5  280.67   10.90
   4   5   5  285.47   10.10
  -5  -5  -5  268.87   11.50
   5   5   5  270.57   10.70
   5   5   5  280.37   10.40
  -6  -5  -5   33.40    4.00
   6   5   5   37.60    3.20
  -7  -5  -5   66.19    5.60
   7   5   5   72.99    4.80
   6  -6  -5   24.00    3.00
   5  -6  -5  134.49    6.70
   5  -6  -5  143.89    6.00
  -5   6   5  142.99    6.90
   4  -6  -5  225.78    9.40
   4  -6  -5  227.18    8.30
  -4   6   5  246.88    9.90
   3  -6  -5  582.94   19.40
   3  -6  -5  602.44   20.30
  -3   6   5  582.44   20.70
   2  -6  -5  201.28    8.20
  -2   6   5  205.18    8.80
   1  -6  -5  421.36   14.90
  -1   6   5  420.16   15.50
   0  -6  -5   62.69    4.10
   0   6   5   88.49    4.70
  -1  -6  -5  466.35   16.90
   1   6   5  483.95   17.20
  -2  -6  -5  264.67   11.00
   2   6   5  288.87   11.20
  -3  -6  -5  364.36   14.40
   3   6   5  386.46   14.30
  -4  -6  -5   86.99    5.70
   4   6   5   94.89    5.30
  -5  -6  -5   94.99    6.10
   5   6   5   92.39    5.20
  -6  -6  -5   32.10    4.20
   7  -7  -5   70.69    5.30
   6  -7  -5   62.29    4.60
   5  -7  -5  151.38    7.30
  -5   7   5  157.08    7.60
   4  -7  -5  200.08    8.60
  -4   7   5  195.18    8.90
   3  -7  -5  207.28    8.70
  -3   7   5  206.58    9.20
   2  -7  -5  109.59    5.60
  -2   7   5  114.99    6.10
   1  -7  -5  255.37    9.80
  -1   7   5  235.98   10.30
   0  -7  -5  379.76   14.30
   0   7   5  400.46   15.00
  -1  -7  -5  403.56   15.10
   1   7   5  410.16   15.40
  -2  -7  -5  176.48    8.40
   2   7   5  186.78    8.50
  -3  -7  -5  259.67   11.20
   3   7   5  269.47   11.10
  -4  -7  -5   41.50    4.30
   4   7   5   48.40    3.80
  -5  -7  -5  108.49    7.10
   5   7   5  130.39    6.60
  -6  -7  -5   81.69    6.40
   6  -8  -5   85.99    5.60
   5  -8  -5   54.79    4.20
  -5   8   5   49.10    4.20
   4  -8  -5   22.20    2.90
  -4   8   5   26.90    3.30
   3  -8  -5  255.37   10.40
  -3   8   5  248.68   11.00
   2  -8  -5  157.78    7.40
  -2   8   5  167.68    8.10
   1  -8  -5  193.68    8.50
  -1   8   5  200.78    9.20
   0  -8  -5  104.69    5.70
   0   8   5   97.49    5.90
  -1  -8  -5  280.27   11.50
   1   8   5  278.67   11.80
  -2  -8  -5  105.79    6.20
   2   8   5  102.29    6.10
  -3  -8  -5   57.09    4.80
   3   8   5   69.59    4.80
  -4  -8  -5  107.49    7.00
   4   8   5  112.69    6.40
  -5  -8  -5   90.89    6.60
   5  -9  -5   69.29    5.00
  -5   9   5   73.69    5.40
   4  -9  -5  147.49    7.40
  -4   9   5  141.59    7.80
   3  -9  -5   86.79    5.30
  -3   9   5   93.79    6.10
   2  -9  -5  117.79    6.30
  -2   9   5  112.89    6.70
   1  -9  -5  117.79    6.30
  -1   9   5  114.39    6.70
   0  -9  -5  174.58    8.20
   0   9   5  169.68    8.70
  -1  -9  -5   64.79    4.90
   1   9   5   75.59    5.30
  -2  -9  -5  142.59    7.90
   2   9   5  157.58    8.10
  -3  -9  -5   75.19    5.80
   3   9   5   80.89    5.50
  -4  -9  -5  130.29    8.00
   4   9   5  135.69    7.60
  -5  10   5   40.40    4.40
   4 -10  -5   40.40    3.90
  -4  10   5   36.90    4.20
   3 -10  -5   21.40    3.10
  -3  10   5   19.50    3.30
   2 -10  -5  100.29    5.90
  -2  10   5   95.79    6.50
   1 -10  -5   43.30    4.10
  -1  10   5   50.29    4.60
   0 -10  -5  145.69    7.60
   0  10   5  143.89    8.10
  -1 -10  -5   78.09    5.80
   1  10   5   85.19    6.00
  -2 -10  -5  106.09    6.90
   2  10   5  100.39    6.70
  -3 -10  -5   39.50    4.80
   3  10   5   35.50    4.00
   4  10   5   31.00    3.90
  -4  11   5   39.30    7.00
   3 -11  -5   23.10    3.60
  -3  11   5   24.20    3.90
   2 -11  -5   71.19    5.20
  -2  11   5   70.99    5.90
   1 -11  -5   92.29    6.00
  -1  11   5   89.59    6.60
   0 -11  -5   55.89    4.90
   0  11   5   52.69    5.10
  -1 -11  -5   18.20    3.30
   1  11   5   14.80    3.10
   2  11   5   46.20    4.80
   0  14  -6   31.60    4.60
  -1  14  -6   98.49    8.10
   4  13  -6   97.79    6.90
   3  13  -6    6.80    2.50
   2  13  -6   14.40    3.10
   1  13  -6   90.79    6.70
   0  13  -6  131.69    8.20
  -1  13  -6   81.19    6.30
  -2  13  -6   64.49    5.60
  -3  13  -6   22.10    3.70
  -4  13  -6   17.50    3.30
  -5  13  -6   52.99    5.20
   5  12  -6   44.00    4.90
   4  12  -6   21.00    3.40
   3  12  -6  172.08    9.20
  -3 -12   6  161.78    7.60
   2  12  -6  162.88    8.80
  -2 -12   6  150.88    7.00
   1  12  -6  125.49    7.60
  -1 -12   6  125.49    5.90
   0  12  -6  118.09    7.20
   0 -12   6  109.59    5.40
  -1  12  -6  172.78    9.10
   1 -12   6  171.08    7.20
  -2  12  -6   14.30    2.80
   2 -12   6   12.90    2.00
  -3  12  -6  106.29    6.90
   3 -12   6  106.39    5.30
  -4  12  -6   52.89    4.90
   4 -12   6   53.09    3.80
  -5  12  -6   99.39    6.70
   6  11  -6   29.10    3.60
   5  11  -6   92.19    5.70
   5  11  -6   90.19    6.10
   4  11  -6  125.19    7.40
   3  11  -6  136.99    7.60
  -3 -11   6  131.39    6.40
   2  11  -6   83.39    5.70
  -2 -11   6   77.99    4.40
   1  11  -6  214.68   10.10
  -1 -11   6  209.58    8.40
   0  11  -6   67.29    5.10
   0 -11   6   66.89    4.20
   0 -11   6   69.49    3.90
  -1  11  -6  207.18    9.80
   1 -11   6  191.58    7.90
   1 -11   6  202.48    8.40
  -2  11  -6  167.08    8.60
   2 -11   6  159.98    6.90
   2 -11   6  154.58    6.70
  -3  11  -6  166.58    8.50
   3 -11   6  162.48    7.10
   3 -11   6  162.28    8.00
  -4  11  -6   63.59    5.00
   4 -11   6   56.19    3.90
  -5  11  -6   67.69    5.10
   5 -11   6   64.29    4.40
   6 -11   6   15.40    2.70
   7 -11   6   48.40    5.00
   7  10  -6   52.99    6.20
   6  10  -6   85.39    5.70
   5  10  -6  151.88    7.70
   5  10  -6  151.48    7.90
  -5 -10   6  149.79    7.50
   4  10  -6   26.70    3.20
  -4 -10   6   34.20    3.10
  -4 -10   6   28.60    2.90
   3  10  -6  117.09    6.60
  -3 -10   6  113.19    5.60
  -3 -10   6  109.99    5.30
   2  10  -6  208.68    9.80
  -2 -10   6  213.38    8.60
  -2 -10   6  218.68    8.30
   1  10  -6  308.07   13.00
  -1 -10   6  320.17   11.50
  -1 -10   6  315.67   11.20
   0  10  -6  137.19    7.40
   0 -10   6  150.88    6.30
   0 -10   6  150.68    6.00
  -1  10  -6  173.18    8.40
   1 -10   6  174.38    6.70
   1 -10   6  165.08    6.90
  -2  10  -6  106.09    6.20
   2 -10   6   96.89    4.80
   2 -10   6  101.29    4.50
  -3  10  -6  232.58   10.40
   3 -10   6  222.38    8.60
   3 -10   6  232.08    9.10
  -4  10  -6   13.00    2.40
   4 -10   6   14.10    2.20
   4 -10   6   16.50    2.00
  -5  10  -6   58.59    4.60
   5 -10   6   59.29    4.20
   5 -10   6   58.49    3.80
   6 -10   6   63.49    4.70
   7 -10   6   49.30    4.50
   7   9  -6   79.19    5.70
  -7  -9   6   66.49    5.60
   6   9  -6   71.19    5.10
  -6  -9   6   66.39    4.70
   5   9  -6   65.89    4.50
   5   9  -6   68.09    4.60
  -5  -9   6   56.19    4.00
   4   9  -6  161.38    7.90
  -4  -9   6  159.08    7.30
  -4  -9   6  154.78    6.80
   3   9  -6  279.57   11.60
  -3  -9   6  281.57   10.20
  -3  -9   6  271.97   10.60
   2   9  -6  416.36   15.90
  -2  -9   6  398.56   14.00
  -2  -9   6  418.56   14.60
   1   9  -6  424.56   15.90
  -1  -9   6  408.96   14.40
  -1  -9   6  412.56   14.00
   0   9  -6  127.79    6.70
   0  -9   6  131.69    5.20
   0  -9   6  127.49    5.50
  -1   9  -6  219.28    9.70
   1  -9   6  218.18    7.80
   1  -9   6  214.58    8.20
  -2   9  -6  292.67   12.70
   2  -9   6  330.77   11.60
   2  -9   6  334.57   11.20
  -3   9  -6  270.77   11.10
   3  -9   6  258.87   10.00
   3  -9   6  256.57    9.50
  -4   9  -6  173.48    8.30
   4  -9   6  178.48    7.10
   4  -9   6  174.08    7.50
  -5   9  -6   99.89    5.70
  -5   9  -6  100.09    4.90
   5  -9   6   98.99    5.40
  -6   9  -6   27.30    2.90
   6  -9   6   31.80    3.40
  -7   9  -6   38.90    3.70
   7  -9   6   43.10    4.10
  -8   9  -6   25.20    3.40
  -8  -8   6   29.50    3.80
   7   8  -6   41.50    4.10
  -7  -8   6   36.30    3.80
   6   8  -6   51.49    4.30
  -6  -8   6   58.49    4.20
   5   8  -6  173.28    8.10
   5   8  -6  171.38    7.90
  -5  -8   6  169.18    7.40
   4   8  -6  200.08    9.10
  -4  -8   6  211.38    8.80
  -4  -8   6  218.68    8.30
   3   8  -6  551.24   19.10
  -3  -8   6  520.15   18.10
  -3  -8   6  504.65   17.50
   2   8  -6   68.49    4.70
  -2  -8   6   82.89    3.70
  -2  -8   6   86.69    4.20
   1   8  -6  267.87   10.70
  -1  -8   6  251.77    9.40
  -1  -8   6  251.27    8.90
   0   8  -6  390.46   15.40
   0  -8   6  435.56   13.70
   0  -8   6  420.26   14.20
  -1   8  -6  363.96   13.70
   1  -8   6  352.26   11.80
   1  -8   6  343.87   12.30
  -2   8  -6  470.45   17.00
   2  -8   6  449.06   15.70
   2  -8   6  457.75   15.10
  -3   8  -6  166.88    7.80
   3  -8   6  165.28    6.90
   3  -8   6  165.38    6.40
  -4   8  -6  177.58    8.10
  -4   8  -6  187.48    7.10
   4  -8   6  184.78    7.80
  -5   8  -6   24.30    2.40
  -5   8  -6   23.30    2.70
   5  -8   6   17.70    2.70
  -6   8  -6  156.38    6.90
   6  -8   6  153.48    7.50
  -7   8  -6   36.70    3.50
   7  -8   6   43.90    4.10
  -8   8  -6   67.09    4.90
   8  -8   6   69.49    7.30
   8   7  -6   33.60    4.20
  -8  -7   6   34.60    3.90
   7   7  -6   89.59    6.10
  -7  -7   6   99.39    5.70
   6   7  -6  105.59    6.20
  -6  -7   6  113.39    5.80
   5   7  -6  379.36   14.40
   5   7  -6  384.06   14.00
  -5  -7   6  355.76   13.40
   4   7  -6  367.06   13.70
  -4  -7   6  363.76   12.80
  -4  -7   6  356.26   13.40
   3   7  -6  175.28    7.90
  -3  -7   6  188.78    7.50
  -3  -7   6  181.18    6.90
   2   7  -6  349.96   13.70
  -2  -7   6  365.76   12.20
  -2  -7   6  386.36   13.00
   1   7  -6  340.37   13.30
   1   7  -6  351.96   11.60
  -1  -7   6  361.96   11.70
  -1  -7   6  368.86   12.40
   0   7  -6 1818.02   58.49
   0  -7   6 1789.92   57.29
   0  -7   6 1851.81   56.59
   0  -7   6 1863.81   56.49
  -1   7  -6  466.25   17.00
   1  -7   6  475.75   15.30
   1  -7   6  482.15   15.30
   1  -7   6  476.45   16.00
  -2   7  -6  131.99    6.40
   2  -7   6  134.29    5.70
   2  -7   6  138.69    5.10
  -3   7  -6   36.50    2.10
  -3   7  -6   32.90    2.90
   3  -7   6   33.50    2.70
  -4   7  -6  328.17   11.50
  -4   7  -6  328.97   12.50
   4  -7   6  335.37   12.20
  -5   7  -6  225.98    9.40
  -5   7  -6  234.38    8.90
   5  -7   6  239.28    9.60
  -6   7  -6  122.29    5.80
   6  -7   6  115.59    6.20
  -7   7  -6   21.00    2.80
   7  -7   6   18.80    3.00
  -8   7  -6   32.10    3.70
   8  -7   6   30.40    3.90
   8   6  -6   45.60    4.50
  -8  -6   6   46.50    4.20
   7   6  -6   66.19    5.10
  -7  -6   6   68.19    4.60
   6   6  -6  217.48    9.50
  -6  -6   6  193.08    8.50
   5   6  -6   50.19    3.80
   5   6  -6   53.99    3.50
  -5  -6   6   55.99    3.50
   4   6  -6  161.18    7.00
  -4  -6   6  154.78    6.30
  -4  -6   6  154.98    6.90
   3   6  -6  474.25   17.10
  -3  -6   6  483.85   16.00
  -3  -6   6  492.35   16.70
   2   6  -6  876.81   28.60
   2   6  -6  869.71   27.20
  -2  -6   6  843.82   27.00
  -2  -6   6  839.02   27.70
   1   6  -6 1121.29   36.40
   1   6  -6 1130.49   34.60
  -1  -6   6 1113.19   34.60
  -1  -6   6 1099.89   35.50
   0   6  -6  472.55   16.00
   0  -6   6  435.06   14.10
   0  -6   6  434.76   14.90
   0  -6   6  445.76   14.00
  -1   6  -6  536.15   19.10
   1  -6   6  561.44   17.40
   1  -6   6  563.94   17.40
   1  -6   6  542.65   18.20
  -2   6  -6  629.04   19.50
  -2   6  -6  622.34   21.00
   2  -6   6  588.54   20.20
  -3   6  -6  440.36   14.60
  -3   6  -6  434.76   15.80
   3  -6   6  462.65   15.40
  -4   6  -6  552.04   17.90
  -4   6  -6  531.85   18.60
   4  -6   6  527.95   18.40
  -5   6  -6  213.38    8.30
  -5   6  -6  210.88    8.50
   5  -6   6  215.08    8.90
  -6   6  -6   59.19    3.80
   6  -6   6   58.39    4.20
  -7   6  -6   32.30    3.20
   7  -6   6   35.20    3.60
  -8   6  -6   60.29    4.60
   8  -6   6   60.59    4.90
  -9  -5   6   34.50    5.30
   8   5  -6   56.89    4.90
  -8  -5   6   55.09    4.50
   7   5  -6   79.19    5.40
  -7  -5   6   80.79    5.00
   6   5  -6   81.59    5.10
  -6  -5   6   79.59    4.60
   5   5  -6  299.07   12.00
   5   5  -6  307.97   11.40
  -5  -5   6  320.17   11.40
   4   5  -6  467.35   16.10
  -4  -5   6  450.55   15.40
  -4  -5   6  457.75   16.10
   3   5  -6  522.75   18.40
  -3  -5   6  536.55   17.40
  -3  -5   6  541.35   18.10
   2   5  -6  674.23   22.40
   2   5  -6  655.73   20.90
  -2  -5   6  646.44   20.90
  -2  -5   6  672.33   21.70
   1   5  -6  109.49    4.10
  -1  -5   6  128.09    4.10
  -1  -5   6  130.49    5.00
   0   5  -6  762.42   25.00
   0  -5   6  735.93   24.10
  -1   5  -6  853.71   28.70
   1  -5   6  903.61   27.10
   1  -5   6  881.71   27.10
   1  -5   6  857.51   28.00
  -2   5  -6  497.75   17.20
  -2   5  -6  489.35   15.80
   2  -5   6  488.75   16.50
   2  -5   6  502.65   15.90
  -3   5  -6  542.45   18.40
  -3   5  -6  542.35   17.40
   3  -5   6  524.75   18.00
  -4   5  -6  131.99    5.70
  -4   5  -6  127.19    5.20
   4  -5   6  115.29    5.60
  -5   5  -6  157.88    6.60
  -5   5  -6  159.18    6.70
   5  -5   6  163.48    7.10
  -6   5  -6  105.99    5.40
   6  -5   6  103.69    5.70
  -7   5  -6  157.88    7.40
   7  -5   6  154.08    7.70
  -8   5  -6   36.10    3.80
   8  -5   6   36.50    4.00
  -9  -4   6   20.60    3.30
   8   4  -6   41.20    4.20
  -8  -4   6   42.70    4.10
   7   4  -6  126.49    7.00
  -7  -4   6  123.79    6.30
   6   4  -6  395.56   15.00
  -6  -4   6  389.86   14.20
   5   4  -6  273.67   10.00
   5   4  -6  267.07   10.70
  -5  -4   6  265.77   10.00
   4   4  -6  151.98    6.30
  -4  -4   6  142.39    6.30
  -4  -4   6  141.79    5.80
   3   4  -6  588.94   20.10
  -3  -4   6  591.24   19.20
  -3  -4   6  606.24   19.80
   2   4  -6 1012.00   31.00
   2   4  -6  980.90   32.20
  -2  -4   6  998.60   31.80
  -2  -4   6  990.90   31.00
   1   4  -6 2942.91   91.59
  -1  -4   6 2938.31   94.19
   0   4  -6  149.09    5.90
   0  -4   6  116.79    5.00
  -1   4  -6 1170.58   37.90
  -1   4  -6 1153.28   36.40
   1  -4   6 1217.18   36.40
   1  -4   6 1182.18   37.20
  -2   4  -6  764.22   23.40
  -2   4  -6  733.53   24.50
   2  -4   6  707.93   24.00
   2  -4   6  761.32   23.40
  -3   4  -6 1008.80   32.50
  -3   4  -6 1001.20   31.70
   3  -4   6 1002.70   32.30
  -4   4  -6   83.99    4.20
  -4   4  -6   81.39    4.00
   4  -4   6   93.69    4.50
  -5   4  -6  509.15   17.60
  -5   4  -6  512.55   17.30
   5  -4   6  523.05   18.00
  -6   4  -6   92.59    5.00
   6  -4   6   89.59    5.10
  -7   4  -6  184.38    8.30
   7  -4   6  181.48    8.50
  -8   4  -6   24.10    3.40
   8  -4   6   22.20    3.20
  -9   4  -6   27.50    4.90
  -9  -3   6   50.79    4.60
   8   3  -6   90.89    6.00
  -8  -3   6   84.19    5.40
   7   3  -6  100.59    6.00
  -7  -3   6  101.39    5.60
   6   3  -6   93.29    5.30
  -6  -3   6   83.99    4.70
   5   3  -6  193.88    8.20
   5   3  -6  193.38    7.50
  -5  -3   6  188.88    7.60
   4   3  -6  230.48    8.80
  -4  -3   6  235.68    8.50
  -4  -3   6  233.38    9.00
   3   3  -6 1226.08   38.40
  -3  -3   6 1178.68   38.10
  -3  -3   6 1191.98   37.50
   2   3  -6  809.02   26.40
   2   3  -6  817.12   25.30
  -2  -3   6  821.22   25.90
  -2  -3   6  783.52   25.20
   1   3  -6 1060.59   33.00
  -1  -3   6  984.40   31.50
  -1  -3   6 1024.10   32.30
   0   3  -6  107.49    4.90
   0  -3   6  115.39    4.40
  -1   3  -6 2313.87   69.99
  -1   3  -6 2259.67   70.49
   1  -3   6 2127.09   71.99
   1  -3   6 2305.27   70.09
  -2   3  -6  846.32   27.60
  -2   3  -6  838.02   26.60
   2  -3   6  840.22   27.10
   2  -3   6  867.91   26.70
  -3   3  -6 1311.87   41.10
  -3   3  -6 1320.37   41.70
   3  -3   6 1293.27   41.40
  -4   3  -6  259.97    9.30
  -4   3  -6  253.37    9.30
   4  -3   6  247.98    9.50
  -5   3  -6  446.56   14.70
  -5   3  -6  442.56   15.10
   5  -3   6  401.56   15.20
  -6   3  -6  167.68    7.50
   6  -3   6  171.88    7.70
  -7   3  -6  149.09    7.40
   7  -3   6  163.98    7.70
  -8   3  -6   34.40    3.80
   8  -3   6   35.10    3.90
  -9   3  -6   72.69    7.30
   9   2  -6   59.19    5.50
  -9  -2   6   57.49    4.80
   8   2  -6   53.89    4.60
  -8  -2   6   52.89    4.40
   7   2  -6  113.69    6.30
  -7  -2   6  103.99    5.70
   6   2  -6  217.18    9.50
  -6  -2   6  230.08    9.00
   5   2  -6  834.72   27.20
   5   2  -6  827.02   28.00
  -5  -2   6  857.11   27.40
   4   2  -6 1152.28   37.30
  -4  -2   6 1178.58   36.90
   3   2  -6  816.52   25.80
  -3  -2   6  756.02   24.90
  -3  -2   6  783.62   25.40
   2   2  -6  582.84   19.10
   2   2  -6  582.24   20.10
  -2  -2   6  630.74   19.60
  -2  -2   6  615.44   19.00
   1   2  -6 2235.08   68.89
   1   2  -6 2197.78   68.29
   1   2  -6 2185.28   68.79
  -1  -2   6 2172.88   70.19
   0   2  -6 5088.09  160.48
   0   2  -6 5123.09  154.38
   0  -2   6 4996.20  154.18
   0  -2   6 4739.43  156.78
  -1   2  -6 1272.07   38.30
  -1   2  -6 1317.17   39.60
   1  -2   6 1175.18   38.70
   1  -2   6 1188.88   38.30
  -2   2  -6  908.71   28.50
  -2   2  -6  890.31   29.30
   2  -2   6  954.70   28.90
   2  -2   6  872.31   28.80
  -3   2  -6  768.82   24.90
  -3   2  -6  766.12   24.50
   3  -2   6  751.82   24.70
  -4   2  -6  671.43   22.00
  -4   2  -6  671.33   21.90
   4  -2   6  655.83   22.10
  -5   2  -6  275.17   10.40
  -5   2  -6  260.97    9.70
   5  -2   6  288.37   10.60
  -6   2  -6  178.88    7.80
   6  -2   6  175.68    7.80
  -7   2  -6  116.99    6.40
   7  -2   6  124.59    6.50
  -8   2  -6   93.19    5.90
   8  -2   6   92.79    5.90
   9   1  -6   56.09    5.20
  -9  -1   6   56.59    4.70
   8   1  -6   65.79    5.10
  -8  -1   6   67.69    4.80
   7   1  -6  106.39    6.10
  -7  -1   6  113.09    5.80
   6   1  -6  277.37   11.60
   6   1  -6  283.87   11.30
  -6  -1   6  289.37   10.80
   5   1  -6  530.85   17.70
   5   1  -6  522.95   18.30
  -5  -1   6  516.25   17.70
   4   1  -6  507.05   17.30
   4   1  -6  499.85   17.10
  -4  -1   6  504.95   16.70
   3   1  -6  343.37   12.00
  -3  -1   6  324.47   11.20
  -3  -1   6  336.37   11.50
   2   1  -6 1804.12   55.79
  -2  -1   6 1758.42   55.19
  -2  -1   6 1796.82   56.69
   1   1  -6 3176.28   99.69
   1   1  -6 3162.38   98.69
  -1  -1   6 3170.28  100.89
  -1  -1   6 3144.69  102.29
   0   1  -6 2507.55   80.39
   0   1  -6 2650.93   81.49
   0  -1   6 2531.25   80.79
   0  -1   6 2562.54   82.69
   0  -1   6 2515.05   79.99
  -1   1  -6 1668.73   51.49
   1  -1   6 1654.03   51.39
   1  -1   6 1603.74   52.39
   1  -1   6 1642.64   51.29
  -2   1  -6 1369.96   43.20
   2  -1   6 1398.66   43.40
  -3   1  -6  500.45   16.70
  -3   1  -6  488.95   16.30
   3  -1   6  479.95   16.30
  -4   1  -6  946.31   31.00
  -4   1  -6  949.31   30.90
   4  -1   6  987.40   31.10
  -5   1  -6  575.04   19.50
  -5   1  -6  590.14   18.90
   5  -1   6  542.05   19.40
  -6   1  -6  209.48    8.80
   6  -1   6  202.68    8.70
  -7   1  -6   86.09    5.30
   7  -1   6   80.59    5.10
  -8   1  -6   30.00    3.80
   8  -1   6   34.70    3.80
   9   0  -6   26.40    3.90
  -9   0   6   29.60    3.80
   8   0  -6   96.69    6.20
  -8   0   6  105.29    6.00
   7   0  -6  187.18    8.50
  -7   0   6  182.18    8.10
   6   0  -6   92.09    4.50
   6   0  -6   94.39    5.10
  -6   0   6   93.79    4.80
   5   0  -6  198.88    8.00
   5   0  -6  209.88    8.40
  -5   0   6  204.68    7.90
   4   0  -6  674.83   23.10
  -4   0   6  723.73   22.80
  -3   0   6 1740.43   54.19
  -3   0   6 1745.43   54.59
  -2   0   6 1001.20   31.40
  -2   0   6  997.00   31.90
   1   0  -6 1224.38   39.10
   1   0  -6 1270.87   39.00
   1   0  -6 1304.17   38.90
  -1   0   6 1228.98   39.60
  -1   0   6 1228.18   40.10
   0   0  -6 1986.40   64.69
   0   0  -6 1985.90   64.19
   0   0   6 2145.89   64.39
   0   0   6 2044.40   65.29
   0   0   6 2025.50   64.89
  -1   0  -6 1144.29   35.60
  -1   0  -6 1109.39   35.80
   1   0   6 1128.89   36.00
   1   0   6 1150.58   35.40
  -2   0  -6  157.48    6.30
   2   0   6  168.08    6.20
   2   0   6  181.08    6.60
  -3   0  -6 1388.66   43.60
   3   0   6 1353.76   43.40
   3   0   6 1395.46   43.50
  -4   0  -6  782.92   25.80
   4   0   6  783.72   25.60
  -5   0  -6  198.68    8.20
  -5   0  -6  197.58    7.60
   5   0   6  198.48    8.10
  -6   0  -6   34.30    3.30
   6   0   6   37.60    3.20
  -7   0  -6  108.69    6.20
   7   0   6   99.89    5.70
  -8   0  -6  101.19    6.60
   8   0   6  115.09    6.60
   9  -1  -6   40.60    4.40
  -9   1   6   46.80    4.50
   8  -1  -6   51.59    4.40
  -8   1   6   52.99    4.30
   7  -1  -6  101.79    5.80
  -7   1   6   98.19    5.50
   6  -1  -6  187.18    7.60
   6  -1  -6  187.98    8.20
  -6   1   6  198.48    8.00
   5  -1  -6  424.66   15.30
  -5   1   6  437.26   15.00
  -5   1   6  435.96   14.80
   4  -1  -6  450.25   15.30
  -4   1   6  438.56   15.00
  -4   1   6  446.26   15.10
   3  -1  -6  999.00   31.20
  -3   1   6  960.40   31.40
  -3   1   6  972.50   31.00
   2  -1  -6  645.84   21.10
  -2   1   6  675.73   21.60
  -2   1   6  647.14   20.90
   1  -1  -6  857.11   27.10
   1  -1  -6  857.21   27.50
  -1   1   6  873.51   28.10
  -1   1   6  884.61   27.10
   0  -1  -6  141.09    4.80
   0  -1  -6  142.89    5.30
   0   1   6  134.79    4.80
   0   1   6  134.29    5.60
  -1  -1  -6 1673.63   52.79
  -1  -1  -6 1708.63   52.39
   1   1   6 1720.53   53.89
   1   1   6 1661.93   53.09
  -2  -1  -6 1700.43   52.69
   2   1   6 1698.83   52.79
   2   1   6 1632.64   52.09
  -3  -1  -6  760.92   24.40
   3   1   6  724.63   23.90
   3   1   6  735.93   24.20
   4   1   6   37.10    2.40
   4   1   6   39.00    2.60
  -5  -1  -6  248.68   10.00
   5   1   6  253.57    9.70
  -6  -1  -6  165.88    7.90
   6   1   6  173.88    7.60
  -7  -1  -6  162.98    8.10
   7   1   6  158.08    7.70
  -8  -1  -6   43.40    4.60
   8   1   6   43.40    4.10
   9  -2  -6   16.20    3.10
   8  -2  -6   25.10    3.30
  -8   2   6   35.10    3.50
   7  -2  -6  170.78    8.00
  -7   2   6  170.18    7.80
   6  -2  -6  166.18    7.50
  -6   2   6  170.48    8.50
  -6   2   6  173.58    7.40
   5  -2  -6  175.88    7.00
  -5   2   6  155.58    6.60
  -5   2   6  158.18    6.70
   4  -2  -6   62.09    3.40
  -4   2   6   70.89    3.60
  -4   2   6   74.49    3.70
   3  -2  -6  811.02   26.10
  -3   2   6  818.72   26.70
   2  -2  -6  466.75   15.20
   2  -2  -6  466.15   15.00
   2  -2  -6  459.45   15.60
  -2   2   6  488.35   16.10
   1  -2  -6 1227.48   38.60
   1  -2  -6 1293.17   37.90
  -1   2   6 1162.38   39.00
  -1   2   6 1211.78   38.30
   0  -2  -6  249.08    9.40
   0  -2  -6  261.47    8.60
   0   2   6  280.47    8.60
   0   2   6  276.37    9.90
  -1  -2  -6 1694.43   53.59
  -1  -2  -6 1768.52   53.09
   1   2   6 1667.83   53.39
   1   2   6 1701.13   53.89
  -2  -2  -6   76.39    4.00
   2   2   6   77.99    3.30
   2   2   6   79.89    3.90
  -3  -2  -6  355.26   13.00
   3   2   6  376.06   12.80
   3   2   6  351.26   12.20
  -4  -2  -6  377.66   13.90
   4   2   6  374.46   13.30
   4   2   6  390.96   13.40
  -5  -2  -6  282.47   11.30
   5   2   6  286.47   10.80
   5   2   6  289.97   10.40
  -6  -2  -6  159.68    7.70
   6   2   6  151.38    7.10
  -7  -2  -6   61.29    4.90
   7   2   6   55.49    4.20
  -8  -2  -6   21.10    3.70
   8   2   6   21.80    3.20
   9  -3  -6   38.30    4.30
   8  -3  -6   62.59    4.80
  -8   3   6   64.39    4.80
   7  -3  -6   73.09    4.70
  -7   3   6   68.99    4.60
   6  -3  -6   59.39    3.90
  -6   3   6   65.49    4.60
  -6   3   6   60.79    4.00
   5  -3  -6  254.57   10.00
  -5   3   6  265.37   10.00
  -5   3   6  270.57   10.00
   4  -3  -6  256.17    9.20
  -4   3   6  249.88    9.70
   3  -3  -6  599.44   19.80
   3  -3  -6  616.44   20.40
  -3   3   6  628.24   20.80
   2  -3  -6  410.16   13.20
   2  -3  -6  422.76   13.40
   2  -3  -6  411.06   14.20
  -2   3   6  416.16   14.60
   1  -3  -6  482.65   16.50
  -1   3   6  502.05   17.00
   0  -3  -6  354.06   12.20
   0   3   6  345.67   12.60
  -1  -3  -6  341.47   12.60
  -1  -3  -6  363.06   11.50
   1   3   6  362.26   12.90
   1   3   6  362.26   11.40
  -2  -3  -6  760.42   25.00
   2   3   6  750.92   24.90
   2   3   6  737.43   23.70
  -3  -3  -6  515.75   17.90
   3   3   6  510.85   17.60
   3   3   6  506.95   16.80
  -4  -3  -6  135.99    6.50
   4   3   6  134.99    5.70
   4   3   6  135.39    6.00
  -5  -3  -6  143.99    7.10
   5   3   6  141.79    6.20
   5   3   6  143.89    6.30
  -6  -3  -6   68.49    5.00
   6   3   6   66.59    4.20
  -7  -3  -6   45.10    4.50
   7   3   6   49.10    3.90
   8   3   6   51.59    4.30
   9  -4  -6   30.40    3.70
   8  -4  -6   14.20    2.60
  -8   4   6   13.30    2.50
   7  -4  -6   24.00    2.90
  -7   4   6   24.60    3.10
   6  -4  -6  184.68    7.80
  -6   4   6  184.18    8.90
  -6   4   6  179.88    7.90
   5  -4  -6  289.97   10.60
  -5   4   6  284.57   11.10
   4  -4  -6  305.77   11.40
   4  -4  -6  300.07   10.70
  -4   4   6  303.97   11.50
   3  -4  -6   93.49    3.60
   3  -4  -6   86.09    4.30
  -3   4   6   75.59    4.50
   2  -4  -6  293.57    9.20
   2  -4  -6  279.37   10.30
   2  -4  -6  278.27    9.00
  -2   4   6  278.67   10.80
   1  -4  -6  526.75   18.10
  -1   4   6  548.05   18.70
   0  -4  -6 1005.30   32.20
   0   4   6  987.30   32.70
  -1  -4  -6  416.16   15.00
   1   4   6  436.26   15.30
  -2  -4  -6  337.67   12.70
   2   4   6  343.07   11.10
   2   4   6  338.87   12.60
  -3  -4  -6   56.39    4.20
   3   4   6   70.69    3.10
   3   4   6   62.99    3.80
  -4  -4  -6  295.77   11.80
   4   4   6  290.47   10.50
   4   4   6  294.07   11.20
  -5  -4  -6  106.29    6.20
   5   4   6  110.19    5.40
   5   4   6  110.79    5.20
  -6  -4  -6  119.49    7.00
   6   4   6  122.69    6.00
  -7  -4  -6   46.00    4.80
   7   4   6   52.69    4.00
   8   4   6   28.00    3.60
  -8   5   6   61.59    5.50
   7  -5  -6   43.50    3.50
  -7   5   6   42.80    3.90
   6  -5  -6   90.39    4.70
  -6   5   6   88.49    7.30
   5  -5  -6   59.09    3.30
   5  -5  -6   62.09    4.10
  -5   5   6   52.59    3.90
   4  -5  -6  245.18    8.70
   4  -5  -6  238.88    9.60
  -4   5   6  241.98    9.90
   3  -5  -6   58.29    2.60
   3  -5  -6   59.19    3.70
  -3   5   6   71.89    4.20
   2  -5  -6  678.33   23.20
  -2   5   6  709.43   23.80
   1  -5  -6  337.07   12.30
  -1   5   6  337.87   12.80
   0  -5  -6  591.94   20.30
   0   5   6  603.24   20.80
  -1  -5  -6   24.60    2.70
   1   5   6   17.60    2.30
  -2  -5  -6  196.68    8.70
   2   5   6  204.58    6.90
   2   5   6  212.68    8.80
  -3  -5  -6  312.07   12.70
   3   5   6  333.27   11.10
   3   5   6  337.47   12.70
  -4  -5  -6  206.68    9.50
   4   5   6  216.68    8.00
   4   5   6  209.38    8.90
  -5  -5  -6   95.49    6.20
   5   5   6  113.29    5.70
   5   5   6  110.29    5.50
  -6  -5  -6   50.19    4.80
  -7  -5  -6   30.90    4.40
   7  -6  -6   37.90    4.00
   6  -6  -6   49.90    4.10
   5  -6  -6   66.49    4.40
  -5   6   6   73.59    4.70
   4  -6  -6  154.58    7.30
  -4   6   6  172.58    7.80
   3  -6  -6  364.16   13.50
  -3   6   6  369.26   14.10
   2  -6  -6  180.38    7.50
  -2   6   6  167.98    7.90
   1  -6  -6  128.29    6.20
  -1   6   6  145.09    6.90
   0  -6  -6   65.89    4.10
   0   6   6   64.79    4.30
  -1  -6  -6  338.67   13.20
   1   6   6  361.86   13.60
  -2  -6  -6  180.48    8.40
   2   6   6  189.88    8.40
  -3  -6  -6  147.69    7.50
   3   6   6  149.09    7.20
  -4  -6  -6   73.89    5.30
   4   6   6   75.59    4.80
  -5  -6  -6   36.00    4.20
   5   6   6   31.80    3.20
  -6  -6  -6   37.10    4.60
   7  -7  -6   43.00    5.40
   6  -7  -6   22.30    3.10
   5  -7  -6   66.59    4.60
  -5   7   6   65.09    4.70
   4  -7  -6  156.98    7.30
  -4   7   6  147.49    7.60
   3  -7  -6   60.99    4.10
  -3   7   6   59.09    4.40
   2  -7  -6   62.69    4.10
  -2   7   6   64.39    4.50
   1  -7  -6  136.79    6.50
  -1   7   6  135.29    7.00
   0  -7  -6  159.58    7.40
   0   7   6  161.28    7.80
  -1  -7  -6  126.09    6.50
   1   7   6  121.19    6.60
  -2  -7  -6  209.28    9.40
   2   7   6  206.78    9.40
  -3  -7  -6   69.89    5.10
   3   7   6   65.69    4.60
  -4  -7  -6   29.80    4.00
   4   7   6   30.50    3.30
  -5  -7  -6   51.49    5.10
   6  -8  -6   38.60    4.00
   5  -8  -6   13.60    2.40
  -5   8   6   12.10    2.50
   4  -8  -6    9.40    2.10
  -4   8   6    8.80    2.20
   3  -8  -6   95.09    5.50
  -3   8   6   98.19    6.00
   2  -8  -6  112.89    6.00
  -2   8   6  112.39    6.60
   1  -8  -6   25.90    2.90
  -1   8   6   20.80    3.00
   0  -8  -6  162.98    7.60
   0   8   6  143.19    7.70
  -1  -8  -6  109.89    6.30
   1   8   6  106.79    6.40
  -2  -8  -6   26.60    3.70
   2   8   6   29.70    3.40
  -3  -8  -6   39.60    4.40
   3   8   6   38.30    3.70
  -4  -8  -6   61.89    5.60
   4   8   6   70.59    5.10
  -5  -8  -6  122.89    8.10
   5  -9  -6   27.60    3.50
  -5   9   6   23.10    3.50
   4  -9  -6   75.49    5.10
  -4   9   6   68.69    5.40
   3  -9  -6   49.70    4.00
  -3   9   6   47.60    4.50
   2  -9  -6   30.60    3.30
  -2   9   6   27.70    3.60
  -1   9   6  111.99    6.90
   0  -9  -6   27.60    3.50
   0   9   6   29.50    3.70
  -1  -9  -6   82.19    5.60
   1   9   6   70.89    5.40
  -2  -9  -6   68.49    5.60
   2   9   6   73.49    5.40
  -3  -9  -6  137.39    8.10
   3   9   6  132.89    7.70
  -4  -9  -6   46.70    5.60
   4   9   6   44.60    4.40
  -5  10   6   48.80    4.90
   4 -10  -6    8.20    2.60
  -4  10   6    7.60    2.40
   3 -10  -6   27.30    3.50
  -3  10   6   19.70    3.50
   2 -10  -6   30.70    3.60
  -2  10   6   29.50    3.90
   1 -10  -6   79.99    5.50
  -1  10   6   77.29    5.90
   0 -10  -6   68.99    5.30
   0  10   6   68.59    5.60
  -1 -10  -6  103.79    6.70
   1  10   6  106.59    6.90
  -2 -10  -6   52.39    5.20
   2  10   6   50.19    4.80
   3  10   6   45.30    4.70
   4  10   6   28.20    4.00
   1  14  -7   12.40    4.90
   0  14  -7   56.99    6.00
  -1  14  -7  153.88    9.90
  -2  14  -7   42.10    6.40
   4  13  -7   43.90    4.90
   3  13  -7   30.80    4.10
   2  13  -7   39.80    4.50
   1  13  -7  159.08    9.10
   0  13  -7   95.79    6.80
  -1  13  -7  110.49    7.40
  -2  13  -7   39.10    4.50
  -3  13  -7   21.30    3.60
  -4  13  -7   35.80    4.40
  -5  13  -7   62.39    6.30
   5  12  -7   49.50    4.50
   5  12  -7   50.89    4.90
   4  12  -7   39.20    4.30
   3  12  -7  164.28    8.90
  -3 -12   7  160.78    7.60
   2  12  -7  156.58    8.60
  -2 -12   7  153.48    7.10
   1  12  -7   96.29    6.40
  -1 -12   7   86.99    4.90
   0  12  -7  128.59    7.60
   0 -12   7  120.49    5.80
  -1  12  -7  121.09    7.40
   1 -12   7  119.59    5.70
  -2  12  -7   74.29    5.60
   2 -12   7   70.79    4.20
  -3  12  -7  106.89    6.90
   3 -12   7  110.29    5.60
  -4  12  -7  106.69    6.90
   4 -12   7   98.39    5.50
  -5  12  -7   56.79    5.10
   5 -12   7   49.40    4.10
   6 -12   7   37.30    4.00
   6  11  -7   57.29    4.90
   5  11  -7   65.09    4.90
   5  11  -7   66.69    5.30
   4  11  -7  147.49    8.10
  -4 -11   7  150.38    7.40
   3  11  -7   73.89    5.50
  -3 -11   7   67.09    4.40
   2  11  -7  179.98    9.10
  -2 -11   7  168.88    7.60
   1  11  -7  128.19    7.40
  -1 -11   7  126.09    5.90
   0  11  -7  169.98    8.70
   0 -11   7  168.28    7.10
  -1  11  -7  132.89    7.60
   1 -11   7  138.99    6.10
  -2  11  -7  247.48   11.30
   2 -11   7  236.58    9.40
  -3  11  -7  157.18    8.20
   3 -11   7  142.59    6.70
  -4  11  -7   93.69    6.10
   4 -11   7   90.09    5.20
  -5  11  -7   59.69    5.00
   5 -11   7   63.29    4.50
   6 -11   7   37.10    3.80
   6  10  -7  121.39    7.10
   5  10  -7   99.09    6.10
   5  10  -7   96.69    5.90
   4  10  -7   70.59    5.10
  -4 -10   7   62.29    4.30
   3  10  -7  109.99    6.50
  -3 -10   7  112.49    5.70
   2  10  -7  316.77   13.10
  -2 -10   7  300.47   11.60
   1  10  -7  286.97   12.50
  -1 -10   7  300.67   11.10
  -1 -10   7  301.47   12.20
   0  10  -7  213.08    9.70
   0 -10   7  202.08    8.10
   0 -10   7  198.48    8.30
  -1  10  -7  158.48    8.00
   1 -10   7  144.89    6.40
   1 -10   7  158.08    6.20
  -2  10  -7  297.97   12.40
   2 -10   7  279.97   10.70
   2 -10   7  280.97   10.30
  -3  10  -7  187.38    9.20
   3 -10   7  195.58    7.60
   3 -10   7  194.28    8.10
  -4  10  -7   87.79    5.70
   4 -10   7   90.69    5.60
   4 -10   7   88.39    5.00
  -5  10  -7   50.19    4.20
   5 -10   7   45.90    3.80
   6 -10   7   96.09    5.80
   7 -10   7   46.00    4.50
   7   9  -7   53.49    4.80
   6   9  -7   63.39    4.80
   5   9  -7   53.49    4.30
   5   9  -7   55.79    4.30
  -5  -9   7   54.39    3.70
   4   9  -7  223.08    9.80
  -4  -9   7  209.08    8.40
  -4  -9   7  211.88    9.10
   3   9  -7  225.68   10.10
  -3  -9   7  230.78    8.50
  -3  -9   7  228.98    9.30
   2   9  -7  604.74   21.10
  -2  -9   7  572.64   19.70
  -2  -9   7  549.15   18.80
   1   9  -7  331.17   13.20
  -1  -9   7  320.77   10.90
  -1  -9   7  312.57   11.60
   0   9  -7  367.66   14.10
   0  -9   7  344.57   11.70
   0  -9   7  341.17   12.50
  -1   9  -7  202.58    9.50
   1  -9   7  216.18    8.30
   1  -9   7  214.48    7.50
  -2   9  -7  299.37   12.50
   2  -9   7  311.47   11.30
   2  -9   7  310.57   10.60
  -3   9  -7  466.55   17.00
   3  -9   7  439.36   15.70
   3  -9   7  430.06   14.90
  -4   9  -7  130.69    6.90
   4  -9   7  126.79    5.50
   4  -9   7  128.39    6.20
  -5   9  -7  156.88    6.50
  -5   9  -7  151.28    7.60
   5  -9   7  153.28    7.30
  -6   9  -7   28.30    2.90
   6  -9   7   26.50    3.30
  -7   9  -7   72.89    4.80
   7  -9   7   76.19    5.40
   7   8  -7   37.40    4.10
  -7  -8   7   38.30    3.70
   6   8  -7   82.59    5.50
  -6  -8   7   85.49    5.00
   5   8  -7  173.68    8.30
   5   8  -7  169.28    8.00
  -5  -8   7  177.78    7.50
   4   8  -7  325.57   12.70
  -4  -8   7  310.27   11.40
  -4  -8   7  310.47   12.10
   3   8  -7  439.46   16.20
  -3  -8   7  420.26   15.30
  -3  -8   7  427.06   14.50
   2   8  -7   98.79    5.50
  -2  -8   7   90.39    4.60
  -2  -8   7   89.99    3.90
   1   8  -7  198.18    9.20
  -1  -8   7  216.88    8.20
  -1  -8   7  219.18    7.30
   0   8  -7  303.97   12.50
   0  -8   7  325.27   11.40
   0  -8   7  325.87   10.50
  -1   8  -7  836.72   28.40
   1  -8   7  827.92   27.00
   1  -8   7  814.72   26.00
  -2   8  -7  358.26   13.60
   2  -8   7  346.07   11.60
   2  -8   7  337.57   12.40
  -3   8  -7  208.08    9.10
   3  -8   7  201.78    7.50
   3  -8   7  203.68    8.20
  -4   8  -7  113.29    6.10
  -4   8  -7  117.49    5.00
   4  -8   7  120.49    5.90
  -5   8  -7  111.59    5.90
  -5   8  -7  108.59    5.10
   5  -8   7  105.69    5.80
  -6   8  -7   89.69    4.80
   6  -8   7   90.09    5.50
  -7   8  -7   79.19    4.90
   7  -8   7   74.79    5.40
  -8   8  -7   38.00    3.90
   8   7  -7   40.70    7.40
  -8  -7   7   37.90    4.00
   7   7  -7  136.19    7.70
  -7  -7   7  138.49    7.00
   6   7  -7   72.39    5.00
  -6  -7   7   75.09    4.50
   5   7  -7  394.06   14.50
  -5  -7   7  375.06   13.70
   4   7  -7  244.08    9.90
  -4  -7   7  230.08    8.70
  -4  -7   7  231.18    9.50
   3   7  -7  136.79    6.60
  -3  -7   7  134.59    5.30
  -3  -7   7  136.69    6.10
   2   7  -7  367.26   14.70
  -2  -7   7  408.46   13.00
  -2  -7   7  416.26   14.00
   1   7  -7 1268.67   38.80
   1   7  -7 1251.57   41.00
  -1  -7   7 1234.38   38.80
  -1  -7   7 1251.27   39.90
   0   7  -7 1123.59   36.80
   0  -7   7 1122.19   34.50
   0  -7   7 1125.19   34.40
   0  -7   7 1086.79   35.50
  -1   7  -7  582.84   20.20
   1  -7   7  554.54   19.00
   1  -7   7  567.74   18.00
   1  -7   7  579.64   18.10
  -2   7  -7  113.99    6.10
   2  -7   7  135.09    5.70
   2  -7   7  137.49    4.80
  -3   7  -7  178.18    7.90
  -3   7  -7  182.78    6.50
   3  -7   7  169.98    7.30
  -4   7  -7  318.27   12.50
  -4   7  -7  324.47   11.30
   4  -7   7  332.17   12.20
  -5   7  -7  238.08    9.10
  -5   7  -7  239.18    9.80
   5  -7   7  247.18    9.90
  -6   7  -7  106.79    5.30
   6  -7   7   99.79    5.80
  -7   7  -7   26.20    3.00
   7  -7   7   24.00    3.40
  -8   7  -7   21.10    3.30
   8  -7   7   22.40    3.90
   8   6  -7   34.70    4.20
  -8  -6   7   43.30    4.10
   7   6  -7  117.59    6.90
  -7  -6   7  109.49    6.00
   6   6  -7   97.09    5.80
  -6  -6   7   91.59    5.00
   5   6  -7  132.89    6.10
  -5  -6   7  112.89    5.50
   4   6  -7  161.78    7.50
  -4  -6   7  171.78    6.70
  -4  -6   7  179.38    7.50
   3   6  -7 1173.28   38.30
  -3  -6   7 1165.38   37.70
  -3  -6   7 1174.18   36.80
   2   6  -7  719.53   23.90
   2   6  -7  691.13   22.00
  -2  -6   7  701.33   22.00
  -2  -6   7  681.73   23.00
   1   6  -7  522.05   18.10
  -1  -6   7  493.85   17.00
   0   6  -7  290.77   11.30
   0  -6   7  294.07   10.40
  -1   6  -7  434.66   15.70
   1  -6   7  429.76   13.60
   1  -6   7  426.66   14.70
   1  -6   7  433.66   13.60
  -2   6  -7  675.93   21.30
  -2   6  -7  673.23   23.10
   2  -6   7  680.73   22.30
   2  -6   7  676.43   21.50
  -3   6  -7  461.45   16.30
  -3   6  -7  458.55   14.90
   3  -6   7  442.36   15.70
  -4   6  -7  397.16   14.60
  -4   6  -7  399.06   13.70
   4  -6   7  410.26   14.40
  -5   6  -7  199.98    8.30
  -5   6  -7  202.58    7.90
   5  -6   7  192.08    8.40
  -6   6  -7   31.40    2.90
   6  -6   7   32.10    3.30
  -7   6  -7   46.20    3.80
   7  -6   7   47.00    4.10
  -8   6  -7   73.39    5.00
   8  -6   7   72.99    5.50
  -9  -5   7   24.30    4.20
   8   5  -7   37.00    4.10
  -8  -5   7   40.10    3.90
   7   5  -7   62.99    4.90
  -7  -5   7   60.49    4.30
   6   5  -7  137.19    7.10
  -6  -5   7  140.59    6.40
   5   5  -7  265.87   10.40
   5   5  -7  261.37   10.90
  -5  -5   7  276.77   10.00
   4   5  -7  517.45   18.10
  -4  -5   7  513.55   17.20
  -4  -5   7  520.65   18.00
   3   5  -7  179.18    7.40
  -3  -5   7  164.98    6.20
  -3  -5   7  168.88    7.00
   2   5  -7  489.65   17.10
   2   5  -7  498.75   15.40
  -2  -5   7  471.05   16.30
  -2  -5   7  476.15   15.40
   1   5  -7  314.27   11.80
  -1  -5   7  318.17   11.10
   0   5  -7  583.34   20.50
   0  -5   7  619.14   19.70
  -1   5  -7  968.20   31.70
   1  -5   7  963.30   30.90
  -2   5  -7  479.55   15.60
  -2   5  -7  479.75   17.10
   2  -5   7  494.45   16.50
   2  -5   7  506.95   15.70
  -3   5  -7  325.27   10.90
  -3   5  -7  319.87   12.00
   3  -5   7  316.37   11.50
  -4   5  -7   93.39    4.30
  -4   5  -7   97.99    4.80
   4  -5   7   87.89    4.70
  -5   5  -7   90.89    4.60
  -5   5  -7   87.99    4.60
   5  -5   7   94.89    5.00
  -6   5  -7  188.18    8.00
   6  -5   7  185.28    8.30
  -7   5  -7   90.89    5.30
   7  -5   7   95.59    5.80
  -8   5  -7   39.10    3.90
   8  -5   7   35.30    3.90
  -9  -4   7   12.60    2.70
   8   4  -7   48.40    4.60
  -8  -4   7   50.99    4.20
   7   4  -7  126.69    7.10
  -7  -4   7  125.09    6.40
   6   4  -7  232.68   10.20
  -6  -4   7  242.78    9.50
   5   4  -7  157.18    6.70
   5   4  -7  155.38    7.20
  -5  -4   7  146.69    6.30
   4   4  -7  105.49    5.00
  -4  -4   7   97.99    4.30
  -4  -4   7   95.79    4.90
   3   4  -7  669.43   22.90
  -3  -4   7  686.03   22.50
  -3  -4   7  686.43   21.70
   2   4  -7 1389.26   44.80
   2   4  -7 1411.06   43.20
  -2  -4   7 1377.96   44.10
  -2  -4   7 1405.46   43.10
   1   4  -7 1155.18   36.20
  -1  -4   7 1068.99   35.20
   0   4  -7  431.66   15.20
   0  -4   7  430.06   14.40
  -1   4  -7  232.38    7.50
  -1   4  -7  227.88    9.20
   1  -4   7  239.48    8.50
   1  -4   7  246.88    7.60
  -2   4  -7 1062.99   34.90
  -2   4  -7 1092.09   33.50
   2  -4   7 1049.00   34.20
   2  -4   7 1090.79   33.50
  -3   4  -7  507.15   16.50
  -3   4  -7  489.55   17.30
   3  -4   7  512.95   17.10
  -4   4  -7  215.08    8.50
  -4   4  -7  220.18    8.10
   4  -4   7  213.58    8.50
  -5   4  -7  188.68    7.70
  -5   4  -7  187.88    7.60
   5  -4   7  198.68    8.20
  -6   4  -7  140.99    6.60
   6  -4   7  143.79    6.90
  -7   4  -7   40.30    3.80
   7  -4   7   42.40    3.90
  -8   4  -7   34.80    3.90
   8  -4   7   41.20    4.10
  -9  -3   7   39.70    4.10
   8   3  -7   53.19    4.70
  -8  -3   7   52.09    4.40
   7   3  -7   19.10    2.90
  -7  -3   7   17.80    2.70
   6   3  -7  120.79    6.30
   6   3  -7  124.39    7.10
  -6  -3   7  116.89    5.70
   5   3  -7  111.89    5.70
   5   3  -7  104.99    5.10
  -5  -3   7  118.59    5.10
   4   3  -7  376.26   13.30
  -4  -3   7  360.96   12.50
  -4  -3   7  365.76   13.20
   3   3  -7  302.67   11.00
  -3  -3   7  291.57   10.60
  -3  -3   7  287.47    9.90
   2   3  -7  914.71   29.00
   2   3  -7  914.11   27.60
  -2  -3   7  840.42   27.50
  -2  -3   7  861.41   28.30
   1   3  -7  193.58    6.50
   1   3  -7  203.48    6.50
   1   3  -7  190.98    8.00
  -1  -3   7  217.88    7.40
   0   3  -7  722.93   23.10
   0  -3   7  653.63   22.10
  -1   3  -7  885.91   28.90
  -1   3  -7  883.91   27.30
   1  -3   7  909.81   27.30
   1  -3   7  833.72   28.00
  -2   3  -7  777.12   25.30
  -2   3  -7  778.52   24.10
   2  -3   7  732.33   24.60
   2  -3   7  763.02   24.10
  -3   3  -7  382.66   13.80
  -3   3  -7  374.56   13.10
   3  -3   7  416.76   13.70
  -4   3  -7  300.27   10.50
  -4   3  -7  298.57   10.80
   4  -3   7  271.47   10.60
  -5   3  -7   84.49    4.10
  -5   3  -7   83.49    4.40
   5  -3   7   73.59    4.40
  -6   3  -7  127.29    6.20
   6  -3   7  129.69    6.40
  -7   3  -7   65.39    4.60
   7  -3   7   66.49    4.60
  -8   3  -7   29.90    3.60
   8  -3   7   29.40    3.70
  -9  -2   7   21.30    3.20
   8   2  -7   43.90    4.20
  -8  -2   7   39.10    3.80
   7   2  -7   80.19    5.30
  -7  -2   7   83.69    4.80
   6   2  -7   80.59    4.40
   6   2  -7   82.49    5.00
  -6  -2   7   80.89    4.40
   5   2  -7  295.67   11.20
   5   2  -7  308.37   11.80
  -5  -2   7  312.07   11.00
   4   2  -7  843.32   26.80
  -4  -2   7  799.62   26.00
  -4  -2   7  785.12   26.60
   3   2  -7  171.28    7.60
  -3  -2   7  198.78    7.40
  -3  -2   7  204.98    6.90
   2   2  -7  153.48    5.00
   2   2  -7  148.39    6.10
  -2  -2   7  123.79    4.80
  -2  -2   7  122.69    5.30
   1   2  -7 1046.50   33.60
   1   2  -7 1091.49   34.90
   1   2  -7 1060.49   33.30
  -1  -2   7 1101.19   33.90
   0   2  -7 1600.74   50.49
   0   2  -7 1636.44   49.40
   0  -2   7 1543.75   49.40
   0  -2   7 1567.64   49.90
  -1   2  -7  100.29    4.20
  -1   2  -7  102.19    5.20
   1  -2   7  136.69    4.80
   1  -2   7  138.79    4.30
  -2   2  -7  328.67   11.50
  -2   2  -7  312.67   10.40
   2  -2   7  290.57   10.70
  -3   2  -7   24.70    2.00
  -3   2  -7   25.70    2.30
   3  -2   7   28.10    2.20
  -4   2  -7  329.37   11.70
  -4   2  -7  329.57   11.90
   4  -2   7  326.47   11.90
  -5   2  -7   59.19    3.80
  -5   2  -7   60.19    3.40
   5  -2   7   74.99    4.10
  -6   2  -7  118.89    6.00
   6  -2   7  113.49    5.90
  -7   2  -7   32.90    3.50
   7  -2   7   30.50    3.30
  -8   2  -7   51.09    4.50
   8  -2   7   57.89    4.70
   9   1  -7   32.50    4.60
  -9  -1   7   39.10    4.10
   8   1  -7   41.90    4.20
  -8  -1   7   44.00    3.90
   7   1  -7   26.50    3.20
  -7  -1   7   32.80    3.20
   6   1  -7  196.18    7.70
   6   1  -7  192.08    8.60
  -6  -1   7  189.28    7.90
   5   1  -7  110.89    5.40
   5   1  -7  110.19    5.10
  -5  -1   7  103.19    4.90
   4   1  -7  165.18    7.00
   4   1  -7  171.78    7.00
  -4  -1   7  163.58    6.40
  -3  -1   7   56.79    3.00
  -3  -1   7   55.89    2.70
  -2  -1   7 1190.98   37.50
   1   1  -7  151.88    4.80
  -1  -1   7  118.09    5.00
   0   1  -7 2129.19   69.09
   0  -1   7 2150.48   69.19
   0  -1   7 2219.18   68.99
   0  -1   7 2232.88   69.19
   1  -1   7  103.69    4.10
   1  -1   7   97.19    4.00
   1  -1   7  101.99    4.50
  -2   1  -7  372.16   12.60
   2  -1   7  383.66   12.80
  -3   1  -7   45.30    3.00
  -3   1  -7   43.00    2.70
   3  -1   7   47.30    2.70
  -4   1  -7  469.55   16.20
  -4   1  -7  469.85   16.30
   4  -1   7  477.95   16.20
  -5   1  -7  197.18    8.00
  -5   1  -7  189.28    7.50
   5  -1   7  178.58    7.70
  -6   1  -7  122.99    6.10
   6  -1   7  107.49    5.80
  -7   1  -7   12.20    2.40
   7  -1   7   17.40    2.70
  -8   1  -7   30.90    3.80
   8  -1   7   29.30    3.60
   9   0  -7   16.80    3.30
  -9   0   7   23.10    3.50
   8   0  -7   41.60    4.10
  -8   0   7   46.00    4.00
   7   0  -7   69.59    4.70
  -7   0   7   67.09    4.40
   6   0  -7   23.50    2.20
   6   0  -7   25.90    2.70
  -6   0   7   24.50    2.60
   5   0  -7   39.30    2.90
   5   0  -7   43.20    3.10
   4   0  -7  443.96   16.00
  -4   0   7  485.85   15.70
  -3   0   7  140.49    5.60
  -3   0   7  141.39    5.40
  -3   0   7  142.69    5.90
   2   0  -7  338.77   11.10
  -2   0   7  324.17   11.60
  -2   0   7  321.77   11.00
   1   0  -7  191.88    6.70
  -1   0   7  184.58    6.60
   0   0   7   96.69    3.80
   0   0   7   98.89    4.50
  -1   0  -7  379.06   13.20
   1   0   7  403.96   13.00
   1   0   7  403.06   13.70
  -2   0  -7  287.57    9.70
   2   0   7  268.77    9.40
   2   0   7  257.67    9.80
  -3   0  -7  389.36   13.30
   3   0   7  376.66   13.20
   3   0   7  372.76   13.00
  -4   0  -7  458.25   15.60
   4   0   7  432.56   15.30
  -5   0  -7   20.40    2.10
  -5   0  -7   22.20    2.60
   5   0   7   23.50    2.30
  -6   0  -7   54.19    4.10
   6   0   7   45.80    3.60
  -7   0  -7   65.99    5.00
   7   0   7   72.29    4.80
  -8   0  -7   68.69    5.40
   8   0   7   71.89    5.10
   9  -1  -7   13.90    2.90
   8  -1  -7   29.40    3.60
  -8   1   7   28.20    3.40
   7  -1  -7   38.10    3.60
  -7   1   7   40.80    3.60
   6  -1  -7  107.59    5.40
   6  -1  -7  106.19    5.60
  -6   1   7  117.99    5.50
   5  -1  -7  244.08    9.90
  -5   1   7  263.37    9.70
  -5   1   7  262.77    9.70
   4  -1  -7  246.88    8.90
  -4   1   7  226.28    8.60
  -4   1   7  225.78    8.80
   3  -1  -7  813.32   26.60
  -3   1   7  842.02   27.20
   2  -1  -7  252.27    8.90
  -2   1   7  252.37    8.70
  -2   1   7  259.07    9.50
   1  -1  -7  480.15   16.80
   1  -1  -7  503.75   16.40
  -1   1   7  541.55   16.40
  -1   1   7  529.15   17.50
   0  -1  -7  708.13   23.10
   0  -1  -7  740.23   22.70
   0   1   7  725.73   22.60
   0   1   7  702.23   23.70
  -1  -1  -7  941.21   30.10
   1   1   7  952.40   29.60
   1   1   7  931.91   30.50
  -2  -1  -7  796.02   25.50
   2   1   7  756.72   24.90
   2   1   7  792.32   25.70
  -3  -1  -7  326.17   11.80
   3   1   7  315.77   11.20
   3   1   7  327.07   11.70
  -4  -1  -7   21.30    2.50
   4   1   7   24.40    2.10
   4   1   7   25.60    2.20
  -5  -1  -7  189.08    8.20
   5   1   7  185.88    7.70
  -6  -1  -7  183.38    8.40
   6   1   7  175.08    7.80
  -7  -1  -7   91.39    5.90
   7   1   7   89.39    5.40
  -8  -1  -7   47.10    4.80
   8   1   7   42.50    4.10
   9  -2  -7   15.20    3.00
   8  -2  -7   11.70    2.50
  -8   2   7   13.50    2.50
   7  -2  -7  121.89    6.60
  -7   2   7  129.89    6.40
   6  -2  -7  103.09    5.30
  -6   2   7   97.39    5.30
  -6   2   7  102.69    5.30
   5  -2  -7   66.79    3.80
  -5   2   7   68.79    3.90
  -5   2   7   69.59    3.90
   4  -2  -7   31.10    2.20
  -4   2   7   26.40    2.40
  -4   2   7   26.60    2.30
   3  -2  -7  288.87   10.10
   3  -2  -7  285.87   10.40
  -3   2   7  295.57   10.90
   2  -2  -7  775.42   25.40
   2  -2  -7  789.92   24.90
  -2   2   7  786.42   26.00
   1  -2  -7  504.15   16.00
   1  -2  -7  499.05   16.80
  -1   2   7  501.65   16.00
  -1   2   7  520.55   17.50
   0  -2  -7  605.64   18.20
   0  -2  -7  590.14   19.00
   0   2   7  543.85   19.40
   0   2   7  557.24   18.00
  -1  -2  -7  581.84   18.40
  -1  -2  -7  551.04   19.20
   1   2   7  583.54   18.30
   1   2   7  581.84   19.50
  -2  -2  -7  530.55   17.80
   2   2   7  507.95   16.80
   2   2   7  518.85   17.80
  -3  -2  -7  162.48    7.10
   3   2   7  166.38    6.40
   3   2   7  172.18    7.00
  -4  -2  -7  448.26   15.80
   4   2   7  414.96   14.90
   4   2   7  442.36   15.30
  -5  -2  -7  232.28    9.70
   5   2   7  229.18    8.80
   5   2   7  219.18    8.90
  -6  -2  -7  127.09    6.70
   6   2   7  114.19    5.90
  -7  -2  -7   39.50    4.30
   7   2   7   45.10    3.80
  -8  -2  -7   21.60    4.80
   8   2   7   21.80    3.20
   9  -3  -7   35.80    4.00
   8  -3  -7   34.20    3.70
  -8   3   7   33.20    3.70
   7  -3  -7   37.10    3.40
  -7   3   7   37.20    3.50
   6  -3  -7   51.09    3.60
  -6   3   7   51.29    3.70
  -6   3   7   48.10    3.70
   5  -3  -7  192.98    8.00
  -5   3   7  205.18    8.40
  -5   3   7  203.78    8.10
   4  -3  -7  490.95   17.10
   4  -3  -7  497.25   16.60
  -4   3   7  488.95   17.30
   3  -3  -7  372.66   13.70
   3  -3  -7  405.46   13.20
  -3   3   7  405.76   14.40
   2  -3  -7  344.37   11.30
   2  -3  -7  361.96   11.50
   2  -3  -7  338.17   12.30
  -2   3   7  356.76   12.90
   1  -3  -7  344.77   10.80
   1  -3  -7  332.97   12.00
  -1   3   7  345.17   12.60
   0  -3  -7  506.25   17.40
   0   3   7  526.25   18.00
  -1  -3  -7  438.36   13.50
  -1  -3  -7  408.66   14.70
   1   3   7  424.36   13.40
   1   3   7  405.36   14.90
  -2  -3  -7  361.96   13.40
   2   3   7  366.56   12.10
   2   3   7  373.26   13.40
  -3  -3  -7  467.75   16.80
   3   3   7  473.25   15.60
   3   3   7  467.25   16.60
  -4  -3  -7   90.59    5.20
   4   3   7   89.29    4.70
   4   3   7   87.59    4.20
  -5  -3  -7  121.89    6.50
   5   3   7  117.59    5.50
   5   3   7  113.79    5.60
  -6  -3  -7   56.69    4.80
   6   3   7   58.79    3.90
  -7  -3  -7   44.30    4.70
   7   3   7   48.10    3.90
   8   3   7   48.60    4.20
   8  -4  -7   11.50    2.50
  -8   4   7    9.80    2.40
   7  -4  -7   26.20    3.00
  -7   4   7   28.80    3.20
   6  -4  -7  154.88    6.90
  -6   4   7  157.08    8.00
   5  -4  -7  292.07   11.20
   5  -4  -7  279.07   10.50
  -5   4   7  278.17   11.20
   4  -4  -7   85.29    4.60
   4  -4  -7   86.79    4.00
  -4   4   7   85.09    4.90
   3  -4  -7  140.59    6.10
   3  -4  -7  142.79    5.20
  -3   4   7  123.99    6.30
   2  -4  -7  178.08    7.50
   2  -4  -7  190.88    6.30
  -2   4   7  189.48    8.00
   1  -4  -7  528.35   18.40
  -1   4   7  557.54   19.10
   0  -4  -7  620.24   20.70
   0   4   7  604.34   21.10
  -1  -4  -7  393.36   14.20
   1   4   7  394.96   14.50
  -2  -4  -7  171.48    7.70
   2   4   7  177.58    7.70
   2   4   7  175.58    6.10
  -3  -4  -7   83.79    5.00
   3   4   7   79.69    3.60
   3   4   7   79.79    4.60
  -4  -4  -7  235.78   10.20
   4   4   7  230.88    8.70
   4   4   7  243.28    9.70
  -5  -4  -7   86.99    5.70
   5   4   7   84.19    4.40
   5   4   7   83.29    4.80
  -6  -4  -7  104.69    6.60
   6   4   7  110.39    5.60
  -7  -4  -7   21.10    3.70
   7  -5  -7   35.70    3.70
   6  -5  -7   41.20    3.70
  -6   5   7   39.00    5.40
   5  -5  -7   22.90    2.70
  -5   5   7   15.30    2.50
   4  -5  -7  198.68    8.60
  -4   5   7  217.68    9.20
   3  -5  -7   25.20    2.60
  -3   5   7   31.60    3.00
   2  -5  -7  335.27   12.60
  -2   5   7  354.96   13.30
   1  -5  -7  257.77    9.90
  -1   5   7  247.28   10.30
   0  -5  -7  174.78    7.60
   0   5   7  180.88    8.00
  -1  -5  -7    8.80    1.90
  -2  -5  -7  244.68   10.10
   2   5   7  238.58   10.00
  -3  -5  -7   89.59    5.60
   3   5   7   94.59    5.30
  -4  -5  -7  209.18    9.50
   4   5   7  198.88    8.90
  -5  -5  -7   27.20    3.70
   5   5   7   29.50    3.00
  -6  -5  -7   61.59    5.40
   7  -6  -7   30.40    3.70
   6  -6  -7   45.80    4.00
   5  -6  -7   35.70    3.40
  -5   6   7   38.40    3.60
   4  -6  -7  130.89    6.50
  -4   6   7  132.69    6.90
   3  -6  -7  182.18    8.00
  -3   6   7  180.68    8.40
   2  -6  -7  212.98    8.60
  -2   6   7  192.98    9.00
   1  -6  -7    2.90    1.30
  -1   6   7    2.40    1.40
   0  -6  -7  233.18    9.60
   0   6   7  236.18   10.10
  -1  -6  -7  100.69    5.60
   1   6   7  101.19    5.70
  -2  -6  -7  204.18    9.30
   2   6   7  210.78    9.30
  -3  -6  -7   90.29    5.80
   3   6   7   86.29    5.30
  -4  -6  -7   77.19    5.60
   4   6   7   73.69    4.90
  -5  -6  -7    6.90    2.50
   5   6   7    7.30    2.50
  -6  -6  -7   47.10    5.10
   6  -7  -7   35.80    3.80
   5  -7  -7   29.40    3.30
  -5   7   7   23.20    3.30
   4  -7  -7  103.09    5.70
  -4   7   7   92.89    5.90
   3  -7  -7   19.90    2.60
  -3   7   7   13.70    2.60
   2  -7  -7   44.40    3.60
  -2   7   7   46.70    4.00
   1  -7  -7  140.39    6.80
  -1   7   7  141.29    7.30
   0  -7  -7   77.59    4.80
   0   7   7   74.89    5.10
  -1  -7  -7  123.99    6.70
   1   7   7  125.89    6.80
  -2  -7  -7  129.99    7.10
   2   7   7  122.39    6.90
  -3  -7  -7   26.20    3.70
   3   7   7   23.50    3.00
  -4  -7  -7   25.40    3.80
   4   7   7   31.50    3.40
  -5  -7  -7   56.49    5.50
   5  -8  -7   25.60    3.30
  -5   8   7   21.00    3.30
   4  -8  -7   15.60    2.60
  -4   8   7   18.00    3.00
   3  -8  -7  140.99    7.10
  -3   8   7  145.49    7.90
   2  -8  -7  118.19    6.30
  -2   8   7  108.79    6.60
   1  -8  -7   40.50    3.70
  -1   8   7   37.00    3.80
   0  -8  -7  115.39    6.30
   0   8   7  111.19    6.70
  -1  -8  -7   71.09    5.20
   1   8   7   70.89    5.20
  -2  -8  -7   33.30    4.10
   2   8   7   34.40    3.80
  -3  -8  -7   60.79    5.40
   3   8   7   74.19    5.30
  -4  -8  -7  112.19    7.40
   4   8   7  112.09    6.80
  -5   9   7   42.40    4.50
   4  -9  -7  110.49    6.40
  -4   9   7  107.09    7.00
   3  -9  -7   49.40    4.20
  -3   9   7   47.10    4.60
   2  -9  -7   63.69    4.70
  -2   9   7   58.79    5.00
   1  -9  -7   81.39    5.40
  -1   9   7   86.19    6.00
   0  -9  -7   98.99    6.10
   0   9   7   94.49    6.30
  -1  -9  -7   63.99    5.30
   1   9   7   62.29    5.20
  -2  -9  -7  133.29    8.10
   2   9   7  147.99    8.20
  -3  -9  -7   51.19    5.40
   3   9   7   49.50    4.80
   4   9   7   35.20    4.10
  -4  10   7   16.60    5.00
  -3  10   7   29.70    4.10
   2 -10  -7   54.69    4.70
  -2  10   7   56.79    5.30
   1 -10  -7   94.09    6.20
  -1  10   7   90.89    6.60
   0 -10  -7   85.99    6.10
   0  10   7   88.89    6.40
  -1 -10  -7   43.20    4.80
   1  10   7   42.80    4.60
   2  10   7   30.60    4.20
   1  14  -8    9.40    4.00
   0  14  -8  118.79    8.90
  -1  14  -8  112.99    9.10
   4  13  -8   64.79    5.80
   3  13  -8   26.90    4.00
  -3 -13   8   27.50    3.30
   2  13  -8   67.69    5.70
  -2 -13   8   73.79    4.70
   1  13  -8  135.39    8.30
  -1 -13   8  141.39    6.80
   0  13  -8  114.89    7.50
   0 -13   8  111.89    5.80
  -1  13  -8   90.69    6.70
   1 -13   8   85.49    4.90
  -2  13  -8   16.00    3.20
   2 -13   8   18.80    2.60
  -3  13  -8   21.30    3.70
   3 -13   8   17.90    2.70
  -4  13  -8   46.90    5.00
   4 -13   8   48.80    4.30
   5  12  -8   51.99    5.00
   5  12  -8   50.09    4.50
   4  12  -8   36.50    4.20
  -4 -12   8   38.90    3.80
   3  12  -8  141.19    8.20
  -3 -12   8  139.99    7.10
   2  12  -8   91.39    6.60
  -2 -12   8   95.89    5.30
   1  12  -8  112.39    7.10
  -1 -12   8  104.09    5.50
   0  12  -8   53.99    4.90
   0 -12   8   51.19    3.60
  -1  12  -8   83.99    6.20
   1 -12   8   83.19    4.70
  -2  12  -8  110.99    7.10
   2 -12   8  113.79    5.70
  -3  12  -8   82.49    6.00
   3 -12   8   75.79    4.70
  -4  12  -8   76.89    5.90
   4 -12   8   79.59    4.90
  -5  12  -8   34.80    4.30
   5 -12   8   33.30    3.70
   6 -12   8   34.50    4.20
   6  11  -8   39.00    4.20
   5  11  -8   40.70    4.20
   5  11  -8   43.30    4.10
   4  11  -8   82.29    5.90
  -4 -11   8   78.39    5.10
   3  11  -8   27.80    3.60
  -3 -11   8   29.60    3.10
   2  11  -8   83.59    5.90
  -2 -11   8   88.29    4.90
   1  11  -8   42.50    4.30
  -1 -11   8   48.70    3.40
   0  11  -8  151.78    8.40
   0 -11   8  171.58    7.10
  -1  11  -8   90.99    6.20
   1 -11   8   91.29    4.80
  -2  11  -8  100.99    6.50
   2 -11   8  106.79    5.30
  -3  11  -8  104.99    6.60
   3 -11   8   88.49    5.10
  -4  11  -8   25.10    3.50
   4 -11   8   32.20    3.20
  -5  11  -8   34.30    3.90
   5 -11   8   38.60    3.80
   6 -11   8   23.30    3.50
   6  10  -8   94.99    6.30
   5  10  -8   39.00    4.00
   4  10  -8   51.19    4.40
  -4 -10   8   65.19    4.30
   3  10  -8   61.39    4.80
  -3 -10   8   64.49    4.20
   2  10  -8  243.88   11.20
  -2 -10   8  258.27   10.00
   1  10  -8  193.58    9.50
  -1 -10   8  202.68    8.20
   0  10  -8  102.89    6.40
   0 -10   8  107.19    5.10
  -1  10  -8   25.40    3.30
   1 -10   8   23.00    2.40
  -2  10  -8  132.99    7.40
   2 -10   8  138.19    6.20
  -3  10  -8  106.69    6.70
   3 -10   8  123.89    5.90
  -4  10  -8   60.79    4.70
   4 -10   8   66.09    4.30
  -5  10  -8   12.50    2.50
   5 -10   8   13.30    2.40
   6 -10   8   69.19    5.10
   7   9  -8   24.40    3.90
   6   9  -8   29.60    3.60
   5   9  -8   23.70    3.00
   4   9  -8  166.48    8.30
  -4  -9   8  173.08    7.80
   3   9  -8   88.89    5.70
  -3  -9   8   93.69    5.10
   2   9  -8  297.87   12.40
  -2  -9   8  296.27   11.30
   1   9  -8   89.89    5.50
  -1  -9   8   87.09    4.60
   0   9  -8   90.29    5.60
   0  -9   8   91.99    4.50
  -1   9  -8  154.48    8.00
   1  -9   8  181.48    7.10
  -2   9  -8  250.57   11.10
   2  -9   8  269.77    9.60
   2  -9   8  253.87    9.90
  -3   9  -8  155.58    7.90
   3  -9   8  152.58    6.10
   3  -9   8  155.08    6.90
  -4   9  -8  175.28    8.30
   4  -9   8  158.18    7.40
  -5   9  -8   31.50    3.40
  -5   9  -8   27.60    2.50
   6  -9   8   69.29    5.00
   7  -9   8   32.20    4.00
   7   8  -8   23.00    3.40
   6   8  -8  104.09    6.50
  -6  -8   8  117.29    8.00
   5   8  -8  104.79    6.00
  -5  -8   8  109.99    5.20
   4   8  -8  307.67   12.20
  -4  -8   8  287.37   11.50
  -4  -8   8  279.67   10.40
   3   8  -8  174.58    8.40
  -3  -8   8  190.08    7.90
  -3  -8   8  181.98    6.80
   2   8  -8   80.19    4.90
  -2  -8   8   64.79    3.80
  -2  -8   8   65.39    2.90
   1   8  -8  419.86   16.80
  -1  -8   8  488.55   15.90
   0   8  -8  723.63   25.00
   0  -8   8  704.13   23.60
   1  -8   8  279.47   10.40
   1  -8   8  278.87    9.10
  -2   8  -8  530.45   18.80
   2  -8   8  498.35   17.50
   2  -8   8  497.05   16.30
  -3   8  -8   75.09    5.10
   3  -8   8  101.99    4.90
  -4   8  -8  186.78    8.50
  -4   8  -8  186.18    7.00
   4  -8   8  181.78    8.00
  -5   8  -8   63.69    3.60
  -5   8  -8   61.29    4.40
   5  -8   8   68.89    4.50
  -6   8  -8   81.09    4.50
   6  -8   8   80.29    5.30
  -7   8  -8   36.30    3.50
   7  -8   8   36.20    3.90
   7   7  -8   81.59    5.80
  -7  -7   8   90.29    5.30
   6   7  -8  117.49    6.70
  -6  -7   8  113.29    5.70
   5   7  -8  140.09    7.10
  -5  -7   8  148.49    6.30
  -5  -7   8  152.18    7.30
   4   7  -8  314.07   12.20
  -4  -7   8  301.77   11.70
  -4  -7   8  291.07   10.60
   3   7  -8  106.79    6.00
  -3  -7   8  127.89    5.90
  -3  -7   8  130.69    4.90
   2   7  -8  556.24   17.50
   2   7  -8  528.85   19.40
  -2  -7   8  533.85   18.50
  -2  -7   8  545.95   17.20
   1   7  -8  672.43   23.70
  -1  -7   8  693.93   22.70
   0   7  -8 1190.98   38.70
   0  -7   8 1149.58   37.40
  -1   7  -8  189.78    8.60
   1  -7   8  204.88    7.80
  -2   7  -8  160.08    7.60
   2  -7   8  169.78    5.80
   2  -7   8  166.78    6.90
  -3   7  -8  210.28    9.10
  -3   7  -8  217.98    7.50
   3  -7   8  210.28    8.50
  -4   7  -8  372.06   12.70
  -4   7  -8  369.26   14.10
   4  -7   8  371.66   13.70
  -5   7  -8  191.68    7.50
  -5   7  -8  186.08    8.30
   5  -7   8  183.38    8.20
  -6   7  -8  107.49    5.30
   6  -7   8  100.29    5.90
  -7   7  -8   20.30    2.90
   7  -7   8   15.40    2.80
  -8   7  -8   17.90    2.80
   8   6  -8   25.50    3.80
  -8  -6   8   21.30    3.10
   7   6  -8   70.59    5.30
  -7  -6   8   69.39    4.60
   6   6  -8   52.09    4.30
  -6  -6   8   46.80    3.50
   5   6  -8  104.29    5.60
  -5  -6   8  102.29    4.90
   4   6  -8  154.48    7.30
  -4  -6   8  159.98    7.10
  -4  -6   8  160.78    6.20
   3   6  -8  860.51   28.80
  -3  -6   8  855.61   28.10
  -3  -6   8  830.62   26.90
   2   6  -8  659.83   22.10
   2   6  -8  633.54   19.80
  -2  -6   8  612.84   21.00
  -2  -6   8  615.84   19.80
   1   6  -8  396.66   14.30
  -1  -6   8  360.56   13.10
   0   6  -8  366.66   14.10
   0  -6   8  394.96   13.20
  -1   6  -8  730.83   24.90
   1  -6   8  727.53   23.90
  -2   6  -8  513.65   18.40
  -2   6  -8  524.45   16.40
   2  -6   8  522.15   16.50
   2  -6   8  506.55   17.50
  -3   6  -8  505.95   16.40
  -3   6  -8  519.65   18.10
   3  -6   8  484.85   17.30
  -4   6  -8  302.07   11.80
  -4   6  -8  305.37   10.70
   4  -6   8  302.87   11.50
  -5   6  -8  191.18    8.20
  -5   6  -8  188.48    7.60
   5  -6   8  189.98    8.30
  -6   6  -8   24.70    2.70
   6  -6   8   27.00    3.20
  -7   6  -8   82.89    5.00
   7  -6   8   77.89    5.30
  -8   6  -8   65.19    4.90
   8  -6   8   66.29    6.50
  -9  -5   8   26.30    4.70
   8   5  -8   22.20    3.60
  -8  -5   8   27.50    3.40
   7   5  -8  103.89    6.40
  -7  -5   8  102.09    5.60
   6   5  -8  193.58    9.00
  -6  -5   8  192.08    8.00
   5   5  -8  353.16   13.40
  -5  -5   8  361.36   12.70
   4   5  -8  260.37   10.40
  -4  -5   8  268.37   10.30
  -4  -5   8  261.37    9.30
   3   5  -8  798.52   26.40
  -3  -5   8  775.52   24.70
  -3  -5   8  765.42   25.80
   2   5  -8  310.37   12.20
   2   5  -8  317.07   10.40
  -2  -5   8  337.17   10.40
  -2  -5   8  329.37   11.60
   1   5  -8 1339.07   42.70
  -1  -5   8 1295.17   41.70
   0   5  -8  239.48    9.60
   0  -5   8  235.08    8.70
  -1   5  -8 1124.49   36.60
   1  -5   8 1109.49   35.60
  -2   5  -8  448.26   14.60
  -2   5  -8  442.36   16.30
   2  -5   8  460.25   15.60
   2  -5   8  478.35   14.70
  -3   5  -8  576.84   19.90
  -3   5  -8  581.74   18.50
   3  -5   8  551.54   19.30
  -4   5  -8   28.80    2.70
  -4   5  -8   27.00    2.20
   4  -5   8   33.60    2.80
  -5   5  -8  172.88    7.10
  -5   5  -8  172.88    7.40
   5  -5   8  165.88    7.50
  -6   5  -8  170.58    7.50
   6  -5   8  166.78    7.90
  -7   5  -8   99.59    5.60
   7  -5   8   92.69    5.80
  -8   5  -8   21.20    3.20
   8  -5   8   17.20    3.10
  -9  -4   8   31.00    3.80
   8   4  -8   43.70    4.50
  -8  -4   8   44.60    4.00
   7   4  -8  143.49    7.70
  -7  -4   8  140.59    6.80
   6   4  -8   79.69    5.30
   6   4  -8   76.99    5.00
  -6  -4   8   81.49    4.50
   5   4  -8  220.98    8.80
  -5  -4   8  203.38    8.10
   4   4  -8   50.29    3.40
  -4  -4   8   51.29    2.80
  -4  -4   8   54.69    3.50
   3   4  -8  522.35   18.60
  -3  -4   8  541.05   18.20
  -3  -4   8  536.75   17.20
   2   4  -8 1014.70   30.70
   2   4  -8  990.30   32.50
  -2  -4   8  976.10   31.70
  -2  -4   8  967.80   30.60
   1   4  -8  831.72   26.70
  -1  -4   8  754.52   25.60
   0   4  -8  344.17   13.10
   0  -4   8  368.06   12.30
  -1   4  -8  570.24   19.10
   1  -4   8  527.65   18.10
  -2   4  -8  626.74   21.90
  -2   4  -8  620.94   20.30
   2  -4   8  659.73   21.20
   2  -4   8  659.23   20.40
  -3   4  -8  287.37    9.90
  -3   4  -8  286.07   11.00
   3  -4   8  285.87   10.50
  -4   4  -8  323.17   11.30
  -4   4  -8  304.27   11.80
   4  -4   8  327.97   11.90
  -5   4  -8  117.79    5.50
  -5   4  -8  121.39    5.50
   5  -4   8  109.49    5.70
  -6   4  -8  108.09    5.60
   6  -4   8  103.49    5.70
  -7   4  -8   51.59    4.00
   7  -4   8   48.30    4.10
  -8   4  -8   39.30    4.00
   8  -4   8   40.90    4.30
  -9  -3   8   40.30    4.10
   8   3  -8   43.60    4.40
  -8  -3   8   47.20    4.10
   7   3  -8   24.30    3.30
  -7  -3   8   26.80    2.90
   6   3  -8  135.09    7.00
   6   3  -8  139.69    6.50
  -6  -3   8  145.59    6.30
   5   3  -8  132.49    6.50
   5   3  -8  127.19    6.00
  -5  -3   8  138.39    5.70
   4   3  -8  453.45   16.50
  -4  -3   8  485.55   15.60
  -4  -3   8  466.95   16.40
   3   3  -8  372.46   13.30
  -3  -3   8  354.06   12.60
  -3  -3   8  347.67   11.80
   2   3  -8  553.44   19.60
   2   3  -8  555.74   18.00
  -2  -3   8  575.24   18.80
  -2  -3   8  586.84   17.90
   1   3  -8   42.80    1.70
   1   3  -8   37.20    1.60
   1   3  -8   39.60    2.90
  -1  -3   8   40.30    2.40
   0   3  -8  437.06   15.80
   0  -3   8  451.55   14.80
  -1   3  -8  150.58    6.40
  -1   3  -8  152.98    4.90
   1  -3   8  131.59    4.80
   1  -3   8  127.69    5.50
  -2   3  -8  638.84   22.10
  -2   3  -8  654.53   20.80
   2  -3   8  656.83   21.40
  -3   3  -8  225.08    8.00
  -3   3  -8  224.18    8.90
   3  -3   8  212.98    8.40
  -4   3  -8   62.09    3.70
  -4   3  -8   60.79    3.40
   4  -3   8   56.69    3.70
  -5   3  -8  156.38    6.60
  -5   3  -8  158.48    6.70
   5  -3   8  141.89    6.70
  -6   3  -8   68.69    4.40
   6  -3   8   71.09    4.50
  -7   3  -8   51.99    4.20
   7  -3   8   52.39    4.20
  -8   3  -8   32.20    3.80
   8  -3   8   32.10    3.80
  -9  -2   8   33.30    3.90
   8   2  -8   51.59    4.60
  -8  -2   8   55.19    4.30
   7   2  -8   42.90    4.00
  -7  -2   8   49.50    3.80
   6   2  -8  136.39    6.90
   6   2  -8  132.89    6.20
  -6  -2   8  143.89    6.20
   5   2  -8  247.98    9.70
   5   2  -8  250.57   10.00
  -5  -2   8  241.48    9.20
   4   2  -8  579.24   19.70
  -4  -2   8  562.34   19.30
  -4  -2   8  557.84   18.60
   3   2  -8    0.80    0.90
  -3  -2   8    2.70    1.00
  -3  -2   8    1.90    0.70
   2   2  -8   95.29    5.10
  -2  -2   8  114.19    4.60
   1   2  -8  563.14   18.00
   1   2  -8  576.24   19.70
   1   2  -8  573.84   18.10
  -1  -2   8  574.04   18.70
   0   2  -8  931.11   30.10
   0   2  -8  969.30   31.80
   0  -2   8  993.70   30.10
   0  -2   8  973.50   30.70
  -1   2  -8  507.85   16.30
  -1   2  -8  514.65   17.80
   1  -2   8  509.65   16.70
   1  -2   8  499.95   16.20
  -2   2  -8   44.20    3.10
  -2   2  -8   47.60    2.40
  -3   2  -8  120.29    5.70
  -3   2  -8  116.29    5.00
   3  -2   8  123.49    5.30
  -4   2  -8  288.87   10.50
  -4   2  -8  284.77   10.90
   4  -2   8  285.77   10.60
  -5   2  -8  109.09    5.40
  -5   2  -8  110.19    5.30
   5  -2   8  117.29    5.60
  -6   2  -8   85.79    5.00
   6  -2   8   86.09    5.00
  -7   2  -8   61.89    4.60
   7  -2   8   61.39    4.50
  -8   2  -8   31.50    4.00
   8  -2   8   38.70    3.90
  -9  -1   8   15.60    3.00
   8   1  -8   84.49    5.90
  -8  -1   8   91.99    5.50
   7   1  -8   47.90    4.00
  -7  -1   8   35.20    3.40
   6   1  -8  137.39    6.30
   6   1  -8  145.19    6.90
  -6  -1   8  139.79    6.30
   5   1  -8   83.49    4.50
   5   1  -8   82.99    4.60
  -5  -1   8   77.09    4.10
   4   1  -8  101.29    5.30
  -4  -1   8  107.99    4.60
   3   1  -8  167.88    7.40
  -3  -1   8  174.28    6.80
  -3  -1   8  176.28    6.30
   2   1  -8  522.65   17.40
  -2  -1   8  554.84   17.70
   1   1  -8  762.62   23.50
  -1  -1   8  748.43   23.70
  -1  -1   8  711.73   24.40
   0   1  -8  538.35   17.40
   0  -1   8  554.54   17.70
   0  -1   8  543.55   18.30
   0  -1   8  529.95   17.50
  -1   1  -8   56.79    2.80
   1  -1   8   61.79    3.40
   1  -1   8   60.39    2.90
  -2   1  -8  178.08    6.70
   2  -1   8  182.18    6.80
  -3   1  -8  408.46   14.90
  -3   1  -8  414.96   14.20
   3  -1   8  418.46   14.20
  -4   1  -8  336.07   12.60
  -4   1  -8  346.17   12.30
   4  -1   8  336.37   12.20
  -5   1  -8  211.78    8.50
  -5   1  -8  207.78    8.70
   5  -1   8  216.38    8.70
  -6   1  -8   73.99    4.70
   6  -1   8   74.59    4.50
  -7   1  -8   24.60    3.30
   7  -1   8   27.70    3.10
  -8   1  -8   55.79    4.90
   8  -1   8   65.49    4.90
   9   0  -8   44.80    6.10
   8   0  -8   38.90    4.00
  -8   0   8   43.60    3.90
   7   0  -8  112.39    6.20
  -7   0   8  105.29    5.70
   6   0  -8   46.90    3.70
   6   0  -8   53.79    3.60
  -6   0   8   53.09    3.50
   5   0  -8  126.39    6.00
   5   0  -8  118.19    5.70
  -5   0   8  116.79    5.40
   4   0  -8  480.45   16.90
  -4   0   8  497.35   16.50
  -4   0   8  494.85   16.90
  -3   0   8  922.11   29.50
  -3   0   8  915.41   30.00
   2   0  -8  418.46   13.60
  -2   0   8  392.36   14.20
  -2   0   8  406.56   13.50
   1   0  -8  147.99    5.50
  -1   0   8  140.69    6.10
  -1   0   8  148.19    5.40
   0   0  -8  462.35   15.60
   0   0   8  477.55   15.40
   0   0   8  481.35   16.30
  -1   0  -8  696.63   22.70
   1   0   8  698.23   22.40
   1   0   8  710.63   23.30
  -2   0  -8 1023.60   32.20
   2   0   8 1010.60   32.60
   2   0   8  981.10   31.90
  -3   0  -8  244.68    9.20
   3   0   8  241.18    8.90
   3   0   8  243.18    9.30
  -4   0  -8  326.77   12.10
   4   0   8  325.17   11.80
  -5   0  -8   42.50    3.40
  -5   0  -8   40.60    3.20
   5   0   8   51.99    3.40
  -6   0  -8   97.69    5.70
   6   0   8  108.89    5.60
  -7   0  -8   95.19    6.00
   7   0   8   93.19    5.50
  -8   0  -8   60.99    5.20
   8   0   8   70.69    5.10
   9  -1  -8   13.70    3.50
   8  -1  -8   34.70    3.80
  -8   1   8   34.00    3.60
   7  -1  -8  108.79    6.00
  -7   1   8   98.69    5.50
   6  -1  -8  143.39    6.80
   6  -1  -8  143.69    6.80
  -6   1   8  144.59    6.50
   5  -1  -8  233.98    9.40
  -5   1   8  239.68    9.10
  -5   1   8  244.58    9.40
   4  -1  -8  329.27   11.30
  -4   1   8  302.37   11.40
  -4   1   8  295.37   10.90
   3  -1  -8  312.87   11.00
  -3   1   8  304.07   11.40
   2  -1  -8  547.75   18.10
  -2   1   8  551.54   17.80
  -2   1   8  551.54   18.90
   1  -1  -8  633.74   20.70
  -1   1   8  633.64   20.20
  -1   1   8  639.14   21.40
   0  -1  -8  745.33   24.70
   0   1   8  772.52   24.10
   0   1   8  775.62   25.40
  -1  -1  -8  882.21   28.50
   1   1   8  882.61   29.00
   1   1   8  884.81   27.90
  -2  -1  -8  374.06   13.20
   2   1   8  373.36   12.60
   2   1   8  378.56   13.50
  -3  -1  -8  358.96   13.10
   3   1   8  363.56   13.10
   3   1   8  361.46   12.50
  -4  -1  -8  100.89    5.40
   4   1   8  109.89    5.20
   4   1   8  114.59    5.00
  -5  -1  -8  217.58    9.30
   5   1   8  219.48    8.80
  -6  -1  -8  182.18    8.70
   6   1   8  187.88    8.10
  -7  -1  -8   80.49    5.70
   7   1   8   78.99    5.00
  -8  -1  -8   24.70    4.50
   8   1   8   28.80    3.50
   9  -2  -8   23.40    3.90
   8  -2  -8   36.00    3.90
  -8   2   8   39.60    3.90
   7  -2  -8  111.29    6.20
  -7   2   8  113.49    6.00
   6  -2  -8  136.19    6.40
  -6   2   8  130.19    6.50
  -6   2   8  137.09    6.30
   5  -2  -8  116.79    5.40
  -5   2   8  108.29    5.30
  -5   2   8  112.59    5.50
   4  -2  -8   67.99    3.80
   4  -2  -8   68.39    3.60
  -4   2   8   66.99    4.00
   3  -2  -8  769.22   25.10
   3  -2  -8  774.32   25.50
  -3   2   8  796.52   26.10
   2  -2  -8  570.94   19.30
  -2   2   8  593.74   20.10
   1  -2  -8  520.75   16.60
   1  -2  -8  517.45   17.40
  -1   2   8  522.25   16.60
  -1   2   8  519.25   18.10
   0  -2  -8  341.27   11.90
   0  -2  -8  348.37   10.90
   0   2   8  321.57   12.30
   0   2   8  325.97   10.80
  -1  -2  -8  528.05   18.20
   1   2   8  543.05   17.20
   1   2   8  542.25   18.70
  -2  -2  -8  506.35   17.90
   2   2   8  528.95   18.10
   2   2   8  522.05   16.90
  -3  -2  -8  250.07    9.80
   3   2   8  246.18    9.70
   3   2   8  242.58    8.80
  -4  -2  -8  200.08    8.80
   4   2   8  216.18    8.60
   4   2   8  208.18    8.00
  -5  -2  -8  254.57   10.70
   5   2   8  258.57    9.90
   5   2   8  244.18    9.70
  -6  -2  -8   54.99    4.70
   6   2   8   64.99    4.10
  -7  -2  -8   32.10    4.10
   7   2   8   35.90    3.40
   8   2   8   22.30    3.20
   9  -3  -8   39.50    5.30
   8  -3  -8   32.70    3.60
  -8   3   8   33.30    3.70
   7  -3  -8   24.90    2.90
  -7   3   8   20.90    3.00
   6  -3  -8   81.89    4.70
  -6   3   8   81.49    5.10
  -6   3   8   80.19    4.80
   5  -3  -8  184.28    8.00
   5  -3  -8  188.38    7.60
  -5   3   8  187.68    8.20
   4  -3  -8  378.06   13.60
   4  -3  -8  363.16   13.00
  -4   3   8  383.06   14.00
   3  -3  -8  116.49    5.40
   3  -3  -8  120.79    4.70
  -3   3   8  114.29    5.80
   2  -3  -8  171.48    6.00
   2  -3  -8  166.88    5.80
   2  -3  -8  162.58    6.80
  -2   3   8  169.58    7.40
   1  -3  -8  335.37   10.50
   1  -3  -8  326.47   11.80
  -1   3   8  325.57   12.40
   0  -3  -8  391.16   14.10
   0  -3  -8  398.96   12.70
   0   3   8  412.76   14.70
  -1  -3  -8  412.66   12.90
  -1  -3  -8  386.16   14.20
   1   3   8  401.06   12.80
   1   3   8  389.96   14.50
  -2  -3  -8  158.98    7.30
   2   3   8  169.28    6.00
   2   3   8  163.88    7.30
  -3  -3  -8  286.17   11.50
   3   3   8  305.97   11.50
   3   3   8  292.37   10.30
  -4  -3  -8   92.49    5.50
   4   3   8   91.59    4.40
   4   3   8   94.49    5.10
  -5  -3  -8  113.49    6.40
   5   3   8  107.39    5.60
   5   3   8  113.59    5.30
  -6  -3  -8   37.00    4.20
   6   3   8   46.60    3.50
  -7  -3  -8   97.39    6.60
   7   3   8   92.89    5.50
   6  -4  -8   89.99    5.40
   6  -4  -8   86.29    4.80
  -6   4   8   91.79    6.40
   5  -4  -8  170.68    7.80
   5  -4  -8  178.88    7.20
  -5   4   8  178.88    8.10
   4  -4  -8   44.80    2.60
   4  -4  -8   43.90    3.20
  -4   4   8   41.20    3.50
   3  -4  -8  134.79    4.90
   3  -4  -8  118.39    5.80
  -3   4   8  127.69    6.40
   2  -4  -8  150.58    6.80
  -2   4   8  172.18    7.60
   1  -4  -8  510.35   17.90
  -1   4   8  527.05   18.60
   0  -4  -8  298.47   11.10
   0   4   8  288.67   11.50
  -1  -4  -8  339.87   12.70
   1   4   8  334.07   12.90
  -2  -4  -8   51.99    4.10
   2   4   8   63.49    4.10
  -3  -4  -8  249.97   10.40
   3   4   8  235.18   10.00
   3   4   8  244.08    9.30
  -4  -4  -8   97.49    6.00
   4   4   8  106.49    5.70
  -5  -4  -8  214.78    9.90
   5   4   8  203.68    9.00
  -6  -4  -8   37.70    4.40
   7  -5  -8   28.60    3.60
   6  -5  -8   28.00    3.30
   5  -5  -8   48.90    3.80
  -5   5   8   51.19    4.10
   4  -5  -8  153.48    7.30
  -4   5   8  176.68    8.00
   3  -5  -8  139.19    6.50
  -3   5   8  141.69    7.10
   2  -5  -8  120.89    5.80
  -2   5   8  122.09    6.40
   1  -5  -8  435.66   15.30
  -1   5   8  414.96   15.90
   0  -5  -8   66.09    4.20
   0   5   8   75.89    4.70
  -1  -5  -8  124.19    6.30
   1   5   8  123.49    6.40
  -2  -5  -8  128.99    6.80
   2   5   8  129.89    6.70
  -3  -5  -8  252.87   10.90
   3   5   8  252.07   10.60
  -4  -5  -8  116.69    7.00
   4   5   8  127.39    6.60
  -5  -5  -8   78.39    5.80
   5   5   8   75.09    5.80
  -6  -5  -8   27.30    4.10
   6  -6  -8   30.30    3.50
   5  -6  -8   65.69    4.60
  -5   6   8   68.59    5.00
   4  -6  -8  140.99    7.00
  -4   6   8  147.29    7.60
   3  -6  -8  224.58    9.40
  -3   6   8  216.68    9.90
   2  -6  -8  143.29    6.80
  -2   6   8  145.49    7.40
   1  -6  -8   35.00    3.20
  -1   6   8   40.00    3.70
   0  -6  -8  262.47   10.80
   0   6   8  276.37   11.50
  -1  -6  -8  192.48    8.80
   1   6   8  197.98    9.10
  -2  -6  -8  231.38   10.20
   2   6   8  226.78   10.10
  -3  -6  -8   96.09    6.20
   3   6   8   98.99    5.80
  -4  -6  -8   60.19    5.20
   4   6   8   62.29    4.60
  -5  -6  -8   13.00    3.10
   6  -7  -8   67.69    5.10
   5  -7  -8   66.09    4.70
  -5   7   8   55.19    4.80
   4  -7  -8   69.39    4.80
  -4   7   8   67.09    5.10
   3  -7  -8   54.19    4.10
  -3   7   8   50.99    4.50
   2  -7  -8  107.29    6.00
  -2   7   8  120.39    6.80
   1  -7  -8  176.78    8.10
  -1   7   8  171.18    8.60
   0  -7  -8  173.18    8.10
   0   7   8  171.58    8.60
  -1  -7  -8  133.49    7.10
   1   7   8  132.49    7.30
  -2  -7  -8  102.39    6.60
   2   7   8  118.69    6.70
  -3  -7  -8   40.40    4.30
   3   7   8   31.00    3.60
  -4  -7  -8   35.70    4.60
   4   7   8   47.40    4.20
   5  -8  -8   33.70    3.70
  -5   8   8   29.20    3.80
   4  -8  -8   30.00    3.40
  -4   8   8   28.20    3.70
   3  -8  -8  129.89    6.90
  -3   8   8  124.99    7.40
   2  -8  -8  105.99    6.10
  -2   8   8  109.29    6.80
   1  -8  -8   94.19    5.60
  -1   8   8   83.59    5.90
   0  -8  -8   34.10    3.80
   0   8   8   42.00    4.20
  -1  -8  -8   72.79    5.30
   1   8   8   63.99    5.10
  -2  -8  -8   19.90    3.50
   2   8   8   20.50    3.20
  -3  -8  -8   76.89    6.20
   3   8   8   79.79    5.70
   4   8   8   39.90    4.20
  -5   9   8   36.50    4.40
  -4   9   8   59.19    5.20
   3  -9  -8   50.19    4.40
  -3   9   8   39.40    4.40
   2  -9  -8    7.80    2.10
  -2   9   8   11.70    2.80
   1  -9  -8   57.99    4.70
  -1   9   8   48.10    4.80
   0  -9  -8   37.00    4.10
   0   9   8   28.30    3.90
  -1  -9  -8   98.69    6.60
   1   9   8   91.19    6.50
  -2  -9  -8   10.90    3.10
   2   9   8   19.00    3.40
   3   9   8   60.59    5.30
   4   9   8   10.90    3.40
   0  14  -9  113.69   11.20
   4  13  -9   80.69    6.50
  -4 -13   9   83.99    5.60
   3  13  -9   31.20    4.20
  -3 -13   9   30.10    3.50
   2  13  -9   96.79    6.90
  -2 -13   9   97.19    5.60
   1  13  -9  106.29    7.40
  -1 -13   9  104.99    5.80
   0  13  -9  178.88    9.90
   0 -13   9  171.78    7.90
  -1  13  -9   65.89    5.70
   1 -13   9   55.09    4.10
  -2  13  -9   32.80    4.30
   2 -13   9   31.00    3.10
  -3  13  -9   20.80    3.70
   3 -13   9   18.50    2.80
  -4  13  -9   72.09    5.90
   4 -13   9   64.19    4.70
   5 -13   9   39.80    4.10
   5  12  -9   49.30    4.60
   5  12  -9   54.29    5.00
   4  12  -9   56.49    5.20
  -4 -12   9   60.59    4.70
   3  12  -9  121.79    7.70
  -3 -12   9  123.59    6.60
   2  12  -9  147.49    8.50
  -2 -12   9  148.79    7.20
   1  12  -9   89.19    6.30
  -1 -12   9   80.09    4.80
   0  12  -9   77.59    6.00
   0 -12   9   80.69    4.70
  -1  12  -9   49.90    4.80
   1 -12   9   55.29    3.80
  -2  12  -9  175.58    9.30
   2 -12   9  166.88    7.60
  -3  12  -9   51.79    5.00
   3 -12   9   46.20    3.80
  -4  12  -9   60.69    5.30
   4 -12   9   59.99    4.40
  -5  12  -9   35.10    4.20
   5 -12   9   32.30    3.70
   5  11  -9   73.19    5.70
   4  11  -9   90.69    6.30
  -4 -11   9   92.09    5.60
   3  11  -9   40.10    4.30
  -3 -11   9   42.00    3.60
   2  11  -9   74.39    5.60
  -2 -11   9   80.19    4.80
   1  11  -9   82.89    5.90
  -1 -11   9   83.09    4.80
   0  11  -9   94.39    6.30
   0 -11   9  104.79    5.30
  -1  11  -9  165.58    8.80
   1 -11   9  166.98    7.30
  -2  11  -9   55.19    4.80
   2 -11   9   52.99    3.80
  -3  11  -9  101.89    6.70
   3 -11   9   96.79    5.40
  -4  11  -9   20.30    3.30
   4 -11   9   19.70    2.90
  -5  11  -9   33.20    3.80
   5 -11   9   38.80    3.90
   6 -11   9   27.70    3.70
   6  10  -9   86.29    6.10
   5  10  -9   44.40    4.20
  -5 -10   9   49.40    4.30
   4  10  -9   18.70    3.00
  -4 -10   9   23.70    3.00
   3  10  -9  170.08    8.80
  -3 -10   9  167.38    7.70
   2  10  -9  145.69    7.80
  -2 -10   9  138.29    6.60
   1  10  -9  355.46   14.80
  -1 -10   9  370.96   13.40
   0  10  -9   90.29    5.80
   0 -10   9   82.09    4.60
  -1  10  -9   51.69    4.40
   1 -10   9   52.09    3.50
  -2  10  -9  128.59    7.40
   2 -10   9  137.19    6.30
  -3  10  -9  173.08    8.90
   3 -10   9  177.98    7.80
  -4  10  -9   52.19    4.50
   4 -10   9   55.29    4.10
  -5  10  -9   79.49    5.50
   5 -10   9   75.99    5.00
   6 -10   9   40.90    4.20
   6   9  -9    4.70    1.90
   5   9  -9   83.29    5.60
  -5  -9   9   91.89    5.70
   4   9  -9  135.39    7.40
  -4  -9   9  129.59    6.70
   3   9  -9  195.88    9.20
  -3  -9   9  181.08    8.20
   2   9  -9  180.48    8.90
  -2  -9   9  193.08    8.00
   1   9  -9  171.98    8.30
  -1  -9   9  154.58    7.00
   0   9  -9   71.89    5.10
   0  -9   9   82.89    4.30
  -1   9  -9  311.47   13.00
   1  -9   9  321.67   11.80
  -2   9  -9  235.78   10.70
   2  -9   9  246.38    9.60
  -3   9  -9  281.17   11.90
   3  -9   9  275.57   10.90
  -4   9  -9  109.69    6.50
   4  -9   9  109.29    5.80
  -5   9  -9   56.99    4.60
   5  -9   9   60.69    4.50
   6  -9   9   68.49    5.10
   7  -9   9   69.79    6.20
   7   8  -9   38.00    4.20
   6   8  -9   76.09    5.50
   5   8  -9  167.68    8.00
  -5  -8   9  143.49    7.60
   4   8  -9  180.08    8.50
  -4  -8   9  165.38    7.90
   3   8  -9  106.69    6.10
  -3  -8   9   96.09    5.30
   2   8  -9   22.10    2.80
  -2  -8   9   27.60    2.50
   1   8  -9  168.18    8.20
  -1  -8   9  182.58    7.40
   0   8  -9  831.42   29.20
   0  -8   9  862.21   27.90
  -1   8  -9  412.26   15.60
   1  -8   9  393.96   14.30
  -2   8  -9   97.59    5.80
   2  -8   9  104.69    5.10
  -3   8  -9   76.59    5.00
   3  -8   9   77.39    4.50
  -4   8  -9  158.98    6.20
  -4   8  -9  152.78    7.80
   4  -8   9  170.48    7.50
  -5   8  -9  193.48    7.70
  -5   8  -9  203.68    9.10
   5  -8   9  193.88    8.80
   6  -8   9   61.39    4.70
   7  -8   9   72.49    5.40
   7   7  -9   44.00    4.40
   6   7  -9  102.89    6.40
  -6  -7   9  107.09    6.40
   5   7  -9   92.99    5.30
  -5  -7   9   83.19    4.20
  -5  -7   9   73.39    5.10
   4   7  -9  200.28    9.10
  -4  -7   9  204.08    7.50
  -4  -7   9  201.18    8.70
   3   7  -9  122.59    6.30
  -3  -7   9  108.29    5.50
  -3  -7   9  109.49    4.30
   2   7  -9  710.43   25.40
  -2  -7   9  746.53   24.40
   1   7  -9  699.23   24.10
  -1  -7   9  669.13   22.80
   0   7  -9  336.27   13.20
   0  -7   9  333.77   12.00
  -1   7  -9  246.68   10.30
   1  -7   9  234.78    9.20
  -2   7  -9  158.28    8.00
   2  -7   9  178.98    7.30
   2  -7   9  179.78    5.90
  -3   7  -9  331.67   10.90
  -3   7  -9  326.47   12.90
   3  -7   9  323.37   12.20
  -4   7  -9  258.77   11.00
  -4   7  -9  264.67    9.50
   4  -7   9  278.17   10.70
  -5   7  -9  244.58   10.30
  -5   7  -9  242.28    9.20
   5  -7   9  242.58   10.10
  -6   7  -9   37.60    3.10
   6  -7   9   35.90    3.80
  -7   7  -9   28.80    3.20
   7  -7   9   33.60    3.80
   7   6  -9   45.90    4.30
  -7  -6   9   40.40    3.60
   6   6  -9   52.69    4.40
  -6  -6   9   58.09    3.70
   5   6  -9   96.29    5.40
  -5  -6   9   85.39    4.30
  -5  -6   9   90.29    5.30
   4   6  -9  287.37   12.00
  -4  -6   9  315.67   10.50
  -4  -6   9  297.67   11.60
   3   6  -9  341.57   13.20
  -3  -6   9  340.07   11.20
  -3  -6   9  336.17   12.60
   2   6  -9  289.67   11.30
  -2  -6   9  262.47   10.30
   1   6  -9  257.97   10.10
  -1  -6   9  221.08    8.90
   0   6  -9  313.87   12.70
   0  -6   9  344.87   11.80
  -1   6  -9  453.45   16.60
   1  -6   9  452.75   15.60
  -2   6  -9  337.47   13.30
  -2   6  -9  343.37   11.10
   2  -6   9  359.36   12.50
  -3   6  -9  339.97   11.20
  -3   6  -9  331.17   12.90
   3  -6   9  326.17   12.20
  -4   6  -9  149.29    7.20
  -4   6  -9  151.48    6.00
   4  -6   9  149.39    6.90
  -5   6  -9   67.99    3.80
  -5   6  -9   64.39    4.20
   5  -6   9   62.99    4.40
  -6   6  -9   52.19    3.70
   6  -6   9   54.09    4.20
  -7   6  -9   69.79    4.60
   7  -6   9   73.29    5.20
  -8   6  -9   59.49    4.50
   8   5  -9   39.30    4.40
  -8  -5   9   37.40    3.70
   7   5  -9   91.09    6.00
  -7  -5   9   90.59    5.20
   6   5  -9  183.88    9.00
  -6  -5   9  196.48    7.90
   5   5  -9  151.98    7.20
  -5  -5   9  151.78    7.30
  -5  -5   9  159.28    6.40
   4   5  -9   58.39    4.00
  -4  -5   9   65.39    4.00
  -4  -5   9   65.19    3.10
   3   5  -9  529.85   18.40
  -3  -5   9  500.25   16.40
  -3  -5   9  502.15   17.70
   2   5  -9  354.76   14.00
  -2  -5   9  381.86   13.30
  -2  -5   9  387.76   11.80
   1   5  -9  596.44   21.10
  -1  -5   9  605.94   20.00
   0   5  -9  178.68    8.10
   0  -5   9  191.18    7.20
  -1   5  -9  465.95   16.60
   1  -5   9  439.76   15.40
  -2   5  -9  337.17   13.10
  -2   5  -9  350.96   11.30
   2  -5   9  351.66   11.30
   2  -5   9  346.47   12.40
  -3   5  -9  178.58    6.50
  -3   5  -9  181.28    7.90
   3  -5   9  168.68    7.30
  -4   5  -9   40.20    3.20
  -4   5  -9   38.90    2.60
   4  -5   9   42.70    3.20
  -5   5  -9  131.19    6.40
  -5   5  -9  126.79    5.80
   5  -5   9  129.59    6.40
  -6   5  -9  143.59    6.60
   6  -5   9  139.69    7.00
  -7   5  -9   48.90    4.00
   7  -5   9   49.40    4.30
  -8   5  -9   31.70    3.70
  -9  -4   9   41.50    4.60
   8   4  -9   30.10    3.90
  -8  -4   9   41.20    3.80
   7   4  -9   87.49    5.90
  -7  -4   9   94.39    5.20
   6   4  -9   70.49    4.70
   6   4  -9   72.79    4.90
  -6  -4   9   63.89    3.90
   5   4  -9  167.78    7.60
  -5  -4   9  177.68    6.90
   4   4  -9  113.39    5.80
  -4  -4   9  117.49    5.70
  -4  -4   9  115.49    4.70
   3   4  -9  487.75   18.20
  -3  -4   9  523.35   17.70
  -3  -4   9  524.95   16.50
   2   4  -9  604.84   21.10
   2   4  -9  622.94   19.10
  -2  -4   9  584.54   20.10
   1   4  -9  749.13   25.30
  -1  -4   9  733.73   24.20
   0   4  -9  197.78    8.30
   0  -4   9  185.28    7.20
  -1   4  -9  515.45   18.60
  -1   4  -9  532.15   16.60
   1  -4   9  517.65   17.70
   1  -4   9  547.95   16.60
  -2   4  -9  425.96   13.50
  -2   4  -9  418.16   15.30
   2  -4   9  395.86   14.30
   2  -4   9  417.06   13.40
  -3   4  -9  413.06   15.40
  -3   4  -9  418.66   14.00
   3  -4   9  428.86   14.80
  -4   4  -9  271.87   10.70
  -4   4  -9  275.37    9.90
   4  -4   9  269.37   10.40
  -5   4  -9  147.29    6.30
  -5   4  -9  144.39    6.60
   5  -4   9  133.69    6.60
  -6   4  -9   93.29    5.10
   6  -4   9   90.89    5.40
  -7   4  -9   63.49    4.50
   7  -4   9   57.99    4.60
  -8   4  -9   30.10    3.80
   8  -4   9   27.30    3.90
  -9  -3   9   33.50    4.50
   8   3  -9   36.20    4.20
  -8  -3   9   42.70    3.90
   7   3  -9   53.39    4.50
  -7  -3   9   55.39    3.90
   6   3  -9  100.59    5.80
   6   3  -9   93.99    5.10
  -6  -3   9  103.99    5.00
   5   3  -9  267.47   10.90
   5   3  -9  276.07   11.10
  -5  -3   9  281.37   10.10
   4   3  -9  201.88    8.40
  -4  -3   9  190.88    7.10
  -4  -3   9  189.98    8.00
   3   3  -9  456.55   16.60
  -3  -3   9  464.85   15.80
  -3  -3   9  448.96   14.80
   2   3  -9  218.88    7.40
   2   3  -9  221.98    7.50
   2   3  -9  220.68    9.20
  -2  -3   9  218.28    8.30
   1   3  -9  388.46   12.50
   1   3  -9  386.46   12.50
   1   3  -9  392.06   14.60
  -1  -3   9  407.06   13.50
   0   3  -9  481.45   15.50
   0   3  -9  509.75   15.60
   0   3  -9  501.05   17.70
   0  -3   9  492.85   16.50
  -1   3  -9  477.65   15.20
  -1   3  -9  481.35   17.20
   1  -3   9  485.15   15.20
   1  -3   9  465.45   16.00
  -2   3  -9  479.05   17.10
  -2   3  -9  478.95   15.50
   2  -3   9  470.55   16.10
  -3   3  -9  410.36   14.90
  -3   3  -9  421.36   13.80
   3  -3   9  382.16   14.10
  -4   3  -9  121.59    5.90
  -4   3  -9  120.89    5.30
   4  -3   9  106.99    5.40
  -5   3  -9  140.09    6.50
  -5   3  -9  138.49    6.30
   5  -3   9  141.49    6.60
  -6   3  -9  116.79    5.90
   6  -3   9  115.99    6.10
  -7   3  -9   40.40    3.80
   7  -3   9   47.70    4.20
  -8   3  -9   44.50    4.40
   8  -3   9   48.40    4.60
  -9  -2   9   34.90    5.00
   8   2  -9   28.30    3.80
  -8  -2   9   29.40    3.40
   7   2  -9   94.79    5.90
  -7  -2   9   92.59    5.20
   6   2  -9  143.39    6.70
   6   2  -9  137.99    7.00
  -6  -2   9  140.39    6.30
   5   2  -9  453.55   16.40
   5   2  -9  448.96   16.30
  -5  -2   9  445.96   15.40
   4   2  -9  510.35   18.10
  -4  -2   9  512.05   17.50
  -4  -2   9  488.65   16.60
   3   2  -9  210.38    9.30
  -3  -2   9  236.28    8.70
  -3  -2   9  234.18    7.90
   2   2  -9  345.07   11.60
   2   2  -9  353.96   13.40
  -2  -2   9  362.36   12.30
   1   2  -9 1178.18   37.70
   1   2  -9 1239.38   39.70
   1   2  -9 1199.28   37.70
  -1  -2   9 1232.38   38.40
   0   2  -9 1515.75   49.20
   0   2  -9 1558.74   47.40
   0  -2   9 1536.75   47.40
   0  -2   9 1498.15   47.90
  -1   2  -9  700.63   22.50
  -1   2  -9  712.53   24.20
   1  -2   9  713.73   23.00
  -2   2  -9  246.18    9.90
  -2   2  -9  251.47    8.60
   2  -2   9  227.08    8.80
  -3   2  -9  186.28    8.20
  -3   2  -9  192.28    7.30
   3  -2   9  194.98    7.60
  -4   2  -9  433.36   15.00
  -4   2  -9  425.16   15.60
   4  -2   9  429.56   15.10
  -5   2  -9  229.88    9.20
  -5   2  -9  222.68    9.30
   5  -2   9  234.58    9.30
  -6   2  -9   32.90    3.20
   6  -2   9   33.30    3.30
  -7   2  -9   86.79    5.50
   7  -2   9   85.19    5.40
  -8   2  -9    5.20    2.10
   8  -2   9    6.70    2.20
   8   1  -9   67.79    5.20
  -8  -1   9   63.19    4.60
   7   1  -9   73.89    5.10
  -7  -1   9   72.49    4.50
   6   1  -9   77.59    4.60
   6   1  -9   78.29    4.80
  -6  -1   9   76.79    4.30
   5   1  -9   88.09    5.10
   5   1  -9   91.79    5.00
  -5  -1   9   94.59    4.50
   4   1  -9  119.59    6.10
  -4  -1   9  121.79    5.00
  -4  -1   9  120.89    5.50
   3   1  -9  281.47   11.10
  -3  -1   9  275.37   10.10
   2   1  -9  579.74   18.40
  -2  -1   9  556.44   18.70
   1   1  -9 1071.99   33.40
  -1  -1   9 1042.80   34.40
  -1  -1   9 1065.49   33.60
   0   1  -9  252.87    8.60
   0  -1   9  239.48    8.60
   0  -1   9  246.48    9.50
  -1   1  -9  271.47    9.60
   1  -1   9  285.27    9.80
   1  -1   9  275.77   10.40
  -2   1  -9   55.89    3.10
   2  -1   9   56.69    3.10
  -3   1  -9  950.40   30.50
  -3   1  -9  943.61   31.50
   3  -1   9  940.31   30.50
  -4   1  -9   85.79    4.80
  -4   1  -9   83.79    4.40
   4  -1   9   80.89    4.40
  -5   1  -9  169.38    7.50
  -5   1  -9  166.98    7.50
   5  -1   9  167.08    7.30
  -6   1  -9   20.00    2.90
   6  -1   9   17.60    2.60
  -7   1  -9   29.70    3.60
   7  -1   9   31.50    3.40
  -8   1  -9   19.90    3.30
   8  -1   9   26.70    3.50
   8   0  -9   16.60    3.00
  -8   0   9   20.90    3.00
   7   0  -9   54.99    4.40
  -7   0   9   58.79    4.10
   6   0  -9   35.60    3.20
   6   0  -9   38.60    3.30
  -6   0   9   40.40    3.10
   5   0  -9  122.29    5.80
   5   0  -9  117.39    6.10
  -5   0   9  119.79    5.40
   4   0  -9  230.88    9.10
  -4   0   9  235.08    9.30
  -4   0   9  236.48    8.60
   3   0  -9  654.73   21.80
  -3   0   9  665.03   21.80
  -3   0   9  679.73   22.60
   2   0  -9  143.79    5.60
  -2   0   9  137.59    6.30
  -2   0   9  141.59    5.50
  -1   0   9    3.50    1.10
  -1   0   9    6.20    1.00
   0   0  -9  114.99    5.10
   0   0   9  143.39    5.00
  -1   0  -9  540.85   18.20
   1   0   9  556.84   17.90
   1   0   9  548.15   18.90
  -2   0  -9  308.87   11.00
   2   0   9  304.27   10.60
   2   0   9  304.17   11.40
  -3   0  -9  103.29    4.70
   3   0   9   78.49    4.10
   3   0   9   83.29    4.50
  -4   0  -9   41.40    3.30
   4   0   9   44.90    3.00
  -5   0  -9   12.80    2.20
  -5   0  -9   15.20    2.40
   5   0   9   17.60    2.30
  -6   0  -9    9.70    2.20
   6   0   9   12.80    2.20
  -7   0  -9   50.29    4.50
   7   0   9   51.39    4.10
  -8   0  -9   19.50    3.90
   8   0   9   22.50    3.40
   8  -1  -9    7.50    2.20
  -8   1   9   12.10    2.50
   7  -1  -9   62.29    4.50
  -7   1   9   60.19    4.30
   6  -1  -9   57.29    4.00
   6  -1  -9   60.59    4.20
  -6   1   9   60.49    3.90
   5  -1  -9   52.79    3.40
  -5   1   9   47.40    3.20
  -5   1   9   46.30    3.40
   4  -1  -9   38.00    2.70
   4  -1  -9   38.50    2.70
  -4   1   9   39.70    3.00
   3  -1  -9  217.48    7.80
  -3   1   9  184.88    8.20
   2  -1  -9   93.69    4.50
  -2   1   9  112.99    5.40
  -2   1   9  111.49    4.30
   1  -1  -9  304.37   10.30
  -1   1   9  282.37    9.70
  -1   1   9  279.27   11.00
   0  -1  -9  130.69    5.70
   0   1   9  146.69    5.20
   0   1   9  136.99    6.30
  -1  -1  -9  223.78    7.90
   1   1   9  186.48    7.00
   1   1   9  182.78    8.10
  -2  -1  -9   43.90    3.10
   2   1   9   35.20    2.30
   2   1   9   38.00    2.90
  -3  -1  -9   41.80    3.20
   3   1   9   37.60    2.50
   3   1   9   36.00    2.90
  -4  -1  -9    6.80    1.70
   4   1   9    3.70    1.20
   4   1   9    4.40    1.30
  -5  -1  -9   33.70    3.40
   5   1   9   33.20    2.80
  -6  -1  -9   60.59    4.80
   6   1   9   61.59    4.10
  -7  -1  -9   34.40    4.10
   7   1   9   31.00    3.40
   8   1   9    2.90    1.70
   8  -2  -9   12.70    2.60
  -8   2   9    8.80    2.20
   7  -2  -9   21.80    2.90
  -7   2   9   18.90    2.80
   6  -2  -9    6.70    1.70
  -6   2   9   10.30    2.10
  -6   2   9   12.80    2.10
   5  -2  -9   27.40    2.50
   5  -2  -9   26.70    2.70
   4  -2  -9   14.00    1.90
   4  -2  -9   13.30    1.60
   3  -2  -9  127.19    5.20
   3  -2  -9  121.59    5.60
  -3   2   9  133.89    6.20
   2  -2  -9   82.29    4.10
  -2   2   9   80.29    3.40
  -2   2   9   82.39    4.70
   1  -2  -9  130.69    5.00
   1  -2  -9  131.99    5.30
  -1   2   9  100.29    5.50
  -1   2   9  105.19    4.30
   0  -2  -9  168.98    5.60
   0  -2  -9  164.78    6.40
   0   2   9  132.39    5.20
   0   2   9  130.29    6.60
   1   2   9   49.10    2.30
   1   2   9   45.40    3.30
   2   2   9   51.49    3.60
   2   2   9   51.19    2.60
   3   2   9   46.80    3.40
   3   2   9   47.80    2.70
  -4  -2  -9   48.30    3.80
   4   2   9   40.90    3.20
   4   2   9   40.20    2.80
  -5  -2  -9   91.99    5.50
   5   2   9   72.29    4.30
   5   2   9   76.59    4.50
  -6  -2  -9   12.20    2.70
   6   2   9   12.30    2.20
  -7  -2  -9   -0.10    1.80
   7   2   9    3.60    1.60
   8   2   9   16.20    3.40
  -8   3   9    3.70    2.50
   7  -3  -9    1.90    1.40
   6  -3  -9   31.20    2.90
   6  -3  -9   33.40    3.30
  -6   3   9   29.40    3.50
   5  -3  -9   47.80    3.20
   5  -3  -9   53.69    3.80
  -5   3   9   49.99    3.80
   4  -3  -9   70.69    4.10
   4  -3  -9   75.19    3.70
  -4   3   9   69.69    4.50
   3  -3  -9   97.29    4.90
   3  -3  -9  101.19    4.20
   2  -3  -9   40.10    2.90
   2  -3  -9   44.40    2.10
   1  -3  -9   86.39    4.40
  -1   3   9   81.89    4.80
   0  -3  -9   79.19    4.30
   0   3   9   73.29    4.50
   0   3   9   78.29    2.90
  -1  -3  -9   60.79    3.80
   1   3   9   47.80    2.20
   1   3   9   48.60    3.60
  -2  -3  -9  139.49    6.30
   2   3   9  113.39    6.00
   2   3   9  111.29    4.60
  -3  -3  -9   21.00    3.00
   3   3   9   21.60    2.50
   3   3   9   21.80    1.80
  -4  -3  -9   83.49    5.20
   4   3   9   71.09    3.80
   4   3   9   67.09    4.50
  -5  -3  -9   12.70    2.70
   5   3   9   16.50    2.20
   5   3   9   13.90    2.30
  -6  -3  -9   31.20    4.10
  -7  -3  -9   32.20    5.30
   7  -4  -9   13.40    2.60
   6  -4  -9   18.10    2.80
  -6   4   9   10.80    3.60
   5  -4  -9   41.70    3.40
  -5   4   9   33.00    3.40
   4  -4  -9   93.69    4.90
  -4   4   9   74.89    5.00
   3  -4  -9    4.90    1.40
   2  -4  -9  117.09    5.50
  -2   4   9  107.59    6.00
   1  -4  -9   85.49    4.70
  -1   4   9   94.09    5.30
   0  -4  -9  324.27   11.80
   0   4   9  294.77   12.20
  -1  -4  -9   34.80    3.20
   1   4   9   34.00    3.20
  -2  -4  -9   83.29    5.00
   2   4   9   65.79    4.50
  -3  -4  -9  103.89    6.20
   3   4   9  113.79    6.10
  -4  -4  -9   88.79    5.80
   4   4   9   82.79    5.10
  -5  -4  -9   70.09    5.50
   5   4   9   73.89    5.40
  -6  -4  -9   64.59    5.60
   7  -5  -9    9.80    2.40
   6  -5  -9   50.59    4.10
   5  -5  -9   47.30    3.90
  -5   5   9   56.79    4.50
   4  -5  -9   63.39    4.30
  -4   5   9   61.79    4.70
   3  -5  -9  180.58    8.20
  -3   5   9  197.08    9.00
   2  -5  -9  237.18    9.40
  -2   5   9  211.68    9.80
   1  -5  -9  226.28    9.30
  -1   5   9  226.28   10.00
   0   5   9   21.30    2.80
  -1  -5  -9  179.18    8.40
   1   5   9  195.08    8.80
  -2  -5  -9  140.59    7.20
   2   5   9  131.69    7.00
  -3  -5  -9  156.28    8.00
   3   5   9  157.88    7.80
  -4  -5  -9   86.59    6.00
   4   5   9   81.89    5.30
  -5  -5  -9   31.30    4.30
   6  -6  -9   20.70    3.20
   5  -6  -9   78.79    5.20
  -5   6   9   87.49    5.80
   4  -6  -9  120.29    6.30
  -4   6   9  113.49    6.80
   3  -6  -9  164.68    7.70
  -3   6   9  165.38    8.30
   2  -6  -9   83.99    5.00
  -2   6   9   80.89    5.50
   1  -6  -9   93.79    5.40
  -1   6   9  102.49    6.10
   0  -6  -9  182.48    8.30
   0   6   9  178.28    8.70
  -1  -6  -9  183.48    8.70
   1   6   9  190.08    9.00
  -2  -6  -9  213.98    9.80
   2   6   9  203.48    9.60
  -3  -6  -9   81.29    5.90
   3   6   9   85.29    5.60
  -4  -6  -9   28.20    4.10
   4   6   9   28.40    3.40
  -5  -6  -9   24.00    4.00
   5  -7  -9   42.00    4.00
  -5   7   9   34.90    4.10
   4  -7  -9   47.20    4.00
  -4   7   9   43.60    4.40
   3  -7  -9   47.90    4.00
  -3   7   9   45.80    4.50
   2  -7  -9  123.29    6.50
  -2   7   9  118.49    7.00
   1  -7  -9   93.79    5.60
  -1   7   9   93.99    6.10
   0  -7  -9  148.69    7.50
   0   7   9  141.69    7.80
  -1  -7  -9   96.99    6.10
   1   7   9   92.19    6.10
  -2  -7  -9   40.30    4.50
   2   7   9   46.00    4.30
  -3  -7  -9   30.70    4.30
   3   7   9   28.10    3.60
  -4  -7  -9   71.89    6.20
   4   7   9   75.39    5.60
  -5   8   9   19.80    3.50
   4  -8  -9   23.70    3.30
  -4   8   9   26.90    3.80
   3  -8  -9  101.19    6.10
  -3   8   9   98.49    6.70
   2  -8  -9   66.89    4.90
  -2   8   9   65.59    5.40
   1  -8  -9   57.19    4.60
  -1   8   9   53.89    4.90
   0  -8  -9   39.40    4.00
   0   8   9   30.70    3.90
  -1  -8  -9   35.50    4.20
   1   8   9   30.30    3.80
  -2  -8  -9   93.49    6.60
   2   8   9   95.59    6.50
  -3  -8  -9   52.29    7.20
   3   8   9   55.79    5.00
   4   8   9   62.79    5.40
  -3   9   9    8.20    2.80
   2  -9  -9   18.80    3.20
  -2   9   9   16.10    3.30
   1  -9  -9   26.80    3.60
  -1   9   9   23.30    3.90
   0  -9  -9   91.69    6.30
   0   9   9   83.89    6.40
   1   9   9   58.69    5.30
  -2 -14  10   12.20    2.90
  -1 -14  10   46.50    4.10
   0 -14  10   62.59    4.50
   1 -14  10   95.19    5.60
   2 -14  10   20.40    3.10
   3 -14  10    4.20    2.40
   4  13 -10   58.29    6.20
  -4 -13  10   64.49    5.10
   3  13 -10   50.79    5.30
  -3 -13  10   55.69    4.40
   2  13 -10   68.19    6.10
  -2 -13  10   80.89    5.20
   1  13 -10  104.69    7.30
  -1 -13  10  103.69    5.80
   0  13 -10   96.29    7.00
   0 -13  10   92.99    5.40
  -1  13 -10   32.40    4.30
   1 -13  10   32.40    3.30
  -2  13 -10   15.30    3.20
   2 -13  10   21.00    2.90
  -3  13 -10   60.39    5.60
   3 -13  10   55.79    4.30
  -4  13 -10   47.90    4.90
   4 -13  10   41.40    4.00
   5  12 -10   45.70    4.70
   4  12 -10   44.60    4.80
  -4 -12  10   50.19    4.30
   3  12 -10  103.79    7.10
  -3 -12  10  107.89    6.20
   2  12 -10  134.29    8.20
  -2 -12  10  133.89    6.90
   1  12 -10   72.49    5.80
  -1 -12  10   68.09    4.50
   0  12 -10   37.30    4.40
   0 -12  10   39.10    3.40
  -1  12 -10  112.19    7.40
   1 -12  10  115.69    5.90
  -2  12 -10  164.28    9.20
   2 -12  10  158.58    7.40
  -3  12 -10   84.19    6.20
   3 -12  10   73.99    5.00
  -4  12 -10   34.70    4.40
   4 -12  10   31.30    3.50
  -5  12 -10   46.00    7.50
   5 -12  10   45.70    4.30
   5  11 -10  114.09    7.10
  -5 -11  10  104.29    6.60
   4  11 -10   63.59    5.40
  -4 -11  10   66.39    4.80
   3  11 -10  123.59    7.40
  -3 -11  10  113.09    6.30
   2  11 -10   54.09    5.00
  -2 -11  10   56.19    4.00
   1  11 -10  222.38   10.80
  -1 -11  10  213.18    9.10
   0  11 -10  109.99    7.00
   0 -11  10  119.29    5.90
  -1  11 -10  217.58   10.60
   1 -11  10  207.38    8.80
  -2  11 -10   86.49    6.10
   2 -11  10   70.29    4.60
  -3  11 -10  101.49    6.70
   3 -11  10  102.29    5.70
  -4  11 -10   47.60    4.70
   4 -11  10   44.40    3.90
  -5  11 -10   22.60    3.60
   5 -11  10   24.10    3.40
   6  10 -10   47.60    4.60
   5  10 -10   69.39    5.40
  -5 -10  10   69.89    5.20
   4  10 -10   42.50    4.30
  -4 -10  10   41.90    3.80
   3  10 -10  203.38   10.00
  -3 -10  10  201.28    9.00
   2  10 -10  327.67   13.90
  -2 -10  10  321.17   12.50
   1  10 -10  280.97   12.50
  -1 -10  10  281.77   11.00
   0  10 -10  184.48    9.10
   0 -10  10  165.98    7.50
  -1  10 -10   80.79    5.70
   1 -10  10   79.39    4.50
  -2  10 -10  185.88    9.40
   2 -10  10  189.58    8.20
  -3  10 -10  209.48   10.30
   3 -10  10  231.48    9.40
  -4  10 -10   72.79    5.40
   4 -10  10   65.69    4.60
  -5  10 -10   53.89    4.80
   5 -10  10   58.29    4.50
   6 -10  10   21.50    3.30
   6   9 -10   20.80    3.30
   5   9 -10  105.89    6.60
  -5  -9  10  110.79    6.50
   4   9 -10  191.88    9.20
  -4  -9  10  175.28    8.40
   3   9 -10  184.08    9.10
  -3  -9  10  193.18    8.50
   2   9 -10   83.19    5.60
  -2  -9  10   75.79    4.50
   1   9 -10  174.28    8.70
  -1  -9  10  175.08    7.50
   0   9 -10   48.90    4.20
   0  -9  10   41.70    3.20
  -1   9 -10  409.16   16.40
   1  -9  10  431.46   15.10
  -2   9 -10  139.99    7.50
   2  -9  10  129.79    6.30
  -3   9 -10  122.89    7.10
   3  -9  10  126.89    6.30
  -4   9 -10   33.40    3.60
   4  -9  10   32.30    3.40
  -5   9 -10   31.20    3.60
   5  -9  10   34.00    3.50
   6  -9  10   27.70    3.70
   7   8 -10   91.29    6.50
   6   8 -10   55.29    4.80
   5   8 -10  160.18    8.20
  -5  -8  10  158.38    8.00
   4   8 -10   61.59    4.60
  -4  -8  10   60.19    4.30
   3   8 -10  112.29    6.60
  -3  -8  10  134.89    6.30
   2   8 -10   11.00    2.30
   1   8 -10  232.48   10.70
  -1  -8  10  263.27    9.80
   0   8 -10  416.26   16.20
   0  -8  10  416.46   14.80
  -1   8 -10   67.79    4.90
   1  -8  10   68.69    4.00
  -2   8 -10   -0.40    1.10
   2  -8  10    0.30    1.10
  -3   8 -10   54.19    4.50
   3  -8  10   74.99    4.30
  -4   8 -10   56.99    4.50
   4  -8  10   66.29    4.30
  -5   8 -10   51.09    4.20
   5  -8  10   57.99    4.40
   6  -8  10   11.00    2.50
   7  -8  10    8.40    2.90
   7   7 -10   35.20    4.10
   6   7 -10    5.30    2.00
   5   7 -10   22.70    3.00
  -5  -7  10   24.00    3.10
   4   7 -10   26.90    3.10
  -4  -7  10   31.40    3.10
   3   7 -10  124.69    7.00
  -3  -7  10  151.18    6.70
   2   7 -10  146.09    7.60
  -2  -7  10  164.48    7.00
   1   7 -10   90.19    5.60
  -1  -7  10  106.29    5.00
   0   7 -10   98.79    5.60
   0  -7  10   74.39    4.20
  -1   7 -10  223.58   10.30
   1  -7  10  262.07    9.50
  -2   7 -10   32.10    3.40
   2  -7  10   47.90    3.20
  -3   7 -10   59.29    4.50
  -3   7 -10   60.39    2.70
  -4   7 -10   46.90    3.90
  -4   7 -10   49.10    2.70
   4  -7  10   46.70    3.70
  -5   7 -10   46.00    3.00
  -5   7 -10   41.40    3.70
   5  -7  10   47.60    4.10
   6  -7  10    2.30    1.90
   7  -7  10    9.70    2.60
   7   6 -10   22.90    3.50
   6   6 -10   19.50    3.10
  -6  -6  10   22.50    3.30
   5   6 -10   99.79    6.00
  -5  -6  10  115.09    5.00
  -5  -6  10  116.69    6.20
   4   6 -10   85.99    5.40
  -4  -6  10  104.69    4.20
  -4  -6  10  100.69    5.40
   3   6 -10  101.49    6.10
  -3  -6  10  129.09    4.50
  -3  -6  10  140.19    6.20
   2   6 -10   99.59    5.40
  -2  -6  10   76.49    4.40
   1   6 -10   52.29    4.20
  -1  -6  10   78.59    3.90
   0   6 -10  167.78    8.40
   0  -6  10  215.38    7.80
  -1   6 -10  110.99    6.40
   1  -6  10  149.19    6.00
  -2   6 -10   99.39    3.50
  -2   6 -10   97.99    5.60
   2  -6  10   92.39    4.80
  -3   6 -10    6.00    1.00
  -3   6 -10    5.00    1.60
   3  -6  10    7.90    1.70
  -4   6 -10   25.60    2.00
  -4   6 -10   24.50    2.90
   4  -6  10   16.40    2.70
  -5   6 -10   21.00    2.30
  -5   6 -10   18.30    2.60
   5  -6  10   27.90    3.20
  -6   6 -10   20.50    2.50
   6  -6  10   19.90    3.10
  -7   6 -10   29.70    3.20
   7  -6  10   29.20    3.90
   8   5 -10   16.10    4.50
   7   5 -10   50.39    4.50
  -7  -5  10   50.79    3.80
   6   5 -10   44.60    4.10
   6   5 -10   47.80    5.70
  -6  -5  10   51.79    3.40
   5   5 -10   27.20    3.00
  -5  -5  10   35.60    2.50
  -5  -5  10   37.50    3.50
  -4  -5  10    7.50    1.80
  -4  -5  10    8.20    1.30
   3   5 -10   50.89    3.80
  -3  -5  10   46.20    2.20
  -3  -5  10   46.80    3.30
   2   5 -10  307.27   12.60
  -2  -5  10  333.37   11.80
   1   5 -10   96.49    5.80
  -1  -5  10  139.59    5.50
   0   5 -10  161.88    7.50
   0  -5  10  153.38    6.40
  -1   5 -10   41.40    3.50
   1  -5  10   47.70    3.00
  -2   5 -10  165.28    7.80
  -2   5 -10  166.58    5.70
   2  -5  10  160.58    6.90
  -3   5 -10   26.70    1.80
  -3   5 -10   25.90    2.80
  -4   5 -10   24.40    2.10
  -4   5 -10   25.40    2.80
   4  -5  10   27.10    2.90
  -5   5 -10   69.29    4.50
  -5   5 -10   70.89    4.00
   5  -5  10   77.09    4.70
  -6   5 -10   83.79    4.80
   6  -5  10   88.29    5.50
  -7   5 -10   10.90    2.20
   7  -5  10   12.10    2.60
  -8   5 -10   16.10    2.80
   8   4 -10    8.50    2.60
  -8  -4  10    9.00    2.20
   7   4 -10   19.90    3.20
  -7  -4  10   23.40    2.80
   6   4 -10   37.50    3.60
   6   4 -10   39.00    3.70
  -6  -4  10   35.40    2.90
   5   4 -10   29.50    3.00
  -5  -4  10   35.40    3.30
  -5  -4  10   36.50    2.50
   4   4 -10   79.29    4.90
  -4  -4  10   85.89    4.70
  -4  -4  10   85.29    3.70
   3   4 -10  150.18    7.30
  -3  -4  10  156.38    6.80
  -3  -4  10  158.68    5.60
   2   4 -10  329.87   10.30
   2   4 -10  327.77   10.40
   2   4 -10  322.47   12.50
  -2  -4  10  292.47   11.40
   1   4 -10  315.37   12.30
  -1  -4  10  306.07   11.10
   0   4 -10   59.19    4.00
   0  -4  10   48.90    3.00
  -1   4 -10  171.88    8.00
  -1   4 -10  177.98    6.00
   1  -4  10  180.78    7.10
   1  -4  10  182.88    5.90
  -2   4 -10  285.67   11.70
  -2   4 -10  300.37   10.00
   2  -4  10  305.97   10.90
  -3   4 -10  293.47   11.60
  -3   4 -10  292.87   10.10
   3  -4  10  283.77   10.80
  -4   4 -10  147.99    7.10
  -4   4 -10  152.78    6.20
   4  -4  10  151.68    6.80
  -5   4 -10   96.79    4.80
  -5   4 -10   91.09    5.20
   5  -4  10   91.09    5.20
  -6   4 -10   32.30    3.10
   6  -4  10   34.80    3.60
  -7   4 -10   64.39    4.60
   7  -4  10   67.69    5.00
  -8   4 -10   12.70    2.70
   8   3 -10   36.30    4.10
  -8  -3  10   33.20    3.60
   7   3 -10   24.40    3.30
  -7  -3  10   29.00    3.00
   6   3 -10   58.99    4.10
   6   3 -10   60.39    4.50
  -6  -3  10   69.29    3.90
   5   3 -10  217.28    9.40
  -5  -3  10  222.48    8.30
   4   3 -10  270.77   10.70
  -4  -3  10  245.38    9.90
  -4  -3  10  249.38    9.00
   3   3 -10  272.97   11.00
  -3  -3  10  264.27    9.10
  -3  -3  10  269.67   10.20
   2   3 -10  132.39    5.40
   2   3 -10  139.79    5.00
   2   3 -10  137.29    6.80
  -2  -3  10  144.59    5.90
   1   3 -10  427.06   13.70
   1   3 -10  435.26   16.00
   1   3 -10  430.46   13.70
  -1  -3  10  426.76   14.70
   0   3 -10  354.76   11.60
   0   3 -10  351.96   11.50
   0   3 -10  370.36   13.90
   0  -3  10  370.26   12.50
  -1   3 -10  818.42   27.50
  -1   3 -10  795.52   25.30
   1  -3  10  813.62   25.30
   1  -3  10  789.82   26.10
  -2   3 -10  207.88    8.90
  -2   3 -10  205.48    7.30
   2  -3  10  199.18    7.90
  -3   3 -10  360.36   12.50
  -3   3 -10  357.26   13.80
   3  -3  10  367.86   13.00
  -4   3 -10   45.30    2.90
  -4   3 -10   44.00    3.50
   4  -3  10   42.80    3.20
  -5   3 -10  163.58    7.60
  -5   3 -10  165.28    7.20
   5  -3  10  169.38    7.50
  -6   3 -10   91.49    5.30
   6  -3  10   95.79    5.50
  -7   3 -10   34.50    3.70
   7  -3  10   38.00    3.90
  -8   3 -10   39.30    4.10
   8   2 -10   22.00    3.60
  -8  -2  10   21.20    3.20
   7   2 -10   65.79    5.00
  -7  -2  10   73.99    4.50
   6   2 -10  104.69    5.60
   6   2 -10   99.19    5.80
  -6  -2  10   95.89    4.90
   5   2 -10  286.77   11.60
   5   2 -10  295.67   11.50
  -5  -2  10  272.37   10.30
   4   2 -10  171.38    7.90
  -4  -2  10  172.18    7.30
  -4  -2  10  170.08    6.50
   3   2 -10  209.68    9.20
   3   2 -10  212.28    7.60
  -3  -2  10  210.88    8.20
   2   2 -10  153.18    5.80
   2   2 -10  166.38    7.60
  -2  -2  10  161.08    6.40
   1   2 -10  990.00   31.50
   1   2 -10 1005.40   33.60
  -1  -2  10 1016.00   32.10
   0   2 -10 1014.20   31.30
   0  -2  10  975.60   31.70
  -1   2 -10  450.05   16.50
  -1   2 -10  448.86   14.60
   1  -2  10  434.66   15.00
  -2   2 -10   73.99    4.70
  -2   2 -10   76.59    3.50
   2  -2  10   68.89    3.70
  -3   2 -10  226.38    9.70
  -3   2 -10  226.28    8.60
   3  -2  10  239.38    8.90
  -4   2 -10  413.06   14.50
  -4   2 -10  405.46   15.30
   4  -2  10  406.26   14.60
  -5   2 -10  182.18    7.90
  -5   2 -10  182.48    8.20
   5  -2  10  185.38    8.00
  -6   2 -10   87.79    5.20
   6  -2  10   75.29    4.90
  -7   2 -10   35.60    3.80
   7  -2  10   38.20    3.80
  -8   2 -10   32.60    3.90
   8   1 -10   70.69    5.40
  -8  -1  10   65.89    4.70
   7   1 -10   64.39    4.80
  -7  -1  10   66.59    4.30
   6   1 -10   42.20    3.60
   6   1 -10   42.80    3.60
  -6  -1  10   44.20    3.20
   5   1 -10  121.89    6.50
   5   1 -10  119.99    6.10
  -5  -1  10  137.69    5.70
   4   1 -10  203.68    9.20
  -4  -1  10  217.98    8.50
   3   1 -10  357.96   13.10
   3   1 -10  400.06   14.90
  -3  -1  10  402.56   13.60
   2   1 -10  401.56   13.50
  -2  -1  10  406.66   13.80
   1   1 -10  861.21   27.00
  -1  -1  10  851.81   27.20
  -1  -1  10  828.12   28.10
   0   1 -10  101.79    4.20
   0  -1  10   96.39    4.20
  -1   1 -10  305.77   11.10
   1  -1  10  318.27   12.10
   1  -1  10  340.47   11.20
  -2   1 -10  510.55   16.80
   2  -1  10  485.85   16.70
  -3   1 -10  455.95   16.80
  -3   1 -10  451.05   15.70
   3  -1  10  462.35   15.70
  -4   1 -10  338.57   12.90
  -4   1 -10  322.87   12.00
   4  -1  10  312.07   11.90
  -5   1 -10   41.00    3.50
  -5   1 -10   40.40    3.50
   5  -1  10   46.70    3.50
  -6   1 -10  111.59    6.10
   6  -1  10  101.79    5.70
  -7   1 -10   30.00    3.80
   7  -1  10   32.80    3.60
  -8   1 -10   53.39    5.90
   8   0 -10   23.60    3.30
  -8   0  10   23.40    3.30
   7   0 -10   70.09    4.90
  -7   0  10   71.79    4.60
   6   0 -10   75.89    4.90
   6   0 -10   80.89    5.00
  -6   0  10   81.09    4.50
   5   0 -10  157.68    7.80
   5   0 -10  160.78    7.30
  -5   0  10  172.28    6.80
   4   0 -10  246.68    9.50
   4   0 -10  241.08    9.20
   3   0 -10  439.96   15.50
  -3   0  10  464.15   15.70
  -3   0  10  478.15   16.60
   2   0 -10  476.85   15.40
  -2   0  10  454.55   15.30
  -2   0  10  431.66   16.20
   1   0 -10  203.18    8.30
  -1   0  10  242.18    9.50
  -1   0  10  254.27    8.40
   0   0 -10  660.33   21.00
   0   0  10  631.84   20.60
   0   0  10  622.94   21.90
  -1   0 -10  683.43   23.20
   1   0  10  702.73   24.00
   1   0  10  732.73   22.80
  -2   0 -10  589.64   19.30
   2   0  10  557.04   18.70
   2   0  10  558.64   19.80
  -3   0 -10   80.79    4.20
   3   0  10   73.09    4.30
   3   0  10   69.29    3.80
  -4   0 -10  137.39    7.00
  -4   0 -10  140.89    6.60
   4   0  10  140.29    6.20
  -5   0 -10   76.59    5.00
  -5   0 -10   80.79    5.00
   5   0  10   88.59    4.80
  -6   0 -10   97.09    5.80
   6   0  10   95.09    5.40
  -7   0 -10   62.59    5.10
   7   0  10   58.79    4.50
   8  -1 -10   36.70    4.00
  -8   1  10   36.50    3.80
   7  -1 -10   74.59    5.00
  -7   1  10   77.99    4.90
   6  -1 -10  148.59    7.60
   6  -1 -10  143.59    7.00
  -6   1  10  149.09    6.70
   5  -1 -10   61.99    3.90
   5  -1 -10   65.69    4.00
  -5   1  10   71.99    4.40
   4  -1 -10  185.48    7.60
   4  -1 -10  182.78    7.60
  -4   1  10  192.08    8.30
   3  -1 -10   90.79    4.50
  -3   1  10  100.59    5.30
   2  -1 -10  427.16   15.00
  -2   1  10  441.76   14.60
  -2   1  10  448.96   16.00
   1  -1 -10  607.34   21.10
  -1   1  10  662.33   20.60
  -1   1  10  645.14   22.10
   0  -1 -10  467.35   15.90
   0   1  10  457.75   16.80
   0   1  10  471.05   15.20
  -1  -1 -10  143.79    6.10
   1   1  10  129.59    6.40
   1   1  10  130.99    5.20
  -2  -1 -10  390.26   14.00
   2   1  10  391.46   13.20
   2   1  10  384.76   14.40
  -3  -1 -10  155.68    7.10
   3   1  10  164.38    6.50
   3   1  10  162.18    7.30
  -4  -1 -10  199.48    8.60
   4   1  10  191.38    8.40
   4   1  10  195.88    7.80
  -5  -1 -10   94.09    5.60
  -5  -1 -10   89.79    5.60
   5   1  10  100.49    5.10
  -6  -1 -10  154.68    8.00
   6   1  10  151.88    7.20
  -7  -1 -10   36.00    4.30
   7   1  10   34.40    3.60
   8  -2 -10   33.10    3.70
  -8   2  10   28.80    3.80
   7  -2 -10   64.89    4.60
   6  -2 -10   58.19    4.00
   6  -2 -10   58.79    4.20
  -6   2  10   64.59    4.70
   5  -2 -10  100.49    5.00
   5  -2 -10   95.19    5.20
  -5   2  10   98.79    5.50
   4  -2 -10  145.99    6.60
   4  -2 -10  156.08    6.40
  -4   2  10  154.48    7.30
   3  -2 -10  330.97   11.80
   3  -2 -10  328.47   12.20
  -3   2  10  354.56   13.30
   2  -2 -10  505.15   18.20
  -2   2  10  553.54   17.60
  -2   2  10  562.54   19.40
   1  -2 -10  155.28    6.20
  -1   2  10  134.09    6.70
  -1   2  10  135.79    5.20
   0  -2 -10  253.07    9.60
   0   2  10  242.48   10.20
   0   2  10  250.77    8.40
  -1  -2 -10  393.36   14.40
   1   2  10  410.36   13.20
   1   2  10  395.36   14.90
  -2  -2 -10  328.87   12.60
   2   2  10  339.87   11.50
   2   2  10  344.67   13.10
  -3  -2 -10  160.58    7.40
   3   2  10  156.78    6.30
   3   2  10  161.18    7.50
  -4  -2 -10  182.58    8.50
   4   2  10  186.18    7.50
   4   2  10  189.38    8.40
  -5  -2 -10  106.89    6.30
   5   2  10  103.89    5.70
   5   2  10  104.89    5.30
  -6  -2 -10   49.60    4.70
   6   2  10   53.19    3.90
  -7  -2 -10   19.50    3.60
   7  -3 -10   40.80    3.90
   6  -3 -10  134.29    6.80
  -6   3  10  130.39    9.10
   5  -3 -10  244.98   10.10
  -5   3  10  254.97   10.70
   4  -3 -10  220.28    8.60
   4  -3 -10  211.58    8.90
  -4   3  10  224.08    9.70
   3  -3 -10  264.27    9.40
   3  -3 -10  258.47   10.10
  -3   3  10  251.57   10.80
   2  -3 -10   94.09    4.70
   2  -3 -10   94.89    4.80
  -2   3  10   91.99    5.40
   1  -3 -10  711.63   24.10
  -1   3  10  727.33   25.00
   0  -3 -10  400.86   14.80
   0   3  10  423.26   15.60
  -1  -3 -10  285.77   11.10
   1   3  10  282.77   11.60
  -2  -3 -10  201.58    8.90
   2   3  10  212.28    9.20
  -3  -3 -10  156.58    7.70
   3   3  10  165.38    7.70
  -4  -3 -10  114.19    6.60
   4   3  10  124.29    6.50
  -5  -3 -10   64.79    5.10
   5   3  10   62.89    5.60
  -6  -3 -10   69.19    5.60
   7  -4 -10   69.29    5.10
   6  -4 -10   88.79    5.50
   5  -4 -10  144.99    7.00
  -5   4  10  136.49    7.40
   4  -4 -10  135.69    6.60
  -4   4  10  134.09    7.10
   3  -4 -10   88.49    5.00
  -3   4  10  102.69    5.90
   2  -4 -10  401.56   15.00
  -2   4  10  431.06   16.10
   1  -4 -10  293.97   11.10
  -1   4  10  278.27   11.80
   0  -4 -10  327.07   12.50
   0   4  10  332.07   13.20
  -1  -4 -10   86.49    5.20
   1   4  10   84.89    5.30
  -2  -4 -10  183.98    8.60
   2   4  10  185.98    8.70
  -3  -4 -10   83.39    5.60
   3   4  10   88.79    5.40
  -4  -4 -10  164.08    8.70
   4   4  10  181.28    8.50
  -5  -4 -10   55.89    5.10
  -6  -4 -10   37.10    5.00
   6  -5 -10   68.69    4.90
   5  -5 -10   41.20    3.70
  -5   5  10   38.60    4.00
   4  -5 -10  202.98    9.10
  -4   5  10  217.48   10.00
   3  -5 -10  149.69    7.00
  -3   5  10  138.29    7.60
   2  -5 -10  234.98    9.70
  -2   5  10  232.78   10.50
   1  -5 -10   57.59    4.10
  -1   5  10   61.19    4.60
   0  -5 -10  115.89    6.20
   0   5  10  120.99    6.70
  -1  -5 -10   77.89    5.20
   1   5  10   80.49    5.30
  -2  -5 -10  110.59    6.60
   2   5  10  117.89    6.70
  -3  -5 -10  163.88    8.50
   3   5  10  158.78    8.20
  -4  -5 -10   43.60    4.70
   4   5  10   42.90    4.00
  -5  -5 -10   26.30    4.10
   5  -6 -10   47.60    4.20
  -5   6  10   48.00    4.50
   4  -6 -10  101.69    5.90
  -4   6  10  100.39    6.40
   3  -6 -10   79.59    5.00
  -3   6  10   75.89    5.60
   2  -6 -10   38.20    3.50
  -2   6  10   35.60    3.80
   1  -6 -10   77.59    5.00
  -1   6  10   82.49    5.60
   0  -6 -10   65.59    4.70
   0   6  10   68.49    5.10
  -1  -6 -10  204.38    9.50
   1   6  10  203.18    9.70
  -2  -6 -10  121.39    7.20
   2   6  10  117.59    7.00
  -3  -6 -10   34.40    4.40
   3   6  10   32.40    3.70
  -4  -6 -10   12.00    3.20
   4   6  10   15.30    2.90
  -5   7  10   17.20    3.10
   4  -7 -10   29.10    3.40
  -4   7  10   24.80    3.60
   3  -7 -10   39.30    3.80
  -3   7  10   38.70    4.20
   2  -7 -10   62.19    4.60
  -2   7  10   62.49    5.10
   1  -7 -10   94.59    5.80
  -1   7  10   94.99    6.30
   0  -7 -10  107.19    6.30
   0   7  10   94.99    6.40
  -1  -7 -10   38.60    4.30
   1   7  10   43.00    4.40
  -2  -7 -10   14.90    3.10
   2   7  10   16.70    3.00
  -3  -7 -10   43.70    5.10
   3   7  10   49.20    4.70
   4   7  10   89.49    6.30
  -4   8  10   39.90    4.50
   3  -8 -10   72.79    5.30
  -3   8  10   69.99    5.80
   2  -8 -10   86.69    5.70
  -2   8  10   84.79    6.30
   1  -8 -10   20.70    3.30
  -1   8  10   18.30    3.30
   0  -8 -10   58.59    5.00
   0   8  10   55.39    5.10
  -1  -8 -10   48.30    4.90
   1   8  10   46.20    4.70
   2   8  10  149.09    8.60
   3   8  10   51.39    5.30
  -2 -14  11   46.50    4.20
  -1 -14  11   50.79    4.30
   0 -14  11   93.19    5.70
   1 -14  11   42.40    3.90
   2 -14  11   17.40    2.90
   3 -14  11   18.60    3.10
   3  13 -11   36.10    4.60
  -3 -13  11   47.10    4.20
   2  13 -11   49.70    5.20
  -2 -13  11   54.79    4.40
   1  13 -11   94.69    7.20
  -1 -13  11  104.59    5.90
   0  13 -11   64.79    5.90
   0 -13  11   60.59    4.40
  -1  13 -11   35.30    4.70
   1 -13  11   41.70    3.70
  -2  13 -11   24.50    4.00
   2 -13  11   27.30    3.30
  -3  13 -11   64.39    5.80
   3 -13  11   65.79    4.70
  -4  13 -11   72.39    6.60
   4 -13  11   71.99    5.20
   5  12 -11   30.30    4.20
   4  12 -11   52.69    5.00
  -4 -12  11   45.00    4.30
   3  12 -11   70.29    5.90
  -3 -12  11   70.49    5.00
   2  12 -11  125.89    7.90
  -2 -12  11  119.49    6.60
   1  12 -11   20.90    3.70
  -1 -12  11   17.40    2.80
   0  12 -11   67.29    5.70
   0 -12  11   67.49    4.50
  -1  12 -11  103.69    7.20
   1 -12  11  106.29    5.80
  -2  12 -11  196.78   10.30
   2 -12  11  186.48    8.50
  -3  12 -11   61.69    5.60
   3 -12  11   60.09    4.50
  -4  12 -11   34.30    4.30
   4 -12  11   29.40    3.60
   5  11 -11   66.19    5.60
  -5 -11  11   67.19    5.30
   4  11 -11   43.90    4.60
  -4 -11  11   40.80    3.90
   3  11 -11   54.89    5.10
  -3 -11  11   53.79    4.30
   2  11 -11   86.39    6.20
  -2 -11  11   83.29    5.20
   1  11 -11  187.88    9.90
  -1 -11  11  200.28    8.60
   0  11 -11  123.39    7.50
   0 -11  11  127.09    6.30
  -1  11 -11  127.39    7.70
   1 -11  11  130.39    6.40
  -2  11 -11   76.59    5.90
   2 -11  11   74.19    4.70
  -3  11 -11   74.39    5.80
   3 -11  11   75.59    4.90
  -4  11 -11   68.69    5.60
   4 -11  11   68.29    4.90
  -5  11 -11   19.60    4.50
   5 -11  11   21.80    3.30
   5  10 -11   60.39    5.10
  -5 -10  11   60.59    4.90
   4  10 -11   73.29    5.50
  -4 -10  11   73.49    5.10
   3  10 -11  210.08   10.50
  -3 -10  11  219.58    9.60
   2  10 -11  264.97   12.10
  -2 -10  11  268.37   10.90
   1  10 -11  237.08   11.10
  -1 -10  11  231.08    9.70
   0  10 -11   78.99    5.70
   0 -10  11   84.49    4.80
  -1  10 -11   71.79    5.40
   1 -10  11   64.09    4.20
  -2  10 -11  254.17   11.80
   2 -10  11  268.27   10.70
  -3  10 -11  148.49    8.20
   3 -10  11  144.69    7.10
  -4  10 -11   85.99    6.10
   4 -10  11   83.69    5.30
  -5  10 -11   51.89    4.70
   5 -10  11   46.50    4.30
   6 -10  11   24.50    5.30
   6   9 -11   66.39    5.40
   5   9 -11  149.19    8.00
  -5  -9  11  140.79    7.70
   4   9 -11  194.08    9.50
  -4  -9  11  188.98    8.90
   3   9 -11  165.98    8.60
  -3  -9  11  159.68    7.60
   2   9 -11   81.99    5.70
  -2  -9  11   85.79    4.90
   1   9 -11   63.09    5.00
  -1  -9  11   62.29    4.00
   0   9 -11  312.37   13.30
   0  -9  11  314.77   11.90
  -1   9 -11  273.07   12.00
   1  -9  11  271.07   10.60
  -2   9 -11  151.88    8.10
   2  -9  11  150.48    7.00
  -3   9 -11  156.38    8.20
   3  -9  11  143.59    7.00
  -4   9 -11   45.20    4.20
   4  -9  11   45.30    3.90
  -5   9 -11   84.39    5.70
   5  -9  11   77.19    5.30
   6  -9  11   40.80    4.30
   6   8 -11  151.38    8.40
   5   8 -11  103.99    6.30
  -5  -8  11   95.69    6.00
   4   8 -11  244.88   11.10
  -4  -8  11  254.57   10.70
   3   8 -11   57.89    4.70
  -3  -8  11   68.09    4.40
   2   8 -11  319.07   13.40
  -2  -8  11  320.57   12.20
   1   8 -11  492.05   18.60
  -1  -8  11  475.15   17.10
   0   8 -11  394.26   15.80
   0  -8  11  402.76   14.40
  -1   8 -11  384.96   15.20
   1  -8  11  363.76   13.60
  -2   8 -11   37.90    3.90
   2  -8  11   44.20    3.30
  -3   8 -11  130.29    7.10
   3  -8  11  122.29    6.20
  -4   8 -11  182.38    9.00
   4  -8  11  196.08    8.60
  -5   8 -11  163.38    8.20
   5  -8  11  157.78    7.80
   6  -8  11   46.00    4.40
   7   7 -11   60.99    5.30
   6   7 -11   57.49    4.80
   5   7 -11  117.99    6.60
  -5  -7  11  105.49    6.30
   4   7 -11  230.08   10.50
  -4  -7  11  235.88   10.00
   3   7 -11  579.14   20.90
  -3  -7  11  549.25   19.90
   2   7 -11  299.57   12.60
  -2  -7  11  303.77   11.60
   1   7 -11  595.44   21.10
  -1  -7  11  545.15   19.50
   0   7 -11  446.16   17.00
   0  -7  11  438.56   15.60
  -1   7 -11  314.87   12.90
   1  -7  11  308.37   11.70
  -2   7 -11  361.76   14.60
   2  -7  11  372.36   13.50
  -3   7 -11  386.86   15.20
   3  -7  11  378.86   14.10
  -4   7 -11  341.67   13.60
   4  -7  11  315.17   12.60
  -5   7 -11  111.69    6.40
   5  -7  11  115.79    6.40
   6  -7  11   84.39    5.70
   7   6 -11   47.10    4.60
   6   6 -11  186.18    9.30
   5   6 -11  153.68    7.80
  -5  -6  11  153.78    7.70
   4   6 -11  355.96   14.10
  -4  -6  11  344.47   13.40
   3   6 -11  246.38   10.50
  -3  -6  11  234.58    9.70
   2   6 -11  770.22   26.40
  -2  -6  11  732.13   25.20
   1   6 -11  215.78    9.70
  -1  -6  11  220.58    8.70
   0   6 -11  490.35   18.50
   0  -6  11  503.35   17.20
  -1   6 -11  417.56   16.30
   1  -6  11  441.26   15.20
  -2   6 -11 1016.40   34.20
   2  -6  11  995.00   32.90
  -3   6 -11  177.28    6.30
  -3   6 -11  174.48    8.30
   3  -6  11  165.38    7.50
  -4   6 -11  266.47   11.20
  -4   6 -11  266.27    9.50
   4  -6  11  249.88   10.50
  -5   6 -11   66.89    4.20
  -5   6 -11   68.39    4.80
   5  -6  11   74.19    4.90
   6  -6  11  153.48    7.70
   7  -6  11   79.39    5.70
   7   5 -11  111.09    7.00
   6   5 -11  244.58   11.10
   5   5 -11  126.19    6.60
  -5  -5  11  118.69    6.50
  -5  -5  11  120.59    5.20
   4   5 -11  411.66   15.60
  -4  -5  11  402.86   15.00
  -4  -5  11  393.86   13.30
   3   5 -11  361.26   14.10
  -3  -5  11  347.57   13.10
   2   5 -11  902.21   30.90
  -2  -5  11  901.21   29.70
   1   5 -11  316.07   12.50
  -1  -5  11  295.97   11.20
   0   5 -11 1077.89   36.00
   0  -5  11 1061.09   34.50
  -1   5 -11  427.36   16.00
   1  -5  11  407.26   14.60
  -2   5 -11  685.43   21.40
  -2   5 -11  678.23   24.00
   2  -5  11  670.73   22.80
  -3   5 -11  195.48    9.10
  -3   5 -11  199.68    7.30
   3  -5  11  214.68    8.50
  -4   5 -11  289.07   12.10
  -4   5 -11  297.97   10.70
   4  -5  11  305.87   11.70
  -5   5 -11  120.69    5.60
  -5   5 -11  115.89    6.40
   5  -5  11  129.29    6.50
  -6   5 -11  214.98    9.00
   6  -5  11  215.08    9.60
  -7   5 -11   22.90    3.50
   7  -5  11   26.70    3.60
   8   4 -11   76.89    8.90
   7   4 -11   53.59    4.70
  -7  -4  11   51.19    3.80
   6   4 -11  131.19    7.20
   6   4 -11  131.29    7.40
  -6  -4  11  126.89    5.80
   5   4 -11  108.69    6.00
  -5  -4  11   99.09    4.60
  -5  -4  11   99.79    5.70
   4   4 -11  265.37   11.20
  -4  -4  11  266.17   10.60
  -4  -4  11  262.27    9.20
   3   4 -11  268.67   11.00
  -3  -4  11  245.18    9.90
   2   4 -11  810.22   25.70
   2   4 -11  845.72   28.40
  -2  -4  11  804.12   27.00
   1   4 -11  274.97   11.20
  -1  -4  11  254.07    9.80
   0   4 -11  477.55   17.70
   0  -4  11  469.15   16.20
  -1   4 -11   88.19    5.40
  -1   4 -11   93.49    3.40
   1  -4  11   88.29    4.40
  -2   4 -11  670.13   23.90
  -2   4 -11  681.33   21.70
   2  -4  11  687.83   22.70
  -3   4 -11  246.48    8.80
  -3   4 -11  245.68   10.40
   3  -4  11  235.08    9.40
  -4   4 -11  273.17   10.00
  -4   4 -11  270.17   11.30
   4  -4  11  273.07   10.70
  -5   4 -11   80.09    5.00
  -5   4 -11   80.89    4.40
   5  -4  11   78.89    4.90
  -6   4 -11   66.99    4.40
   6  -4  11   67.99    4.80
  -7   4 -11   67.09    4.80
   7  -4  11   76.29    5.40
  -8   4 -11   24.10    3.60
   8   3 -11   49.80    4.80
  -8  -3  11   49.90    4.10
   7   3 -11   38.50    4.00
  -7  -3  11   39.70    3.40
   6   3 -11  129.49    7.10
   6   3 -11  134.29    7.00
  -6  -3  11  137.79    6.00
   5   3 -11  245.38   10.50
  -5  -3  11  241.88    9.00
   4   3 -11  377.66   14.70
  -4  -3  11  370.76   12.70
  -4  -3  11  375.76   13.80
   3   3 -11  158.78    7.90
   3   3 -11  171.58    6.20
  -3  -3  11  164.78    7.10
   2   3 -11   94.09    5.60
   2   3 -11   97.09    3.80
  -2  -3  11  100.09    4.70
   1   3 -11  416.56   13.20
   1   3 -11  397.36   13.10
   1   3 -11  399.16   15.60
  -1  -3  11  422.06   14.20
   0   3 -11  193.48    8.80
   0   3 -11  191.08    6.50
   0   3 -11  194.88    6.70
   0  -3  11  192.78    7.50
  -1   3 -11  605.24   21.60
  -1   3 -11  600.04   19.30
   1  -3  11  599.54   20.10
  -2   3 -11  198.68    8.90
  -2   3 -11  202.78    7.20
   2  -3  11  182.88    7.60
  -3   3 -11  138.79    5.80
  -3   3 -11  136.29    7.10
   3  -3  11  156.98    6.50
  -4   3 -11   49.80    4.00
  -4   3 -11   48.30    3.20
   4  -3  11   53.19    3.60
  -5   3 -11  116.99    5.70
  -5   3 -11  111.79    6.20
   5  -3  11  119.79    6.00
  -6   3 -11   71.69    4.70
   6  -3  11   80.39    5.00
  -7   3 -11   51.79    4.20
   7  -3  11   54.59    4.50
  -8   3 -11   27.20    3.70
   8   2 -11   45.30    4.60
  -8  -2  11   43.10    3.90
   7   2 -11   84.69    5.80
  -7  -2  11   93.59    5.10
   6   2 -11  118.89    6.40
   6   2 -11  112.39    6.30
  -6  -2  11  111.79    5.40
   5   2 -11  157.88    7.70
   5   2 -11  154.98    7.40
  -5  -2  11  151.98    6.30
   4   2 -11   57.79    4.30
  -4  -2  11   54.79    3.60
   3   2 -11  188.28    7.00
   3   2 -11  180.98    8.70
  -3  -2  11  192.48    7.60
   2   2 -11  158.48    7.80
   2   2 -11  167.88    6.00
  -2  -2  11  146.29    6.40
   1   2 -11  580.04   18.70
   1   2 -11  570.94   20.90
  -1  -2  11  582.04   19.20
   0   2 -11  726.73   22.70
   0   2 -11  692.43   24.80
   0  -2  11  702.13   23.10
  -1   2 -11  181.98    8.40
  -1   2 -11  191.58    6.80
   1  -2  11  165.28    6.90
  -2   2 -11   52.49    2.90
  -2   2 -11   48.40    4.00
  -3   2 -11  262.17    9.70
  -3   2 -11  262.37   11.00
   3  -2  11  263.47   10.00
  -4   2 -11  294.47   11.20
  -4   2 -11  294.07   12.20
   4  -2  11  310.47   11.40
  -5   2 -11  202.18    8.50
  -5   2 -11  195.58    8.90
   5  -2  11  194.78    8.50
  -6   2 -11   25.20    3.10
   6  -2  11   28.00    3.20
  -7   2 -11   56.49    4.50
   7  -2  11   50.59    4.40
  -8   2 -11   28.20    5.80
   8   1 -11   51.89    4.80
  -8  -1  11   52.49    4.30
   7   1 -11   45.30    4.10
  -7  -1  11   40.80    3.60
   6   1 -11   23.10    3.00
   6   1 -11   23.10    2.90
  -6  -1  11   27.40    2.70
   5   1 -11   73.59    5.00
   5   1 -11   72.89    4.50
  -5  -1  11   74.99    3.90
   4   1 -11  285.37   12.00
   4   1 -11  278.17   10.40
  -4  -1  11  287.47   10.80
   3   1 -11  255.97   10.80
   3   1 -11  249.08    9.00
  -3  -1  11  238.88    9.30
   2   1 -11  345.87   12.10
  -2  -1  11  363.06   12.50
   1   1 -11  339.37   11.20
  -1  -1  11  317.37   12.40
  -1  -1  11  313.87   11.30
   0   1 -11   82.39    4.10
   0  -1  11   99.19    4.20
  -1   1 -11  132.39    5.50
   1  -1  11  131.69    5.50
  -2   1 -11  604.44   20.30
  -2   1 -11  598.14   21.90
   2  -1  11  626.24   20.30
  -3   1 -11  385.56   14.90
  -3   1 -11  387.06   13.70
   3  -1  11  379.26   13.60
  -4   1 -11  111.39    6.30
  -4   1 -11  111.29    5.50
   4  -1  11  112.79    5.40
  -5   1 -11   99.99    5.50
  -5   1 -11  102.19    5.90
   5  -1  11   90.79    5.20
  -6   1 -11   57.39    4.50
   6  -1  11   63.49    4.40
  -7   1 -11   86.39    5.80
   7  -1  11   77.89    5.30
   8   0 -11   29.70    3.70
  -8   0  11   27.80    3.40
   7   0 -11   65.49    4.80
  -7   0  11   66.89    4.40
   6   0 -11  185.88    8.60
   6   0 -11  187.28    9.00
  -6   0  11  191.28    7.90
   5   0 -11  121.59    5.70
   5   0 -11  116.49    5.90
   5   0 -11  118.49    6.70
   4   0 -11  333.87   12.10
   3   0 -11  286.87   10.20
  -3   0  11  266.87   10.10
  -3   0  11  279.37   11.20
   2   0 -11  339.77   12.20
  -2   0  11  351.76   13.40
  -2   0  11  363.06   12.30
   1   0 -11  133.69    5.50
  -1   0  11  135.99    5.30
  -1   0  11  118.99    6.20
   0   0 -11 1066.19   34.90
   0   0  11 1086.19   34.60
   0   0  11 1125.09   36.20
  -1   0 -11 1074.19   33.80
   1   0  11 1032.10   33.20
   1   0  11 1032.10   34.70
  -2   0 -11  204.78    8.50
   2   0  11  219.78    9.20
   2   0  11  221.78    8.10
  -3   0 -11  295.57   11.10
   3   0  11  292.77   11.60
   3   0  11  287.17   10.60
  -4   0 -11  159.38    7.40
  -4   0 -11  158.58    8.00
   4   0  11  171.78    7.10
  -5   0 -11  170.98    8.00
  -5   0 -11  168.38    8.80
   5   0  11  162.38    7.40
  -6   0 -11  123.69    6.90
   6   0  11  128.69    6.50
  -7   0 -11   95.79    6.40
   7   0  11   92.49    5.80
   8  -1 -11   76.09    5.50
  -8   1  11   80.59    5.50
   7  -1 -11   60.69    4.50
   6  -1 -11  158.58    8.30
   6  -1 -11  159.08    7.40
   6  -1 -11  158.78    7.50
   5  -1 -11   72.89    4.30
   5  -1 -11   76.29    4.40
   4  -1 -11  198.58    8.10
   4  -1 -11  201.58    8.20
  -4   1  11  206.28    9.00
   3  -1 -11  324.27   11.60
  -3   1  11  324.07   12.60
  -3   1  11  308.17   11.30
   2  -1 -11  667.63   23.10
  -2   1  11  722.73   22.80
  -2   1  11  716.13   24.40
   1  -1 -11  683.93   22.90
  -1   1  11  686.03   24.00
  -1   1  11  702.83   22.30
   0  -1 -11  382.36   13.70
   0   1  11  391.26   14.60
   0   1  11  389.06   12.90
  -1  -1 -11  248.68    9.50
   1   1  11  234.08    8.50
   1   1  11  235.48   10.00
  -2  -1 -11  653.43   22.40
   2   1  11  654.53   21.50
   2   1  11  662.63   23.00
  -3  -1 -11  275.97   11.00
   3   1  11  278.97   11.30
   3   1  11  279.67   10.10
  -4  -1 -11  242.78   10.30
   4   1  11  248.08    9.50
   4   1  11  250.17   10.40
  -5  -1 -11  175.98    8.40
   5   1  11  173.88    7.60
  -6  -1 -11  123.49    7.10
   6   1  11  116.19    6.20
  -7  -1 -11   42.20    4.70
   7   1  11   44.60    4.00
   7  -2 -11   39.50    3.80
   6  -2 -11  161.68    7.50
   6  -2 -11  147.69    7.20
   5  -2 -11  143.39    6.70
   5  -2 -11  145.99    6.50
  -5   2  11  139.49    7.30
   4  -2 -11  379.56   13.70
   4  -2 -11  374.06   14.00
  -4   2  11  407.66   15.10
   3  -2 -11  259.17    9.50
   3  -2 -11  256.67   10.00
  -3   2  11  265.27   11.00
   2  -2 -11  628.04   21.80
  -2   2  11  675.63   23.10
  -2   2  11  647.44   21.00
   1  -2 -11  164.38    6.80
  -1   2  11  153.38    7.50
  -1   2  11  155.48    5.80
   0  -2 -11  578.44   20.30
   0   2  11  596.74   21.30
   0   2  11  610.44   19.10
  -1  -2 -11  440.46   16.30
   1   2  11  461.75   15.00
   1   2  11  472.15   17.20
  -2  -2 -11  380.46   14.40
   2   2  11  389.96   14.90
   2   2  11  395.96   13.20
  -3  -2 -11  180.58    8.30
   3   2  11  176.48    7.00
   3   2  11  186.68    8.40
  -4  -2 -11  221.78   10.00
   4   2  11  229.38   10.00
   4   2  11  236.18    9.40
  -5  -2 -11   83.79    5.70
  -6  -2 -11   60.89    5.30
   7  -3 -11   35.00    3.70
   6  -3 -11  100.19    5.80
   5  -3 -11  154.58    7.40
  -5   3  11  159.18    8.00
   4  -3 -11  153.78    7.10
  -4   3  11  157.78    7.90
   3  -3 -11  147.99    6.70
  -3   3  11  146.39    7.50
   2  -3 -11  146.29    6.70
  -2   3  11  157.28    7.70
   1  -3 -11  443.76   16.10
  -1   3  11  463.75   17.20
   0  -3 -11  317.97   12.20
   0   3  11  320.77   12.90
  -1  -3 -11  259.17   10.40
   1   3  11  247.58   10.80
  -2  -3 -11  163.08    7.80
   2   3  11  163.28    8.00
  -3  -3 -11  148.29    7.60
   3   3  11  155.28    7.70
  -4  -3 -11   98.99    6.20
   4   3  11  101.59    6.00
  -5  -3 -11   74.09    5.70
  -6  -3 -11   58.69    5.40
   6  -4 -11   50.29    4.20
   5  -4 -11   82.79    5.20
  -5   4  11   87.49    5.80
   4  -4 -11   45.60    3.70
  -4   4  11   46.90    4.20
   3  -4 -11   98.79    5.40
  -3   4  11  102.99    6.20
   2  -4 -11  103.59    5.60
  -2   4  11  111.89    6.40
   1  -4 -11  234.78    9.60
  -1   4  11  230.78   10.40
   0  -4 -11   98.39    5.40
   0   4  11   87.09    5.60
  -1  -4 -11   67.59    4.70
   1   4  11   69.29    4.90
  -2  -4 -11   69.59    5.00
   2   4  11   70.09    5.00
  -3  -4 -11   75.39    5.50
   3   4  11   80.89    5.40
  -4  -4 -11   99.19    6.60
   4   4  11  109.29    6.40
  -5  -4 -11   71.19    5.90
   6  -5 -11    8.60    2.20
   5  -5 -11   36.70    3.70
  -5   5  11   42.70    4.30
   4  -5 -11   71.39    4.80
  -4   5  11   75.79    5.40
   3  -5 -11   96.69    5.50
  -3   5  11   87.19    6.00
   2  -5 -11  105.09    5.70
  -2   5  11   96.09    6.20
   1  -5 -11   30.80    3.10
  -1   5  11   27.80    3.40
   0  -5 -11   45.30    4.00
   0   5  11   50.69    4.30
  -1  -5 -11   56.59    4.60
   1   5  11   56.89    4.60
  -2  -5 -11  129.19    7.20
   2   5  11  122.49    7.10
  -3  -5 -11  111.69    7.00
   3   5  11  104.49    6.50
  -4  -5 -11   53.39    5.20
   4   5  11   50.29    4.50
   5  -6 -11   25.80    3.40
  -5   6  11   19.60    3.50
   4  -6 -11   43.90    3.90
  -4   6  11   39.20    4.30
   3  -6 -11   36.50    3.60
  -3   6  11   30.40    3.80
   2  -6 -11   33.80    3.50
  -2   6  11   31.90    3.90
   1  -6 -11   14.40    2.60
  -1   6  11   18.50    3.10
   0  -6 -11  117.89    6.60
   0   6  11  118.79    7.10
  -1  -6 -11  113.69    6.70
   1   6  11  103.69    6.80
  -2  -6 -11   80.09    5.90
   2   6  11   79.59    5.80
  -3  -6 -11   14.10    3.30
   3   6  11   10.40    2.50
   4   6  11   16.70    3.10
  -5   7  11   14.60    3.10
   4  -7 -11   37.70    5.00
  -4   7  11   29.10    4.00
   3  -7 -11   39.70    4.00
  -3   7  11   38.40    4.40
   2  -7 -11   57.19    4.60
  -2   7  11   62.39    5.30
   1  -7 -11  123.69    6.90
  -1   7  11  114.29    7.40
   0  -7 -11   54.59    4.70
   0   7  11   40.80    4.50
  -1  -7 -11   42.10    4.60
   1   7  11   43.70    4.50
  -2  -7 -11    6.80    2.60
   2   7  11   11.60    2.80
   3   7  11   84.59    6.20
   4   7  11   58.79    6.80
  -2 -14  12   80.99    7.20
  -1 -14  12   29.00    3.70
   0 -14  12  164.18    8.20
   1 -14  12  119.69    6.70
   2 -14  12   33.50    4.00
  -3 -13  12   67.59    5.20
   2  13 -12   95.49    7.20
  -2 -13  12   88.69    5.80
   1  13 -12  156.98    9.30
  -1 -13  12  141.89    7.50
   0  13 -12   91.09    7.10
   0 -13  12   84.79    5.50
  -1  13 -12   43.90    5.20
   1 -13  12   42.80    3.90
  -2  13 -12   72.89    6.40
   2 -13  12   65.79    4.80
  -3  13 -12   85.89    7.30
   3 -13  12   81.39    5.40
   5  12 -12   44.70    4.90
   4  12 -12   77.89    6.30
  -4 -12  12   72.09    5.50
   3  12 -12   58.49    5.50
  -3 -12  12   49.70    4.40
   2  12 -12  112.59    7.60
  -2 -12  12  107.69    6.30
   1  12 -12   22.60    3.90
  -1 -12  12   20.00    3.00
   0  12 -12   87.39    6.70
   0 -12  12   91.69    5.40
  -1  12 -12   90.89    6.80
   1 -12  12   94.89    5.50
  -2  12 -12  155.48    9.10
   2 -12  12  144.49    7.30
  -3  12 -12   43.80    4.90
   3 -12  12   34.50    3.70
  -4  12 -12   27.80    4.20
   4 -12  12   26.20    3.60
   5  11 -12   29.30    4.10
  -5 -11  12   35.70    4.40
   4  11 -12   44.50    4.80
  -4 -11  12   45.50    4.30
   3  11 -12   32.90    4.20
  -3 -11  12   30.90    3.60
   2  11 -12  120.39    7.80
  -2 -11  12  126.59    6.60
   1  11 -12  118.29    7.60
  -1 -11  12  127.59    6.50
   0  11 -12  123.59    7.70
   0 -11  12  123.89    6.40
  -1  11 -12   20.20    3.60
   1 -11  12   27.10    3.00
  -2  11 -12   64.69    5.60
   2 -11  12   69.29    4.60
  -3  11 -12   36.40    4.40
   3 -11  12   41.40    3.80
  -4  11 -12   50.99    5.00
   4 -11  12   49.00    4.30
   5 -11  12   26.30    4.20
   5  10 -12   22.00    3.60
  -5 -10  12   25.70    3.60
   4  10 -12  114.29    7.30
  -4 -10  12  112.39    6.60
   3  10 -12  100.29    6.70
  -3 -10  12   99.59    5.90
   2  10 -12  205.28   10.30
  -2 -10  12  198.48    8.90
   1  10 -12   79.59    5.90
  -1 -10  12   73.99    4.80
   0  10 -12   74.39    5.70
   0 -10  12   92.39    5.10
  -1  10 -12   80.29    5.80
   1 -10  12   73.49    4.60
  -2  10 -12  171.08    9.30
   2 -10  12  180.38    8.10
  -3  10 -12  137.69    8.00
   3 -10  12  131.89    6.90
  -4  10 -12   59.59    5.10
   4 -10  12   60.69    4.60
  -5  10 -12   42.30    5.70
   5 -10  12   31.90    3.90
   5   9 -12  161.18    8.70
  -5  -9  12  156.78    8.30
   4   9 -12  118.59    7.20
  -4  -9  12  116.79    6.60
   3   9 -12  113.99    7.00
  -3  -9  12  106.19    6.10
   2   9 -12   36.50    4.00
  -2  -9  12   47.60    3.60
   1   9 -12  153.38    8.30
  -1  -9  12  146.29    7.00
   0   9 -12  273.17   12.30
   0  -9  12  274.77   10.80
  -1   9 -12  280.57   12.40
   1  -9  12  273.07   10.90
  -2   9 -12  105.19    6.70
   2  -9  12  107.79    5.70
  -3   9 -12  105.09    6.60
   3  -9  12   92.79    5.50
  -4   9 -12   71.49    5.50
   4  -9  12   72.99    5.00
  -5   9 -12   81.59    5.90
   5  -9  12   89.39    5.70
   6  -9  12   74.19    7.80
   5   8 -12   97.49    6.30
  -5  -8  12   91.99    6.00
   4   8 -12  107.99    6.60
  -4  -8  12   99.09    5.90
   3   8 -12  207.48   10.10
  -3  -8  12  201.58    9.00
   2   8 -12  298.07   12.70
  -2  -8  12  281.77   11.40
   1   8 -12  548.95   21.00
  -1  -8  12  569.04   19.60
   0   8 -12  418.26   16.40
   0  -8  12  395.16   14.70
  -1   8 -12  309.87   13.10
   1  -8  12  297.37   11.60
  -2   8 -12  144.19    7.90
   2  -8  12  139.29    6.70
  -3   8 -12  209.58   10.10
   3  -8  12  208.48    9.00
  -4   8 -12  247.28   11.10
   4  -8  12  233.08   10.20
  -5   8 -12  184.58    9.20
   5  -8  12  179.08    8.60
   6  -8  12   39.00    4.10
   5   7 -12  179.08    9.00
  -5  -7  12  174.28    8.60
   4   7 -12  281.57   12.10
  -4  -7  12  261.37   11.20
   3   7 -12  455.15   17.60
  -3  -7  12  448.26   16.60
   2   7 -12  351.06   14.10
  -2  -7  12  330.77   12.90
   1   7 -12  361.86   14.60
  -1  -7  12  357.06   13.30
   0   7 -12  448.66   17.20
   0  -7  12  434.96   15.70
  -1   7 -12  395.66   16.10
   1  -7  12  425.46   14.90
  -2   7 -12  327.17   13.50
   2  -7  12  313.07   12.10
  -3   7 -12  440.06   17.10
   3  -7  12  439.76   16.10
  -4   7 -12  249.97   11.00
   4  -7  12  230.18   10.00
  -5   7 -12   88.99    5.80
   5  -7  12   90.79    5.60
   6  -7  12   60.89    5.00
   7   6 -12   81.59    6.10
   6   6 -12  165.38    8.70
   5   6 -12  202.48    9.60
  -5  -6  12  198.78    9.30
   4   6 -12  169.98    8.50
  -4  -6  12  170.48    8.00
   3   6 -12  323.27   13.40
  -3  -6  12  319.07   12.40
   2   6 -12  428.16   16.60
  -2  -6  12  422.16   15.40
   1   6 -12  345.47   14.20
  -1  -6  12  353.46   12.90
   0   6 -12  266.47   11.80
   0  -6  12  280.47   10.50
  -1   6 -12  528.25   20.10
   1  -6  12  552.04   18.80
  -2   6 -12  425.76   16.40
   2  -6  12  415.06   15.10
  -3   6 -12  245.58   10.60
   3  -6  12  223.88    9.50
  -4   6 -12   50.39    4.40
   4  -6  12   60.79    4.20
  -5   6 -12  132.69    7.30
   5  -6  12  136.89    7.00
   6  -6  12   52.69    4.60
   7   5 -12  101.39    6.70
   6   5 -12  105.29    6.50
   5   5 -12  106.39    6.30
  -5  -5  12  108.39    6.10
   4   5 -12  156.18    8.00
  -4  -5  12  154.98    7.40
   3   5 -12  328.87   13.40
  -3  -5  12  317.87   12.30
   2   5 -12  340.17   14.10
  -2  -5  12  363.36   13.10
   1   5 -12  406.76   15.80
  -1  -5  12  389.86   14.20
   0   5 -12  229.88   10.30
   0  -5  12  228.78    8.90
  -1   5 -12  411.76   15.90
   1  -5  12  396.36   14.40
  -2   5 -12   98.99    6.10
   2  -5  12  111.09    5.30
  -3   5 -12  239.68   10.70
  -3   5 -12  237.08    8.80
   3  -5  12  239.08    9.60
  -4   5 -12   97.29    4.90
  -4   5 -12   98.39    5.90
   4  -5  12   94.09    5.30
  -5   5 -12  124.69    6.80
   5  -5  12  119.09    6.50
   6  -5  12   67.49    5.00
   7  -5  12   34.90    5.30
   7   4 -12   41.70    4.20
   6   4 -12  101.79    6.30
   6   4 -12  103.09    6.90
   5   4 -12  123.49    6.90
  -5  -4  12  123.59    6.60
  -5  -4  12  123.29    5.50
   4   4 -12  150.88    7.90
  -4  -4  12  166.28    7.40
   3   4 -12  218.68    9.80
   3   4 -12  211.88    7.40
  -3  -4  12  204.88    8.70
   2   4 -12  293.67    9.80
   2   4 -12  296.47   12.50
  -2  -4  12  307.97   11.30
   1   4 -12  220.58    9.80
  -1  -4  12  198.98    8.20
   0   4 -12   99.09    6.00
   0  -4  12  108.09    4.90
  -1   4 -12  130.29    7.00
  -1   4 -12  129.19    4.60
   1  -4  12  124.79    5.70
  -2   4 -12  304.77   13.00
  -2   4 -12  310.27   10.70
   2  -4  12  339.27   11.90
  -3   4 -12  237.18   10.40
  -3   4 -12  245.58    8.60
   3  -4  12  217.48    9.20
  -4   4 -12   72.49    3.90
  -4   4 -12   75.79    5.10
   4  -4  12   75.79    4.70
  -5   4 -12   55.29    4.40
  -5   4 -12   55.19    3.70
   5  -4  12   54.39    4.20
  -6   4 -12   33.70    3.30
   6  -4  12   39.30    3.80
   7  -4  12   30.40    3.80
   7   3 -12   31.70    3.80
  -7  -3  12   34.30    3.70
   6   3 -12   95.89    6.10
   6   3 -12   99.39    6.10
  -6  -3  12  105.09    5.00
   5   3 -12  239.88   10.50
  -5  -3  12  233.18    8.70
  -5  -3  12  229.18   10.00
   4   3 -12  119.29    6.80
   4   3 -12  125.59    5.20
  -4  -3  12  131.99    6.30
   3   3 -12  135.79    7.20
   3   3 -12  136.89    5.20
  -3  -3  12  120.99    6.00
   2   3 -12  104.79    6.30
   2   3 -12  101.79    4.30
  -2  -3  12  132.49    5.50
   1   3 -12  246.18    8.30
   1   3 -12  239.78   10.70
  -1  -3  12  241.08    9.20
   0   3 -12  394.66   15.60
   0   3 -12  395.26   13.10
   0  -3  12  410.26   14.00
  -1   3 -12  282.57    9.50
  -1   3 -12  282.37   11.90
   1  -3  12  271.47   10.30
  -2   3 -12  169.38    6.40
  -2   3 -12  172.28    8.30
   2  -3  12  159.78    6.90
  -3   3 -12   32.30    3.50
  -3   3 -12   33.90    2.50
   3  -3  12   43.50    3.20
  -4   3 -12  101.99    6.20
  -4   3 -12  105.59    5.10
   4  -3  12  107.59    5.50
  -5   3 -12   64.39    4.70
  -5   3 -12   66.29    4.20
   5  -3  12   62.19    4.30
  -6   3 -12   73.39    4.80
   6  -3  12   71.99    5.00
  -7   3 -12   24.00    3.40
   7  -3  12   28.40    3.70
   8   2 -12   44.10    4.70
  -8  -2  12   49.10    4.50
   7   2 -12   67.19    5.20
  -7  -2  12   72.19    4.50
   6   2 -12   53.39    4.20
   6   2 -12   51.59    4.30
  -6  -2  12   46.20    3.30
   5   2 -12   53.19    4.40
   4   2 -12  120.69    6.80
   4   2 -12  118.49    5.20
  -4  -2  12  122.99    5.90
   3   2 -12   96.89    4.30
   3   2 -12   97.39    6.00
  -3  -2  12  102.79    5.00
   2   2 -12  309.17   10.50
   2   2 -12  309.07   12.80
  -2  -2  12  293.07   11.10
   1   2 -12  446.26   17.20
   1   2 -12  458.05   14.90
  -1  -2  12  442.56   15.40
   0   2 -12  376.86   15.00
   0   2 -12  387.66   12.80
   0  -2  12  365.96   13.10
  -1   2 -12  122.49    7.00
  -1   2 -12  129.09    5.30
   1  -2  12  142.19    5.70
  -2   2 -12   23.30    2.10
  -2   2 -12   20.00    3.00
   2  -2  12   23.20    2.30
  -3   2 -12  292.87   10.70
  -3   2 -12  281.47   12.20
   3  -2  12  298.87   11.00
  -4   2 -12  198.28    9.40
  -4   2 -12  201.78    8.30
   4  -2  12  205.38    8.50
  -5   2 -12   92.59    5.20
  -5   2 -12   90.99    6.10
   5  -2  12   99.09    5.40
  -6   2 -12   44.90    3.90
   6  -2  12   37.50    3.70
  -7   2 -12   19.30    3.00
   7  -2  12   22.80    3.40
   8   1 -12   36.60    4.10
  -8  -1  12   34.70    3.70
   7   1 -12   19.30    3.10
  -7  -1  12   15.90    2.50
   6   1 -12   32.80    3.40
   6   1 -12   32.90    3.60
   5   1 -12  114.29    6.00
   5   1 -12  109.19    5.30
   5   1 -12  115.69    6.70
   4   1 -12  139.39    7.50
   4   1 -12  142.39    5.90
  -4  -1  12  128.79    6.20
   3   1 -12  421.76   16.40
   3   1 -12  407.76   14.20
  -3  -1  12  417.96   14.70
   2   1 -12  300.37   10.20
  -2  -1  12  266.97   10.30
   1   1 -12  243.98    9.00
  -1  -1  12  255.97    9.20
   0   1 -12   56.19    3.10
   0  -1  12   48.20    2.90
  -1   1 -12  352.66   12.70
   1  -1  12  373.56   12.70
  -2   1 -12  450.75   17.50
  -2   1 -12  474.15   15.80
   2  -1  12  444.16   15.60
  -3   1 -12  177.38    8.80
  -3   1 -12  180.08    7.60
   3  -1  12  193.48    7.60
  -4   1 -12   76.49    4.50
  -4   1 -12   74.19    5.20
   4  -1  12   66.99    4.20
  -5   1 -12   50.89    6.50
  -5   1 -12   51.19    4.00
   5  -1  12   58.19    4.00
  -6   1 -12   44.70    4.20
   6  -1  12   48.10    4.00
  -7   1 -12   62.39    5.10
   7  -1  12   61.89    4.80
   8   0 -12   18.00    3.20
   7   0 -12   91.99    5.80
   6   0 -12   91.89    5.50
   6   0 -12   95.39    6.10
   6   0 -12   95.39    5.30
   5   0 -12  123.59    6.00
   5   0 -12  135.59    7.50
   5   0 -12  132.39    6.40
   4   0 -12  148.99    6.40
   3   0 -12  181.18    7.30
  -3   0  12  183.68    8.40
  -3   0  12  179.98    7.30
   2   0 -12  182.78    7.10
  -2   0  12  179.78    8.30
  -2   0  12  177.28    7.00
   1   0 -12  191.28    7.70
  -1   0  12  197.58    8.90
  -1   0  12  212.08    7.60
   0   0 -12  364.06   12.70
   0   0  12  351.06   12.20
   0   0  12  346.37   13.70
  -1   0 -12  472.95   16.50
   1   0  12  476.45   15.90
   1   0  12  476.65   17.50
  -2   0 -12  164.48    6.80
   2   0  12  143.69    6.10
   2   0  12  140.19    7.20
  -3   0 -12  115.99    5.80
   3   0  12  122.49    5.50
  -4   0 -12   69.09    5.10
  -4   0 -12   69.69    4.60
   4   0  12   76.19    4.20
  -5   0 -12  116.79    6.60
   5   0  12  127.39    6.20
  -6   0 -12   67.79    5.10
   6   0  12   68.59    4.60
  -7   0 -12   51.79    4.90
   7   0  12   48.40    4.20
   7  -1 -12   83.79    5.30
   7  -1 -12   77.39    5.30
   6  -1 -12   32.20    3.20
   6  -1 -12   32.30    3.20
   6  -1 -12   29.90    3.80
   5  -1 -12   68.89    4.10
   5  -1 -12   67.29    4.20
   4  -1 -12   80.79    4.30
   4  -1 -12   77.89    4.20
  -4   1  12   60.89    4.70
   3  -1 -12  327.07   12.00
  -3   1  12  325.17   11.70
  -3   1  12  330.97   13.20
   2  -1 -12  166.28    6.80
  -2   1  12  163.18    7.90
  -2   1  12  159.08    6.30
   1  -1 -12  389.26   14.10
  -1   1  12  410.76   13.50
  -1   1  12  401.56   15.30
   0  -1 -12  229.88    8.60
   0   1  12  202.68    7.60
   0   1  12  199.18    9.20
  -1  -1 -12  204.98    8.60
   1   1  12  204.68    7.60
   1   1  12  210.18    9.30
  -2  -1 -12  121.09    6.10
   2   1  12  122.19    5.20
   2   1  12  121.49    6.50
  -3  -1 -12  224.48    9.50
   3   1  12  227.08    9.90
   3   1  12  222.68    8.50
  -4  -1 -12   92.79    5.50
   4   1  12   81.59    4.50
   4   1  12   86.39    5.40
  -5  -1 -12  123.49    7.00
   5   1  12  130.09    6.20
  -6  -1 -12   41.60    4.50
   7  -2 -12   31.80    3.50
   6  -2 -12   45.70    3.70
   5  -2 -12  135.59    6.60
  -5   2  12  135.09    7.30
   4  -2 -12   64.29    4.00
  -4   2  12   63.29    4.80
   3  -2 -12  164.68    7.30
  -3   2  12  177.58    8.40
   2  -2 -12  105.69    5.30
  -2   2  12  108.79    6.20
   1  -2 -12  126.69    5.90
  -1   2  12  117.79    6.60
   0  -2 -12   95.79    5.10
   0   2  12   97.69    5.80
  -1  -2 -12  225.98    9.40
   1   2  12  225.38   10.00
  -2  -2 -12  156.08    7.50
   2   2  12  160.58    7.80
  -3  -2 -12  124.99    6.80
   3   2  12  137.79    7.10
  -4  -2 -12   89.29    5.80
   4   2  12   91.69    5.70
  -5  -2 -12   72.29    5.50
  -6  -2 -12   34.60    4.40
   6  -3 -12   28.00    3.20
   5  -3 -12  110.69    6.00
  -5   3  12  110.19    6.70
   4  -3 -12   84.09    4.90
  -4   3  12   89.09    5.80
   3  -3 -12   48.50    3.50
  -3   3  12   46.00    4.10
   2  -3 -12  105.69    5.60
  -2   3  12  113.39    6.50
   1  -3 -12  227.98    9.40
  -1   3  12  230.48   10.30
   0  -3 -12  284.87   11.20
   0   3  12  280.37   12.00
  -1  -3 -12  172.48    8.00
   1   3  12  167.78    8.40
  -2  -3 -12   98.49    5.90
   2   3  12  101.99    6.10
  -3  -3 -12  100.59    6.20
   3   3  12  106.19    6.30
  -4  -3 -12  104.09    6.60
   4   3  12  113.29    6.60
  -5  -3 -12   86.29    6.30
   6  -4 -12   49.60    4.30
   5  -4 -12   49.40    4.10
  -5   4  12   54.49    4.70
   4  -4 -12   51.99    4.00
  -4   4  12   59.79    5.00
   3  -4 -12  146.29    7.00
  -3   4  12  141.19    7.80
   2  -4 -12  145.39    7.00
  -2   4  12  150.18    8.00
   1  -4 -12  221.18    9.50
  -1   4  12  223.18   10.30
   0  -4 -12   75.09    4.90
   0   4  12   80.09    5.50
  -1  -4 -12  126.49    6.80
   1   4  12  121.69    7.00
  -2  -4 -12  105.29    6.40
   2   4  12  115.39    6.80
  -3  -4 -12  224.18   10.60
   3   4  12  232.18   10.70
  -4  -4 -12   65.89    5.60
   4   4  12   71.79    5.30
  -5  -4 -12  108.39    9.30
   5  -5 -12  104.39    6.20
  -5   5  12  102.29    6.80
   4  -5 -12  122.49    6.70
  -4   5  12  135.79    7.80
   3  -5 -12  177.78    8.30
  -3   5  12  173.48    9.10
   2  -5 -12   58.29    4.40
  -2   5  12   63.89    5.10
   1  -5 -12  174.48    8.30
  -1   5  12  178.98    9.20
   0  -5 -12  103.19    6.30
   0   5  12  118.59    7.10
  -1  -5 -12  278.57   12.20
   1   5  12  297.07   12.90
  -2  -5 -12  139.69    7.90
   2   5  12  138.09    7.80
  -3  -5 -12  126.59    7.80
   3   5  12  137.59    7.80
  -4  -5 -12   39.70    4.90
   4   5  12   44.40    4.40
  -5   6  12   46.40    4.80
   4  -6 -12   40.70    4.00
  -4   6  12   38.50    4.50
   3  -6 -12   99.39    6.00
  -3   6  12   98.69    6.70
   2  -6 -12  101.69    6.10
  -2   6  12  102.79    6.80
   1  -6 -12  107.39    6.40
  -1   6  12  113.69    7.20
   0  -6 -12  166.48    8.70
   0   6  12  183.38    9.50
  -1  -6 -12  132.69    7.70
   1   6  12  132.89    7.90
  -2  -6 -12   61.69    5.50
   2   6  12   64.69    5.40
   3   6  12   60.89    5.30
   4   6  12   49.90    5.00
   2  -7 -12   63.59    5.10
  -2   7  12   70.89    6.60
   1  -7 -12  106.99    6.70
  -1   7  12  114.39    7.50
   0  -7 -12   67.89    5.50
   0   7  12   66.59    5.80
  -1  -7 -12   59.59    7.10
   1   7  12   64.69    7.30
  -2 -13  13   59.69    4.90
   1  13 -13  112.39    9.80
  -1 -13  13  100.79    6.20
   0  13 -13   36.70    5.20
   0 -13  13   32.00    3.70
  -1  13 -13   76.49    7.20
   1 -13  13   78.29    5.20
   2 -13  13   46.30    4.20
   4  12 -13   51.49    5.40
   3  12 -13   55.79    5.60
  -3 -12  13   56.49    4.70
   2  12 -13   50.49    5.20
  -2 -12  13   51.29    4.30
   1  12 -13   68.69    6.00
  -1 -12  13   68.59    4.90
   0  12 -13   59.99    5.70
   0 -12  13   74.39    4.90
  -1  12 -13  111.89    7.60
   1 -12  13  107.69    6.20
  -2  12 -13   76.69    6.50
   2 -12  13   78.79    5.20
  -3  12 -13   31.60    4.60
   3 -12  13   30.50    3.60
  -4  12 -13   12.20    3.10
   5  11 -13   49.20    5.20
   4  11 -13   27.00    3.90
  -4 -11  13   34.20    3.90
   3  11 -13   91.39    6.80
  -3 -11  13   93.19    5.90
   2  11 -13  153.98    9.00
  -2 -11  13  157.58    7.80
   1  11 -13  104.29    7.30
  -1 -11  13  124.59    6.50
   0  11 -13  119.19    7.70
   0 -11  13  113.69    6.20
  -1  11 -13   39.00    4.50
   1 -11  13   35.40    3.50
  -2  11 -13   65.69    5.80
   2 -11  13   66.99    4.70
  -3  11 -13   78.39    6.30
   3 -11  13   80.19    5.30
  -4  11 -13   49.30    5.10
   4 -11  13   48.30    4.40
   5  10 -13   34.60    4.20
  -5 -10  13   32.70    4.00
   4  10 -13  156.38    8.90
  -4 -10  13  148.59    8.00
   3  10 -13  108.49    7.20
  -3 -10  13  105.89    6.20
   2  10 -13  140.79    8.20
  -2 -10  13  134.09    7.00
   1  10 -13  108.89    7.10
  -1 -10  13  103.49    5.90
   0  10 -13   56.19    5.10
   0 -10  13   66.09    4.40
  -1  10 -13  165.98    9.10
   1 -10  13  166.48    7.70
  -2  10 -13  166.98    9.20
   2 -10  13  170.08    7.90
  -3  10 -13  141.79    8.40
   3 -10  13  143.09    7.30
  -4  10 -13   63.69    5.40
   4 -10  13   62.19    4.90
   5 -10  13   39.40    4.50
   5   9 -13  170.28    9.20
  -5  -9  13  161.08    8.60
   4   9 -13   88.49    6.20
  -4  -9  13   71.69    5.30
   3   9 -13  104.39    6.80
  -3  -9  13   95.49    5.80
   2   9 -13   32.70    4.10
  -2  -9  13   39.00    3.50
   1   9 -13  220.58   10.80
  -1  -9  13  214.88    9.30
   0   9 -13  276.37   12.50
   0  -9  13  257.27   10.70
  -1   9 -13  204.18   10.30
   1  -9  13  197.28    8.70
  -2   9 -13   72.49    5.70
   2  -9  13   73.59    4.80
  -3   9 -13   87.89    6.20
   3  -9  13   84.29    5.20
  -4   9 -13   78.39    5.90
   4  -9  13   82.79    5.50
   5  -9  13   78.09    5.50
   5   8 -13   97.09    6.50
  -5  -8  13   90.89    6.00
   4   8 -13   64.29    5.20
  -4  -8  13   63.79    4.70
   3   8 -13  170.58    9.00
  -3  -8  13  169.68    8.10
   2   8 -13  216.48   10.40
  -2  -8  13  209.28    9.20
   1   8 -13  283.37   12.40
  -1  -8  13  264.17   10.90
   0   8 -13  189.98    9.50
   0  -8  13  181.68    8.10
  -1   8 -13  166.08    8.80
   1  -8  13  163.88    7.40
  -2   8 -13   72.59    5.50
   2  -8  13   76.39    4.70
  -3   8 -13  110.89    7.00
   3  -8  13  122.59    6.30
  -4   8 -13  196.28    9.90
   4  -8  13  201.28    9.10
  -5   8 -13   89.99    7.60
   5  -8  13   93.29    5.80
   5   7 -13   82.49    5.90
  -5  -7  13   91.89    5.90
   4   7 -13  209.18   10.00
  -4  -7  13  187.88    9.00
   3   7 -13  177.58    9.00
  -3  -7  13  171.48    8.10
   2   7 -13  128.99    7.20
  -2  -7  13  114.29    6.10
   1   7 -13  141.09    7.90
  -1  -7  13  148.39    6.80
   0   7 -13  141.69    7.80
   0  -7  13  137.19    6.40
  -1   7 -13  198.38   10.00
   1  -7  13  226.18    8.90
  -2   7 -13  224.28   10.50
   2  -7  13  219.78    9.30
  -3   7 -13  222.58   10.50
   3  -7  13  220.78    9.50
  -4   7 -13  129.19    7.30
   4  -7  13  107.19    6.30
  -5   7 -13   43.80    4.80
   5  -7  13   47.20    4.10
   6  -7  13   46.40    4.50
   7   6 -13   46.60    7.40
   5   6 -13  124.89    7.30
  -5  -6  13  130.29    7.10
   4   6 -13   82.29    5.60
  -4  -6  13   79.39    5.10
   3   6 -13  155.68    8.30
  -3  -6  13  161.88    7.50
   2   6 -13  268.67   11.90
  -2  -6  13  258.87   10.50
   1   6 -13  128.89    7.50
  -1  -6  13  146.59    6.50
   0   6 -13  189.98    9.40
   0  -6  13  191.68    8.00
  -1   6 -13  433.26   17.30
   1  -6  13  443.86   15.70
  -2   6 -13  200.68    9.70
   2  -6  13  195.58    8.40
  -3   6 -13  106.69    6.60
   3  -6  13  111.49    5.80
  -4   6 -13   35.80    4.00
   4  -6  13   39.60    3.60
  -5   6 -13  121.69    7.60
   5  -6  13  130.39    6.80
   6  -6  13   71.89    5.30
   7   5 -13   83.09    6.20
   6   5 -13   83.79    5.90
   5   5 -13   68.09    5.20
  -5  -5  13   74.79    5.10
   4   5 -13   99.69    6.30
  -4  -5  13   95.59    5.60
   3   5 -13  313.67   13.20
  -3  -5  13  304.97   12.10
   2   5 -13  276.17   12.00
  -2  -5  13  263.77   10.60
   1   5 -13  603.34   22.50
  -1  -5  13  617.24   20.90
   0   5 -13  318.97   13.10
   0  -5  13  288.07   11.30
  -1   5 -13  251.77   11.50
   1  -5  13  267.07   10.10
  -2   5 -13  247.18   11.20
   2  -5  13  256.57   10.00
  -3   5 -13  341.87   14.40
   3  -5  13  354.46   13.20
  -4   5 -13  194.78    9.30
   4  -5  13  182.88    8.30
  -5   5 -13  154.38    9.20
   5  -5  13  165.48    7.80
   6  -5  13   70.89    5.30
   7   4 -13   42.20    4.40
   6   4 -13   43.70    6.30
   6   4 -13   45.80    4.20
   5   4 -13  239.28   11.10
  -5  -4  13  250.67   10.70
   4   4 -13  239.38   10.90
  -4  -4  13  233.78    9.90
   3   4 -13  355.56   14.70
  -3  -4  13  362.36   13.50
   2   4 -13  286.77   12.40
  -2  -4  13  272.57   10.70
   1   4 -13  303.77   12.90
  -1  -4  13  295.47   11.20
   0   4 -13  233.18   10.60
   0  -4  13  216.78    8.80
  -1   4 -13  622.54   23.20
   1  -4  13  645.64   21.50
  -2   4 -13  258.07   11.50
   2  -4  13  250.47    9.90
  -3   4 -13  435.26   17.10
   3  -4  13  443.56   15.80
  -4   4 -13  117.59    6.80
   4  -4  13  116.39    6.00
  -5   4 -13  130.19    8.80
   5  -4  13  129.69    6.80
   6  -4  13   74.59    5.20
   7   3 -13  103.99    6.70
   6   3 -13  141.39    7.60
   6   3 -13  137.69    8.20
   5   3 -13  378.26   15.30
   5   3 -13  372.56   13.30
  -5  -3  13  374.06   14.50
   4   3 -13  162.58    6.30
   4   3 -13  157.48    8.40
  -4  -3  13  157.18    7.40
   3   3 -13  280.57   12.40
   3   3 -13  284.77    9.90
  -3  -3  13  284.37   11.00
   2   3 -13  261.77    9.00
   2   3 -13  255.87   11.50
  -2  -3  13  252.87    9.90
   1   3 -13  849.02   26.80
   1   3 -13  832.92   29.80
  -1  -3  13  854.31   27.80
   0   3 -13  763.22   27.30
   0   3 -13  767.92   24.40
   0  -3  13  768.82   25.30
  -1   3 -13  426.46   14.00
  -1   3 -13  424.26   16.70
   1  -3  13  416.76   14.80
  -2   3 -13  385.86   13.20
  -2   3 -13  379.26   15.50
   2  -3  13  393.26   13.90
  -3   3 -13  113.59    5.10
  -3   3 -13  106.89    6.70
   3  -3  13  116.29    5.60
  -4   3 -13  309.97   13.30
  -4   3 -13  316.87   11.70
   4  -3  13  318.27   12.10
  -5   3 -13  157.28    7.20
   5  -3  13  155.28    7.50
   6  -3  13  132.99    7.10
   7   2 -13   94.59    6.20
   6   2 -13   55.09    4.90
   6   2 -13   58.59    4.50
   5   2 -13  111.39    6.90
   5   2 -13  113.89    5.30
   4   2 -13  304.77   11.10
   4   2 -13  299.57   13.30
  -4  -2  13  323.97   12.00
   3   2 -13  290.47   12.90
   3   2 -13  296.77   10.50
  -3  -2  13  296.87   11.20
   2   2 -13  510.75   17.20
   2   2 -13  516.15   19.90
  -2  -2  13  533.05   17.90
   1   2 -13  543.55   20.40
   1   2 -13  537.05   17.60
  -1  -2  13  521.95   18.10
   0   2 -13  443.16   17.90
   0   2 -13  473.95   15.50
   0  -2  13  468.35   15.90
  -1   2 -13  189.98    9.30
  -1   2 -13  189.28    7.20
   1  -2  13  186.38    7.50
  -2   2 -13  254.67    9.70
  -2   2 -13  258.97   11.80
   2  -2  13  275.67   10.10
  -3   2 -13  369.96   13.00
  -3   2 -13  362.46   14.70
   3  -2  13  340.87   13.00
  -4   2 -13  306.27   11.70
  -4   2 -13  308.77   13.20
   4  -2  13  311.77   11.80
  -5   2 -13   96.69    5.40
   5  -2  13   93.79    5.50
  -6   2 -13   47.60    4.10
   6  -2  13   52.79    4.30
  -7   2 -13   33.00    5.30
   7   1 -13   49.60    4.50
   6   1 -13  111.09    5.70
   6   1 -13  106.59    6.90
   6   1 -13  112.19    6.30
   5   1 -13  170.38    8.90
   5   1 -13  165.28    7.90
   5   1 -13  171.28    7.20
   4   1 -13  308.47   13.50
   4   1 -13  300.67   11.30
  -4  -1  13  322.37   11.90
   3   1 -13  242.38    9.00
   3   1 -13  245.38   11.30
  -3  -1  13  236.58    9.40
   2   1 -13  298.77   10.70
   2   1 -13  306.47   13.20
  -2  -1  13  296.57   11.00
   1   1 -13  134.39    5.70
  -1  -1  13  141.09    5.80
   0   1 -13  332.77   12.00
   0  -1  13  348.47   12.10
  -1   1 -13  281.67   10.50
  -1   1 -13  289.57   12.50
   1  -1  13  281.77   10.30
  -2   1 -13  377.66   13.80
  -2   1 -13  378.46   15.60
   2  -1  13  403.16   13.70
  -3   1 -13  180.88    7.70
  -3   1 -13  179.78    9.10
   3  -1  13  183.18    7.60
  -4   1 -13   61.09    4.20
  -4   1 -13   60.09    5.00
   4  -1  13   64.69    4.00
  -5   1 -13   47.70    4.00
   5  -1  13   49.50    3.90
  -6   1 -13   67.09    5.00
   6  -1  13   69.69    4.80
  -7   1 -13   52.39    4.90
   7   0 -13   41.70    4.10
   7   0 -13   46.20    3.90
   6   0 -13  165.08    9.30
   6   0 -13  161.38    7.90
   6   0 -13  163.88    7.50
   5   0 -13   47.00    3.30
   5   0 -13   45.50    3.60
   5   0 -13   42.90    4.40
   4   0 -13  148.69    8.30
   4   0 -13  145.19    6.40
   3   0 -13  118.29    5.40
  -3   0  13  114.79    5.30
  -3   0  13  114.69    6.50
   2   0 -13  247.78    9.60
  -2   0  13  261.77   11.10
  -2   0  13  265.37    9.60
   1   0 -13  134.89    5.80
  -1   0  13  128.39    6.90
  -1   0  13  130.89    5.50
   0   0 -13  255.77    9.70
   0   0  13  251.07   10.80
   0   0  13  249.58    9.20
  -1   0 -13  222.38    8.80
   1   0  13  217.88    9.70
   1   0  13  209.98    8.10
  -2   0 -13  153.38    6.80
   2   0  13  140.79    6.10
   2   0  13  143.19    7.40
  -3   0 -13   54.39    3.90
   3   0  13   54.49    3.40
  -4   0 -13   72.49    4.90
  -4   0 -13   74.89    5.60
   4   0  13   77.99    4.40
  -5   0 -13   91.49    5.80
   5   0  13   97.59    5.40
  -6   0 -13   70.89    5.30
   6   0  13   63.39    4.70
   7  -1 -13   44.90    4.00
   6  -1 -13   39.80    3.40
   6  -1 -13   38.80    4.80
   5  -1 -13   32.10    3.00
   4  -1 -13   91.39    4.80
   4  -1 -13   86.89    4.80
  -4   1  13   94.39    5.90
   3  -1 -13   78.69    4.40
  -3   1  13   86.59    5.50
  -3   1  13   94.79    6.00
   2  -1 -13  167.68    7.20
  -2   1  13  168.48    7.30
  -2   1  13  172.68    8.40
   1  -1 -13   90.19    4.70
  -1   1  13   94.39    5.70
  -1   1  13   91.09    4.70
   0  -1 -13  146.59    6.40
   0   1  13  129.69    7.10
   0   1  13  133.79    6.10
  -1  -1 -13   66.99    4.40
   1   1  13   71.29    4.90
  -2  -1 -13   62.89    4.40
   2   1  13   68.19    4.80
  -3  -1 -13  108.89    6.20
   3   1  13  119.09    6.60
  -4  -1 -13  134.09    7.10
  -5  -1 -13   36.40    4.10
  -6  -1 -13   30.10    4.10
   7  -2 -13    7.90    2.10
   6  -2 -13   84.99    5.20
   6  -2 -13   76.59    9.20
   5  -2 -13   46.70    3.60
  -5   2  13   45.50    4.40
   4  -2 -13   99.89    5.20
  -4   2  13   88.19    6.00
   3  -2 -13   78.39    4.50
  -3   2  13   83.99    5.50
   2  -2 -13   91.29    4.80
  -2   2  13   83.99    5.60
   1  -2 -13   75.59    4.50
  -1   2  13   83.89    5.40
   0  -2 -13   91.59    5.10
   0   2  13   87.99    5.60
  -1  -2 -13  129.99    6.70
   1   2  13  136.89    7.30
  -2  -2 -13  165.68    7.90
   2   2  13  161.68    8.20
  -3  -2 -13   60.49    4.80
   3   2  13   63.79    4.80
  -4  -2 -13   36.40    4.10
   4   2  13   35.70    3.80
  -5  -2 -13   46.30    4.80
   6  -3 -13   41.80    3.80
   5  -3 -13   61.39    4.40
  -5   3  13   60.39    5.10
   4  -3 -13   68.29    4.40
  -4   3  13   66.89    5.20
   3  -3 -13   18.60    2.50
  -3   3  13   21.20    3.20
   2  -3 -13   82.39    4.80
  -2   3  13   76.29    5.60
   1  -3 -13  127.89    6.40
  -1   3  13  128.79    7.30
   0  -3 -13  222.98    9.60
   0   3  13  221.78   10.40
  -1  -3 -13   62.29    4.70
   1   3  13   62.89    4.90
  -2  -3 -13   65.39    4.90
   2   3  13   60.59    4.90
  -3  -3 -13   40.80    4.40
   3   3  13   48.80    4.40
  -4  -3 -13  126.39    7.50
   4   3  13  130.89    7.50
  -5  -3 -13   27.30    4.20
   5  -4 -13   26.40    3.20
  -5   4  13   23.90    3.70
   4  -4 -13   58.09    4.30
  -4   4  13   59.99    5.10
   3  -4 -13   82.79    5.10
  -3   4  13   76.39    5.80
   2  -4 -13  181.18    8.40
  -2   4  13  191.68    9.60
   1  -4 -13   61.39    4.40
  -1   4  13   59.09    5.00
   0  -4 -13   76.69    5.20
   0   4  13   77.29    5.70
  -1  -4 -13   35.00    3.90
   1   4  13   35.20    3.90
  -2  -4 -13  123.39    7.20
   2   4  13  129.09    7.50
  -3  -4 -13  104.39    6.80
   3   4  13   99.49    6.60
  -4  -4 -13   48.70    5.10
   4   4  13   49.90    4.70
  -5   5  13   62.89    5.40
   4  -5 -13   78.39    5.30
  -4   5  13   78.39    6.10
   3  -5 -13   68.29    4.90
  -3   5  13   74.09    5.70
   2  -5 -13   34.00    3.60
  -2   5  13   30.30    3.90
   1  -5 -13   78.69    5.40
  -1   5  13   87.19    6.20
   0  -5 -13   62.99    5.00
   0   5  13   68.89    5.60
  -1  -5 -13  131.99    7.70
   1   5  13  140.19    8.10
  -2  -5 -13  102.69    6.80
   2   5  13  108.79    7.00
  -3  -5 -13   51.89    5.30
   3   5  13   51.59    4.90
   4   5  13   39.40    4.40
   3  -6 -13   43.90    4.10
  -3   6  13   39.50    6.00
   2  -6 -13   72.79    5.30
  -2   6  13   80.99    6.20
   1  -6 -13   56.69    4.80
  -1   6  13   57.99    5.30
   0  -6 -13   92.49    6.30
   0   6  13   99.49    6.90
  -1  -6 -13   91.59    6.40
   1   6  13   84.49    6.40
  -1 -13  14   46.90    4.80
   0 -13  14   78.59    5.50
   1 -13  14   75.29    5.60
   3  12 -14   49.60    5.30
  -3 -12  14   41.50    5.10
   2  12 -14   95.29    7.20
  -2 -12  14   96.29    6.10
   1  12 -14  147.29    9.20
  -1 -12  14  155.78    7.90
   0  12 -14   87.59    6.90
   0 -12  14   80.59    5.40
  -1  12 -14  188.58   10.60
   1 -12  14  182.68    8.80
  -2  12 -14  132.29    8.50
   2 -12  14  126.09    7.00
  -3  12 -14   87.79    6.90
   3 -12  14   88.79    8.60
   5  11 -14   49.10    5.30
   4  11 -14   56.19    5.40
  -4 -11  14   49.80    5.60
   3  11 -14  184.68   10.20
  -3 -11  14  173.78    8.90
   2  11 -14  235.38   12.00
  -2 -11  14  233.88   10.50
   1  11 -14  207.98   10.80
  -1 -11  14  185.98    9.00
   0  11 -14  176.18    9.90
   0 -11  14  172.28    8.30
  -1  11 -14  109.69    7.40
   1 -11  14   98.39    6.00
  -2  11 -14  142.19    8.80
   2 -11  14  146.29    7.40
  -3  11 -14  126.29    8.10
   3 -11  14  123.89    6.90
  -4  11 -14  108.89    7.50
   5  10 -14   71.99    6.00
   4  10 -14  199.98   10.60
  -4 -10  14  202.48    9.90
   3  10 -14  153.38    8.80
  -3 -10  14  136.49    7.60
   2  10 -14  187.78   10.00
  -2 -10  14  176.98    8.60
   1  10 -14   92.69    6.70
  -1 -10  14   91.89    5.50
   0  10 -14  185.48   10.00
   0 -10  14  185.68    8.50
  -1  10 -14  162.68    9.10
   1 -10  14  153.08    7.50
  -2  10 -14  236.98   11.80
   2 -10  14  239.58   10.30
  -3  10 -14  111.59    7.30
   3 -10  14  109.69    6.30
  -4  10 -14   83.19    6.30
   4 -10  14   74.39    5.40
   5   9 -14  107.09    7.20
  -5  -9  14  107.69    6.90
   4   9 -14  171.88    9.30
  -4  -9  14  155.18    8.30
   3   9 -14   42.30    4.60
  -3  -9  14   46.90    4.10
   2   9 -14  116.89    7.50
  -2  -9  14  122.79    6.50
   1   9 -14  182.88    9.80
  -1  -9  14  184.48    8.40
   0   9 -14  309.17   14.00
   0  -9  14  311.47   12.30
  -1   9 -14  103.99    7.00
   1  -9  14  102.19    5.70
  -2   9 -14   99.09    6.90
   2  -9  14   90.69    5.50
  -3   9 -14   28.10    4.00
   3  -9  14   31.00    3.50
  -4   9 -14  119.89    7.60
   4  -9  14  120.29    6.70
   5  -9  14   49.70    5.90
   5   8 -14   50.09    4.80
  -5  -8  14   47.50    4.50
   4   8 -14   88.49    6.40
  -4  -8  14   95.09    5.90
   3   8 -14  168.38    9.20
  -3  -8  14  170.28    8.20
   2   8 -14  196.98    9.90
  -2  -8  14  179.48    8.40
   1   8 -14  135.59    7.90
  -1  -8  14  128.69    6.50
   0   8 -14  178.98    9.40
   0  -8  14  176.18    7.90
  -1   8 -14   62.09    5.20
   1  -8  14   58.59    4.10
  -2   8 -14   90.99    6.40
   2  -8  14   98.99    5.50
  -3   8 -14   90.79    6.30
   3  -8  14   89.09    5.40
  -4   8 -14  152.48    8.70
   4  -8  14  160.38    7.90
   5  -8  14   49.20    4.60
   5   7 -14   82.29    6.00
  -5  -7  14   85.09    5.80
   4   7 -14  149.88    8.40
  -4  -7  14  148.59    7.70
   3   7 -14  123.89    7.40
  -3  -7  14  113.29    6.30
   2   7 -14   89.99    6.20
  -2  -7  14   86.89    5.10
   1   7 -14   66.69    5.30
  -1  -7  14   72.49    4.50
   0   7 -14   99.69    6.60
   0  -7  14  102.89    5.40
  -1   7 -14  114.09    7.20
   1  -7  14  129.39    6.20
  -2   7 -14  209.68   10.50
   2  -7  14  221.68    9.30
  -3   7 -14  129.79    7.60
   3  -7  14  120.99    6.50
  -4   7 -14   45.10    4.50
   4  -7  14   42.60    4.00
   5  -7  14   25.90    3.60
   5   6 -14   71.09    5.50
  -5  -6  14   66.09    5.00
   4   6 -14   72.79    5.60
  -4  -6  14   73.19    5.00
   3   6 -14   63.49    5.20
  -3  -6  14   61.19    4.30
   2   6 -14  228.48   10.80
  -2  -6  14  217.18    9.40
   1   6 -14  104.29    6.60
  -1  -6  14   99.29    5.30
   0   6 -14  172.38    9.10
   0  -6  14  178.98    7.70
  -1   6 -14  288.37   12.70
   1  -6  14  272.77   10.90
  -2   6 -14   94.49    6.30
   2  -6  14   93.39    5.20
  -3   6 -14   74.29    5.60
   3  -6  14   73.99    4.70
  -4   6 -14   62.09    5.10
   4  -6  14   72.99    4.80
   5  -6  14   80.39    5.40
   6  -6  14   62.19    6.20
   6   5 -14   62.79    5.10
   5   5 -14   17.90    3.10
  -5  -5  14   20.80    3.10
   4   5 -14   72.99    5.60
  -4  -5  14   78.69    5.00
   3   5 -14  222.48   10.50
  -3  -5  14  202.68    9.10
   2   5 -14  250.37   11.60
  -2  -5  14  251.17   10.10
   1   5 -14  172.78    9.10
  -1  -5  14  185.38    7.80
   0   5 -14  202.98    9.90
   0  -5  14  195.98    8.30
  -1   5 -14   54.69    4.80
   1  -5  14   56.59    3.70
  -2   5 -14  280.97   12.70
   2  -5  14  294.87   11.30
  -3   5 -14  133.69    7.70
   3  -5  14  140.59    6.80
  -4   5 -14  127.19    7.40
   4  -5  14  122.89    6.50
   5  -5  14   67.89    4.80
   6  -5  14   50.99    4.60
   7   4 -14    4.00    2.00
   6   4 -14   56.39    4.80
   5   4 -14   95.99    6.40
  -5  -4  14  100.59    6.00
   4   4 -14  265.17   12.00
  -4  -4  14  258.07   10.90
   3   4 -14   41.10    4.30
  -3  -4  14   45.40    3.60
   2   4 -14  184.48    9.40
  -2  -4  14  181.58    7.80
   1   4 -14   82.39    5.80
  -1  -4  14   89.59    4.70
   0   4 -14  195.48    9.70
   0  -4  14  191.08    7.90
  -1   4 -14  245.78   11.50
   1  -4  14  252.97    9.80
  -2   4 -14  206.18   10.00
   2  -4  14  189.48    8.20
  -3   4 -14   94.89    6.30
   3  -4  14   97.99    5.30
  -4   4 -14  105.09    6.70
   4  -4  14   98.39    5.60
   5  -4  14   40.50    3.80
   6  -4  14   51.49    4.50
   7   3 -14   37.60    4.10
   6   3 -14  135.09    7.50
   5   3 -14   68.39    5.40
  -5  -3  14   74.79    5.00
   4   3 -14   95.99    6.50
  -4  -3  14   92.49    5.40
   3   3 -14   68.39    5.50
  -3  -3  14   79.59    4.60
   2   3 -14  192.48    9.70
  -2  -3  14  189.28    8.00
   1   3 -14  276.87   12.60
  -1  -3  14  295.37   10.90
   0   3 -14  479.75   18.40
   0  -3  14  445.76   16.10
  -1   3 -14   70.19    5.40
   1  -3  14   68.09    3.90
  -2   3 -14  110.39    6.90
   2  -3  14  110.29    5.40
  -3   3 -14   78.59    5.80
   3  -3  14   88.59    4.80
  -4   3 -14   99.99    6.50
   4  -3  14  102.09    5.50
   5  -3  14   99.69    5.70
   6  -3  14   46.70    4.30
   7   2 -14   21.30    3.30
   6   2 -14   25.30    5.10
   6   2 -14   25.10    3.20
   5   2 -14   37.30    4.10
   4   2 -14  145.09    8.30
   4   2 -14  141.09    6.10
  -4  -2  14  153.98    7.00
   3   2 -14  159.18    8.60
   3   2 -14  153.78    6.30
  -3  -2  14  158.08    7.00
   2   2 -14  179.68    7.00
   2   2 -14  187.28    9.60
  -2  -2  14  187.98    7.70
   1   2 -14  237.78   11.10
   1   2 -14  231.18    8.50
  -1  -2  14  223.48    8.90
   0   2 -14   76.89    3.90
   0   2 -14   77.79    5.70
   0  -2  14   81.99    4.20
  -1   2 -14  127.79    5.60
  -1   2 -14  129.09    7.60
   1  -2  14  138.39    5.90
  -2   2 -14  117.09    7.10
  -2   2 -14  114.89    5.30
   2  -2  14  118.39    5.50
  -3   2 -14  159.18    7.00
  -3   2 -14  163.58    8.70
   3  -2  14  162.58    7.20
  -4   2 -14  153.38    8.40
  -4   2 -14  148.29    7.00
   4  -2  14  154.78    7.10
  -5   2 -14   34.50    5.30
   5  -2  14   37.50    3.60
   6  -2  14   34.00    3.70
   7   1 -14   45.00    4.40
   6   1 -14   25.50    5.30
   6   1 -14   29.60    3.40
   6   1 -14   28.40    2.90
   5   1 -14  139.19    8.10
   5   1 -14  138.09    6.30
   5   1 -14  136.89    7.00
   4   1 -14  100.39    6.70
   4   1 -14   92.69    4.70
  -4  -1  14   96.49    5.20
   3   1 -14  134.89    5.90
   3   1 -14  143.49    8.20
  -3  -1  14  141.39    6.30
   2   1 -14   55.89    3.20
   2   1 -14   54.09    4.80
  -2  -1  14   45.40    3.20
   1   1 -14  123.89    7.50
   1   1 -14  121.79    5.50
  -1  -1  14  128.79    5.60
   0   1 -14  131.09    7.70
   0   1 -14  132.99    5.90
   0  -1  14  135.39    5.80
  -1   1 -14  196.08    9.90
  -1   1 -14  193.08    7.90
   1  -1  14  197.78    7.70
  -2   1 -14  186.38    9.70
  -2   1 -14  194.78    8.00
   2  -1  14  190.48    7.70
  -3   1 -14   94.99    5.20
  -3   1 -14  100.99    6.50
   3  -1  14   94.79    5.00
  -4   1 -14   42.40    4.40
  -4   1 -14   40.80    3.60
   4  -1  14   40.50    3.40
  -5   1 -14   30.30    3.50
   5  -1  14   34.10    3.40
  -6   1 -14   60.59    5.40
   6  -1  14   62.99    4.70
   7   0 -14   49.40    4.00
   6   0 -14   64.89    4.30
   6   0 -14   60.39    5.50
   5   0 -14   60.09    4.20
   5   0 -14   62.99    5.40
   5   0 -14   61.99    3.90
   4   0 -14   23.50    3.80
   4   0 -14   27.30    2.50
   3   0 -14  196.58    8.00
  -3   0  14  196.68    8.00
   2   0 -14  133.59    5.90
  -2   0  14  132.39    7.20
  -2   0  14  133.59    5.80
   1   0 -14  167.48    7.30
  -1   0  14  183.58    8.80
  -1   0  14  185.48    7.10
   0   0 -14  184.48    7.50
   0   0  14  175.88    8.60
   0   0  14  166.48    6.90
  -1   0 -14  173.88    7.60
   1   0  14  177.88    7.00
   1   0  14  179.78    8.70
  -2   0 -14   98.59    5.30
   2   0  14   88.69    4.50
  -3   0 -14   46.70    3.80
  -3   0 -14   49.00    4.80
   3   0  14   50.79    3.40
  -4   0 -14   65.79    4.80
  -4   0 -14   69.89    5.70
  -5   0 -14   96.79    6.10
  -6   0 -14   40.80    4.40
   7  -1 -14   51.99    4.20
   6  -1 -14   10.10    2.10
   5  -1 -14   49.80    3.60
   5  -1 -14   45.40    4.80
   4  -1 -14   98.69    5.20
  -4   1  14  100.59    6.40
   3  -1 -14   77.69    4.40
  -3   1  14   80.59    5.60
   2  -1 -14  135.79    6.20
  -2   1  14  136.19    7.50
   1  -1 -14   94.39    5.00
  -1   1  14   92.49    5.90
   0  -1 -14  110.59    5.70
   0   1  14  111.19    6.60
  -1  -1 -14   49.90    3.90
   1   1  14   52.39    4.40
  -2  -1 -14  129.49    6.80
   2   1  14  139.89    7.50
  -3  -1 -14   84.69    5.40
   3   1  14   87.49    5.80
  -4  -1 -14  122.29    6.90
  -4  -1 -14  124.39    7.80
  -5  -1 -14   24.60    3.60
   6  -2 -14   78.09    5.10
   5  -2 -14   68.79    4.50
  -5   2  14   60.99    5.20
   4  -2 -14   74.09    4.50
  -4   2  14   67.79    5.30
   3  -2 -14   74.79    4.50
  -3   2  14   67.99    5.30
   2  -2 -14   98.19    5.40
  -2   2  14  117.19    6.90
   1  -2 -14   59.59    4.10
  -1   2  14   60.89    4.80
   0  -2 -14  128.29    6.50
   0   2  14  126.69    7.30
  -1  -2 -14  133.09    6.90
   1   2  14  132.99    7.50
  -2  -2 -14   87.29    5.60
   2   2  14   89.39    6.00
  -3  -2 -14   60.49    4.90
   3   2  14   64.39    5.10
  -4  -2 -14   10.80    2.80
   4   2  14    9.60    2.50
  -5  -2 -14   65.39    5.60
   5  -3 -14   41.50    3.70
  -5   3  14   35.10    4.20
   4  -3 -14   45.90    3.80
  -4   3  14   53.79    4.90
   3  -3 -14   24.00    2.90
  -3   3  14   19.50    3.40
   2  -3 -14   59.89    4.20
  -2   3  14   58.89    5.00
   1  -3 -14  142.89    7.10
  -1   3  14  144.09    8.00
   0  -3 -14   83.89    5.30
   0   3  14   80.09    5.80
  -1  -3 -14   55.69    4.60
   1   3  14   50.99    4.60
  -2  -3 -14   25.10    3.70
   2   3  14   22.80    3.50
  -3  -3 -14   40.80    4.40
   3   3  14   44.30    4.40
  -4  -3 -14   85.99    6.30
   4   3  14   94.39    6.40
   5  -4 -14   11.00    2.60
  -5   4  14   10.90    2.80
   4  -4 -14   52.79    4.30
  -4   4  14   59.69    5.30
   3  -4 -14   67.79    4.70
  -3   4  14   62.99    5.40
   2  -4 -14   88.09    5.50
  -2   4  14   85.19    6.30
   1  -4 -14   40.70    3.80
  -1   4  14   29.30    4.00
   0  -4 -14   41.90    4.10
   0   4  14   46.40    4.60
  -1  -4 -14   24.70    3.60
   1   4  14   20.10    3.50
  -2  -4 -14   90.59    6.30
   2   4  14   89.39    6.40
  -3  -4 -14   46.40    4.90
   3   4  14   48.30    4.80
   4   4  14   28.20    3.90
   3  -5 -14   35.10    3.60
  -3   5  14   22.90    4.30
   2  -5 -14   35.70    3.70
  -2   5  14   31.10    4.30
   1  -5 -14   22.90    3.50
  -1   5  14   22.20    3.70
   0  -5 -14   66.39    5.30
   0   5  14   75.29    6.00
  -1  -5 -14   62.69    5.40
   1   5  14   67.69    5.70
  -2  -5 -14   67.09    6.00
   2   5  14   65.39    7.20
  -2 -12  15   95.79    7.90
   1  12 -15   89.29    7.90
  -1 -12  15   90.99    6.00
   0  12 -15   45.20    5.30
   0 -12  15   42.90    4.10
  -1  12 -15   74.89    7.10
   1 -12  15   74.99    5.30
  -2  12 -15   64.09    7.90
   4  11 -15   47.10    5.30
   3  11 -15  121.49    8.30
  -3 -11  15  126.99    7.40
   2  11 -15   99.49    7.30
  -2 -11  15   94.09    6.10
   1  11 -15   93.69    7.10
  -1 -11  15   96.09    5.90
   0  11 -15   39.50    4.80
   0 -11  15   39.30    3.90
  -1  11 -15   66.19    6.10
   1 -11  15   74.39    5.00
  -2  11 -15   39.50    4.70
   2 -11  15   35.90    3.80
  -3  11 -15  101.09    7.50
   3 -11  15  110.29    7.80
  -4  11 -15   41.00    4.90
   5  10 -15   94.49    7.10
   4  10 -15   45.80    5.00
  -4 -10  15   48.10    4.70
   3  10 -15   89.79    6.70
  -3 -10  15   87.99    5.90
   2  10 -15   16.30    3.40
  -2 -10  15   19.20    3.10
   1  10 -15  101.39    7.30
  -1 -10  15  101.79    6.00
   0  10 -15   52.49    5.30
   0 -10  15   56.69    4.30
  -1  10 -15  117.09    7.80
   1 -10  15  114.69    6.40
  -2  10 -15   77.19    6.30
   2 -10  15   77.79    5.20
  -3  10 -15   47.80    5.10
   3 -10  15   47.60    4.30
  -4  10 -15   33.00    4.40
   5   9 -15   70.39    5.90
   4   9 -15   63.59    5.70
  -4  -9  15   58.59    5.00
   3   9 -15   37.00    4.60
  -3  -9  15   48.30    4.30
   2   9 -15   99.49    7.10
  -2  -9  15  104.69    6.00
   1   9 -15  112.39    7.60
  -1  -9  15  126.39    6.60
   0   9 -15  238.48   11.80
   0  -9  15  230.38   10.00
  -1   9 -15   34.00    4.30
   1  -9  15   33.80    3.50
  -2   9 -15   61.29    5.50
   2  -9  15   58.39    4.40
  -3   9 -15   23.00    3.90
   3  -9  15   26.40    3.40
  -4   9 -15   81.09    6.30
   4  -9  15   79.19    5.50
   5   8 -15   21.00    3.70
  -5  -8  15   20.00    3.40
   4   8 -15   91.99    6.70
  -4  -8  15   96.69    6.10
   3   8 -15  130.99    8.00
  -3  -8  15  131.19    7.10
   2   8 -15  169.48    9.30
  -2  -8  15  158.68    7.90
   1   8 -15  121.09    7.50
  -1  -8  15  113.69    6.20
   0   8 -15   84.19    6.30
   0  -8  15   87.99    5.20
  -1   8 -15  116.79    7.50
   1  -8  15  118.39    6.20
  -2   8 -15   51.29    5.00
   2  -8  15   59.29    4.30
  -3   8 -15  167.28    9.30
   3  -8  15  167.48    8.10
  -4   8 -15   84.69    6.50
   4  -8  15   90.79    5.80
   5   7 -15   90.59    6.60
  -5  -7  15   94.89    6.30
   4   7 -15   83.29    6.20
  -4  -7  15   87.49    5.70
   3   7 -15  184.08    9.70
  -3  -7  15  177.08    8.50
   2   7 -15   26.20    3.70
  -2  -7  15   28.10    3.00
   1   7 -15  112.29    7.20
  -1  -7  15  104.29    5.80
   0   7 -15   92.79    6.60
   0  -7  15  104.49    5.50
  -1   7 -15  169.28    9.20
   1  -7  15  170.28    7.80
  -2   7 -15  192.68   10.10
   2  -7  15  200.68    8.80
  -3   7 -15   86.29    6.30
   3  -7  15   81.09    5.20
  -4   7 -15   21.70    3.60
   4  -7  15   21.60    3.30
   5  -7  15   48.00    4.50
   5   6 -15  101.69    6.80
  -5  -6  15   91.39    6.10
   4   6 -15   21.30    3.50
  -4  -6  15   23.50    3.20
   3   6 -15  111.89    7.20
  -3  -6  15  113.09    6.20
   2   6 -15  143.29    8.30
  -2  -6  15  144.09    7.00
   1   6 -15  229.98   11.30
  -1  -6  15  237.48    9.80
   0   6 -15   94.69    6.50
   0  -6  15   98.39    5.20
  -1   6 -15  222.38   11.00
   1  -6  15  224.98    9.30
  -2   6 -15   41.30    4.50
   2  -6  15   38.40    3.40
  -3   6 -15  112.59    7.30
   3  -6  15  120.39    6.30
  -4   6 -15   49.90    4.90
   4  -6  15   57.29    4.50
   5  -6  15   55.79    4.60
   5   5 -15   35.10    4.20
  -5  -5  15   45.30    4.10
   4   5 -15   50.49    4.70
  -4  -5  15   48.30    4.10
   3   5 -15  210.58   10.60
  -3  -5  15  202.88    9.10
   2   5 -15  138.69    8.10
  -2  -5  15  139.09    6.70
   1   5 -15   91.59    6.40
  -1  -5  15   93.69    5.10
   0   5 -15   73.99    5.60
   0  -5  15   67.09    4.20
  -1   5 -15   90.99    6.30
   1  -5  15   78.59    4.60
  -2   5 -15  210.28   10.70
   2  -5  15  224.48    9.20
  -3   5 -15   85.89    6.10
   3  -5  15   84.79    5.10
  -4   5 -15   71.79    5.70
   4  -5  15   66.69    4.70
   5  -5  15   50.29    4.40
   6   4 -15   50.19    4.60
   5   4 -15  132.19    7.90
  -5  -4  15  125.99    7.10
   4   4 -15  115.09    7.30
  -4  -4  15  114.39    6.30
   3   4 -15   48.10    4.60
  -3  -4  15   42.00    3.60
   2   4 -15   74.39    5.90
  -2  -4  15   89.59    4.90
   1   4 -15   98.79    6.60
  -1  -4  15   98.19    5.20
   0   4 -15  194.68   10.00
   0  -4  15  193.68    8.10
  -1   4 -15  110.39    7.10
   1  -4  15  119.29    5.70
  -2   4 -15  101.59    6.80
   2  -4  15   97.39    5.20
  -3   4 -15   46.60    4.60
   3  -4  15   50.19    3.80
  -4   4 -15   54.69    5.00
   4  -4  15   55.99    4.20
   5  -4  15   27.10    3.50
   6   3 -15   54.09    4.70
   5   3 -15   32.80    4.10
  -5  -3  15   28.90    3.30
   4   3 -15   79.89    6.10
  -4  -3  15   71.79    4.80
   3   3 -15   36.30    4.20
  -3  -3  15   43.60    3.40
   2   3 -15  186.08    9.80
  -2  -3  15  181.88    7.90
   1   3 -15  161.08    9.00
  -1  -3  15  166.18    7.20
   0   3 -15  184.48    9.60
   0  -3  15  178.78    7.60
  -1   3 -15   78.29    5.80
   1  -3  15   73.19    4.20
  -2   3 -15   37.40    4.20
   2  -3  15   41.40    3.20
  -3   3 -15   87.09    6.20
   3  -3  15   93.29    5.10
  -4   3 -15   79.19    6.00
   4  -3  15   70.39    4.70
   5  -3  15   61.59    4.60
   6  -3  15   24.80    5.20
   7   2 -15    5.90    2.10
   6   2 -15   26.70    3.30
   5   2 -15   26.40    3.80
   4   2 -15  106.79    7.20
  -4  -2  15  111.09    5.80
   3   2 -15  144.29    8.50
  -3  -2  15  144.49    6.70
   2   2 -15   95.69    6.70
  -2  -2  15   84.39    4.70
   1   2 -15   85.49    6.20
  -1  -2  15   77.69    4.30
   0   2 -15   58.79    5.30
   0  -2  15   61.89    3.70
  -1   2 -15   81.09    6.10
   1  -2  15   89.89    4.50
  -2   2 -15  100.79    6.80
   2  -2  15   96.29    5.00
  -3   2 -15  111.59    7.10
   3  -2  15   98.89    5.30
  -4   2 -15   48.20    4.80
   4  -2  15   45.40    3.70
   5  -2  15   27.60    3.40
   6  -2  15    8.20    2.40
   6   1 -15   16.00    2.80
   5   1 -15   70.59    5.90
   5   1 -15   69.49    4.80
   4   1 -15   93.39    6.70
  -4  -1  15   86.99    5.10
   3   1 -15   79.39    4.40
   3   1 -15   76.19    6.10
  -3  -1  15   68.19    4.20
   2   1 -15   52.19    5.00
   2   1 -15   51.29    3.30
  -2  -1  15   56.09    3.50
   1   1 -15   77.39    6.00
   1   1 -15   76.29    4.20
  -1  -1  15   80.89    4.20
   0   1 -15  115.19    7.60
   0   1 -15  120.89    5.70
   0  -1  15  136.19    5.70
  -1   1 -15  160.48    8.90
  -1   1 -15  158.78    6.80
   1  -1  15  141.19    6.40
  -2   1 -15   82.49    6.10
  -2   1 -15   76.59    4.60
   2  -1  15   78.09    4.30
  -3   1 -15   80.19    6.10
  -3   1 -15   70.49    4.80
   3  -1  15   65.79    4.20
  -4   1 -15   13.40    3.00
   4  -1  15   15.00    2.50
   5   0 -15   35.30    4.40
   5   0 -15   40.20    3.50
   4   0 -15    4.00    1.30
   4   0 -15    2.40    1.90
   3   0 -15  113.39    5.50
   3   0 -15  111.99    7.60
   2   0 -15   72.89    4.20
   1   0 -15  135.39    6.30
   0   0 -15   38.30    3.20
   0   0  15   32.80    3.70
  -1   0 -15  137.29    6.60
  -2   0 -15   18.30    2.70
  -2   0 -15   16.70    3.30
  -3   0 -15   37.90    4.50
  -3   0 -15   36.10    3.60
  -4   0 -15   29.50    3.60
  -4   0 -15   32.80    4.30
   6  -1 -15    7.80    2.00
   5  -1 -15   27.90    2.90
   5  -1 -15   30.90    4.40
   4  -1 -15   56.19    3.90
   3  -1 -15   85.49    4.70
  -3   1  15   80.59    5.80
   2  -1 -15   36.90    3.10
  -2   1  15   32.60    3.90
   1  -1 -15   75.69    4.60
  -1   1  15   77.79    5.60
   0  -1 -15   48.10    3.80
   0   1  15   42.60    4.20
  -1  -1 -15   37.00    3.60
   1   1  15   31.60    3.70
  -2  -1 -15   54.19    4.40
   2   1  15   59.69    4.90
  -3  -1 -15   76.69    5.30
  -4  -1 -15   53.49    4.80
  -4  -1 -15   54.89    5.50
  -5  -1 -15   14.70    3.10
   6  -2 -15   34.50    3.70
   5  -2 -15   61.99    4.40
   4  -2 -15   41.80    3.50
  -4   2  15   35.40    4.20
   3  -2 -15   22.40    2.70
  -3   2  15   20.50    3.40
   2  -2 -15   42.90    3.60
  -2   2  15   45.50    4.50
   1  -2 -15   49.20    3.90
  -1   2  15   44.40    4.40
   0  -2 -15   65.59    4.60
   0   2  15   61.39    5.10
  -1  -2 -15  107.09    6.20
   1   2  15  100.99    6.70
  -2  -2 -15   55.39    4.70
   2   2  15   50.19    4.70
  -3  -2 -15   19.90    3.40
   3   2  15   22.50    3.50
  -4  -2 -15   24.80    3.80
   5  -3 -15   20.20    2.90
  -5   3  15   18.20    3.50
   4  -3 -15   22.70    2.90
  -4   3  15   15.60    3.20
   3  -3 -15   39.90    3.60
  -3   3  15   34.80    4.20
   2  -3 -15   69.69    4.70
  -2   3  15   64.29    5.40
   1  -3 -15   99.89    6.00
  -1   3  15  105.69    6.90
   0  -3 -15   77.99    5.30
   0   3  15   70.99    5.70
  -1  -3 -15   19.60    3.20
   1   3  15   18.50    3.30
  -2  -3 -15   18.90    3.30
   2   3  15   18.40    3.30
  -3  -3 -15   60.89    5.40
   3   3  15   63.49    5.50
   4   3  15   48.30    5.30
   4  -4 -15   49.40    4.30
   3  -4 -15   66.49    4.80
  -3   4  15   72.29    8.90
   2  -4 -15   38.60    3.80
  -2   4  15   27.10    4.10
   1  -4 -15   51.99    4.40
  -1   4  15   44.50    4.80
   0  -4 -15    8.00    2.50
   0   4  15    8.50    2.60
  -1  -4 -15   69.39    5.70
   1   4  15   74.69    6.00
  -2  -4 -15   63.49    5.60
   2  -5 -15   39.30    5.20
   1  -5 -15   16.00    3.00
   0  -5 -15  111.89    7.80
   2  11 -16   90.39    7.20
  -2 -11  16   84.19    6.10
   1  11 -16   34.40    4.80
  -1 -11  16   36.40    3.90
   0  11 -16   67.19    6.10
   0 -11  16   66.99    5.00
  -1  11 -16   32.60    4.50
   1 -11  16   30.10    3.50
  -2  11 -16   70.19    6.30
   4  10 -16   74.79    6.40
   3  10 -16   29.40    4.40
  -3 -10  16   26.20    3.70
   2  10 -16   41.50    5.00
  -2 -10  16   50.89    4.40
   1  10 -16   59.59    5.80
  -1 -10  16   64.99    4.80
   0  10 -16   81.19    6.70
   0 -10  16   77.59    5.30
  -1  10 -16  102.49    7.50
   1 -10  16   95.89    5.90
  -2  10 -16   57.39    5.70
   2 -10  16   49.40    4.30
  -3  10 -16   37.60    4.60
   3 -10  16   40.90    5.40
  -4  10 -16   24.40    4.10
   5   9 -16   36.20    4.60
   4   9 -16   49.10    5.30
  -4  -9  16   46.90    4.60
   3   9 -16   49.60    5.20
  -3  -9  16   59.89    4.80
   2   9 -16   80.89    6.60
  -2  -9  16   90.89    5.60
   1   9 -16  111.09    7.60
  -1  -9  16  106.49    6.30
   0   9 -16  144.29    8.90
   0  -9  16  147.79    7.40
  -1   9 -16   36.00    4.60
   1  -9  16   30.60    3.40
  -2   9 -16   37.70    4.70
   2  -9  16   41.30    3.90
  -3   9 -16   30.50    4.30
   3  -9  16   30.40    3.80
  -4   9 -16   60.89    5.70
   5   8 -16   18.40    3.60
   4   8 -16  103.59    7.30
  -4  -8  16  102.59    6.50
   3   8 -16   90.09    6.80
  -3  -8  16   87.89    5.80
   2   8 -16  114.29    7.60
  -2  -8  16  115.49    6.40
   1   8 -16   71.99    5.90
  -1  -8  16   64.39    4.60
   0   8 -16   46.10    5.00
   0  -8  16   53.79    4.10
  -1   8 -16   82.79    6.40
   1  -8  16   87.59    5.30
  -2   8 -16   50.49    5.10
   2  -8  16   55.09    4.30
  -3   8 -16   80.49    6.40
   3  -8  16   84.09    5.50
  -4   8 -16   53.89    5.30
   4  -8  16   51.79    4.70
   5   7 -16   55.29    5.30
  -5  -7  16   53.29    4.90
   4   7 -16   88.39    6.60
  -4  -7  16   87.59    5.90
   3   7 -16   75.49    6.10
  -3  -7  16   69.09    5.00
   2   7 -16   27.70    3.90
  -2  -7  16   30.10    3.30
   1   7 -16   40.00    4.50
  -1  -7  16   46.50    3.80
   0   7 -16  108.99    7.40
   0  -7  16  113.19    6.00
  -1   7 -16  103.79    7.10
   1  -7  16  101.29    5.70
  -2   7 -16   91.59    6.70
   2  -7  16  101.59    5.70
  -3   7 -16   37.80    4.50
   3  -7  16   28.70    3.50
  -4   7 -16   12.00    2.90
   4  -7  16   15.50    2.90
   5   6 -16   60.39    5.50
  -5  -6  16   55.59    4.80
   4   6 -16    6.30    2.30
  -4  -6  16   12.10    2.60
   3   6 -16   76.59    6.20
  -3  -6  16   74.99    5.10
   2   6 -16  120.59    7.80
  -2  -6  16  125.49    6.50
   1   6 -16  188.78   10.10
  -1  -6  16  190.88    8.50
   0   6 -16   49.60    5.00
   0  -6  16   50.09    3.80
  -1   6 -16   75.99    6.00
   1  -6  16   75.79    4.70
  -2   6 -16   43.10    4.70
   2  -6  16   45.20    3.70
  -3   6 -16   47.90    4.90
   3  -6  16   54.49    4.20
  -4   6 -16   56.39    5.30
   4  -6  16   66.99    4.80
   5   5 -16   24.40    3.80
  -5  -5  16   27.80    3.60
   4   5 -16  105.49    7.10
  -4  -5  16  101.89    6.10
   3   5 -16  114.79    7.60
  -3  -5  16  116.89    6.30
   2   5 -16  130.19    8.00
  -2  -5  16  127.89    6.50
   1   5 -16   34.00    4.20
  -1  -5  16   35.00    3.20
   0   5 -16   56.19    5.10
   0  -5  16   52.09    3.80
  -1   5 -16   83.99    6.30
   1  -5  16   93.39    5.10
  -2   5 -16  124.29    8.00
   2  -5  16  145.69    6.80
  -3   5 -16   90.99    6.60
   3  -5  16   84.99    5.20
  -4   5 -16   45.10    4.80
   4  -5  16   40.00    3.90
   5  -5  16   43.60    4.20
   6   4 -16   69.29    5.40
   5   4 -16  115.39    7.60
  -5  -4  16  107.69    6.60
   4   4 -16   57.49    5.30
  -4  -4  16   61.69    4.50
   3   4 -16   44.90    4.70
  -3  -4  16   44.80    3.80
   2   4 -16   32.60    4.10
  -2  -4  16   35.30    3.20
   1   4 -16  152.98    8.90
  -1  -4  16  159.88    7.20
   0   4 -16  181.88    9.90
   0  -4  16  184.48    8.00
  -1   4 -16  108.19    7.30
   1  -4  16  108.69    5.50
  -2   4 -16   61.09    5.50
   2  -4  16   67.09    4.30
  -3   4 -16   50.39    4.90
   3  -4  16   46.90    3.80
  -4   4 -16   52.09    5.20
   4  -4  16   55.09    4.30
   5  -4  16   35.60    3.90
   6   3 -16   31.80    3.80
   5   3 -16   37.50    4.50
  -5  -3  16   35.70    3.80
   4   3 -16   76.39    6.20
  -4  -3  16   78.79    5.00
   3   3 -16   50.49    5.10
  -3  -3  16   47.40    3.70
   2   3 -16  220.18   11.30
  -2  -3  16  222.08    9.20
   1   3 -16  167.18    9.20
  -1  -3  16  146.39    6.90
   0   3 -16  127.29    8.00
   0  -3  16  128.79    6.10
  -1   3 -16   39.80    4.60
   1  -3  16   40.90    3.20
  -2   3 -16   87.59    6.50
   2  -3  16   89.99    4.90
  -3   3 -16   66.49    5.60
   3  -3  16   67.99    4.40
  -4   3 -16  113.19    7.50
   4  -3  16  105.39    6.00
   5  -3  16   43.50    4.10
   6   2 -16   34.50    3.80
   5   2 -16   41.10    4.70
   4   2 -16  113.69    7.80
  -4  -2  16  120.09    6.30
   3   2 -16  115.19    7.70
  -3  -2  16  117.89    6.00
   2   2 -16  140.99    8.50
  -2  -2  16  123.79    6.20
   1   2 -16   27.70    4.00
  -1  -2  16   34.00    2.90
   0   2 -16  119.49    7.90
   0  -2  16  123.49    5.80
  -1   2 -16  120.09    7.90
   1  -2  16  128.29    5.90
  -2   2 -16  129.49    8.10
   2  -2  16  118.49    5.80
  -3   2 -16  114.49    7.60
   3  -2  16  113.19    5.80
  -4   2 -16   57.79    5.40
   4  -2  16   54.29    4.10
   5  -2  16   32.50    3.60
   5   1 -16   62.49    5.90
   4   1 -16  126.99    8.30
   3   1 -16   45.20    4.90
   2   1 -16  104.49    7.50
   1   1 -16  148.69    9.10
  -1  -1  16  168.68    8.30
   0   1 -16  140.69    8.60
  -1   1 -16  113.89    7.70
  -2   1 -16  173.98    9.90
  -3   1 -16   49.40    5.20
  -4   1 -16   60.39    5.60
   5   0 -16   44.00    5.30
   4   0 -16   36.00    4.80
   3   0 -16  163.08    9.80
   2   0 -16  176.68   10.30
  -1   0 -16  129.99    8.50
  -2   0 -16   81.59    6.60
  -3   0 -16   85.69    6.80
  -4   0 -16   91.09    7.10
   5  -1 -16   68.19    6.40
   4  -1 -16  104.99    7.80
   3  -1 -16  130.59    6.60
   2  -1 -16  102.99    5.60
  -2   1  16  104.79    6.90
   1  -1 -16  151.68    7.40
  -1   1  16  161.78    8.80
   0  -1 -16   88.79    5.50
   0   1  16   97.29    6.60
  -1  -1 -16  118.99    6.50
   1   1  16  117.79    7.40
  -2  -1 -16  124.49    6.90
  -3  -1 -16  157.18    9.60
  -3  -1 -16  149.59    8.90
  -4  -1 -16   49.70    5.50
   4  -2 -16   79.19    5.00
  -4   2  16   75.29    6.20
   3  -2 -16   80.29    5.00
  -3   2  16   79.79    6.10
   2  -2 -16  100.09    5.80
  -2   2  16  107.29    7.10
   1  -2 -16  166.18    8.00
  -1   2  16  161.58    9.10
   0  -2 -16  145.89    7.60
   0   2  16  158.38    8.80
  -1  -2 -16  160.88    8.30
   1   2  16  174.78    9.40
  -2  -2 -16   79.39    5.80
   2   2  16   83.59    6.30
  -3  -2 -16   28.10    4.10
   4  -3 -16   66.89    4.80
   3  -3 -16   61.09    4.50
   2  -3 -16  145.59    7.50
  -2   3  16  159.48   11.20
   1  -3 -16   63.89    4.90
  -1   3  16   63.29    6.00
   0  -3 -16  105.99    6.50
   0   3  16  115.69    7.90
  -1  -3 -16   20.40    3.40
   1   3  16   25.50    6.00
  -2  -3 -16   56.79    5.30
   2  -4 -16   44.50    4.10
   1  -4 -16   49.99    4.60
   0  -4 -16   24.50    3.80
  -1  -4 -16   91.39    9.80
   2  10 -17   50.99    5.70
  -2 -10  17   48.80    5.00
   1  10 -17  129.69    8.80
  -1 -10  17  126.79    7.20
   0  10 -17  118.19    8.30
   0 -10  17  104.19    6.40
  -1  10 -17  144.49    9.30
   1 -10  17  137.99    7.50
  -2  10 -17   78.09    6.70
   4   9 -17   60.19    5.90
   3   9 -17  129.39    8.60
  -3  -9  17  124.49    7.40
   2   9 -17  122.69    8.30
  -2  -9  17  120.19    6.90
   1   9 -17  216.58   11.70
  -1  -9  17  219.78   10.00
   0   9 -17  179.88   10.30
   0  -9  17  174.38    8.60
  -1   9 -17  111.99    7.90
   1  -9  17  105.19    6.20
  -2   9 -17   55.39    5.60
   2  -9  17   56.09    4.50
  -3   9 -17  117.49    8.20
  -4   9 -17   82.49    6.90
   5   8 -17   76.49    6.50
   4   8 -17  110.59    7.90
  -4  -8  17  109.09    8.70
   3   8 -17  215.18   11.30
  -3  -8  17  197.18    9.80
   2   8 -17  186.98   10.30
  -2  -8  17  172.58    8.70
   1   8 -17  163.98    9.60
  -1  -8  17  159.38    8.00
   0   8 -17   96.69    7.20
   0  -8  17   97.09    5.80
  -1   8 -17  198.58   10.90
   1  -8  17  204.68    9.20
  -2   8 -17  206.58   11.00
   2  -8  17  196.78    9.20
  -3   8 -17  161.78    9.50
   3  -8  17  149.88    8.00
  -4   8 -17   91.99    7.00
   5   7 -17   97.69    7.30
   4   7 -17  172.18    9.80
  -4  -7  17  166.38    8.80
   3   7 -17  127.89    8.30
  -3  -7  17  123.09    7.00
   2   7 -17  125.79    8.30
  -2  -7  17  120.09    6.70
   1   7 -17  140.89    8.80
  -1  -7  17  133.69    7.10
   0   7 -17  288.27   13.70
   0  -7  17  273.27   11.50
  -1   7 -17  249.68   12.50
   1  -7  17  247.78   10.60
  -2   7 -17  147.39    9.00
   2  -7  17  137.39    7.20
  -3   7 -17   85.59    6.80
   3  -7  17   87.49    5.60
  -4   7 -17   66.39    5.90
   5   6 -17  101.99    7.40
  -5  -6  17   93.79    7.10
   4   6 -17   38.70    4.80
  -4  -6  17   37.00    3.90
   3   6 -17  162.08    9.70
  -3  -6  17  160.28    8.10
   2   6 -17  277.87   13.40
  -2  -6  17  277.27   11.60
   1   6 -17  258.47   12.80
  -1  -6  17  262.37   10.90
   0   6 -17  161.78    9.40
   0  -6  17  148.79    7.40
  -1   6 -17   93.39    7.00
   1  -6  17   90.69    5.30
  -2   6 -17  190.08   10.60
   2  -6  17  193.08    8.70
  -3   6 -17   90.89    7.00
   3  -6  17   95.89    5.70
  -4   6 -17  104.49    7.40
   4  -6  17  104.09    6.30
   5   5 -17   52.89    5.50
  -5  -5  17   59.49    4.90
   4   5 -17  158.88    9.50
  -4  -5  17  160.48    8.20
   3   5 -17  155.48    9.30
  -3  -5  17  149.88    7.70
   2   5 -17  121.79    8.00
  -2  -5  17  113.69    6.20
   1   5 -17   75.39    6.30
  -1  -5  17   79.69    4.90
   0   5 -17   93.79    6.90
   0  -5  17   95.09    5.30
  -1   5 -17  182.18   10.10
   1  -5  17  183.08    8.20
  -2   5 -17   97.19    7.20
   2  -5  17   98.29    5.60
  -3   5 -17  106.69    7.50
   3  -5  17  114.79    6.20
  -4   5 -17   56.49    5.60
   4  -5  17   54.19    4.50
   5   4 -17  137.19    8.80
  -5  -4  17  148.69    8.00
   4   4 -17   67.49    5.90
  -4  -4  17   65.09    4.80
   3   4 -17   67.79    6.10
  -3  -4  17   71.09    4.80
   2   4 -17   46.60    5.10
  -2  -4  17   54.89    4.00
   1   4 -17  234.98   12.20
  -1  -4  17  250.87   10.10
   0   4 -17  142.19    8.70
   0  -4  17  132.39    6.60
  -1   4 -17  134.59    8.70
   1  -4  17  141.69    6.70
  -2   4 -17   36.00    4.70
   2  -4  17   33.70    3.30
  -3   4 -17   94.69    7.10
   3  -4  17   98.39    5.60
  -4   4 -17   23.70    4.10
   4  -4  17   27.60    3.40
   6   3 -17   35.60    4.80
   5   3 -17   52.39    5.50
   4   3 -17   59.59    5.80
  -4  -3  17   56.89    4.40
   3   3 -17  125.19    8.40
  -3  -3  17  124.89    6.50
   2   3 -17  101.19    7.40
  -2  -3  17  101.09    5.60
   1   3 -17  203.58   11.00
  -1  -3  17  193.28    8.50
   0   3 -17   39.10    4.80
   0  -3  17   34.90    3.10
  -1   3 -17  105.59    7.50
   1  -3  17  102.49    5.40
  -2   3 -17   48.90    5.20
   2  -3  17   50.89    3.70
  -3   3 -17  104.09    7.50
   3  -3  17  107.29    5.80
  -4   3 -17   79.19    6.60
   4  -3  17   81.69    5.20
   5   2 -17   93.19    7.20
   4   2 -17   88.79    7.10
  -4  -2  17   78.99    6.80
   3   2 -17  181.68   10.50
  -3  -2  17  178.78    8.20
   2   2 -17   61.39    5.80
  -2  -2  17   58.49    4.00
   1   2 -17   83.29    6.70
  -1  -2  17   80.59    4.60
   0   2 -17  124.69    8.20
   0  -2  17  121.69    5.90
  -1   2 -17  141.29    8.90
   1  -2  17  147.39    6.60
  -2   2 -17  137.09    8.70
   2  -2  17  125.39    6.70
  -3   2 -17  100.79    7.40
  -4   2 -17   54.69    5.50
   5   1 -17   70.89    6.50
   4   1 -17   97.09    7.50
   3   1 -17   63.19    6.20
   2   1 -17  152.08    9.50
   1   1 -17  152.38    9.40
   0   1 -17  209.98   11.40
  -1   1 -17  131.29    8.60
  -2   1 -17  146.69    9.30
  -3   1 -17   65.09    6.10
  -4   1 -17   60.69    5.90
   5   0 -17   32.40    5.20
   4   0 -17   68.99    6.50
   3   0 -17  137.59    9.10
   2   0 -17  189.58   11.00
   1   0 -17  139.19    9.10
   0   0 -17  122.09    8.50
  -1   0 -17  103.69    7.70
  -2   0 -17   92.89    7.30
  -3   0 -17   84.49    7.00
   3  -1 -17   87.59    7.40
  -2  -1 -17   92.59    8.00
   2  -3 -17   47.50    6.30
   1  -3 -17   30.10    4.30
   0  -3 -17   24.80    3.80
  -1  -3 -17   24.60    4.90
   2   9 -18  159.88   12.50
   1   9 -18  154.98    9.70
  -1  -9  18  140.79    7.80
   0   9 -18  132.29    9.10
   0  -9  18  133.59    7.30
  -1   9 -18   71.29    6.90
   1  -9  18   64.19    5.50
   3   8 -18  153.48    9.70
  -3  -8  18  167.18   10.70
   2   8 -18  133.39    8.70
  -2  -8  18  116.29    6.90
   1   8 -18   57.89    5.80
  -1  -8  18   62.69    4.80
   0   8 -18   89.99    7.20
   0  -8  18   87.59    5.70
  -1   8 -18  140.09    9.10
   1  -8  18  147.89    7.60
  -2   8 -18  197.08   10.90
   2  -8  18  178.38    8.90
  -3   8 -18   75.99    7.40
   4   7 -18  118.79    8.30
   3   7 -18   35.90    4.80
  -3  -7  18   33.40    3.90
   2   7 -18   88.69    7.30
  -2  -7  18  101.39    6.10
   1   7 -18  120.39    8.30
  -1  -7  18  125.59    6.80
   0   7 -18  179.98   10.50
   0  -7  18  173.98    8.40
  -1   7 -18  112.89    7.90
   1  -7  18  105.19    6.20
  -2   7 -18   66.99    6.20
   2  -7  18   67.09    4.80
  -3   7 -18   32.80    4.70
   3  -7  18   41.70    6.20
  -4   7 -18   48.70    7.00
   5   6 -18   36.80    5.90
   4   6 -18   30.10    4.60
  -4  -6  18   30.60    3.80
   3   6 -18  126.29    8.70
  -3  -6  18  139.79    7.50
   2   6 -18  176.78   10.40
  -2  -6  18  180.78    8.60
   1   6 -18   82.19    6.70
  -1  -6  18   81.99    5.20
   0   6 -18   62.39    5.90
   0  -6  18   60.49    4.40
  -1   6 -18   40.10    4.90
   1  -6  18   38.90    3.60
  -2   6 -18   95.69    7.30
   2  -6  18   93.39    5.70
  -3   6 -18   67.79    6.10
   3  -6  18   60.09    4.70
  -4   6 -18   44.40    5.20
   5   5 -18   51.69    5.70
   4   5 -18  100.69    7.60
  -4  -5  18  112.39    6.60
   3   5 -18   82.39    6.80
  -3  -5  18   75.99    5.30
   2   5 -18   40.70    5.00
  -2  -5  18   46.70    3.90
   1   5 -18   54.09    5.60
  -1  -5  18   52.59    4.10
   0   5 -18   74.49    6.50
   0  -5  18   84.99    5.10
  -1   5 -18  104.19    7.50
   1  -5  18  102.49    5.70
  -2   5 -18   72.19    6.50
   2  -5  18   79.29    5.00
  -3   5 -18   41.40    5.10
   3  -5  18   37.10    3.90
  -4   5 -18   55.59    5.80
   5   4 -18   68.69    6.50
  -5  -4  18   72.99    5.90
   4   4 -18   47.60    5.40
  -4  -4  18   46.70    4.30
   3   4 -18   42.50    5.20
  -3  -4  18   52.19    4.10
   2   4 -18   93.29    7.40
  -2  -4  18   97.69    5.60
   1   4 -18  131.39    8.70
  -1  -4  18  123.09    6.40
   0   4 -18  158.18    9.70
   0  -4  18  151.88    7.30
  -1   4 -18   51.39    5.60
   1  -4  18   47.70    3.70
  -2   4 -18   60.59    6.00
   2  -4  18   55.69    4.20
  -3   4 -18   38.10    5.00
   3  -4  18   39.20    3.70
  -4   4 -18   50.99    5.60
   4  -4  18   54.49    5.50
   5   3 -18   23.10    4.70
   4   3 -18   78.39    6.90
  -4  -3  18   82.99    5.40
   3   3 -18   69.69    6.40
  -3  -3  18   70.29    4.80
   2   3 -18  155.28    9.70
  -2  -3  18  152.08    7.40
   1   3 -18   82.19    6.90
  -1  -3  18   78.79    4.80
   0   3 -18   89.99    7.10
   0  -3  18   82.09    4.90
  -1   3 -18   61.99    5.90
   1  -3  18   59.29    4.10
  -2   3 -18   76.59    6.50
   2  -3  18   69.49    4.50
  -3   3 -18   85.99    7.10
   3  -3  18   86.49    6.00
  -4   3 -18   57.49    7.20
   4   2 -18  110.79    8.30
   3   2 -18   82.19    7.10
   2   2 -18   59.69    6.10
   1   2 -18   46.70    5.30
   0   2 -18   99.89    7.60
  -1   2 -18   82.79    6.90
  -2   2 -18  110.39    8.00
  -3   2 -18   48.70    5.60
   3   1 -18   31.90    4.90
   2   1 -18   87.89    7.40
   1   1 -18   63.19    6.40
   0   1 -18  109.59    8.20
  -1   1 -18   70.39    6.60
  -2   1 -18   38.50    5.80
   0  -8  19  111.79    8.30
  -2  -7  19  116.69    6.80
   1   7 -19   91.09   11.10
  -1  -7  19   89.59    5.80
   0   7 -19  167.88   14.60
   0  -7  19  150.08    7.80
   1  -7  19   56.99    4.50
  -3  -6  19  104.59    6.50
   2   6 -19  262.27   15.10
  -2  -6  19  249.48   11.10
   1   6 -19  111.59    8.30
  -1  -6  19  104.79    6.20
   0   6 -19  143.29    9.50
   0  -6  19  136.89    7.20
  -1   6 -19  126.29    9.40
   1  -6  19  122.19    6.70
   2  -6  19  161.28    8.00
  -3  -5  19  187.38    9.10
   2   5 -19  134.19    9.70
  -2  -5  19  142.99    7.40
   1   5 -19  230.98   12.50
  -1  -5  19  233.58   10.20
   0   5 -19  245.28   13.00
   0  -5  19  243.88   10.50
  -1   5 -19  273.87   14.20
   1  -5  19  276.27   11.50
   2  -5  19  197.08    9.00
  -4  -4  19  107.59    6.60
  -3  -4  19  186.58    8.90
   2   4 -19  217.98   13.00
  -2  -4  19  209.18    9.60
   1   4 -19  410.56   18.70
  -1  -4  19  395.96   15.30
   0   4 -19  280.47   14.40
   0  -4  19  273.07   11.30
  -1   4 -19  237.38   13.70
   1  -4  19  238.38   10.10
   2  -4  19  145.79    7.20
   3  -4  19  153.08    7.70
   1   3 -19  229.68   17.70
   0   3 -19  142.99   14.00
  -1  -6  20   53.29    5.20
   0  -6  20   22.50    4.10
  -2  -5  20   21.70    3.20
  -1  -5  20   30.80    3.40
   0  -5  20   43.00    3.90
   1  -5  20   41.00    3.80
   0   0   0    0.00    0.00



_computing_structure_solution     'SHELXT 2018/2 (Sheldrick, 2018)'
_computing_structure_solution     'SHELXT 2018/2 (Sheldrick, 2018)'
_computing_structure_solution     'SHELXT 2018/2 (Sheldrick, 2018)'
;
_shelx_hkl_checksum              96217
_shelx_fab_file
;
-9 -5 5 0.3243 -0.3237
-9 -5 6 0.0888 0.3843
-9 -5 7 -0.3643 -0.0882
-9 -5 8 0.1380 -0.2990
-9 -4 2 -0.1767 0.3463
-9 -4 3 -0.4537 -0.1677
-9 -4 4 0.2602 -0.4254
-9 -4 5 0.2307 0.3677
-9 -4 6 -0.4006 -0.0126
-9 -4 7 0.1570 -0.3611
-9 -4 8 0.2981 0.1675
-9 -4 9 -0.1124 0.2131
-9 -3 0 0.1652 0.2561
-9 -3 1 -0.1846 0.1891
-9 -3 2 -0.2839 -0.1101
-9 -3 3 0.1224 -0.3570
-9 -3 4 0.2877 0.2150
-9 -3 5 -0.2911 0.0834
-9 -3 6 0.1097 -0.2939
-9 -3 7 0.2635 0.1689
-9 -3 8 -0.1142 0.2435
-9 -3 9 -0.1993 -0.0429
-9 -2 -1 0.1162 0.1027
-9 -2 0 -0.0935 0.0669
-9 -2 1 -0.0846 -0.0316
-9 -2 2 -0.0140 -0.1648
-9 -2 3 0.1993 0.0207
-9 -2 4 -0.1008 0.1009
-9 -2 5 0.0720 -0.1423
-9 -2 6 0.1303 0.1682
-9 -2 7 -0.1153 0.1244
-9 -2 8 -0.1495 0.0141
-9 -2 9 -0.1072 -0.1499
-9 -1 -3 -0.0220 -0.0446
-9 -1 -2 0.0457 -0.0566
-9 -1 -1 0.0476 0.0086
-9 -1 0 0.0168 0.0591
-9 -1 1 -0.0907 -0.0156
-9 -1 2 0.0692 -0.0862
-9 -1 3 0.0252 0.0524
-9 -1 4 0.0614 -0.0373
-9 -1 5 0.0438 0.1764
-9 -1 6 -0.1709 0.0132
-9 -1 7 -0.0068 -0.0316
-9 -1 8 -0.1390 -0.0359
-9 0 -4 0.0197 0.1559
-9 0 -3 -0.0834 -0.1109
-9 0 -2 0.1625 -0.0432
-9 0 -1 0.0276 0.1712
-9 0 0 -0.1630 -0.0041
-9 0 1 0.0555 -0.1244
-9 0 2 0.0422 0.0721
-9 0 3 -0.0045 -0.0494
-9 0 4 0.0869 0.1153
-9 0 5 -0.1844 0.0476
-9 0 6 0.0218 -0.1282
-9 0 7 -0.0232 0.0604
-9 1 -5 0.1696 0.3668
-9 1 -4 -0.2552 -0.0160
-9 1 -3 0.1445 -0.1522
-9 1 -2 0.0818 0.2161
-9 1 -1 -0.2379 0.0086
-9 1 0 0.0862 -0.1944
-9 1 1 0.0796 0.1616
-9 1 2 -0.1555 -0.0659
-9 1 3 0.1664 -0.0564
-9 1 4 -0.0705 0.1668
-9 1 5 -0.0806 -0.1331
-9 1 6 0.0923 0.0237
-9 2 -5 -0.3631 0.1353
-9 2 -4 0.0039 -0.2342
-9 2 -3 0.1519 0.1044
-9 2 -2 -0.1786 0.0890
-9 2 -1 0.0103 -0.2044
-9 2 0 0.1446 0.1383
-9 2 1 -0.2231 0.0073
-9 2 2 0.1392 -0.2031
-9 2 3 0.0879 0.2134
-9 2 4 -0.1810 -0.0481
-9 2 5 0.1245 -0.0778
-9 3 -6 -0.3540 0.2052
-9 3 -5 -0.0909 -0.2315
-9 3 -4 0.1427 -0.0177
-9 3 -3 -0.0356 0.1086
-9 3 -2 -0.0705 -0.0845
-9 3 -1 0.0994 0.0168
-9 3 0 -0.1230 0.0471
-9 3 1 0.0591 -0.1755
-9 3 2 0.1307 0.1617
-9 3 3 -0.2025 0.0114
-9 3 4 0.1119 -0.1648
-9 4 -6 -0.0777 -0.1902
-9 4 -5 0.1270 -0.0189
-9 4 -4 -0.0029 0.0936
-9 4 -3 -0.0756 -0.0131
-9 4 -2 0.0201 -0.0350
-9 4 -1 -0.0308 0.0054
-9 4 0 0.0445 -0.0819
-9 4 1 0.0771 0.1176
-9 4 2 -0.1820 0.0092
-9 5 -5 -0.0338 0.1428
-9 5 -4 -0.1251 -0.0401
-9 5 -3 0.0381 -0.0685
-9 5 -2 -0.0101 0.0192
-9 5 -1 0.0219 -0.0684
-8 -8 4 0.2698 0.0946
-8 -8 5 -0.2765 0.2220
-8 -8 6 -0.1071 -0.4246
-8 -7 1 -0.1089 0.2588
-8 -7 2 -0.2172 -0.2203
-8 -7 3 0.2930 -0.0773
-8 -7 4 -0.1633 0.3087
-8 -7 5 -0.2387 -0.4441
-8 -7 6 0.6413 -0.0738
-8 -7 7 -0.1402 0.6450
-8 -6 -1 0.2342 -0.0278
-8 -6 0 -0.0741 0.2450
-8 -6 1 -0.2250 -0.1413
-8 -6 2 0.1752 -0.1604
-8 -6 3 0.0100 0.2005
-8 -6 4 -0.2071 -0.2420
-8 -6 5 0.5197 -0.1464
-8 -6 6 -0.0014 0.6790
-8 -6 7 -0.6224 -0.1898
-8 -6 8 0.3523 -0.3765
-8 -5 -2 0.2415 0.0281
-8 -5 -1 -0.1453 0.2194
-8 -5 0 -0.1546 -0.2031
-8 -5 1 0.1655 -0.0936
-8 -5 2 0.0396 0.0862
-8 -5 3 -0.0361 -0.0618
-8 -5 4 0.2398 -0.0126
-8 -5 5 -0.0397 0.4180
-8 -5 6 -0.4666 -0.1336
-8 -5 7 0.2243 -0.3388
-8 -5 8 0.1061 0.2879
-8 -5 9 -0.3488 -0.1397
-8 -4 -4 -0.0003 -0.1589
-8 -4 -3 0.1895 0.0230
-8 -4 -2 -0.1210 0.1717
-8 -4 -1 -0.0959 -0.2220
-8 -4 0 0.2184 -0.0063
-8 -4 1 -0.0342 0.0905
-8 -4 2 0.0691 -0.0309
-8 -4 3 0.0611 0.1721
-8 -4 4 -0.2258 0.1579
-8 -4 5 -0.2348 -0.2735
-8 -4 6 0.2962 -0.1819
-8 -4 7 0.0097 0.2493
-8 -4 8 -0.1701 -0.1727
-8 -4 9 0.3011 -0.1564
-8 -4 10 0.2291 0.3957
-8 -3 -5 -0.0407 -0.1088
-8 -3 -4 0.0590 -0.0627
-8 -3 -3 0.0326 0.0066
-8 -3 -2 0.0578 -0.0715
-8 -3 -1 0.1563 0.1357
-8 -3 0 -0.1770 0.1131
-8 -3 1 0.0483 -0.1381
-8 -3 2 0.0671 0.2150
-8 -3 3 -0.3117 0.0647
-8 -3 4 -0.1399 -0.3591
-8 -3 5 0.3783 -0.1722
-8 -3 6 0.0614 0.3194
-8 -3 7 -0.1519 -0.1388
-8 -3 8 0.2955 0.0289
-8 -3 9 -0.0798 0.3576
-8 -3 10 -0.3681 0.0228
-8 -3 11 -0.1655 -0.3521
-8 -2 -7 -0.0042 0.1990
-8 -2 -6 -0.1653 0.0150
-8 -2 -5 -0.1006 -0.1822
-8 -2 -4 0.1975 -0.1902
-8 -2 -3 0.2520 0.1289
-8 -2 -2 0.0083 0.2963
-8 -2 -1 -0.3147 0.0976
-8 -2 0 -0.0541 -0.2681
-8 -2 1 0.1599 0.0772
-8 -2 2 -0.1868 0.0805
-8 -2 3 -0.1159 -0.2315
-8 -2 4 0.2431 -0.2177
-8 -2 5 0.2315 0.2237
-8 -2 6 -0.1168 0.0766
-8 -2 7 0.1583 0.0785
-8 -2 8 -0.2419 0.3263
-8 -2 9 -0.3707 -0.2437
-8 -2 10 0.0876 -0.3211
-8 -2 11 0.2132 -0.1099
-8 -2 12 0.2387 0.0828
-8 -1 -8 0.1328 0.1722
-8 -1 -7 -0.1661 0.1502
-8 -1 -6 -0.2163 -0.2027
-8 -1 -5 0.2667 -0.2869
-8 -1 -4 0.3195 0.2701
-8 -1 -3 -0.1663 0.3158
-8 -1 -2 -0.2875 -0.0170
-8 -1 -1 -0.0722 -0.2231
-8 -1 0 0.1176 -0.0651
-8 -1 1 0.0198 0.0234
-8 -1 2 -0.0282 0.0030
-8 -1 3 -0.0142 -0.1505
-8 -1 4 0.2785 -0.0207
-8 -1 5 0.0382 0.2606
-8 -1 6 -0.0657 0.1148
-8 -1 7 -0.2320 0.1848
-8 -1 8 -0.3436 -0.2882
-8 -1 9 0.2087 -0.3508
-8 -1 10 0.2272 0.0265
-8 -1 11 0.1621 0.0349
-8 -1 12 0.1301 0.2730
-8 0 -9 0.0785 0.0306
-8 0 -8 -0.0433 0.1149
-8 0 -7 -0.1731 -0.0989
-8 0 -6 0.2084 -0.2163
-8 0 -5 0.2144 0.2991
-8 0 -4 -0.2996 0.1813
-8 0 -3 -0.1343 -0.2209
-8 0 -2 0.1266 -0.0595
-8 0 -1 -0.0528 0.0535
-8 0 0 0.0135 -0.1580
-8 0 1 0.1724 0.0985
-8 0 2 -0.1870 0.0514
-8 0 3 0.1435 -0.2327
-8 0 4 0.2166 0.2691
-8 0 5 -0.2177 0.1806
-8 0 6 -0.1762 -0.0179
-8 0 7 -0.1930 -0.1919
-8 0 8 0.1652 -0.2871
-8 0 9 0.2221 0.0643
-8 0 10 0.0776 0.0357
-8 0 11 0.1760 0.2007
-8 1 -10 -0.0342 -0.0228
-8 1 -9 0.0107 0.0055
-8 1 -8 -0.0565 -0.0281
-8 1 -7 0.1312 -0.0740
-8 1 -6 0.0318 0.2506
-8 1 -5 -0.3105 -0.0237
-8 1 -4 0.0365 -0.3090
-8 1 -3 0.2993 0.0327
-8 1 -2 -0.0868 0.2910
-8 1 -1 -0.2292 -0.2066
-8 1 0 0.3010 -0.0753
-8 1 1 -0.1299 0.2697
-8 1 2 -0.1053 -0.2925
-8 1 3 0.3413 0.0925
-8 1 4 -0.1929 0.2827
-8 1 5 -0.1896 -0.1377
-8 1 6 -0.0137 -0.1295
-8 1 7 0.1063 -0.1393
-8 1 8 0.1495 0.0799
-8 1 9 -0.0258 0.0333
-8 1 10 0.1507 0.0455
-8 1 11 -0.1054 0.2986
-8 2 -11 -0.0168 -0.0400
-8 2 -10 0.0365 0.0309
-8 2 -9 -0.0789 0.0222
-8 2 -8 0.0534 -0.0733
-8 2 -7 -0.0282 0.1687
-8 2 -6 -0.2357 -0.1683
-8 2 -5 0.2193 -0.2236
-8 2 -4 0.2069 0.1384
-8 2 -3 -0.0355 0.2486
-8 2 -2 -0.2960 -0.0432
-8 2 -1 0.1632 -0.2424
-8 2 0 0.0604 0.2773
-8 2 1 -0.2800 -0.1645
-8 2 2 0.3145 -0.1685
-8 2 3 0.0278 0.3312
-8 2 4 -0.2480 -0.0471
-8 2 5 0.0258 -0.1523
-8 2 6 0.1081 -0.0403
-8 2 7 0.0729 0.1114
-8 2 8 -0.1207 0.0324
-8 2 9 0.0665 -0.1114
-8 2 10 0.0868 0.1753
-8 3 -11 0.1394 0.1010
-8 3 -10 -0.1631 0.1707
-8 3 -9 -0.1315 -0.1718
-8 3 -8 0.0632 -0.0130
-8 3 -7 -0.0980 -0.1480
-8 3 -6 0.3240 -0.1068
-8 3 -5 0.0370 0.3218
-8 3 -4 -0.1577 0.0007
-8 3 -3 -0.0459 0.0025
-8 3 -2 -0.0227 -0.0996
-8 3 -1 0.0705 0.0830
-8 3 0 -0.2033 -0.0438
-8 3 1 0.1669 -0.2496
-8 3 2 0.2116 0.2237
-8 3 3 -0.1993 0.1379
-8 3 4 -0.0829 -0.1430
-8 3 5 0.1202 -0.0591
-8 3 6 0.0383 0.1469
-8 3 7 -0.1808 0.0006
-8 3 8 0.0378 -0.1835
-8 3 9 0.1653 0.0560
-8 4 -11 -0.1135 0.2833
-8 4 -10 -0.3101 -0.1433
-8 4 -9 0.0909 -0.2264
-8 4 -8 0.0818 -0.0754
-8 4 -7 0.2874 -0.0091
-8 4 -6 -0.0167 0.4016
-8 4 -5 -0.3366 -0.1026
-8 4 -4 0.1525 -0.1618
-8 4 -3 0.0208 0.1437
-8 4 -2 -0.1241 -0.0102
-8 4 -1 -0.0401 -0.1286
-8 4 0 0.1421 -0.1041
-8 4 1 0.1393 0.1336
-8 4 2 -0.0975 0.1413
-8 4 3 -0.1278 -0.0661
-8 4 4 0.0881 -0.1075
-8 4 5 0.0624 0.1740
-8 4 6 -0.2619 -0.0185
-8 4 7 0.0932 -0.2709
-8 5 -10 0.0100 -0.2576
-8 5 -9 0.1559 -0.0643
-8 5 -8 0.1960 0.0455
-8 5 -7 -0.0085 0.3091
-8 5 -6 -0.3246 -0.0530
-8 5 -5 0.1225 -0.2430
-8 5 -4 0.1374 0.1738
-8 5 -3 -0.2095 0.0684
-8 5 -2 -0.0378 -0.2376
-8 5 -1 0.2413 -0.0219
-8 5 0 0.0126 0.2021
-8 5 1 -0.1296 0.0179
-8 5 2 -0.0472 -0.0654
-8 5 3 0.0677 -0.0950
-8 5 4 0.1229 0.1701
-8 5 5 -0.3233 0.0777
-8 5 6 0.0365 -0.4038
-8 6 -9 0.0872 0.0304
-8 6 -8 -0.0043 0.1451
-8 6 -7 -0.1620 -0.0252
-8 6 -6 0.0592 -0.1318
-8 6 -5 0.0970 0.0808
-8 6 -4 -0.1034 0.0895
-8 6 -3 -0.0922 -0.1438
-8 6 -2 0.1830 -0.0753
-8 6 -1 0.0416 0.1878
-8 6 0 -0.1502 0.0200
-8 6 1 -0.0351 -0.0944
-8 6 2 0.0651 -0.0950
-8 6 3 0.1789 0.1127
-8 6 4 -0.2467 0.2237
-8 7 -8 -0.0134 -0.0629
-8 7 -7 0.0895 0.0083
-8 7 -6 -0.0288 0.0705
-8 7 -5 -0.0228 -0.0140
-8 7 -4 -0.0228 0.0110
-8 7 -3 -0.0210 -0.0424
-8 7 -2 0.0391 -0.0312
-8 7 -1 0.0518 0.0435
-8 7 0 -0.0756 0.0672
-8 7 1 -0.0615 -0.1300
-8 7 2 0.1968 -0.0244
-8 8 -7 -0.0765 0.1374
-8 8 -6 -0.0691 -0.0918
-8 8 -5 0.0829 0.0164
-8 8 -4 -0.0870 0.0822
-8 8 -3 -0.1019 -0.1553
-8 8 -2 0.2326 -0.1020
-8 8 -1 0.0449 0.2860
-8 8 0 -0.2745 -0.0483
-8 9 -6 0.0843 -0.0715
-8 9 -5 0.0121 0.1078
-8 9 -4 -0.1576 -0.0443
-8 9 -3 0.1286 -0.2127
-7 -10 4 0.0772 -0.0330
-7 -9 1 0.0761 -0.1892
-7 -9 2 0.0378 0.0163
-7 -9 3 0.0727 -0.0505
-7 -9 4 0.0742 0.1298
-7 -9 5 -0.1595 0.0581
-7 -9 6 0.0219 -0.2059
-7 -8 -1 -0.3601 0.0446
-7 -8 0 -0.0209 -0.2844
-7 -8 1 0.1744 -0.0396
-7 -8 2 0.0934 0.0831
-7 -8 3 -0.0279 0.1336
-7 -8 4 -0.1400 0.0039
-7 -8 5 0.0038 -0.1490
-7 -8 6 0.1922 0.1141
-7 -8 7 -0.3642 0.2329
-7 -7 -3 0.0832 0.2694
-7 -7 -2 -0.1860 0.1013
-7 -7 -1 -0.1415 -0.0882
-7 -7 0 0.0391 -0.2171
-7 -7 1 0.2987 0.0609
-7 -7 2 -0.1219 0.3254
-7 -7 3 -0.2621 -0.1628
-7 -7 4 0.1624 -0.1467
-7 -7 5 0.0549 0.1759
-7 -7 6 -0.2830 0.0178
-7 -7 7 -0.0003 -0.4942
-7 -7 8 0.7321 0.0400
-7 -6 -4 0.1562 0.2204
-7 -6 -3 -0.0485 0.1343
-7 -6 -2 -0.1411 0.1486
-7 -6 -1 -0.2602 -0.2240
-7 -6 0 0.3672 -0.2255
-7 -6 1 0.0678 0.4862
-7 -6 2 -0.4845 -0.1217
-7 -6 3 0.2520 -0.3394
-7 -6 4 0.1250 0.3124
-7 -6 5 -0.3713 -0.0677
-7 -6 6 0.2093 -0.4794
-7 -6 7 0.5996 0.3073
-7 -6 8 -0.3484 0.6666
-7 -6 9 -0.6724 -0.3207
-7 -5 -6 0.2137 -0.2364
-7 -5 -5 0.2471 0.1499
-7 -5 -4 0.0266 0.2008
-7 -5 -3 -0.1372 0.2320
-7 -5 -2 -0.3677 -0.1142
-7 -5 -1 0.1772 -0.3747
-7 -5 0 0.2488 0.3117
-7 -5 1 -0.4259 0.0400
-7 -5 2 0.1649 -0.4183
-7 -5 3 0.2760 0.3018
-7 -5 4 -0.3900 0.0756
-7 -5 5 0.1196 -0.4922
-7 -5 6 0.6004 0.3066
-7 -5 7 -0.4670 0.6209
-7 -5 8 -0.5120 -0.5223
-7 -5 9 0.4330 -0.3669
-7 -5 10 0.2911 0.2863
-7 -4 -7 0.1112 -0.2512
-7 -4 -6 0.2264 0.0999
-7 -4 -5 0.0474 0.1771
-7 -4 -4 -0.1247 0.2160
-7 -4 -3 -0.2905 -0.0674
-7 -4 -2 0.0252 -0.2415
-7 -4 -1 0.1093 0.0456
-7 -4 0 -0.1373 -0.0564
-7 -4 1 0.2118 -0.2280
-7 -4 2 0.2339 0.3094
-7 -4 3 -0.3373 0.1574
-7 -4 4 -0.0582 -0.3580
-7 -4 5 0.4336 0.0580
-7 -4 6 -0.2347 0.5064
-7 -4 7 -0.4423 -0.4353
-7 -4 8 0.5211 -0.2253
-7 -4 9 0.0160 0.4184
-7 -4 10 -0.2245 -0.0386
-7 -4 11 -0.0291 -0.0825
-7 -3 -9 -0.1649 0.1979
-7 -3 -8 -0.0046 -0.2136
-7 -3 -7 0.1556 0.0976
-7 -3 -6 -0.0236 0.0748
-7 -3 -5 -0.0457 0.1300
-7 -3 -4 -0.1934 -0.0519
-7 -3 -3 0.0365 -0.0884
-7 -3 -2 -0.1252 -0.0035
-7 -3 -1 0.0119 -0.3374
-7 -3 0 0.4788 -0.0351
-7 -3 1 0.0843 0.5210
-7 -3 2 -0.4516 0.0832
-7 -3 3 -0.0567 -0.3110
-7 -3 4 0.2086 -0.0410
-7 -3 5 -0.0159 0.2125
-7 -3 6 -0.2374 -0.1884
-7 -3 7 0.4158 -0.1369
-7 -3 8 -0.0857 0.5223
-7 -3 9 -0.4199 -0.2621
-7 -3 10 0.2697 -0.1965
-7 -3 11 -0.0212 0.1524
-7 -3 12 -0.0022 -0.1841
-7 -2 -10 -0.0684 0.2913
-7 -2 -9 -0.1274 -0.1299
-7 -2 -8 0.0787 0.0468
-7 -2 -7 -0.0698 -0.0275
-7 -2 -6 0.0714 0.0554
-7 -2 -5 -0.1705 0.0172
-7 -2 -4 0.0660 -0.1209
-7 -2 -3 -0.1121 0.0983
-7 -2 -2 -0.0733 -0.4183
-7 -2 -1 0.6621 -0.0405
-7 -2 0 0.0241 0.7620
-7 -2 1 -0.6935 0.0009
-7 -2 2 0.0346 -0.4798
-7 -2 3 0.2176 0.0426
-7 -2 4 -0.0228 0.0494
-7 -2 5 -0.0303 -0.0673
-7 -2 6 0.2454 -0.0527
-7 -2 7 -0.0204 0.4687
-7 -2 8 -0.5640 -0.1771
-7 -2 9 0.2925 -0.4630
-7 -2 10 0.2362 0.3063
-7 -2 11 -0.2558 -0.0321
-7 -2 12 0.2844 -0.1573
-7 -1 -11 0.0163 0.2449
-7 -1 -10 -0.1724 -0.0161
-7 -1 -9 -0.0345 -0.0178
-7 -1 -8 -0.0588 -0.1605
-7 -1 -7 0.2511 0.0242
-7 -1 -6 -0.1889 0.2228
-7 -1 -5 -0.0922 -0.2790
-7 -1 -4 0.1802 0.0619
-7 -1 -3 -0.1640 -0.1081
-7 -1 -2 0.4720 -0.1790
-7 -1 -1 0.1170 0.7493
-7 -1 0 -0.8203 0.0129
-7 -1 1 0.0883 -0.6623
-7 -1 2 0.3573 0.1340
-7 -1 3 -0.0962 0.0637
-7 -1 4 0.0741 -0.0302
-7 -1 5 0.0519 0.0444
-7 -1 6 0.0263 0.2048
-7 -1 7 -0.3887 0.0230
-7 -1 8 0.0465 -0.4688
-7 -1 9 0.4088 0.1242
-7 -1 10 -0.2048 0.2462
-7 -1 11 -0.0136 -0.2870
-7 -1 12 0.2984 0.2291
-7 0 -12 0.0367 0.0861
-7 0 -11 -0.0918 0.0389
-7 0 -10 -0.0901 0.0010
-7 0 -9 -0.0935 -0.2280
-7 0 -8 0.3796 -0.0747
-7 0 -7 -0.0645 0.4524
-7 0 -6 -0.4141 -0.2495
-7 0 -5 0.3746 -0.2718
-7 0 -4 0.0559 0.3296
-7 0 -3 -0.0659 -0.1492
-7 0 -2 0.2287 0.3192
-7 0 -1 -0.6126 0.1376
-7 0 0 0.0476 -0.6435
-7 0 1 0.4083 0.1908
-7 0 2 -0.1980 0.0595
-7 0 3 0.2060 -0.0806
-7 0 4 -0.0508 0.2735
-7 0 5 -0.1773 -0.0768
-7 0 6 -0.0201 -0.0419
-7 0 7 -0.0458 -0.1513
-7 0 8 0.2332 -0.0749
-7 0 9 0.0366 0.2507
-7 0 10 -0.2043 -0.0933
-7 0 11 0.2666 -0.0853
-7 1 -13 -0.0183 -0.0808
-7 1 -12 0.0337 -0.0070
-7 1 -11 -0.0146 0.0435
-7 1 -10 -0.1064 -0.1070
-7 1 -9 0.2525 -0.1496
-7 1 -8 0.1309 0.3896
-7 1 -7 -0.4963 0.0396
-7 1 -6 0.1374 -0.5524
-7 1 -5 0.4822 0.3497
-7 1 -4 -0.4384 0.2472
-7 1 -3 0.0313 -0.2746
-7 1 -2 -0.0581 0.1510
-7 1 -1 -0.0403 -0.3061
-7 1 0 0.2833 0.1732
-7 1 1 -0.3008 0.0221
-7 1 2 0.2907 -0.2560
-7 1 3 0.0944 0.4752
-7 1 4 -0.4669 -0.0571
-7 1 5 0.1092 -0.3230
-7 1 6 0.1402 0.0736
-7 1 7 -0.0171 -0.0248
-7 1 8 0.1429 0.0307
-7 1 9 -0.0853 0.1608
-7 1 10 -0.0393 -0.1396
-7 2 -13 0.1036 -0.0712
-7 2 -12 0.0699 0.0345
-7 2 -11 -0.0018 0.0432
-7 2 -10 0.0211 -0.0137
-7 2 -9 0.0664 0.0957
-7 2 -8 -0.1956 0.1516
-7 2 -7 -0.1851 -0.3693
-7 2 -6 0.5623 -0.0485
-7 2 -5 -0.2292 0.6050
-7 2 -4 -0.4213 -0.4312
-7 2 -3 0.3837 -0.1643
-7 2 -2 0.0567 0.1659
-7 2 -1 -0.0134 0.1457
-7 2 0 -0.2860 -0.0615
-7 2 1 0.2443 -0.3240
-7 2 2 0.2327 0.4057
-7 2 3 -0.4406 0.0935
-7 2 4 0.0001 -0.3484
-7 2 5 0.1973 0.0265
-7 2 6 -0.0431 0.0464
-7 2 7 0.0953 -0.1012
-7 2 8 0.1630 0.2222
-7 2 9 -0.2765 0.1405
-7 3 -12 0.0714 0.0150
-7 3 -11 0.0044 0.1620
-7 3 -10 -0.1840 -0.0056
-7 3 -9 0.0343 -0.0865
-7 3 -8 -0.1081 -0.0150
-7 3 -7 0.2164 -0.2430
-7 3 -6 0.1596 0.4713
-7 3 -5 -0.5804 -0.0963
-7 3 -4 0.3048 -0.4830
-7 3 -3 0.3218 0.3279
-7 3 -2 -0.2444 0.2473
-7 3 -1 -0.2485 -0.2058
-7 3 0 0.2484 -0.2168
-7 3 1 0.1023 0.2891
-7 3 2 -0.2436 -0.0397
-7 3 3 0.1171 -0.1082
-7 3 4 -0.0422 0.0920
-7 3 5 -0.0311 -0.1183
-7 3 6 0.1055 -0.0610
-7 3 7 0.2282 0.0858
-7 3 8 -0.1347 0.4121
-7 4 -11 -0.1974 0.1525
-7 4 -10 -0.0689 -0.2349
-7 4 -9 0.1326 0.0316
-7 4 -8 -0.0281 -0.0598
-7 4 -7 0.1837 0.1234
-7 4 -6 -0.3123 0.1329
-7 4 -5 0.0239 -0.3995
-7 4 -4 0.3772 0.1435
-7 4 -3 -0.1877 0.3325
-7 4 -2 -0.2927 -0.2282
-7 4 -1 0.3030 -0.1930
-7 4 0 -0.0100 0.3506
-7 4 1 -0.2852 -0.2576
-7 4 2 0.4247 -0.0905
-7 4 3 -0.1508 0.4097
-7 4 4 -0.2231 -0.2905
-7 4 5 0.2180 -0.0227
-7 4 6 0.0103 -0.0165
-7 4 7 0.2149 0.2268
-7 5 -11 -0.2061 -0.0339
-7 5 -10 0.0912 -0.1053
-7 5 -9 0.0157 0.0594
-7 5 -8 0.0067 0.0063
-7 5 -7 -0.0631 0.0239
-7 5 -6 0.0153 -0.1147
-7 5 -5 0.1380 0.0463
-7 5 -4 -0.0466 0.1783
-7 5 -3 -0.2459 -0.0790
-7 5 -2 0.1929 -0.2586
-7 5 -1 0.1268 0.3351
-7 5 0 -0.3908 -0.1363
-7 5 1 0.4080 -0.2844
-7 5 2 0.0387 0.5278
-7 5 3 -0.3925 -0.2156
-7 5 4 0.2915 -0.0559
-7 5 5 -0.2533 0.0916
-7 5 6 0.2612 -0.2983
-7 6 -10 0.0631 -0.0635
-7 6 -9 0.0046 0.0558
-7 6 -8 -0.0594 -0.0793
-7 6 -7 0.1696 -0.0218
-7 6 -6 -0.0518 0.1917
-7 6 -5 -0.1146 -0.0748
-7 6 -4 -0.0160 -0.0166
-7 6 -3 0.0084 -0.1603
-7 6 -2 0.2209 0.1062
-7 6 -1 -0.2189 0.1210
-7 6 0 0.0907 -0.2393
-7 6 1 0.1189 0.2799
-7 6 2 -0.2986 -0.1040
-7 6 3 0.2976 -0.0746
-7 6 4 -0.2958 0.2997
-7 7 -9 -0.1151 0.0377
-7 7 -8 0.1343 -0.1156
-7 7 -7 0.0033 0.2787
-7 7 -6 -0.2844 -0.1401
-7 7 -5 0.1771 -0.1580
-7 7 -4 0.0195 0.0713
-7 7 -3 0.0711 -0.0340
-7 7 -2 0.0168 0.1217
-7 7 -1 -0.0510 0.0052
-7 7 0 -0.0528 0.0711
-7 7 1 -0.1398 -0.1660
-7 7 2 0.3050 -0.0696
-7 8 -8 0.1249 0.1020
-7 8 -7 -0.2632 -0.0195
-7 8 -6 0.1627 -0.2770
-7 8 -5 0.1729 0.1854
-7 8 -4 -0.1019 0.0595
-7 8 -3 0.0100 -0.0271
-7 8 -2 0.0347 0.0659
-7 8 -1 -0.1431 0.0939
-7 8 0 -0.1285 -0.2302
-7 9 -7 0.0541 -0.2011
-7 9 -6 0.2265 0.1432
-7 9 -5 -0.1360 0.1665
-7 9 -4 -0.0985 -0.0835
-7 9 -3 0.0750 -0.0385
-6 -11 2 0.3390 -0.0043
-6 -11 3 -0.0469 0.2836
-6 -11 4 -0.1812 -0.0564
-6 -10 0 -0.0827 -0.1679
-6 -10 1 0.3438 -0.1044
-6 -10 2 0.0228 0.3889
-6 -10 3 -0.2839 -0.0531
-6 -10 4 0.0475 -0.1435
-6 -10 5 0.0770 0.0050
-6 -9 -2 0.0346 -0.2729
-6 -9 -1 0.1441 -0.0273
-6 -9 0 0.1248 0.0299
-6 -9 1 0.0094 0.1815
-6 -9 2 -0.1429 0.0133
-6 -9 3 -0.0592 -0.0522
-6 -9 4 0.0062 -0.1471
-6 -9 5 0.1960 0.0354
-6 -9 6 -0.0705 0.1652
-6 -8 -4 -0.2944 0.1056
-6 -8 -3 -0.1778 -0.2791
-6 -8 -2 0.2546 -0.2209
-6 -8 -1 0.1823 0.2353
-6 -8 0 -0.2029 0.0548
-6 -8 1 0.1177 -0.1126
-6 -8 2 -0.0692 0.2511
-6 -8 3 -0.2639 -0.3032
-6 -8 4 0.4760 -0.1469
-6 -8 5 -0.0155 0.4989
-6 -8 6 -0.4038 -0.1213
-6 -8 7 0.1435 -0.3126
-6 -8 8 0.3109 0.1296
-6 -7 -5 -0.2044 0.0544
-6 -7 -4 -0.2124 -0.0494
-6 -7 -3 -0.0332 -0.3843
-6 -7 -2 0.4249 0.0247
-6 -7 -1 -0.1557 0.2573
-6 -7 0 0.0563 -0.2142
-6 -7 1 0.0895 0.3549
-6 -7 2 -0.4843 -0.2028
-6 -7 3 0.5166 -0.3969
-6 -7 4 0.1784 0.6839
-6 -7 5 -0.6536 -0.0348
-6 -7 6 0.1738 -0.5149
-6 -7 7 0.3832 0.2559
-6 -7 8 -0.2956 0.2980
-6 -7 9 -0.2358 -0.2643
-6 -6 -7 -0.1126 0.4800
-6 -6 -6 -0.3341 -0.0950
-6 -6 -5 -0.0308 -0.0362
-6 -6 -4 -0.2401 -0.2355
-6 -6 -3 0.3840 -0.3329
-6 -6 -2 0.2268 0.3484
-6 -6 -1 -0.1265 0.0547
-6 -6 0 0.0124 0.1547
-6 -6 1 -0.3348 -0.1104
-6 -6 2 0.3615 -0.3261
-6 -6 3 0.1658 0.5774
-6 -6 4 -0.6317 -0.0229
-6 -6 5 0.1529 -0.5416
-6 -6 6 0.4118 0.2509
-6 -6 7 -0.3728 0.2896
-6 -6 8 -0.1394 -0.4625
-6 -6 9 0.3883 0.0452
-6 -6 10 -0.1981 0.1439
-6 -5 -8 -0.0497 0.6257
-6 -5 -7 -0.5172 -0.0664
-6 -5 -6 -0.0010 -0.2275
-6 -5 -5 -0.1076 -0.1383
-6 -5 -4 0.2413 -0.3324
-6 -5 -3 0.3886 0.2092
-6 -5 -2 -0.0538 0.3368
-6 -5 -1 -0.2815 0.1064
-6 -5 0 -0.1538 -0.2965
-6 -5 1 0.3922 -0.0545
-6 -5 2 -0.1386 0.5026
-6 -5 3 -0.5226 -0.3174
-6 -5 4 0.3848 -0.4162
-6 -5 5 0.2713 0.3562
-6 -5 6 -0.3686 0.1829
-6 -5 7 -0.1093 -0.5071
-6 -5 8 0.6413 0.0640
-6 -5 9 -0.3295 0.5465
-6 -5 10 -0.1949 -0.5401
-6 -4 -10 0.3304 -0.1093
-6 -4 -9 0.0869 0.4673
-6 -4 -8 -0.4395 0.0616
-6 -4 -7 -0.1165 -0.2437
-6 -4 -6 -0.0030 -0.2432
-6 -4 -5 0.3178 -0.1679
-6 -4 -4 0.2204 0.2132
-6 -4 -3 0.0474 0.2398
-6 -4 -2 -0.3061 0.2753
-6 -4 -1 -0.2823 -0.4155
-6 -4 0 0.5159 -0.0425
-6 -4 1 -0.3196 0.5683
-6 -4 2 -0.5341 -0.6429
-6 -4 3 0.7981 -0.3738
-6 -4 4 0.1319 0.7360
-6 -4 5 -0.5629 -0.0445
-6 -4 6 0.0717 -0.4997
-6 -4 7 0.6446 0.0646
-6 -4 8 -0.1938 0.8110
-6 -4 9 -0.7236 -0.4466
-6 -4 10 0.6496 -0.3498
-6 -4 11 -0.0823 0.6940
-6 -3 -11 -0.0109 -0.0670
-6 -3 -10 0.0733 0.1326
-6 -3 -9 -0.1834 0.0493
-6 -3 -8 -0.0976 -0.0830
-6 -3 -7 -0.0762 -0.2582
-6 -3 -6 0.4200 -0.1457
-6 -3 -5 0.0726 0.3959
-6 -3 -4 -0.1119 -0.0390
-6 -3 -3 0.0322 0.2690
-6 -3 -2 -0.4523 -0.1344
-6 -3 -1 0.3541 -0.2687
-6 -3 0 -0.1958 0.5006
-6 -3 1 -0.5192 -0.7142
-6 -3 2 1.0846 -0.3883
-6 -3 3 0.1090 1.1841
-6 -3 4 -1.0040 -0.2089
-6 -3 5 0.3689 -0.7171
-6 -3 6 0.5925 0.3016
-6 -3 7 -0.1712 0.7155
-6 -3 8 -0.8675 -0.1685
-6 -3 9 0.2838 -0.7895
-6 -3 10 0.4852 0.3898
-6 -3 11 -0.4439 0.1489
-6 -3 12 0.1027 -0.4620
-6 -2 -12 -0.2032 0.0714
-6 -2 -11 -0.0462 -0.0751
-6 -2 -10 -0.0422 -0.0655
-6 -2 -9 0.0482 -0.0263
-6 -2 -8 -0.0924 -0.0990
-6 -2 -7 0.3434 -0.1658
-6 -2 -6 0.0723 0.5177
-6 -2 -5 -0.4478 -0.1636
-6 -2 -4 0.3684 -0.1246
-6 -2 -3 -0.2288 0.3628
-6 -2 -2 -0.1316 -0.3104
-6 -2 -1 -0.0030 0.1718
-6 -2 0 -0.3769 -0.5694
-6 -2 1 1.1289 -0.3937
-6 -2 2 0.1916 1.4659
-6 -2 3 -1.4634 -0.1828
-6 -2 4 0.5424 -1.1550
-6 -2 5 0.7696 0.6567
-6 -2 6 -0.4856 0.5799
-6 -2 7 -0.6235 -0.2161
-6 -2 8 0.0198 -0.6821
-6 -2 9 0.5899 -0.0952
-6 -2 10 0.1454 0.4213
-6 -2 11 -0.3025 0.0667
-6 -2 12 0.1325 -0.2088
-6 -1 -13 -0.2069 0.1562
-6 -1 -12 -0.1053 -0.1114
-6 -1 -11 -0.0520 -0.0969
-6 -1 -10 0.1163 -0.1184
-6 -1 -9 0.0347 0.0540
-6 -1 -8 0.1480 -0.1015
-6 -1 -7 0.1441 0.4294
-6 -1 -6 -0.6476 0.0014
-6 -1 -5 0.2904 -0.6569
-6 -1 -4 0.4298 0.5473
-6 -1 -3 -0.5568 0.1433
-6 -1 -2 -0.0753 -0.2750
-6 -1 -1 -0.1256 -0.3607
-6 -1 0 0.8794 -0.4051
-6 -1 1 0.4068 1.3733
-6 -1 2 -1.6146 0.1043
-6 -1 3 0.3736 -1.5016
-6 -1 4 1.1200 0.7645
-6 -1 5 -0.8446 0.7174
-6 -1 6 -0.4954 -0.6181
-6 -1 7 0.2559 -0.4129
-6 -1 8 0.3027 -0.1220
-6 -1 9 0.4711 0.1563
-6 -1 10 -0.1273 0.6704
-6 -1 11 -0.5660 -0.2502
-6 0 -14 -0.1097 0.1517
-6 0 -13 -0.0964 -0.0796
-6 0 -12 -0.0714 -0.0458
-6 0 -11 0.0763 -0.1984
-6 0 -10 0.1804 0.1213
-6 0 -9 -0.0770 0.0369
-6 0 -8 0.1372 0.0974
-6 0 -7 -0.3878 0.2375
-6 0 -6 -0.1582 -0.7122
-6 0 -5 0.8951 0.1188
-6 0 -4 -0.4124 0.7977
-6 0 -3 -0.5166 -0.4491
-6 0 -2 0.1426 -0.3437
-6 0 -1 0.4799 -0.3000
-6 0 0 0.5668 0.8516
-6 0 1 -1.2126 0.4795
-6 0 2 -0.0754 -1.3529
-6 0 3 1.2217 0.4329
-6 0 4 -0.7788 0.9387
-6 0 5 -0.6823 -0.8186
-6 0 6 0.6052 -0.5008
-6 0 7 0.2752 0.2528
-6 0 8 0.1941 -0.0544
-6 0 9 0.3114 0.6638
-6 0 10 -0.9419 0.2738
-6 0 11 0.0158 -0.8420
-6 1 -14 -0.0548 -0.0198
-6 1 -13 -0.0716 0.0099
-6 1 -12 0.0060 -0.2112
-6 1 -11 0.2703 0.1145
-6 1 -10 -0.2222 0.2113
-6 1 -9 -0.0713 -0.2558
-6 1 -8 0.1628 0.1283
-6 1 -7 -0.3253 -0.1207
-6 1 -6 0.5450 -0.3595
-6 1 -5 0.1477 0.8579
-6 1 -4 -0.8228 -0.1232
-6 1 -3 0.1493 -0.5162
-6 1 -2 0.2672 -0.1368
-6 1 -1 0.4839 0.2974
-6 1 0 -0.5295 0.5950
-6 1 1 -0.3872 -0.7434
-6 1 2 0.8104 -0.0021
-6 1 3 -0.3383 0.7645
-6 1 4 -0.7165 -0.4837
-6 1 5 0.4404 -0.7042
-6 1 6 0.6038 0.3091
-6 1 7 -0.1218 0.2547
-6 1 8 0.2804 0.1819
-6 1 9 -0.5737 0.6770
-6 1 10 -0.6643 -0.8494
-6 2 -13 -0.0999 -0.1701
-6 2 -12 0.2737 -0.0095
-6 2 -11 -0.1465 0.3138
-6 2 -10 -0.3098 -0.2916
-6 2 -9 0.3952 -0.2512
-6 2 -8 0.0735 0.3839
-6 2 -7 -0.1487 -0.1737
-6 2 -6 0.2891 0.2469
-6 2 -5 -0.5142 0.1812
-6 2 -4 -0.0409 -0.4432
-6 2 -3 0.1711 -0.1075
-6 2 -2 0.3449 0.0095
-6 2 -1 -0.0762 0.4927
-6 2 0 -0.3893 -0.2244
-6 2 1 0.2858 -0.1280
-6 2 2 -0.0774 0.2603
-6 2 3 -0.2710 -0.0921
-6 2 4 -0.0462 -0.4057
-6 2 5 0.5884 -0.1670
-6 2 6 0.1307 0.5894
-6 2 7 -0.2316 -0.0065
-6 2 8 0.0425 0.3691
-6 2 9 -0.8413 -0.1293
-6 2 10 0.3968 -0.8916
-6 3 -12 0.1106 0.2017
-6 3 -11 -0.2730 -0.0095
-6 3 -10 0.1296 -0.3655
-6 3 -9 0.4088 0.2492
-6 3 -8 -0.2877 0.3080
-6 3 -7 -0.1254 -0.1559
-6 3 -6 -0.0508 -0.0308
-6 3 -5 0.0430 -0.1042
-6 3 -4 -0.0518 -0.0110
-6 3 -3 0.2157 -0.2038
-6 3 -2 0.1524 0.4002
-6 3 -1 -0.3502 -0.0313
-6 3 0 0.1224 -0.0874
-6 3 1 -0.1509 0.0235
-6 3 2 0.1501 -0.1495
-6 3 3 -0.1132 0.2042
-6 3 4 -0.0350 -0.4508
-6 3 5 0.5816 0.2668
-6 3 6 -0.4416 0.3447
-6 3 7 0.1254 -0.2705
-6 3 8 -0.1889 0.4843
-6 3 9 -0.4809 -0.6212
-6 3 10 0.7378 -0.1558
-6 4 -12 0.0223 0.2496
-6 4 -11 -0.1990 -0.0723
-6 4 -10 0.2084 -0.1291
-6 4 -9 0.0445 0.3060
-6 4 -8 -0.3164 0.0083
-6 4 -7 -0.0357 -0.3072
-6 4 -6 0.3367 -0.0078
-6 4 -5 -0.1716 0.3088
-6 4 -4 -0.0996 -0.3775
-6 4 -3 0.3727 0.2026
-6 4 -2 -0.3346 0.1164
-6 4 -1 0.1611 -0.1600
-6 4 0 -0.1716 0.2075
-6 4 1 0.0151 -0.3779
-6 4 2 0.2798 0.3350
-6 4 3 -0.5108 -0.0890
-6 4 4 0.4914 -0.3786
-6 4 5 -0.0169 0.6080
-6 4 6 -0.2816 -0.4075
-6 4 7 0.5069 0.3007
-6 4 8 -0.7313 0.2749
-6 4 9 0.0601 -0.7301
-6 5 -11 -0.1321 -0.2372
-6 5 -10 0.1949 -0.0482
-6 5 -9 -0.0275 0.1782
-6 5 -8 -0.2065 -0.1319
-6 5 -7 0.3079 -0.1978
-6 5 -6 0.0285 0.4731
-6 5 -5 -0.4429 -0.2666
-6 5 -4 0.4476 -0.1631
-6 5 -3 -0.1598 0.3142
-6 5 -2 0.0540 -0.2484
-6 5 -1 0.0367 0.3696
-6 5 0 -0.4038 -0.2916
-6 5 1 0.4837 -0.1402
-6 5 2 -0.2504 0.3876
-6 5 3 -0.0321 -0.5044
-6 5 4 0.4132 0.3586
-6 5 5 -0.4873 -0.0008
-6 5 6 0.4620 -0.2396
-6 5 7 -0.1798 0.6764
-6 6 -10 0.1495 0.0540
-6 6 -9 -0.1106 0.1550
-6 6 -8 -0.0245 -0.2308
-6 6 -7 0.2489 0.2379
-6 6 -6 -0.4474 0.0521
-6 6 -5 0.2422 -0.3996
-6 6 -4 0.1081 0.3669
-6 6 -3 -0.1790 -0.1859
-6 6 -2 0.2531 0.1995
-6 6 -1 -0.5100 0.0709
-6 6 0 0.2038 -0.5625
-6 6 1 0.3327 0.3726
-6 6 2 -0.3068 -0.0352
-6 6 3 0.2948 -0.0299
-6 7 -9 -0.1363 -0.0218
-6 7 -8 0.1984 -0.0459
-6 7 -7 -0.1799 0.2411
-6 7 -6 -0.0597 -0.3308
-6 7 -5 0.2456 0.1994
-6 7 -4 -0.2985 -0.0183
-6 7 -3 0.2551 -0.1400
-6 7 -2 -0.1700 0.3129
-6 7 -1 -0.1940 -0.4368
-6 7 0 0.5121 -0.0092
-6 7 1 -0.1093 0.3684
-6 8 -8 -0.0198 0.2064
-6 8 -7 -0.2393 -0.1448
-6 8 -6 0.2021 -0.0714
-6 8 -5 -0.1583 0.1023
-6 8 -4 0.0866 -0.2667
-6 8 -3 0.1891 0.2340
-6 8 -2 -0.2725 -0.0033
-6 8 -1 0.1874 -0.2254
-6 9 -7 0.0834 -0.2794
-6 9 -6 0.1334 0.0722
-6 9 -5 -0.0018 -0.0567
-6 9 -4 0.1702 0.0765
-5 -12 2 -0.0509 -0.0742
-5 -12 3 0.0519 -0.0106
-5 -11 0 0.0518 0.3051
-5 -11 1 -0.2976 -0.0966
-5 -11 2 0.1373 -0.1909
-5 -11 3 0.1006 0.0830
-5 -11 4 -0.0473 0.0826
-5 -11 10 0.2390 -0.2425
-5 -11 11 0.0931 0.2344
-5 -11 12 -0.1491 -0.1503
-5 -10 -2 0.0208 -0.4592
-5 -10 -1 0.3650 0.2506
-5 -10 0 -0.3970 0.1740
-5 -10 1 -0.0067 -0.3953
-5 -10 2 0.3133 0.0640
-5 -10 3 -0.0883 0.2471
-5 -10 4 -0.2061 -0.1571
-5 -10 5 0.2772 -0.1433
-5 -10 6 0.0674 0.3698
-5 -10 9 0.3151 -0.2879
-5 -10 10 0.2772 0.2882
-5 -10 11 -0.2077 0.0575
-5 -10 12 0.2786 -0.0597
-5 -10 13 -0.0787 0.5501
-5 -9 -4 -0.3596 0.3173
-5 -9 -3 -0.2151 -0.3822
-5 -9 -2 0.3814 -0.0628
-5 -9 -1 -0.0988 0.3563
-5 -9 0 -0.3052 -0.2346
-5 -9 1 0.3421 -0.2209
-5 -9 2 0.0740 0.4231
-5 -9 3 -0.4338 -0.1558
-5 -9 4 0.4204 -0.3134
-5 -9 5 0.0830 0.6115
-5 -9 6 -0.6528 -0.1225
-5 -9 7 0.1618 -0.5639
-5 -9 9 0.1636 0.2574
-5 -9 10 -0.0863 0.2240
-5 -9 11 -0.0771 0.0866
-5 -9 12 -0.2142 0.2209
-5 -9 13 -0.5188 -0.2402
-5 -9 14 0.1536 -0.6737
-5 -8 -6 0.3859 0.1461
-5 -8 -5 -0.1830 0.2435
-5 -8 -4 -0.0804 -0.1375
-5 -8 -3 0.1029 -0.0144
-5 -8 -2 0.0438 0.1738
-5 -8 -1 -0.3409 0.0565
-5 -8 0 0.0602 -0.4821
-5 -8 1 0.4475 0.3052
-5 -8 2 -0.5331 0.1744
-5 -8 3 0.2478 -0.5512
-5 -8 4 0.2902 0.6261
-5 -8 5 -0.8071 -0.1124
-5 -8 6 0.4180 -0.7774
-5 -8 7 0.6115 0.4799
-5 -8 8 -0.3264 0.3543
-5 -8 9 -0.0067 -0.0891
-5 -8 10 -0.0961 0.3802
-5 -8 11 -0.6684 -0.1336
-5 -8 12 -0.0010 -0.7291
-5 -8 13 0.5526 -0.2273
-5 -8 14 0.3959 0.2485
-5 -8 15 0.0367 0.4015
-5 -7 -7 0.3298 -0.0305
-5 -7 -6 -0.1008 0.1042
-5 -7 -5 0.2004 -0.1421
-5 -7 -4 0.1120 0.3569
-5 -7 -3 -0.2584 0.1371
-5 -7 -2 -0.2998 -0.0279
-5 -7 -1 -0.0972 -0.5253
-5 -7 0 0.6306 0.0176
-5 -7 1 -0.2823 0.4788
-5 -7 2 -0.0977 -0.4485
-5 -7 3 0.3146 0.3306
-5 -7 4 -0.6086 -0.0942
-5 -7 5 0.5424 -0.6780
-5 -7 6 0.6202 0.7952
-5 -7 7 -0.7983 0.4918
-5 -7 8 -0.2184 -0.6413
-5 -7 9 0.4127 0.2788
-5 -7 10 -0.8848 0.1627
-5 -7 11 0.0350 -1.3105
-5 -7 12 1.3323 0.0987
-5 -7 13 -0.0400 0.9645
-5 -7 14 -0.4090 0.0279
-5 -7 15 -0.0134 0.0942
-5 -7 16 -0.3742 0.0706
-5 -6 -9 -0.2422 -0.2788
-5 -6 -8 0.2909 -0.1489
-5 -6 -7 -0.0644 0.1278
-5 -6 -6 0.1624 -0.2757
-5 -6 -5 0.3944 0.3880
-5 -6 -4 -0.3825 0.4517
-5 -6 -3 -0.5251 -0.1798
-5 -6 -2 -0.0204 -0.6022
-5 -6 -1 0.5760 -0.0547
-5 -6 0 -0.0597 0.3691
-5 -6 1 -0.0249 -0.1520
-5 -6 2 0.0382 0.3131
-5 -6 3 -0.4947 -0.3253
-5 -6 4 0.7746 -0.4764
-5 -6 5 0.3736 1.0560
-5 -6 6 -1.0587 0.3433
-5 -6 7 -0.3640 -0.9017
-5 -6 8 0.7550 -0.1996
-5 -6 9 -0.3265 0.6423
-5 -6 10 -0.4871 -1.0578
-5 -6 11 1.5940 -0.2830
-5 -6 12 0.1010 1.6361
-5 -6 13 -1.1874 -0.0353
-5 -6 14 0.1629 -0.4787
-5 -6 15 -0.1859 0.2754
-5 -6 16 -0.3150 -0.5487
-5 -6 17 0.5285 -0.2724
-5 -5 -10 -0.2133 -0.2369
-5 -5 -9 0.2770 -0.1847
-5 -5 -8 0.0026 0.2333
-5 -5 -7 -0.0995 -0.2486
-5 -5 -6 0.4543 0.0305
-5 -5 -5 -0.0426 0.5811
-5 -5 -4 -0.6619 0.0466
-5 -5 -3 -0.0876 -0.6681
-5 -5 -2 0.4862 0.0145
-5 -5 -1 -0.1685 0.0731
-5 -5 0 0.4297 -0.1885
-5 -5 1 -0.0366 0.7905
-5 -5 2 -0.8554 -0.4796
-5 -5 3 0.9851 -0.6190
-5 -5 4 0.2288 1.3064
-5 -5 5 -1.2541 -0.0513
-5 -5 6 0.0183 -0.8996
-5 -5 7 0.5546 -0.2238
-5 -5 8 0.2910 0.4589
-5 -5 9 -0.5560 -0.0883
-5 -5 10 0.7575 -0.6364
-5 -5 11 0.5950 1.2863
-5 -5 12 -1.3663 0.4464
-5 -5 13 -0.2034 -0.9842
-5 -5 14 0.3303 0.1009
-5 -5 15 -0.3320 -0.3056
-5 -5 16 0.6289 -0.3581
-5 -5 17 0.2221 0.5343
-5 -4 -12 -0.2037 0.0203
-5 -4 -11 -0.1219 -0.2282
-5 -4 -10 0.2552 -0.1301
-5 -4 -9 0.0169 0.2631
-5 -4 -8 -0.2358 -0.1585
-5 -4 -7 0.2967 -0.2082
-5 -4 -6 0.2466 0.3629
-5 -4 -5 -0.4148 0.3299
-5 -4 -4 -0.2975 -0.4672
-5 -4 -3 0.3754 -0.0247
-5 -4 -2 -0.3581 -0.0221
-5 -4 -1 0.6452 -0.5361
-5 -4 0 0.3132 1.1726
-5 -4 1 -1.3161 -0.2387
-5 -4 2 0.8945 -1.0113
-5 -4 3 0.3820 1.3967
-5 -4 4 -1.4920 -0.3143
-5 -4 5 0.7175 -1.0757
-5 -4 6 0.3871 0.5811
-5 -4 7 -0.0711 -0.1089
-5 -4 8 0.1476 0.3129
-5 -4 9 -0.2329 -0.1314
-5 -4 10 0.4406 0.1734
-5 -4 11 -0.5308 0.6342
-5 -4 12 -0.6661 -0.6147
-5 -4 13 0.4174 -0.4775
-5 -4 14 0.1098 0.0255
-5 -4 15 0.3853 -0.2026
-5 -4 16 0.2491 0.5664
-5 -4 17 -0.4149 0.0897
-5 -4 18 0.0571 -0.1280
-5 -3 -13 -0.1645 0.0054
-5 -3 -12 -0.0705 -0.1856
-5 -3 -11 0.2172 -0.0632
-5 -3 -10 -0.0420 0.2350
-5 -3 -9 -0.2155 -0.1862
-5 -3 -8 0.2681 -0.1724
-5 -3 -7 0.1690 0.2315
-5 -3 -6 -0.1458 0.2501
-5 -3 -5 -0.3186 -0.1415
-5 -3 -4 0.2013 -0.1742
-5 -3 -3 -0.2235 0.1029
-5 -3 -2 0.3149 -0.6018
-5 -3 -1 0.6101 0.8909
-5 -3 0 -1.2655 0.1653
-5 -3 1 0.5332 -1.2057
-5 -3 2 0.7042 1.2195
-5 -3 3 -1.6368 -0.1114
-5 -3 5 0.8338 1.4060
-5 -3 6 -1.1550 -0.0866
-5 -3 7 0.6913 -0.4305
-5 -3 8 -0.2064 0.7518
-5 -3 9 -0.4592 -0.4334
-5 -3 10 0.3866 -0.0621
-5 -3 11 -0.3434 0.3104
-5 -3 12 -0.2585 -0.6426
-5 -3 13 0.6359 -0.2169
-5 -3 14 0.2507 0.3101
-5 -3 15 0.0378 0.3615
-5 -3 16 -0.3913 0.1258
-5 -2 -14 -0.0113 -0.0628
-5 -2 -13 -0.0038 -0.0389
-5 -2 -12 0.1200 -0.0286
-5 -2 -11 -0.0607 0.1937
-5 -2 -10 -0.1917 -0.2265
-5 -2 -9 0.3631 -0.0992
-5 -2 -8 -0.0304 0.3627
-5 -2 -7 -0.2008 -0.0823
-5 -2 -6 -0.0224 -0.0065
-5 -2 -5 -0.0389 -0.1830
-5 -2 -4 0.1794 0.0556
-5 -2 -3 -0.0555 -0.0429
-5 -2 -2 0.2519 0.2062
-5 -2 -1 -0.6035 0.1836
-5 -2 0 0.1945 -0.8642
-5 -2 1 0.8120 0.7435
-5 -2 2 -1.2987 0.3830
-5 -2 3 0.3917 -1.6207
-5 -2 4 1.4113 1.2377
-5 -2 5 -1.6588 0.6274
-5 -2 6 0.3268 -1.3765
-5 -2 7 0.6653 0.9517
-5 -2 8 -1.1183 0.0300
-5 -2 9 0.3535 -0.9944
-5 -2 10 0.6591 0.6367
-5 -2 11 -0.8607 0.1048
-5 -1 -15 0.0411 -0.2142
-5 -1 -14 0.1772 0.0542
-5 -1 -13 0.0240 0.0680
-5 -1 -12 -0.0410 0.1460
-5 -1 -11 -0.1944 -0.1485
-5 -1 -10 0.3281 -0.1109
-5 -1 -9 -0.0878 0.4679
-5 -1 -8 -0.4364 -0.3164
-5 -1 -7 0.4021 -0.1788
-5 -1 -6 -0.1526 0.2012
-5 -1 -5 0.1930 -0.2951
-5 -1 -4 0.1789 0.4874
-5 -1 -3 -0.5075 0.0148
-5 -1 -2 -0.0210 -0.3654
-5 -1 -1 0.2697 -0.1902
-5 -1 0 0.3702 0.3236
-5 -1 1 -0.5483 0.4043
-5 -1 2 -0.1460 -0.8937
-5 -1 3 1.1333 0.4433
-5 -1 4 -1.1040 0.9673
-5 -1 5 -0.3766 -1.4023
-5 -1 6 1.1945 0.3012
-5 -1 7 -0.7723 0.7762
-5 -1 8 -0.4328 -1.0521
-5 -1 9 1.1934 -0.0814
-5 -1 10 -0.4312 1.0241
-5 -1 11 -0.4376 -0.9095
-5 0 -14 0.0720 0.1858
-5 0 -13 -0.0466 0.1703
-5 0 -12 -0.2285 -0.0292
-5 0 -11 0.1467 -0.1632
-5 0 -10 -0.0158 0.3404
-5 0 -9 -0.5046 -0.2818
-5 0 -8 0.5653 -0.4586
-5 0 -7 0.1000 0.6624
-5 0 -6 -0.3818 -0.3770
-5 0 -5 0.6073 0.1692
-5 0 -4 -0.6247 0.4545
-5 0 -3 -0.1326 -0.7390
-5 0 -2 0.5835 0.0939
-5 0 -1 -0.1657 0.3606
-5 0 0 -0.2051 -0.1670
-5 0 1 0.1994 -0.1879
-5 0 2 0.3095 0.3542
-5 0 3 -0.6285 0.4316
-5 0 4 -0.3918 -0.8424
-5 0 5 0.8254 -0.2207
-5 0 6 0.0623 0.6942
-5 0 8 0.4643 -0.8216
-5 0 9 0.6659 0.8749
-5 0 10 -0.9474 0.0958
-5 1 -14 -0.0177 0.2354
-5 1 -13 -0.3005 0.0709
-5 1 -12 -0.0238 -0.2529
-5 1 -11 0.1055 0.1160
-5 1 -10 -0.3119 -0.0808
-5 1 -9 0.3253 -0.4770
-5 1 -8 0.4098 0.6080
-5 1 -7 -0.7228 0.0197
-5 1 -6 0.4423 -0.4823
-5 1 -5 0.0221 0.6028
-5 1 -4 -0.3942 -0.3192
-5 1 -3 0.4026 -0.0674
-5 1 -2 -0.1866 0.3730
-5 1 -1 -0.3666 -0.4119
-5 1 0 0.6852 -0.3484
-5 1 1 0.2524 0.9417
-5 1 2 -1.0394 0.1039
-5 1 3 0.0210 -0.8705
-5 1 4 0.4393 0.0238
-5 1 5 0.1840 -0.0286
-5 1 6 0.1382 0.5147
-5 1 7 -0.6404 -0.2844
-5 1 8 0.8799 -0.3198
-5 1 9 -0.2336 1.0648
-5 1 10 -0.6642 -0.5385
-5 2 -14 -0.2808 0.1419
-5 2 -13 -0.1333 -0.3176
-5 2 -12 0.2395 -0.0391
-5 2 -11 -0.0690 0.1273
-5 2 -10 -0.0266 -0.1991
-5 2 -9 0.3024 0.1403
-5 2 -8 -0.3713 0.2249
-5 2 -7 0.0426 -0.4795
-5 2 -6 0.3583 0.2424
-5 2 -5 -0.1677 0.1817
-5 2 -4 -0.1393 0.0428
-5 2 -3 -0.1385 -0.1150
-5 2 -2 -0.1368 -0.1647
-5 2 -1 0.3954 -0.5733
-5 2 0 0.8482 0.8991
-5 2 1 -1.3715 0.7019
-5 2 2 -0.2172 -1.4071
-5 2 3 0.8384 0.2754
-5 2 4 -0.4279 -0.1156
-5 2 5 0.9118 -0.0962
-5 2 6 -0.5031 1.0057
-5 2 7 -0.3178 -0.9039
-5 2 8 0.8102 0.6299
-5 2 10 0.0218 -1.0603
-5 2 11 0.5412 0.1931
-5 2 12 -0.1940 -0.0185
-5 2 13 0.3696 -0.1142
-5 2 14 0.0085 0.4072
-5 3 -13 0.2729 -0.1034
-5 3 -12 0.0534 0.2376
-5 3 -11 -0.2086 0.0499
-5 3 -10 -0.0412 -0.1832
-5 3 -9 0.0856 -0.0401
-5 3 -8 0.1075 -0.0406
-5 3 -7 0.0639 0.1500
-5 3 -6 0.0206 0.0322
-5 3 -5 -0.1570 0.3442
-5 3 -4 -0.4759 -0.4233
-5 3 -3 0.4566 -0.2520
-5 3 -2 -0.0030 -0.0258
-5 3 -1 0.7753 0.1642
-5 3 0 -0.7702 1.2095
-5 3 1 -0.9789 -1.3422
-5 3 2 1.3628 -0.2330
-5 3 3 -0.5598 0.6825
-5 3 4 0.3818 -0.9328
-5 3 5 0.6831 1.2216
-5 3 6 -1.3187 0.0027
-5 3 7 0.6556 -0.6394
-5 3 8 -0.3308 0.9366
-5 3 9 -0.8109 -0.9954
-5 3 10 1.0791 -0.4688
-5 3 11 0.1109 0.6943
-5 3 12 -0.1506 -0.1180
-5 3 13 0.1471 0.2316
-5 3 14 -0.2816 0.0476
-5 3 15 0.0115 -0.0999
-5 4 -13 0.0483 0.1763
-5 4 -12 -0.1761 0.0732
-5 4 -11 -0.1575 -0.1785
-5 4 -10 0.1599 -0.2502
-5 4 -9 0.3526 0.1143
-5 4 -8 -0.1391 0.4257
-5 4 -7 -0.2931 -0.2652
-5 4 -6 0.2818 0.1360
-5 4 -5 -0.5888 -0.0268
-5 4 -4 0.4726 -0.6353
-5 4 -3 0.2324 0.5496
-5 4 -2 -0.0190 -0.1503
-5 4 -1 0.0453 0.7639
-5 4 0 -1.1924 -0.5143
-5 4 1 1.0721 -0.9528
-5 4 2 0.1950 1.1829
-5 4 3 -0.7169 -0.6540
-5 4 4 1.1447 0.0960
-5 4 5 -0.8000 1.0262
-5 4 6 -0.3964 -0.9923
-5 4 7 0.6147 0.3645
-5 4 8 -0.8724 -0.0173
-5 4 9 0.4941 -0.9676
-5 4 10 0.7259 0.6045
-5 4 11 -0.4022 0.3504
-5 4 12 -0.0584 -0.1010
-5 4 13 -0.0774 0.0424
-5 4 14 -0.0174 -0.0587
-5 5 -13 -0.0182 -0.0470
-5 5 -12 0.0172 -0.0261
-5 5 -11 0.0115 -0.0749
-5 5 -10 0.2282 -0.0282
-5 5 -9 0.0172 0.4389
-5 5 -8 -0.5752 -0.1537
-5 5 -7 0.4080 -0.4091
-5 5 -6 -0.0788 0.4473
-5 5 -5 -0.1029 -0.5323
-5 5 -4 0.5497 0.3575
-5 5 -3 -0.4565 0.1503
-5 5 -2 0.2371 -0.0310
-5 5 -1 -0.6037 0.2362
-5 5 0 0.1509 -0.9853
-5 5 1 0.8732 0.6362
-5 5 2 -0.9043 0.3351
-5 5 3 0.3449 -0.7816
-5 5 4 0.3199 0.8032
-5 5 5 -0.7950 -0.2145
-5 5 6 0.5217 -0.3684
-5 5 7 -0.1824 0.5059
-5 5 8 -0.3118 -0.5617
-5 5 9 0.6585 -0.1353
-5 5 10 0.0529 0.5362
-5 5 11 -0.3289 0.0242
-5 5 12 0.0144 -0.1545
-5 5 13 0.0598 0.0783
-5 6 -13 0.1968 0.0960
-5 6 -12 -0.0729 0.2245
-5 6 -11 -0.1617 -0.1074
-5 6 -10 0.1635 0.0454
-5 6 -9 -0.3652 0.1160
-5 6 -8 0.1198 -0.5917
-5 6 -7 0.4835 0.4093
-5 6 -6 -0.4689 0.0610
-5 6 -5 0.3343 -0.1912
-5 6 -4 -0.1873 0.3660
-5 6 -3 -0.0365 -0.3193
-5 6 -2 0.0893 0.3538
-5 6 -1 -0.5044 -0.3264
-5 6 0 0.6552 -0.3186
-5 6 1 -0.0895 0.7095
-5 6 2 -0.4619 -0.4764
-5 6 3 0.6076 -0.0620
-5 6 4 -0.2441 0.4266
-5 6 5 -0.0958 -0.3048
-5 6 6 0.1824 0.1762
-5 6 7 -0.3225 0.0467
-5 6 8 0.0184 -0.3980
-5 6 9 0.4271 0.0524
-5 6 10 -0.1029 0.3608
-5 6 11 -0.1784 -0.1508
-5 6 12 0.1517 0.0387
-5 7 -13 -0.0740 0.2646
-5 7 -12 -0.3397 -0.0259
-5 7 -11 0.0758 -0.2994
-5 7 -10 0.0648 0.1590
-5 7 -9 -0.1355 -0.2972
-5 7 -8 0.5550 0.0600
-5 7 -7 -0.3059 0.4988
-5 7 -6 -0.1678 -0.3913
-5 7 -5 0.2356 0.1582
-5 7 -4 -0.2120 -0.0342
-5 7 -3 0.2191 0.0410
-5 7 -2 -0.4096 0.2122
-5 7 -1 -0.0399 -0.6378
-5 7 0 0.5721 0.1838
-5 7 1 -0.3279 0.2558
-5 7 2 0.1025 -0.3321
-5 7 3 0.2505 0.2997
-5 7 4 -0.3027 0.1722
-5 7 5 -0.0994 -0.2196
-5 7 6 0.1273 0.0360
-5 7 7 -0.2295 0.0030
-5 7 8 0.1638 -0.3540
-5 7 9 0.2983 0.2819
-5 7 10 -0.2466 0.1060
-5 7 11 0.0697 -0.0806
-5 8 -13 -0.1305 -0.0084
-5 8 -12 -0.0596 -0.2186
-5 8 -11 0.2135 -0.0044
-5 8 -10 -0.1097 0.0333
-5 8 -9 0.2527 -0.1511
-5 8 -8 0.0500 0.4543
-5 8 -7 -0.4257 -0.1325
-5 8 -6 0.2654 -0.2034
-5 8 -5 -0.0271 0.2606
-5 8 -4 -0.1247 -0.0896
-5 8 -3 -0.0516 0.0656
-5 8 -2 -0.2155 -0.2799
-5 8 -1 0.4245 -0.2620
-5 8 0 0.2014 0.3935
-5 8 1 -0.2380 0.0676
-5 8 2 0.1113 -0.0773
-5 8 3 -0.0369 0.3020
-5 8 4 -0.4169 -0.1445
-5 8 5 0.2620 -0.3453
-5 8 6 0.0847 0.3105
-5 8 7 -0.2139 -0.1971
-5 8 8 0.3009 -0.0288
-5 8 9 -0.0954 0.1921
-5 9 -12 -0.0141 -0.0581
-5 9 -11 0.0279 0.0314
-5 9 -10 0.0338 -0.0885
-5 9 -9 0.1861 0.1769
-5 9 -8 -0.2926 0.1810
-5 9 -7 -0.0644 -0.3050
-5 9 -6 0.2270 0.1033
-5 9 -5 -0.2335 0.1328
-5 9 -4 -0.0846 -0.2574
-5 9 -3 0.1610 -0.0834
-5 9 -2 0.0835 -0.0141
-5 9 -1 0.1942 0.0597
-5 9 0 -0.0492 0.2923
-5 9 1 -0.2282 -0.0991
-5 9 2 0.1725 0.0123
-5 9 3 -0.3117 0.1558
-5 9 4 0.0013 -0.4645
-5 9 5 0.3563 0.1890
-5 9 6 -0.2402 0.0941
-5 9 7 0.0926 -0.1228
-5 9 8 -0.0291 0.0884
-5 10 -12 0.0067 -0.1576
-5 10 -11 0.0890 0.0148
-5 10 -10 0.0811 0.0606
-5 10 -9 -0.0812 0.2105
-5 10 -8 -0.2847 -0.1276
-5 10 -7 0.1796 -0.2476
-5 10 -6 0.1032 0.2278
-5 10 -5 -0.2574 -0.0875
-5 10 -4 0.2404 -0.2360
-5 10 -3 0.1308 0.2841
-5 10 -2 -0.1869 -0.0386
-5 10 -1 0.1693 0.0119
-5 10 0 -0.1867 0.1428
-5 10 1 0.0378 -0.1920
-5 10 2 0.0035 0.2100
-5 10 3 -0.2058 -0.2207
-5 10 4 0.2794 -0.0410
-5 10 5 -0.1009 0.1413
-5 10 6 0.0280 -0.0850
-5 11 -11 -0.0172 0.1219
-5 11 -10 -0.0542 0.0613
-5 11 -9 -0.1946 -0.0016
-5 11 -8 -0.0100 -0.3073
-5 11 -7 0.3333 0.0319
-5 11 -6 -0.1123 0.2497
-5 11 -5 -0.0822 -0.1840
-5 11 -4 0.1804 0.1076
-5 11 -3 -0.2365 0.0625
-5 11 -2 0.1199 -0.2325
-5 11 -1 0.1011 0.2321
-5 11 0 -0.1725 -0.0457
-5 11 1 0.0785 0.0030
-5 11 2 -0.1217 -0.0094
-5 11 3 0.0919 -0.0822
-5 11 4 -0.0367 0.0643
-5 12 -10 -0.0246 -0.0373
-5 12 -9 -0.0436 -0.1216
-5 12 -8 0.2086 -0.0924
-5 12 -7 0.0928 0.2396
-5 12 -6 -0.1981 0.0568
-5 12 -5 -0.0180 -0.0934
-5 12 -4 -0.0441 -0.0196
-5 12 -3 0.0822 -0.1591
-5 12 -2 0.1925 0.1653
-5 12 -1 -0.1874 0.1391
-5 12 0 -0.0650 -0.1152
-5 12 1 0.0147 -0.0366
-5 13 -7 -0.0586 0.0867
-5 13 -6 -0.0909 -0.0319
-5 13 -5 -0.0136 -0.0971
-5 13 -4 0.1089 -0.0676
-5 13 -3 0.1100 0.1217
-4 -13 9 -0.1375 -0.0048
-4 -13 10 -0.1042 -0.1562
-4 -12 0 0.0804 -0.0251
-4 -12 1 -0.0729 -0.0013
-4 -12 2 0.1223 -0.0959
-4 -12 3 0.0369 0.2035
-4 -12 8 -0.1256 0.0202
-4 -12 9 -0.1568 -0.1397
-4 -12 10 0.2095 -0.2566
-4 -12 11 0.2520 0.3122
-4 -12 12 -0.3741 0.1446
-4 -11 -2 -0.2943 -0.0619
-4 -11 -1 0.1145 -0.1872
-4 -11 0 0.0157 0.0673
-4 -11 1 0.0702 -0.0952
-4 -11 2 0.0816 0.2056
-4 -11 3 -0.2727 -0.0157
-4 -11 4 0.1208 -0.2849
-4 -11 5 0.2812 0.1929
-4 -11 7 -0.1985 -0.1990
-4 -11 8 0.1179 -0.1076
-4 -11 9 0.0553 0.0153
-4 -11 10 0.0355 0.1001
-4 -11 11 -0.2195 -0.0143
-4 -11 12 0.1294 -0.3140
-4 -11 13 0.2967 0.2116
-4 -11 14 -0.1988 0.1719
-4 -10 -4 0.1928 0.3380
-4 -10 -3 -0.3230 0.1553
-4 -10 -2 -0.0921 -0.2454
-4 -10 -1 0.1164 -0.0520
-4 -10 0 0.0563 -0.0070
-4 -10 1 0.0772 0.0822
-4 -10 2 -0.1191 0.0962
-4 -10 3 -0.0803 -0.2029
-4 -10 4 0.3553 -0.0138
-4 -10 5 -0.1245 0.5117
-4 -10 6 -0.5535 -0.3058
-4 -10 7 0.4594 -0.4204
-4 -10 8 0.1744 0.5387
-4 -10 9 -0.5582 -0.0478
-4 -10 10 0.1399 -0.5608
-4 -10 11 0.5601 0.0977
-4 -10 12 -0.0060 0.5243
-4 -10 13 -0.4207 0.0375
-4 -10 14 0.0059 -0.2730
-4 -10 15 0.1606 0.1064
-4 -9 -6 0.2548 -0.4042
-4 -9 -5 0.3447 0.2229
-4 -9 -4 -0.1047 0.2777
-4 -9 -3 -0.2569 0.0209
-4 -9 -2 -0.0868 -0.2675
-4 -9 -1 0.2393 -0.0810
-4 -9 0 0.0581 0.1194
-4 -9 1 0.0418 0.0967
-4 -9 2 -0.2088 0.0915
-4 -9 3 0.0917 -0.2931
-4 -9 4 0.2129 0.4507
-4 -9 5 -0.7632 -0.0654
-4 -9 6 0.4374 -0.8220
-4 -9 7 0.5905 0.7679
-4 -9 8 -0.9978 0.1918
-4 -9 9 0.2069 -1.1308
-4 -9 10 1.1587 0.4834
-4 -9 11 -0.5852 1.0476
-4 -9 12 -0.7947 -0.5314
-4 -9 13 0.3979 -0.4723
-4 -9 14 0.2061 0.2744
-4 -9 15 -0.2171 0.0984
-4 -9 16 -0.1479 -0.2269
-4 -8 -7 0.0744 -0.4273
-4 -8 -6 0.2918 0.0958
-4 -8 -5 0.0362 0.1195
-4 -8 -4 -0.0793 0.2491
-4 -8 -3 -0.3939 -0.2108
-4 -8 -2 0.3758 -0.3750
-4 -8 -1 0.2378 0.3872
-4 -8 0 -0.2010 0.1265
-4 -8 1 -0.1412 0.0152
-4 -8 2 -0.0195 -0.2249
-4 -8 3 0.2040 0.2692
-4 -8 4 -0.6729 -0.0344
-4 -8 5 0.4191 -0.9073
-4 -8 6 0.8235 0.7757
-4 -8 7 -1.0134 0.4831
-4 -8 8 -0.0311 -1.1783
-4 -8 9 1.3198 0.4268
-4 -8 10 -0.8131 1.3770
-4 -8 11 -1.2399 -1.0356
-4 -8 12 1.0276 -0.8894
-4 -8 13 0.4439 0.8163
-4 -8 14 -0.5133 0.0860
-4 -8 15 0.0489 -0.2457
-4 -8 16 0.0973 -0.0376
-4 -8 17 0.1959 0.0725
-4 -7 -9 -0.1890 0.1923
-4 -7 -8 -0.0573 -0.2372
-4 -7 -7 0.1237 0.0738
-4 -7 -6 -0.0683 -0.0805
-4 -7 -5 0.1714 0.1179
-4 -7 -4 -0.3735 0.0117
-4 -7 -3 0.3149 -0.5352
-4 -7 -2 0.5388 0.5825
-4 -7 -1 -0.6444 0.4433
-4 -7 0 -0.3274 -0.5620
-4 -7 1 0.5272 -0.1894
-4 -7 2 -0.0490 0.6678
-4 -7 3 -0.9091 -0.4358
-4 -7 4 0.8751 -1.0276
-4 -7 5 0.8654 1.1513
-4 -7 6 -1.1264 0.4832
-4 -7 7 -0.0690 -0.9108
-4 -7 8 0.7721 0.2771
-4 -7 9 -0.5960 0.8540
-4 -7 10 -1.0363 -0.9158
-4 -7 11 1.1455 -1.0831
-4 -7 12 0.8675 1.1633
-4 -7 13 -0.9474 0.4475
-4 -7 14 -0.0078 -0.5818
-4 -7 15 0.1963 0.2415
-4 -7 16 -0.1988 -0.0732
-4 -7 17 0.1435 0.0251
-4 -6 -10 0.0601 0.1631
-4 -6 -9 -0.0817 0.0078
-4 -6 -8 -0.0150 0.0730
-4 -6 -7 -0.1752 -0.1053
-4 -6 -6 0.1584 -0.0884
-4 -6 -5 -0.1759 0.0269
-4 -6 -4 0.2706 -0.4762
-4 -6 -3 0.7032 0.5627
-4 -6 -2 -0.7397 0.8402
-4 -6 -1 -0.8587 -0.8706
-4 -6 0 1.0795 -0.6562
-4 -6 1 0.1493 1.3708
-4 -6 2 -1.5962 -0.6060
-4 -6 3 1.3890 -1.5497
-4 -6 4 1.1129 1.8755
-4 -6 5 -1.7900 0.3917
-4 -6 6 0.2962 -1.1352
-4 -6 7 0.2941 0.6655
-4 -6 8 -0.7194 -0.2151
-4 -6 9 0.1592 -0.6933
-4 -6 10 0.7517 -0.2606
-4 -6 11 0.6507 0.8414
-4 -6 12 -0.8359 0.7336
-4 -6 13 -0.4589 -0.6944
-4 -6 14 0.4445 0.0140
-4 -6 15 -0.3853 0.1382
-4 -6 16 0.1157 -0.4112
-4 -6 17 0.1347 0.1914
-4 -6 18 -0.0943 -0.1474
-4 -5 -12 -0.0038 -0.0623
-4 -5 -11 0.1601 0.0139
-4 -5 -10 -0.0182 0.1725
-4 -5 -9 -0.1109 0.0377
-4 -5 -8 -0.0988 -0.0512
-4 -5 -7 -0.0008 -0.0260
-4 -5 -6 -0.2258 -0.1277
-4 -5 -5 0.3289 -0.5297
-4 -5 -4 0.7601 0.4549
-4 -5 -3 -0.4276 0.9412
-4 -5 -2 -1.1069 -0.4325
-4 -5 -1 0.7344 -1.1005
-4 -5 0 0.6749 1.3288
-4 -5 1 -1.8938 -0.2214
-4 -5 2 1.3498 -2.0542
-4 -5 3 1.6134 2.3141
-4 -5 4 -2.6992 0.6320
-4 -5 5 0.5441 -2.2216
-4 -5 6 0.9893 1.3948
-4 -5 7 -1.5811 -0.3943
-4 -5 8 1.2014 -1.2362
-4 -5 9 0.7864 1.1478
-4 -5 10 -0.5332 0.5019
-4 -5 11 -0.3520 0.1284
-4 -5 12 -0.4793 -0.2448
-4 -5 13 0.1844 -0.4041
-4 -5 14 0.0172 0.1625
-4 -5 15 -0.1025 -0.3593
-4 -5 16 0.4063 0.0035
-4 -5 17 -0.0526 0.1195
-4 -5 18 0.1888 -0.0021
-4 -4 -13 -0.0038 0.0789
-4 -4 -12 0.0886 -0.0407
-4 -4 -11 0.0472 0.1970
-4 -4 -10 -0.1706 0.0357
-4 -4 -9 0.0018 -0.0600
-4 -4 -8 -0.0443 0.1555
-4 -4 -7 -0.4816 -0.1518
-4 -4 -6 0.3000 -0.8312
-4 -4 -5 0.9623 0.3722
-4 -4 -4 -0.1990 0.8562
-4 -4 -3 -0.7395 0.1032
-4 -4 -2 -0.1169 -0.7194
-4 -4 -1 0.5803 0.4154
-4 -4 0 -1.2562 0.0541
-4 -4 1 0.8636 -1.8984
-4 -4 2 1.9713 1.9495
-4 -4 3 -2.8913 1.3528
-4 -4 4 -0.1469 -3.2677
-4 -4 5 2.6712 1.2264
-4 -4 6 -2.1212 1.1599
-4 -4 7 0.5327 -2.1535
-4 -4 8 1.5585 1.5311
-4 -4 9 -1.5554 0.8720
-4 -4 10 -0.3572 -0.9865
-4 -4 11 0.3339 0.0444
-4 -4 12 -0.3354 -0.1167
-4 -4 13 0.2508 -0.3735
-4 -4 14 0.1599 0.0854
-4 -4 15 0.1536 -0.0746
-4 -4 16 0.1527 0.1752
-4 -4 17 0.0505 0.1197
-4 -4 18 -0.0762 0.2649
-4 -4 19 -0.2642 -0.0293
-4 -3 -14 0.1203 0.0365
-4 -3 -13 0.1133 0.0766
-4 -3 -12 0.0011 0.2206
-4 -3 -11 -0.2107 0.0578
-4 -3 -10 -0.0450 -0.1014
-4 -3 -9 0.0117 0.1129
-4 -3 -8 -0.5038 -0.0032
-4 -3 -7 0.0492 -1.0341
-4 -3 -6 1.3435 0.1900
-4 -3 -5 -0.2548 1.1290
-4 -3 -4 -0.5264 -0.0696
-4 -3 -3 -0.1839 0.0348
-4 -3 -2 -0.3311 -0.1071
-4 -3 -1 -0.4145 -0.4920
-4 -3 0 0.7100 -1.0931
-4 -3 1 1.6014 1.0868
-4 -3 2 -1.7287 1.7636
-4 -3 3 -1.3986 -2.6040
-4 -3 4 3.2274 -0.3882
-4 -3 5 -0.9429 2.9043
-4 -3 6 -1.5369 -1.8770
-4 -3 7 1.9870 0.0946
-4 -3 8 -1.0975 1.5349
-4 -3 9 -0.9930 -1.2877
-4 -3 10 1.0509 -0.4615
-4 -3 11 -0.1567 0.6965
-4 -3 12 -0.2949 -0.6757
-4 -3 13 0.7428 0.0460
-4 -3 14 -0.1701 0.3545
-4 -3 15 0.0930 -0.1260
-4 -3 16 0.1253 0.2767
-4 -3 17 -0.2145 0.2231
-4 -3 18 -0.2685 -0.0731
-4 -2 -15 0.0283 -0.1198
-4 -2 -14 0.3134 0.0581
-4 -2 -13 -0.0153 0.3949
-4 -2 -12 -0.3307 0.0860
-4 -2 -11 -0.1665 -0.1604
-4 -2 -10 0.0195 -0.1367
-4 -2 -9 -0.1305 0.0546
-4 -2 -8 -0.2038 -0.7170
-4 -2 -7 1.4063 -0.1943
-4 -2 -6 -0.1027 1.6842
-4 -2 -5 -1.2132 -0.4615
-4 -2 -4 0.6096 -0.2228
-4 -2 -3 -0.7309 0.5838
-4 -2 -2 -0.5786 -1.2670
-4 -2 -1 1.2968 -0.6285
-4 -2 0 0.7027 0.9047
-4 -2 1 -0.4340 0.9225
-4 -2 2 -1.3125 -0.4716
-4 -2 3 1.2711 -1.4746
-4 -2 4 0.9551 2.2369
-4 -2 5 -2.4341 -0.0763
-4 -2 6 0.9412 -1.6565
-4 -2 7 0.5905 1.2737
-4 -2 8 -1.2954 -0.1173
-4 -2 9 0.4868 -1.2061
-4 -2 10 0.8167 0.7625
-4 -2 11 -0.8544 0.0429
-4 -2 12 0.6622 -0.5675
-4 -2 13 0.0613 0.7646
-4 -2 14 -0.3146 -0.3016
-4 -2 15 0.4076 0.1684
-4 -2 16 -0.3306 0.3940
-4 -2 17 -0.3337 -0.2236
-4 -1 -16 -0.2017 -0.0298
-4 -1 -15 0.3076 -0.1914
-4 -1 -14 0.1581 0.4700
-4 -1 -13 -0.4390 0.1916
-4 -1 -12 -0.2677 -0.2559
-4 -1 -11 0.0284 -0.3147
-4 -1 -10 0.2500 -0.0589
-4 -1 -9 -0.1179 -0.0855
-4 -1 -8 0.7934 -0.3784
-4 -1 -7 0.3283 1.6028
-4 -1 -5 0.8546 -1.3907
-4 -1 -4 0.2491 1.3100
-4 -1 -3 -1.4044 -0.9244
-4 -1 -2 1.6342 -1.1327
-4 -1 -1 0.5277 1.5791
-4 -1 0 -0.7450 -0.1260
-4 -1 1 0.3145 0.3432
-4 -1 2 -0.8036 -0.1308
-4 -1 3 0.7100 -0.2389
-4 -1 4 -0.7801 0.8362
-4 -1 5 -0.5238 -1.4052
-4 -1 6 1.4640 -0.1459
-4 -1 7 -0.2307 1.3392
-4 -1 8 -1.1478 -0.7620
-4 -1 9 1.2201 -0.6315
-4 -1 10 -0.1605 1.0822
-4 -1 11 -0.3173 -0.6756
-4 -1 12 0.5339 0.4129
-4 -1 13 -0.5362 -0.0080
-4 -1 14 0.4613 -0.1857
-4 -1 15 -0.1452 0.6406
-4 0 -16 0.0083 -0.2913
-4 0 -15 0.2635 0.2270
-4 0 -14 -0.3119 0.2387
-4 0 -13 -0.2735 -0.2604
-4 0 -12 0.1115 -0.3074
-4 0 -11 0.3013 -0.0714
-4 0 -10 0.1222 0.2186
-4 0 -9 0.1014 -0.0726
-4 0 -8 0.3114 0.7676
-4 0 -7 -1.4960 0.2206
-4 0 -6 0.2855 -1.7267
-4 0 -5 1.1874 0.9079
-4 0 -4 -1.3362 0.1415
-4 0 -3 0.9352 -1.4415
-4 0 -2 1.1016 1.6555
-4 0 -1 -1.7109 0.2317
-4 0 0 0.8684 -0.9932
-4 0 1 -0.0974 1.5569
-4 0 2 -1.4628 -0.8181
-4 0 3 0.7921 -0.8061
-4 0 4 -0.0183 0.2921
-4 0 5 0.3182 -0.8128
-4 0 6 1.3435 1.0244
-4 0 7 -1.7735 1.1965
-4 0 8 -0.3075 -2.0809
-4 0 9 1.5302 0.6496
-4 1 -17 -0.1783 -0.1518
-4 1 -16 0.1351 -0.0277
-4 1 -15 -0.1039 0.0716
-4 1 -14 -0.0861 -0.1672
-4 1 -13 0.1886 -0.1453
-4 1 -12 0.1425 0.1201
-4 1 -11 0.0613 0.0891
-4 1 -10 -0.0155 0.2047
-4 1 -9 -0.1733 0.1920
-4 1 -8 -0.5866 -0.0969
-4 1 -7 0.1900 -0.8935
-4 1 -6 0.7530 0.4090
-4 1 -5 -0.5641 0.1910
-4 1 -4 0.4424 -0.6742
-4 1 -3 0.8573 0.9522
-4 1 -2 -1.3929 0.9101
-4 1 -1 -0.4020 -1.7068
-4 1 0 1.6416 0.7122
-4 1 1 -1.8741 1.1108
-4 1 2 -0.3408 -2.4015
-4 1 3 1.9630 0.3864
-4 1 4 -0.8465 0.6326
-4 1 5 1.1205 -0.7395
-4 1 6 -0.1182 2.4361
-4 1 7 -2.5388 -1.3201
-4 1 8 1.9954 -1.4983
-4 1 9 0.2495 1.6777
-4 1 10 -0.7953 -0.3597
-4 1 11 0.3066 -0.0998
-4 1 12 -0.1124 0.0548
-4 1 13 0.1456 -0.0030
-4 1 14 -0.2478 0.3153
-4 2 -17 0.0485 -0.0744
-4 2 -16 -0.0583 -0.0537
-4 2 -15 0.1080 -0.1575
-4 2 -14 0.2435 0.0488
-4 2 -13 -0.0052 0.3106
-4 2 -12 -0.2303 -0.0804
-4 2 -11 0.1892 0.0438
-4 2 -10 -0.3518 0.2444
-4 2 -9 -0.2888 -0.5597
-4 2 -8 0.7159 -0.2770
-4 2 -7 -0.0181 0.8078
-4 2 -6 -0.6283 -0.6161
-4 2 -5 1.0779 -0.1639
-4 2 -4 -0.1174 0.9968
-4 2 -3 -0.6173 0.2288
-4 2 -2 -0.9135 -0.6013
-4 2 -1 1.1984 -1.0883
-4 2 0 0.2735 1.9363
-4 2 1 -2.1257 -1.1194
-4 2 2 2.1633 -1.4463
-4 2 3 0.1212 2.1037
-4 2 4 -0.8049 -1.1830
-4 2 5 1.6779 1.1136
-4 2 6 -2.5685 1.0456
-4 2 7 0.1915 -2.7865
-4 2 8 1.9344 1.1137
-4 2 10 -0.1301 -0.8674
-4 2 11 0.3718 0.1469
-4 2 12 -0.1520 -0.0100
-4 2 13 0.1755 0.0503
-4 2 14 -0.3391 0.0406
-4 2 15 0.2778 -0.4516
-4 2 16 0.2798 0.4550
-4 3 -18 0.0903 -0.0837
-4 3 -17 -0.0316 0.0337
-4 3 -16 0.0596 -0.1620
-4 3 -15 0.2558 0.0737
-4 3 -14 -0.0374 0.3490
-4 3 -13 -0.3882 -0.1019
-4 3 -12 0.2815 -0.2357
-4 3 -11 -0.1072 0.4195
-4 3 -10 -0.4294 -0.4912
-4 3 -9 0.8548 -0.3217
-4 3 -8 -0.0229 1.2002
-4 3 -7 -1.2976 -0.7504
-4 3 -6 1.5643 -0.7988
-4 3 -5 -0.1434 1.7429
-4 3 -4 -0.9573 -0.7121
-4 3 -3 0.2516 0.1392
-4 3 -2 -0.4836 -0.8854
-4 3 -1 1.6224 0.2901
-4 3 0 -1.5202 1.2440
-4 3 1 -0.0079 -2.1875
-4 3 2 1.7287 1.1962
-4 3 3 -1.5674 0.3515
-4 3 4 1.1456 -0.8903
-4 3 5 -0.3728 1.8935
-4 3 6 -1.5655 -1.4331
-4 3 7 1.7857 -0.5785
-4 3 8 -0.3579 1.5209
-4 3 9 -1.0258 -0.8279
-4 3 10 0.8165 -0.5419
-4 3 11 0.1434 0.4742
-4 3 12 -0.0234 -0.0602
-4 3 13 -0.0067 0.2369
-4 3 14 -0.1383 -0.1861
-4 3 15 0.2218 0.1395
-4 4 -18 0.0485 0.0989
-4 4 -17 -0.0548 -0.0668
-4 4 -16 0.1623 -0.0068
-4 4 -15 0.0030 0.2356
-4 4 -14 -0.3142 -0.0449
-4 4 -13 0.2266 -0.3167
-4 4 -12 0.1421 0.4424
-4 4 -11 -0.5220 -0.1607
-4 4 -10 0.4946 -0.4487
-4 4 -9 0.2526 0.8881
-4 4 -8 -1.3087 -0.2083
-4 4 -7 1.0135 -1.3885
-4 4 -6 0.7363 1.7323
-4 4 -5 -1.6319 -0.3839
-4 4 -4 1.0493 -0.5453
-4 4 -3 -0.7333 0.6016
-4 4 -2 0.6099 -1.1658
-4 4 -1 0.4703 1.5888
-4 4 0 -1.6460 -0.7175
-4 4 1 1.5039 -0.8649
-4 4 2 -0.1771 1.4049
-4 4 3 -0.5518 -0.8994
-4 4 4 1.0198 0.4885
-4 4 5 -1.1077 0.6193
-4 4 6 0.0031 -1.0549
-4 4 7 0.5350 0.5772
-4 4 8 -0.9658 -0.0573
-4 4 9 0.4339 -1.0833
-4 4 10 0.8820 0.4843
-4 4 11 -0.2551 0.4761
-4 4 12 -0.1243 0.0435
-4 4 13 -0.1566 0.0202
-4 4 14 -0.0393 -0.0353
-4 5 -18 -0.0607 -0.0335
-4 5 -17 0.1153 -0.0083
-4 5 -16 -0.0272 0.1502
-4 5 -15 -0.1791 -0.0409
-4 5 -14 0.1259 -0.2310
-4 5 -13 0.2261 0.3074
-4 5 -12 -0.4480 0.0956
-4 5 -11 0.1125 -0.4337
-4 5 -10 0.3207 0.3627
-4 5 -9 -0.7188 0.1492
-4 5 -8 0.2269 -1.1078
-4 5 -7 1.1480 0.8667
-4 5 -6 -1.3902 0.5236
-4 5 -5 0.4741 -1.2333
-4 5 -4 0.3256 1.0666
-4 5 -3 -0.7522 -0.7149
-4 5 -2 1.1642 0.2138
-4 5 -1 -1.1388 0.8265
-4 5 0 -0.0573 -1.5063
-4 5 1 1.2215 0.6411
-4 5 2 -0.9419 0.4898
-4 5 3 0.3485 -0.7903
-4 5 4 0.3722 0.9400
-4 5 5 -1.0587 -0.0268
-4 5 6 0.2236 -0.6997
-4 5 7 0.0547 0.2264
-4 5 8 -0.1476 -0.5795
-4 5 9 0.9204 -0.0882
-4 5 10 0.0921 0.8543
-4 5 11 -0.5140 0.1283
-4 5 12 -0.1118 -0.1483
-4 5 13 -0.0896 -0.0073
-4 6 -18 0.1763 -0.0299
-4 6 -17 -0.0485 0.2383
-4 6 -16 -0.2099 -0.0878
-4 6 -15 0.0810 -0.1632
-4 6 -14 0.1572 0.1047
-4 6 -13 -0.1820 0.1487
-4 6 -12 -0.0843 -0.2320
-4 6 -11 0.2118 0.0265
-4 6 -10 -0.1935 0.1806
-4 6 -9 -0.1343 -0.4668
-4 6 -8 0.7619 0.0796
-4 6 -7 -0.5251 0.7918
-4 6 -6 -0.3588 -0.9442
-4 6 -5 0.9488 0.3276
-4 6 -4 -0.7802 0.4429
-4 6 -3 0.2684 -0.6849
-4 6 -2 0.1325 0.7740
-4 6 -1 -0.8537 -0.5435
-4 6 0 1.0154 -0.5252
-4 6 1 -0.0327 1.0733
-4 6 2 -0.6808 -0.5600
-4 6 3 0.8343 -0.0210
-4 6 4 -0.5768 0.7973
-4 6 5 -0.5518 -0.8381
-4 6 6 0.6970 -0.2350
-4 6 7 -0.0679 0.2914
-4 6 8 0.1426 -0.3041
-4 6 9 0.4226 0.3981
-4 6 10 -0.4006 0.3920
-4 6 11 -0.2307 -0.2241
-4 6 12 0.0062 -0.0201
-4 7 -18 0.0521 0.2707
-4 7 -17 -0.3212 -0.0218
-4 7 -16 0.0521 -0.2326
-4 7 -15 0.0923 0.0114
-4 7 -14 0.0433 0.0046
-4 7 -13 0.0149 0.0579
-4 7 -12 -0.0366 0.0052
-4 7 -11 0.0015 0.0128
-4 7 -10 -0.1005 -0.0370
-4 7 -9 0.1683 -0.1713
-4 7 -8 0.0874 0.3548
-4 7 -7 -0.4431 -0.2159
-4 7 -6 0.5926 -0.3036
-4 7 -5 -0.0187 0.7791
-4 7 -4 -0.6206 -0.3332
-4 7 -3 0.4572 -0.1854
-4 7 -2 -0.2989 0.3190
-4 7 -1 0.0255 -0.5811
-4 7 0 0.5196 0.4095
-4 7 1 -0.6261 0.1662
-4 7 2 0.2730 -0.5581
-4 7 3 0.2599 0.5909
-4 7 4 -0.7011 -0.1018
-4 7 5 0.3730 -0.6207
-4 7 6 0.3983 0.4775
-4 7 7 -0.4143 0.1041
-4 7 8 0.1498 -0.2466
-4 7 9 0.0782 0.2507
-4 7 10 -0.1708 -0.0047
-4 7 11 -0.0134 0.0018
-4 8 -17 -0.0347 -0.2635
-4 8 -16 0.1460 -0.0079
-4 8 -15 0.0384 -0.0451
-4 8 -14 0.1870 0.1027
-4 8 -13 -0.1472 0.2190
-4 8 -12 -0.1550 -0.1446
-4 8 -11 0.0934 -0.0390
-4 8 -10 -0.0696 0.0027
-4 8 -9 0.0848 -0.0973
-4 8 -8 0.0017 0.0846
-4 8 -7 0.0646 -0.1729
-4 8 -6 0.3088 0.3184
-4 8 -5 -0.5330 0.2988
-4 8 -4 -0.1297 -0.5691
-4 8 -3 0.3994 0.1015
-4 8 -2 -0.2517 0.1266
-4 8 -1 0.0993 -0.2295
-4 8 0 0.0494 0.1885
-4 8 1 -0.1432 -0.1942
-4 8 2 0.3865 -0.0023
-4 8 3 -0.2023 0.4323
-4 8 4 -0.2888 -0.4170
-4 8 5 0.5416 -0.0115
-4 8 6 -0.2481 0.4963
-4 8 7 -0.3186 -0.3449
-4 8 8 0.2625 -0.1474
-4 8 9 0.0917 0.1160
-4 8 10 -0.0310 0.1320
-4 9 -17 0.1571 -0.0294
-4 9 -16 -0.0094 0.0783
-4 9 -15 0.0792 -0.0283
-4 9 -14 0.0074 0.2262
-4 9 -13 -0.2901 -0.0400
-4 9 -12 0.0971 -0.2498
-4 9 -11 0.1188 0.1498
-4 9 -10 -0.1712 -0.0572
-4 9 -9 0.1863 -0.1364
-4 9 -8 0.0634 0.1662
-4 9 -7 0.0278 0.0151
-4 9 -6 -0.0424 0.2950
-4 9 -5 -0.4735 -0.1382
-4 9 -4 0.2558 -0.4574
-4 9 -3 0.2565 0.3520
-4 9 -2 -0.3871 -0.0283
-4 9 -1 0.2563 -0.3087
-4 9 0 0.0978 0.2957
-4 9 1 -0.0976 -0.1519
-4 9 2 0.2556 0.2302
-4 9 3 -0.4599 0.1026
-4 9 4 0.2075 -0.4241
-4 9 5 0.1769 0.4419
-4 9 6 -0.4598 -0.0597
-4 9 7 0.1192 -0.3272
-4 9 8 0.2032 0.0350
-4 10 -16 -0.1283 -0.0463
-4 10 -15 0.0971 -0.0454
-4 10 -14 -0.0850 0.1132
-4 10 -13 -0.0700 -0.1994
-4 10 -12 0.2445 0.0344
-4 10 -11 -0.1744 0.1893
-4 10 -10 -0.0459 -0.2853
-4 10 -9 0.2898 0.1063
-4 10 -8 -0.1534 0.1641
-4 10 -7 0.0317 -0.0363
-4 10 -6 -0.1954 0.1911
-4 10 -5 -0.2193 -0.4199
-4 10 -4 0.5148 -0.0717
-4 10 -3 -0.2048 0.4050
-4 10 -2 -0.1059 -0.4467
-4 10 -1 0.4550 0.2367
-4 10 0 -0.3997 0.1819
-4 10 1 0.1722 -0.2614
-4 10 2 -0.0587 0.3171
-4 10 3 -0.1547 -0.2938
-4 10 4 0.2900 0.1344
-4 10 5 -0.2986 0.1371
-4 10 6 -0.0272 -0.2630
-4 10 7 0.1428 -0.0322
-4 11 -15 0.1558 0.0717
-4 11 -14 -0.0967 0.0472
-4 11 -13 0.0819 -0.0693
-4 11 -12 -0.0201 0.1723
-4 11 -11 -0.1791 -0.1492
-4 11 -10 0.2555 -0.0953
-4 11 -9 -0.0279 0.2638
-4 11 -8 -0.1433 -0.1058
-4 11 -7 0.0793 0.0624
-4 11 -6 -0.2536 -0.0513
-4 11 -5 0.2309 -0.3141
-4 11 -4 0.1714 0.3590
-4 11 -3 -0.3238 -0.1209
-4 11 -2 0.3672 -0.0963
-4 11 -1 -0.1935 0.3721
-4 11 0 -0.1395 -0.3360
-4 11 1 0.2428 0.1107
-4 11 2 -0.1669 0.0359
-4 11 3 0.0962 -0.0357
-4 11 4 -0.1063 0.0983
-4 11 5 -0.0581 -0.1312
-4 12 -13 0.0278 0.0273
-4 12 -12 -0.0822 -0.0262
-4 12 -11 0.1014 -0.0870
-4 12 -10 0.0397 0.1590
-4 12 -9 -0.1568 -0.0322
-4 12 -8 0.0871 -0.0803
-4 12 -7 -0.0457 0.0917
-4 12 -6 -0.0303 -0.1631
-4 12 -5 0.1962 0.0828
-4 12 -4 -0.1827 0.1006
-4 12 -3 0.0712 -0.1824
-4 12 -2 0.0637 0.1828
-4 12 -1 -0.1439 -0.0787
-4 12 0 0.1297 -0.0144
-4 12 1 -0.0654 0.0802
-4 12 2 -0.0173 -0.0407
-4 13 -11 0.0144 0.0690
-4 13 -10 -0.0913 -0.0154
-4 13 -9 0.0494 -0.0766
-4 13 -8 0.0317 0.0745
-4 13 -7 -0.0800 -0.0262
-4 13 -6 0.0742 -0.0532
-4 13 -5 -0.0049 0.0850
-4 13 -4 -0.0513 -0.0588
-4 13 -3 0.0651 -0.0142
-4 13 -2 0.0289 0.0299
-4 13 -1 -0.0051 0.0891
-3 -13 1 0.0497 0.1283
-3 -13 2 -0.1268 -0.0204
-3 -13 8 -0.0635 -0.1600
-3 -13 9 0.0390 0.0940
-3 -13 10 -0.1658 -0.0704
-3 -13 11 0.1217 -0.1492
-3 -13 12 0.0934 0.1062
-3 -12 -1 0.0616 -0.2069
-3 -12 0 0.1172 0.1688
-3 -12 1 -0.2350 0.0063
-3 -12 2 0.0522 -0.1955
-3 -12 3 0.0417 0.0248
-3 -12 4 0.0740 -0.1701
-3 -12 6 -0.3003 0.3603
-3 -12 7 -0.2301 -0.3293
-3 -12 8 0.2830 -0.0222
-3 -12 9 -0.1528 0.1934
-3 -12 10 -0.1033 -0.2246
-3 -12 11 0.1982 -0.0457
-3 -12 12 0.0371 0.1368
-3 -12 13 -0.1054 0.0702
-3 -12 14 -0.1181 -0.1154
-3 -11 -3 -0.2466 0.0727
-3 -11 -2 -0.0351 -0.2065
-3 -11 -1 0.0885 0.0610
-3 -11 0 -0.1619 -0.0401
-3 -11 1 0.1048 -0.2123
-3 -11 2 0.1780 0.0992
-3 -11 3 -0.0699 0.0429
-3 -11 4 0.1684 -0.0404
-3 -11 5 -0.0121 0.3688
-3 -11 6 -0.4526 -0.1114
-3 -11 7 0.2440 -0.3793
-3 -11 8 0.2031 0.3689
-3 -11 9 -0.4445 0.0210
-3 -11 10 0.0980 -0.4483
-3 -11 11 0.3900 0.1453
-3 -11 12 -0.1576 0.3091
-3 -11 13 -0.2485 -0.1685
-3 -11 14 0.1700 -0.2305
-3 -11 15 0.2531 0.1327
-3 -10 -5 -0.0379 0.1734
-3 -10 -4 -0.2139 -0.0738
-3 -10 -3 0.0925 -0.1298
-3 -10 -2 -0.0522 0.0915
-3 -10 -1 -0.0628 -0.2149
-3 -10 0 0.2441 -0.0317
-3 -10 1 0.0379 0.1561
-3 -10 2 -0.0896 0.0598
-3 -10 3 -0.0068 -0.1454
-3 -10 4 0.2674 0.1735
-3 -10 5 -0.4114 0.3071
-3 -10 6 -0.1752 -0.5718
-3 -10 7 0.5771 0.0956
-3 -10 8 -0.4005 0.4505
-3 -10 9 -0.2613 -0.6321
-3 -10 10 0.7191 -0.0665
-3 -10 11 -0.1036 0.6515
-3 -10 12 -0.4838 -0.2306
-3 -10 13 0.2895 -0.3047
-3 -10 14 0.1933 0.2471
-3 -10 15 -0.1018 0.1884
-3 -10 16 -0.2619 0.0710
-3 -9 -7 0.0834 0.1281
-3 -9 -6 -0.2654 0.2417
-3 -9 -5 -0.3274 -0.3960
-3 -9 -4 0.4715 -0.2320
-3 -9 -3 -0.0451 0.4300
-3 -9 -2 -0.2343 -0.3470
-3 -9 -1 0.4616 0.0531
-3 -9 0 -0.2765 0.3218
-3 -9 1 -0.0884 -0.3247
-3 -9 2 0.2535 0.0075
-3 -9 3 0.0989 0.2241
-3 -9 4 -0.3195 0.2621
-3 -9 5 -0.3020 -0.4660
-3 -9 6 0.5405 -0.1665
-3 -9 7 -0.0797 0.4981
-3 -9 8 -0.3716 -0.3526
-3 -9 9 0.5829 -0.1970
-3 -9 10 -0.0098 0.7025
-3 -9 11 -0.6649 -0.2237
-3 -9 12 0.3966 -0.4859
-3 -9 13 0.2430 0.4678
-3 -9 14 -0.3833 0.0368
-3 -9 15 0.0482 -0.1445
-3 -9 16 -0.1371 -0.0052
-3 -9 17 0.1073 -0.2868
-3 -8 -9 0.0534 -0.1296
-3 -8 -8 0.2256 0.1724
-3 -8 -7 -0.3383 0.3934
-3 -8 -6 -0.5337 -0.5298
-3 -8 -5 0.7020 -0.4940
-3 -8 -4 0.2025 0.7579
-3 -8 -3 -0.5932 -0.2236
-3 -8 -2 0.5348 -0.2040
-3 -8 -1 -0.2637 0.5498
-3 -8 0 -0.3102 -0.6091
-3 -8 1 0.7380 -0.0236
-3 -8 2 -0.1442 0.7141
-3 -8 3 -0.6430 -0.1971
-3 -8 4 0.2254 -0.5391
-3 -8 5 0.3469 0.2511
-3 -8 6 -0.2207 0.0705
-3 -8 7 0.1887 -0.1357
-3 -8 8 0.0983 0.3383
-3 -8 9 -0.3877 0.1894
-3 -8 10 -0.3546 -0.4069
-3 -8 11 0.4421 -0.4558
-3 -8 12 0.4015 0.4961
-3 -8 13 -0.5380 0.1980
-3 -8 14 0.0742 -0.4950
-3 -8 15 0.2980 0.2906
-3 -8 16 -0.3453 -0.0033
-3 -8 17 0.2251 -0.2529
-3 -8 18 0.1513 0.2257
-3 -7 -10 0.0290 -0.2757
-3 -7 -9 0.3021 0.1308
-3 -7 -8 -0.2491 0.3974
-3 -7 -7 -0.5340 -0.3967
-3 -7 -6 0.5873 -0.5727
-3 -7 -5 0.3889 0.7510
-3 -7 -4 -0.7585 0.0275
-3 -7 -3 0.3167 -0.5423
-3 -7 -2 0.1591 0.4775
-3 -7 -1 -0.4347 -0.2726
-3 -7 0 0.6596 -0.2583
-3 -7 1 -0.0105 0.9488
-3 -7 2 -1.0837 -0.3821
-3 -7 3 0.8246 -0.9711
-3 -7 4 0.5244 1.1700
-3 -7 5 -1.1716 -0.2182
-3 -7 6 1.0195 -0.7284
-3 -7 7 0.0588 1.5562
-3 -7 8 -1.6510 -0.4264
-3 -7 9 0.4750 -1.3793
-3 -7 10 0.9529 0.1873
-3 -7 11 0.1409 0.5650
-3 -7 12 -0.3453 0.2869
-3 -7 13 -0.1928 -0.3388
-3 -7 14 0.4411 0.0816
-3 -7 15 -0.3900 0.4426
-3 -7 16 -0.2456 -0.5536
-3 -7 17 0.5052 0.0064
-3 -7 18 -0.1052 0.3588
-3 -6 -11 -0.0015 -0.4178
-3 -6 -10 0.3903 0.1599
-3 -6 -9 -0.2750 0.3501
-3 -6 -8 -0.3712 -0.3356
-3 -6 -7 0.4231 -0.4024
-3 -6 -6 0.3164 0.5468
-3 -6 -5 -0.5973 0.1147
-3 -6 -4 0.0385 -0.5052
-3 -6 -3 0.3403 0.0441
-3 -6 -2 -0.0086 0.1771
-3 -6 -1 0.0426 -0.0583
-3 -6 0 0.0915 0.4118
-3 -6 1 -0.8649 -0.1596
-3 -6 2 0.8244 -1.1513
-3 -6 3 0.9798 1.6869
-3 -6 4 -2.2605 0.1941
-3 -6 5 1.0782 -2.0928
-3 -6 6 1.1323 2.3850
-3 -6 7 -3.1631 -0.1312
-3 -6 8 0.9891 -3.1171
-3 -6 9 2.3957 1.0835
-3 -6 10 -0.6393 1.4002
-3 -6 11 -0.5092 -0.1377
-3 -6 12 -0.1227 0.0192
-3 -6 13 -0.0822 -0.1123
-3 -6 14 -0.0857 0.1761
-3 -6 15 -0.4112 -0.3456
-3 -6 16 0.5077 -0.3801
-3 -6 17 0.1662 0.4894
-3 -6 18 -0.3729 0.0124
-3 -6 19 -0.0028 -0.2819
-3 -5 -13 -0.3001 0.2273
-3 -5 -12 -0.1317 -0.4757
-3 -5 -11 0.5555 0.0985
-3 -5 -10 -0.3127 0.5112
-3 -5 -9 -0.4338 -0.3988
-3 -5 -8 0.4163 -0.3757
-3 -5 -7 0.2511 0.4403
-3 -5 -6 -0.3771 0.0304
-3 -5 -5 0.0779 -0.1178
-3 -5 -4 -0.1918 -0.1394
-3 -5 -3 0.5311 -0.2648
-3 -5 -2 0.0655 0.6958
-3 -5 -1 -0.5059 -0.1116
-3 -5 0 -0.0041 -0.3161
-3 -5 1 0.5772 -0.3753
-3 -5 2 0.7214 1.3726
-3 -5 3 -2.3441 0.6835
-3 -5 4 0.0517 -2.9085
-3 -5 5 2.5731 1.5036
-3 -5 6 -3.1545 1.3133
-3 -5 7 0.2442 -4.1714
-3 -5 8 4.0527 1.2259
-3 -5 9 -1.2624 2.9922
-3 -5 10 -1.5858 -0.7437
-3 -5 11 0.2850 -0.3595
-3 -5 12 -0.3780 0.1273
-3 -5 13 -0.1446 -0.5108
-3 -5 14 0.1918 -0.1985
-3 -5 15 0.2591 -0.1843
-3 -5 16 0.2997 0.3014
-3 -5 17 -0.2984 0.1800
-3 -5 18 -0.0448 -0.2830
-3 -5 19 0.2803 0.0056
-3 -4 -14 -0.1580 0.2029
-3 -4 -13 -0.2202 -0.3411
-3 -4 -12 0.5359 -0.1019
-3 -4 -11 -0.0967 0.6343
-3 -4 -10 -0.6343 -0.2291
-3 -4 -9 0.2760 -0.6030
-3 -4 -8 0.4755 0.3307
-3 -4 -7 -0.3121 0.1167
-3 -4 -6 0.3250 0.0505
-3 -4 -5 -0.7751 0.3940
-3 -4 -4 0.1331 -1.3878
-3 -4 -3 1.3702 0.8870
-3 -4 -2 -1.3272 0.7176
-3 -4 -1 0.1271 -1.3671
-3 -4 0 1.3397 0.7271
-3 -4 1 -0.8422 1.5019
-3 -4 2 -1.8476 -0.4312
-3 -4 3 -0.1581 -2.2557
-3 -4 4 2.4842 -0.1629
-3 -4 5 -0.9448 2.1348
-3 -4 6 -1.0450 -2.7177
-3 -4 7 3.9959 0.2753
-3 -4 8 -0.9981 4.0043
-3 -4 9 -2.9451 -0.8704
-3 -4 10 0.4401 -1.5252
-3 -4 11 0.2842 0.3026
-3 -4 12 -0.4509 -0.5095
-3 -4 13 0.7242 -0.5235
-3 -4 14 0.3795 0.4511
-3 -4 15 -0.0486 0.1782
-3 -4 16 -0.0813 0.1549
-3 -4 17 -0.1378 -0.1172
-3 -4 18 0.2379 -0.0570
-3 -4 19 -0.0146 0.3363
-3 -3 -15 -0.1907 0.0875
-3 -3 -14 -0.1148 -0.2653
-3 -3 -13 0.3560 -0.1457
-3 -3 -12 0.1241 0.4376
-3 -3 -11 -0.4853 0.0994
-3 -3 -10 -0.1123 -0.5577
-3 -3 -9 0.6305 -0.0481
-3 -3 -8 -0.1403 0.4436
-3 -3 -7 0.1818 -0.1265
-3 -3 -6 -0.5159 0.8907
-3 -3 -5 -1.0037 -1.6599
-3 -3 -4 2.5564 -0.2584
-3 -3 -3 -0.9520 2.5291
-3 -3 -2 -1.5017 -2.1187
-3 -3 -1 3.0104 0.1473
-3 -3 0 -1.8203 3.4406
-3 -3 1 -3.1506 -2.7092
-3 -3 2 2.1845 -2.2446
-3 -3 3 1.3422 0.6249
-3 -3 4 0.5354 0.8923
-3 -3 5 -0.6324 0.1439
-3 -3 6 1.4282 -0.1385
-3 -3 7 -0.3864 2.7760
-3 -3 8 -2.9996 -0.4107
-3 -3 9 -0.0053 -2.3117
-3 -3 10 1.3242 -0.1926
-3 -3 11 -0.1867 0.3765
-3 -3 12 0.3521 -0.6984
-3 -3 13 0.7817 0.6440
-3 -3 14 -0.4688 0.4296
-3 -3 15 -0.0377 -0.1212
-3 -3 16 -0.0941 0.1111
-3 -3 17 -0.0035 -0.1424
-3 -3 18 0.1174 0.2284
-3 -2 -16 -0.2952 0.0961
-3 -2 -15 -0.0397 -0.3960
-3 -2 -14 0.3577 -0.0533
-3 -2 -13 0.1090 0.2437
-3 -2 -12 -0.1124 0.1748
-3 -2 -11 -0.2904 -0.0655
-3 -2 -10 0.2166 -0.3928
-3 -2 -8 -0.2573 -0.0272
-3 -2 -7 0.0147 0.4612
-3 -2 -6 -1.2372 -0.7775
-3 -2 -5 2.1133 -1.3119
-3 -2 -4 0.3956 3.1890
-3 -2 -3 -3.3212 -1.2741
-3 -2 -2 3.3333 -2.2481
-3 -2 -1 0.0601 5.2513
-3 -2 0 -6.0925 -2.5712
-3 -2 1 4.2558 -5.0924
-3 -2 2 2.6677 3.8216
-3 -2 3 -1.6895 0.2702
-3 -2 4 1.0280 0.2781
-3 -2 5 -0.6649 1.3394
-3 -2 6 -1.1924 0.1937
-3 -2 7 -1.0519 -0.6509
-3 -2 8 -0.3061 -1.3069
-3 -2 9 1.1975 -1.0945
-3 -2 10 0.9842 0.9479
-3 -2 11 -0.4852 0.0979
-3 -2 12 0.6663 0.0926
-3 -2 13 -0.4207 0.7079
-3 -2 14 -0.2597 -0.3532
-3 -2 15 0.1315 0.1370
-3 -2 16 -0.2364 -0.0133
-3 -2 17 0.0952 -0.0910
-3 -1 -16 -0.0947 -0.4431
-3 -1 -15 0.4659 -0.0635
-3 -1 -14 0.0846 0.2803
-3 -1 -13 0.0070 0.1035
-3 -1 -12 -0.1340 0.2860
-3 -1 -11 -0.3845 -0.2656
-3 -1 -10 0.4164 -0.1709
-3 -1 -9 -0.1518 0.3617
-3 -1 -8 -0.1724 -0.1345
-3 -1 -7 -0.3340 -0.3303
-3 -1 -6 1.1578 -0.7755
-3 -1 -5 0.6352 2.3627
-3 -1 -4 -3.3428 -0.2489
-3 -1 -3 1.8509 -3.6322
-3 -1 -2 2.8453 4.1164
-3 -1 -1 -6.4513 0.7204
-3 -1 0 2.2122 -7.5084
-3 -1 1 6.2587 4.3955
-3 -1 2 -4.4812 3.2237
-3 -1 3 -0.0658 -2.7869
-3 -1 4 0.9064 1.9901
-3 -1 5 -2.7804 -0.0981
-3 -1 6 0.4592 -2.4645
-3 -1 7 1.1113 0.6867
-3 -1 8 -0.6774 -0.7219
-3 -1 9 1.8541 -0.2221
-3 -1 10 -0.3029 1.5672
-3 -1 11 -0.4433 -0.3637
-3 -1 12 0.0236 0.3664
-3 -1 13 -0.4167 -0.2471
-3 -1 14 0.2760 -0.1127
-3 -1 15 -0.0975 0.2447
-3 0 -17 -0.0737 -0.2823
-3 0 -16 0.4282 -0.0667
-3 0 -15 0.0955 0.3290
-3 0 -14 -0.0731 0.1216
-3 0 -13 -0.0540 0.2317
-3 0 -12 -0.5164 0.0202
-3 0 -11 0.0824 -0.6284
-3 0 -10 0.4427 0.3283
-3 0 -9 -0.5341 0.1204
-3 0 -8 0.0480 -0.7591
-3 0 -7 1.2721 0.0913
-3 0 -6 -0.3067 2.0574
-3 0 -5 -2.7377 -0.7456
-3 0 -4 1.2096 -3.0795
-3 0 -3 3.1246 1.8520
-3 0 -2 -3.1751 2.6855
-3 0 -1 -1.2984 -5.0775
-3 0 0 6.4182 0.9344
-3 0 2 -3.9796 -3.7432
-3 0 3 3.3068 -1.1731
-3 0 4 -1.4370 2.3076
-3 0 5 -1.0327 -3.1651
-3 0 6 3.3453 0.5219
-3 0 7 -1.8611 1.8084
-3 0 8 0.4290 -2.1708
-3 0 9 1.3858 1.7690
-3 0 10 -1.5769 0.3893
-3 0 11 0.0537 -0.6382
-3 0 12 -0.0227 0.0215
-3 0 13 0.0792 -0.2105
-3 0 14 0.2604 0.1768
-3 1 -17 0.3156 0.0363
-3 1 -16 -0.0184 0.3381
-3 1 -15 -0.1683 0.0649
-3 1 -14 -0.0868 0.0521
-3 1 -13 -0.2812 0.0533
-3 1 -12 -0.1906 -0.5312
-3 1 -11 0.6910 -0.0811
-3 1 -10 -0.2840 0.6488
-3 1 -9 -0.4775 -0.8069
-3 1 -8 1.5482 -0.2179
-3 1 -7 -0.3436 2.4808
-3 1 -6 -3.1219 -1.2665
-3 1 -5 1.9767 -2.9327
-3 1 -4 2.1008 1.7900
-3 1 -3 -0.9771 1.4113
-3 1 -2 -1.2285 -0.7262
-3 1 -1 1.7956 -1.0861
-3 1 0 0.4382 3.6087
-3 1 1 -4.8642 -0.6668
-3 1 2 1.8388 -4.6400
-3 1 3 2.7923 2.7356
-3 1 4 -2.9222 -0.0853
-3 1 5 2.6914 -1.9271
-3 1 6 -0.0399 3.5806
-3 1 7 -2.3878 -1.8163
-3 1 8 2.3116 -0.3269
-3 1 9 -0.9968 1.6242
-3 1 10 -0.7044 -1.1103
-3 1 11 0.6612 -0.1571
-3 1 12 -0.1026 0.2386
-3 1 13 0.1491 -0.2153
-3 1 14 0.0799 0.5422
-3 1 15 -0.6927 -0.2453
-3 2 -18 0.2099 0.0895
-3 2 -17 -0.1291 0.3569
-3 2 -16 -0.3051 -0.0801
-3 2 -15 -0.0324 -0.1412
-3 2 -14 -0.0188 -0.0231
-3 2 -13 -0.1617 -0.2142
-3 2 -12 0.4770 -0.2934
-3 2 -11 0.1529 0.6926
-3 2 -10 -0.7882 -0.2533
-3 2 -9 0.9322 -0.8033
-3 2 -8 0.5672 1.9987
-3 2 -7 -3.1807 -0.3197
-3 2 -6 1.7532 -3.5732
-3 2 -5 2.4855 2.6766
-3 2 -4 -2.0145 0.4795
-3 2 -3 0.9624 -0.0833
-3 2 -2 -1.4423 0.9010
-3 2 -1 0.2507 -1.1276
-3 2 0 -0.9272 1.3312
-3 2 1 -1.4304 -3.3209
-3 2 2 4.4615 -0.3553
-3 2 3 -1.3148 3.5230
-3 2 4 -0.9537 -2.4633
-3 2 5 2.2184 1.6829
-3 2 6 -2.8088 0.8111
-3 2 7 0.6094 -2.1371
-3 2 8 0.7358 1.1707
-3 2 9 -0.9832 -0.2555
-3 2 10 0.6078 -0.5826
-3 2 11 0.1755 0.6330
-3 2 12 -0.4301 -0.2474
-3 2 13 0.4890 0.0496
-3 2 14 -0.5489 0.3375
-3 2 15 0.0095 -0.6664
-3 2 16 0.3932 0.1473
-3 3 -18 -0.1230 0.2829
-3 3 -17 -0.3543 -0.1412
-3 3 -16 0.0394 -0.2669
-3 3 -15 0.1416 -0.0705
-3 3 -14 -0.0050 0.0204
-3 3 -13 0.1809 -0.2200
-3 3 -12 0.3049 0.4408
-3 3 -11 -0.6203 0.1370
-3 3 -10 0.2089 -0.7266
-3 3 -9 0.8403 0.8200
-3 3 -8 -1.8866 0.6752
-3 3 -7 0.2978 -3.0276
-3 3 -6 3.1542 1.9266
-3 3 -5 -2.9778 1.5670
-3 3 -4 0.9567 -2.2493
-3 3 -3 0.0304 2.6493
-3 3 -2 -2.3714 -1.9741
-3 3 -1 2.2186 -0.5262
-3 3 0 -1.4856 0.6013
-3 3 1 1.6646 -2.3820
-3 3 2 1.7335 3.0799
-3 3 3 -2.8492 0.1077
-3 3 4 1.3609 -1.3306
-3 3 5 -0.3069 1.8398
-3 3 6 -1.3960 -1.0784
-3 3 7 0.9353 -0.6757
-3 3 8 0.1271 0.4725
-3 3 10 0.3336 0.2432
-3 3 11 -0.5111 0.1377
-3 3 12 0.2495 -0.4877
-3 3 13 0.1349 0.4505
-3 3 14 -0.3051 -0.2057
-3 3 15 0.2404 -0.0790
-3 4 -18 -0.2570 -0.1560
-3 4 -17 0.1274 -0.2147
-3 4 -16 0.0865 -0.0304
-3 4 -15 0.1333 0.0080
-3 4 -14 0.0449 0.0148
-3 4 -13 0.1881 0.1800
-3 4 -12 -0.3428 0.2084
-3 4 -11 -0.0323 -0.4092
-3 4 -10 0.4617 0.1978
-3 4 -9 -0.6017 0.6061
-3 4 -8 -0.5127 -1.4132
-3 4 -7 2.2877 0.3681
-3 4 -6 -1.8954 2.2526
-3 4 -5 -0.7559 -2.9516
-3 4 -4 2.4868 1.4580
-3 4 -3 -2.8840 0.7066
-3 4 -2 1.0816 -2.6160
-3 4 -1 1.0035 1.7147
-3 4 0 -1.0547 -0.8462
-3 4 1 1.9343 0.1954
-3 4 2 -1.2056 1.8828
-3 4 3 -0.9876 -1.5600
-3 4 4 1.3737 0.0967
-3 4 5 -0.8484 1.0124
-3 4 6 -0.6787 -1.1359
-3 4 7 1.0513 -0.3181
-3 4 8 -0.0715 0.6915
-3 4 10 0.0997 0.0904
-3 4 11 -0.0730 -0.2176
-3 4 12 0.3553 0.0889
-3 4 13 -0.1193 0.2695
-3 4 14 -0.1688 -0.0181
-3 4 15 -0.0127 -0.1510
-3 5 -18 0.2272 -0.1620
-3 5 -17 -0.0020 0.1777
-3 5 -16 0.0234 -0.1781
-3 5 -15 0.2019 0.1684
-3 5 -14 -0.1076 0.1263
-3 5 -13 -0.0990 0.0181
-3 5 -12 0.0009 -0.1185
-3 5 -11 0.1218 0.1186
-3 5 -10 -0.1897 0.1925
-3 5 -9 -0.3751 -0.3391
-3 5 -8 0.8008 -0.3428
-3 5 -7 -0.3544 1.3579
-3 5 -6 -1.3343 -1.5914
-3 5 -5 2.5407 -0.3605
-3 5 -4 -1.0807 2.4604
-3 5 -3 -1.4381 -2.0712
-3 5 -2 2.0825 -0.2031
-3 5 -1 -0.6123 1.2666
-3 5 0 -0.1283 -0.8469
-3 5 1 0.6260 0.8569
-3 5 2 -1.3950 0.1007
-3 5 3 0.5896 -1.4004
-3 5 4 0.9744 1.2445
-3 5 5 -1.5937 0.3273
-3 5 6 0.2946 -1.4202
-3 5 7 0.7683 0.6626
-3 5 8 -0.6743 0.0144
-3 5 9 0.3969 -0.4481
-3 5 10 0.2100 0.3395
-3 5 11 -0.0528 0.0573
-3 5 12 0.0699 0.1857
-3 5 13 -0.2988 0.1876
-3 5 14 -0.1993 -0.3154
-3 6 -18 0.1090 0.2899
-3 6 -17 -0.2493 -0.1247
-3 6 -16 0.3370 -0.0196
-3 6 -15 -0.2135 0.3250
-3 6 -14 -0.1325 -0.2849
-3 6 -13 0.2534 0.0475
-3 6 -12 -0.1195 0.2460
-3 6 -11 -0.2267 -0.0901
-3 6 -10 -0.0548 -0.1133
-3 6 -9 0.0289 -0.2643
-3 6 -8 0.2743 0.1858
-3 6 -7 -0.5142 -0.1972
-3 6 -6 1.0557 -0.6382
-3 6 -5 0.2946 1.8152
-3 6 -4 -2.0453 -0.3760
-3 6 -3 1.0064 -1.7088
-3 6 -2 1.0387 1.3202
-3 6 -1 -1.2150 0.2711
-3 6 0 0.3962 -0.6974
-3 6 1 -0.1070 0.7311
-3 6 2 -0.5514 -0.9247
-3 6 3 1.4361 0.0835
-3 6 4 -0.8300 1.4532
-3 6 5 -1.0182 -1.2555
-3 6 6 1.1290 -0.3650
-3 6 7 -0.2180 0.5827
-3 6 8 0.0025 -0.5434
-3 6 9 0.5855 0.3065
-3 6 10 -0.2803 0.4142
-3 6 11 -0.1249 -0.0765
-3 6 12 -0.1408 0.1502
-3 6 13 -0.2621 -0.2688
-3 7 -18 -0.2549 0.1312
-3 7 -17 0.1037 -0.2257
-3 7 -16 0.0046 0.3290
-3 7 -15 -0.3253 -0.2705
-3 7 -14 0.4280 -0.1103
-3 7 -13 -0.1131 0.4474
-3 7 -12 -0.3965 -0.1983
-3 7 -11 0.1425 -0.2729
-3 7 -10 0.0468 -0.0002
-3 7 -9 0.1534 -0.1844
-3 7 -8 0.2346 0.1831
-3 7 -7 0.0355 0.0481
-3 7 -6 0.2152 0.4787
-3 7 -5 -0.9663 0.3320
-3 7 -4 -0.1926 -1.3019
-3 7 -3 1.3703 0.1591
-3 7 -2 -0.5642 1.1268
-3 7 -1 -0.6065 -0.8011
-3 7 0 0.6879 0.0173
-3 7 1 -0.4633 0.2125
-3 7 2 0.4348 -0.5166
-3 7 3 0.1945 0.9718
-3 7 4 -1.1827 -0.2630
-3 7 5 0.5689 -1.0104
-3 7 6 0.5606 0.5805
-3 7 7 -0.3650 0.0376
-3 7 8 0.3483 -0.1038
-3 7 9 -0.0559 0.4639
-3 7 10 -0.3088 -0.0693
-3 7 11 -0.0270 -0.0289
-3 8 -18 -0.1421 -0.1298
-3 8 -17 0.1065 0.0479
-3 8 -16 -0.2439 -0.0472
-3 8 -15 0.2521 -0.2612
-3 8 -14 0.1080 0.3848
-3 8 -13 -0.4187 -0.0477
-3 8 -12 0.0931 -0.3996
-3 8 -11 0.3209 0.0633
-3 8 -10 -0.0326 0.1297
-3 8 -9 0.1401 -0.0124
-3 8 -8 -0.0170 0.3274
-3 8 -7 -0.2838 -0.0329
-3 8 -6 -0.0244 -0.0248
-3 8 -5 -0.2772 -0.1897
-3 8 -4 0.4306 -0.4274
-3 8 -3 0.3324 0.6508
-3 8 -2 -0.7322 0.0374
-3 8 -1 0.3111 -0.6037
-3 8 0 0.2994 0.5377
-3 8 1 -0.5164 -0.0439
-3 8 2 0.2634 -0.2315
-3 8 3 -0.1996 0.2713
-3 8 4 -0.1068 -0.5715
-3 8 5 0.7018 0.0999
-3 8 6 -0.2225 0.5445
-3 8 7 -0.2211 -0.2151
-3 8 8 0.1198 0.0614
-3 8 9 -0.1512 0.0214
-3 8 10 0.0097 -0.0565
-3 9 -17 -0.0444 -0.0003
-3 9 -16 0.0673 -0.1609
-3 9 -15 0.1654 0.1503
-3 9 -14 -0.2047 0.0875
-3 9 -13 -0.0427 -0.2479
-3 9 -12 0.3193 -0.0632
-3 9 -11 0.0604 0.3728
-3 9 -10 -0.2930 -0.0292
-3 9 -9 0.1346 -0.0477
-3 9 -8 -0.2277 0.1285
-3 9 -7 0.0223 -0.3394
-3 9 -6 0.2077 0.2202
-3 9 -5 -0.3241 -0.0865
-3 9 -4 0.3813 -0.2423
-3 9 -3 -0.0270 0.5194
-3 9 -2 -0.3942 -0.3850
-3 9 -1 0.6547 -0.0083
-3 9 0 -0.4731 0.6782
-3 9 1 -0.4417 -0.7774
-3 9 2 0.7100 -0.1022
-3 9 3 -0.1388 0.3158
-3 9 4 0.1520 -0.1939
-3 9 5 0.1269 0.4316
-3 9 6 -0.4340 0.0557
-3 9 7 -0.0441 -0.2623
-3 9 8 0.0906 -0.0752
-3 9 9 0.0955 0.0223
-3 10 -16 0.1058 0.0687
-3 10 -15 -0.0864 0.0771
-3 10 -14 -0.0405 -0.0935
-3 10 -13 0.1325 -0.0687
-3 10 -12 0.1346 0.2366
-3 10 -11 -0.3434 0.1244
-3 10 -10 0.0112 -0.3242
-3 10 -9 0.1244 0.1729
-3 10 -8 -0.2064 -0.1563
-3 10 -7 0.3453 -0.0493
-3 10 -6 -0.2238 0.3254
-3 10 -5 -0.0880 -0.4537
-3 10 -4 0.4693 0.2701
-3 10 -3 -0.5560 0.1790
-3 10 -2 0.3281 -0.5559
-3 10 -1 0.2047 0.7868
-3 10 0 -0.9368 -0.3042
-3 10 1 0.6423 -0.7329
-3 10 2 0.3577 0.6205
-3 10 3 -0.3298 0.0302
-3 10 4 0.1625 -0.0152
-3 10 5 -0.1481 0.2528
-3 10 6 -0.2842 -0.1499
-3 10 7 0.0786 -0.2652
-3 11 -15 -0.0587 -0.1187
-3 11 -14 0.1294 -0.0293
-3 11 -13 0.0525 0.1431
-3 11 -12 -0.1867 0.0987
-3 11 -11 -0.0799 -0.2319
-3 11 -10 0.2063 0.0402
-3 11 -9 -0.1915 0.0750
-3 11 -8 0.1140 -0.2575
-3 11 -7 0.1691 0.2622
-3 11 -6 -0.2719 -0.0473
-3 11 -5 0.2641 -0.0882
-3 11 -4 -0.2389 0.2992
-3 11 -3 -0.0496 -0.5255
-3 11 -2 0.5665 0.3805
-3 11 -1 -0.7295 0.3309
-3 11 0 -0.0095 -0.8023
-3 11 1 0.6259 0.1768
-3 11 2 -0.1863 0.3623
-3 11 3 -0.1229 -0.1389
-3 11 4 0.1342 0.0776
-3 11 5 -0.2291 0.1567
-3 12 -14 0.0690 0.1913
-3 12 -13 -0.1916 0.0498
-3 12 -12 -0.0416 -0.1747
-3 12 -11 0.1568 -0.0081
-3 12 -10 -0.0761 0.1327
-3 12 -9 -0.0893 -0.1896
-3 12 -8 0.2742 -0.0225
-3 12 -7 -0.0475 0.2691
-3 12 -6 -0.1610 -0.0616
-3 12 -5 -0.0411 -0.0285
-3 12 -4 0.0044 -0.2375
-3 12 -3 0.3984 0.1435
-3 12 -2 -0.3419 0.4117
-3 12 -1 -0.3109 -0.4409
-3 12 0 0.4009 -0.2219
-3 12 1 0.1877 0.3137
-3 12 2 -0.2497 0.1256
-3 12 3 0.0261 -0.1759
-3 13 -12 0.1684 -0.0460
-3 13 -11 0.0237 0.1554
-3 13 -10 -0.1662 -0.0218
-3 13 -9 0.1057 -0.1933
-3 13 -8 0.2003 0.2087
-3 13 -7 -0.2756 0.1657
-3 13 -6 -0.1234 -0.2675
-3 13 -5 0.2180 -0.1282
-3 13 -4 0.1746 0.2009
-3 13 -3 -0.2284 0.1979
-3 13 -2 -0.1747 -0.2304
-3 13 -1 0.1653 -0.1652
-2 -14 10 -0.2024 0.3869
-2 -14 11 -0.3434 -0.1882
-2 -14 12 0.1655 -0.3066
-2 -13 0 0.1710 -0.0220
-2 -13 1 -0.0696 0.1821
-2 -13 2 -0.0958 -0.1408
-2 -13 8 0.4299 0.0822
-2 -13 9 -0.2417 0.5358
-2 -13 10 -0.5290 -0.3467
-2 -13 11 0.3969 -0.4809
-2 -13 12 0.4397 0.4088
-2 -13 13 -0.3818 0.4051
-2 -12 -2 -0.1695 -0.0276
-2 -12 -1 0.0793 -0.1197
-2 -12 0 0.0904 0.1345
-2 -12 1 -0.1438 0.0952
-2 -12 2 -0.1171 -0.0531
-2 -12 3 -0.1363 -0.1577
-2 -12 4 0.2338 -0.3182
-2 -12 6 -0.3401 0.1638
-2 -12 7 0.1286 -0.2513
-2 -12 8 0.0815 0.3837
-2 -12 9 -0.5181 -0.1068
-2 -12 10 0.2743 -0.5400
-2 -12 11 0.4994 0.4064
-2 -12 12 -0.4849 0.4359
-2 -12 13 -0.3551 -0.4833
-2 -12 14 0.3850 -0.2406
-2 -12 15 0.0961 0.2098
-2 -11 -4 0.1032 0.1359
-2 -11 -3 -0.0671 0.1743
-2 -11 -2 -0.1993 0.0241
-2 -11 -1 -0.0222 -0.1742
-2 -11 0 0.0956 0.1260
-2 -11 1 -0.3349 -0.0051
-2 -11 2 0.0432 -0.4698
-2 -11 3 0.4904 -0.0396
-2 -11 4 0.1818 0.4600
-2 -11 5 -0.4361 0.2453
-2 -11 6 -0.1532 -0.4133
-2 -11 7 0.3631 0.0483
-2 -11 8 -0.2550 0.2753
-2 -11 9 -0.1471 -0.3881
-2 -11 10 0.4194 0.0230
-2 -11 11 -0.2128 0.3622
-2 -11 12 -0.2527 -0.3699
-2 -11 13 0.4380 -0.1187
-2 -11 14 -0.0343 0.3818
-2 -11 15 -0.2110 -0.1884
-2 -11 16 0.2866 -0.0050
-2 -10 -6 0.0684 0.0381
-2 -10 -5 0.1021 0.0321
-2 -10 -4 0.1171 0.2485
-2 -10 -3 -0.3569 0.3305
-2 -10 -2 -0.4367 -0.4299
-2 -10 -1 0.4345 -0.2655
-2 -10 0 -0.1540 0.3037
-2 -10 1 -0.0527 -0.5799
-2 -10 2 0.7795 0.1795
-2 -10 3 -0.2607 0.7247
-2 -10 4 -0.5508 -0.2026
-2 -10 5 0.1239 -0.3887
-2 -10 6 0.2901 0.1142
-2 -10 7 -0.1746 0.2598
-2 -10 8 -0.2748 -0.2584
-2 -10 9 0.3105 -0.2748
-2 -10 10 0.1947 0.2852
-2 -10 11 -0.1773 0.0258
-2 -10 12 0.1766 -0.0327
-2 -10 13 -0.1040 0.3328
-2 -10 14 -0.3693 -0.2358
-2 -10 15 0.3680 -0.2505
-2 -10 16 0.0345 0.4489
-2 -10 17 -0.4150 -0.1291
-2 -9 -8 0.0825 -0.0574
-2 -9 -7 0.1148 0.0922
-2 -9 -6 0.0065 0.0843
-2 -9 -5 0.0759 0.1421
-2 -9 -4 -0.2575 0.3609
-2 -9 -3 -0.6300 -0.3760
-2 -9 -2 0.5066 -0.6444
-2 -9 -1 0.2804 0.5501
-2 -9 0 -0.3848 -0.3118
-2 -9 1 0.8199 -0.0298
-2 -9 2 -0.3521 1.0330
-2 -9 3 -0.9530 -0.6181
-2 -9 4 0.7489 -0.6867
-2 -9 5 0.3341 0.7880
-2 -9 6 -0.7548 0.0053
-2 -9 7 0.1633 -0.6572
-2 -9 8 0.5265 0.1066
-2 -9 9 0.0814 0.3852
-2 -9 10 -0.2200 0.2210
-2 -9 11 -0.2023 -0.0364
-2 -9 12 -0.1047 -0.0423
-2 -9 13 -0.1648 -0.1644
-2 -9 14 0.2016 -0.2976
-2 -9 15 0.2590 0.2951
-2 -9 16 -0.4135 0.0660
-2 -9 17 0.1229 -0.4455
-2 -8 -9 -0.0848 0.0113
-2 -8 -8 0.1046 -0.0436
-2 -8 -7 0.0778 0.1860
-2 -8 -6 -0.1696 0.1548
-2 -8 -5 -0.2261 -0.0066
-2 -8 -4 -0.2478 -0.3139
-2 -8 -3 0.4613 -0.4120
-2 -8 -2 0.3082 0.6212
-2 -8 -1 -0.6594 -0.0766
-2 -8 0 0.5902 -0.4832
-2 -8 1 0.1216 1.0584
-2 -8 2 -1.3740 -0.3364
-2 -8 3 0.8309 -1.4394
-2 -8 4 1.1278 1.3046
-2 -8 5 -1.6309 0.4228
-2 -8 6 0.4145 -1.6648
-2 -8 7 1.3899 0.9463
-2 -8 8 -0.9141 0.9496
-2 -8 9 -0.5041 -0.4614
-2 -8 11 -0.1605 -0.2838
-2 -8 12 0.2582 -0.2674
-2 -8 13 0.1855 0.0733
-2 -8 14 0.1066 0.0622
-2 -8 15 -0.0818 0.1413
-2 -8 16 -0.0103 -0.2456
-2 -8 17 0.3781 0.1438
-2 -8 18 -0.1569 0.3529
-2 -7 -11 0.1712 0.1791
-2 -7 -10 -0.1542 0.1958
-2 -7 -9 -0.1415 -0.1588
-2 -7 -8 0.2461 -0.0016
-2 -7 -7 -0.1599 0.3804
-2 -7 -6 -0.5132 -0.2421
-2 -7 -5 0.2272 -0.6521
-2 -7 -4 0.8064 0.2102
-2 -7 -3 -0.2748 0.9194
-2 -7 -2 -0.9158 -0.4019
-2 -7 -1 0.5558 -0.7913
-2 -7 0 0.5981 0.8100
-2 -7 1 -1.2810 0.3370
-2 -7 2 0.0906 -1.8889
-2 -7 3 2.2351 0.7767
-2 -7 4 -1.6284 1.8363
-2 -7 5 -0.5960 -2.3220
-2 -7 6 2.5085 0.9478
-2 -7 7 -1.9520 2.1033
-2 -7 8 -1.3410 -1.9439
-2 -7 9 1.1708 -0.5412
-2 -7 10 -0.1049 0.2808
-2 -7 11 0.2570 -0.5025
-2 -7 12 0.5677 0.3854
-2 -7 13 -0.2831 0.3236
-2 -7 14 -0.0070 -0.1450
-2 -7 15 0.1019 0.1006
-2 -7 16 0.0360 0.1706
-2 -7 17 -0.2333 0.1988
-2 -7 18 -0.2039 -0.1676
-2 -7 19 0.0152 -0.0776
-2 -6 -12 0.0829 0.1745
-2 -6 -11 -0.0671 0.1883
-2 -6 -10 -0.2874 -0.0250
-2 -6 -9 0.1667 -0.2905
-2 -6 -8 0.1822 0.4503
-2 -6 -7 -0.7865 0.0549
-2 -6 -6 0.0641 -1.1647
-2 -6 -5 1.5476 0.3030
-2 -6 -4 -0.7247 1.7385
-2 -6 -2 1.1777 -1.0137
-2 -6 -1 0.5017 0.9657
-2 -6 0 -0.9155 0.2656
-2 -6 1 -0.2535 -1.4018
-2 -6 2 2.2668 -0.1534
-2 -6 3 -0.3450 2.8187
-2 -6 4 -2.3347 -1.2726
-2 -6 5 2.2669 -0.7040
-2 -6 6 -1.3218 2.7780
-2 -6 7 -2.5015 -2.6136
-2 -6 8 2.5638 -1.6113
-2 -6 9 0.5472 1.5361
-2 -6 10 -0.4055 -0.3342
-2 -6 11 0.8451 0.2483
-2 -6 12 -0.4313 0.8904
-2 -6 13 -0.5283 -0.4178
-2 -6 14 0.4021 -0.0523
-2 -6 15 -0.2045 0.4335
-2 -6 16 -0.4659 -0.1836
-2 -6 17 0.0955 -0.4005
-2 -6 18 0.1996 0.1104
-2 -6 19 -0.1935 -0.0164
-2 -5 -14 0.1765 -0.0689
-2 -5 -13 0.0835 0.2088
-2 -5 -12 -0.0894 0.0855
-2 -5 -11 -0.1460 0.0411
-2 -5 -10 0.0309 -0.2368
-2 -5 -9 0.3031 0.3288
-2 -5 -8 -0.7363 0.4038
-2 -5 -7 -0.5588 -1.2549
-2 -5 -6 1.9425 -0.4968
-2 -5 -5 -0.1331 2.5610
-2 -5 -4 -2.5871 -1.2043
-2 -5 -3 2.0437 -1.7564
-2 -5 -2 0.4405 2.1094
-2 -5 -1 -1.5823 -0.6451
-2 -5 0 0.9967 -1.1412
-2 -5 1 1.2704 0.5734
-2 -5 2 0.2350 1.8677
-2 -5 3 -2.3485 0.7554
-2 -5 4 -0.4214 -2.0382
-2 -5 5 0.7101 0.6926
-2 -5 6 -1.8159 -1.0438
-2 -5 7 2.1433 -2.1567
-2 -5 8 1.5820 1.9705
-2 -5 9 -0.9349 0.5529
-2 -5 10 0.4104 0.0417
-2 -5 11 -0.4611 1.0032
-2 -5 12 -1.0856 -0.5019
-2 -5 13 0.5266 -0.7026
-2 -5 14 0.1488 0.6531
-2 -5 15 -0.7823 -0.2352
-2 -5 16 0.3703 -0.7788
-2 -5 17 0.5685 0.4115
-2 -5 18 -0.4554 0.2189
-2 -5 19 0.0547 -0.4493
-2 -5 20 0.3588 0.0928
-2 -4 -15 -0.0238 -0.1771
-2 -4 -14 0.3027 0.0521
-2 -4 -13 -0.0771 0.2838
-2 -4 -12 -0.1995 -0.0603
-2 -4 -11 0.1716 -0.1494
-2 -4 -10 0.1540 0.4664
-2 -4 -9 -0.7741 0.3044
-2 -4 -8 -0.7431 -1.0409
-2 -4 -7 1.5342 -1.2603
-2 -4 -6 1.1754 2.3872
-2 -4 -5 -3.1018 0.0177
-2 -4 -4 1.7599 -2.8905
-2 -4 -3 1.5118 3.1039
-2 -4 -2 -3.3672 -0.4760
-2 -4 -1 2.1774 -2.7211
-2 -4 0 1.7001 2.7909
-2 -4 1 -1.8257 0.7662
-2 -4 2 -0.2755 0.4797
-2 -4 3 -2.8663 -0.3427
-2 -4 4 0.5825 -3.7727
-2 -4 5 2.7207 0.4142
-2 -4 6 0.1643 0.7554
-2 -4 7 0.6669 0.4736
-2 -4 8 -0.0524 0.9520
-2 -4 9 -0.4374 0.6913
-2 -4 10 -1.0278 0.3219
-2 -4 11 -0.9332 -0.8186
-2 -4 12 0.5330 -1.1226
-2 -4 13 0.8124 0.5486
-2 -4 14 -0.7909 0.2497
-2 -4 15 0.2153 -0.9819
-2 -4 16 0.9331 0.4732
-2 -4 17 -0.6154 0.6149
-2 -4 18 -0.1768 -0.6602
-2 -4 19 0.5465 0.1085
-2 -3 -16 -0.2129 -0.1266
-2 -3 -15 0.4009 -0.3007
-2 -3 -14 0.2614 0.5705
-2 -3 -13 -0.5599 0.1253
-2 -3 -12 0.1708 -0.4559
-2 -3 -11 0.3210 0.6654
-2 -3 -10 -1.1114 0.2274
-2 -3 -9 -0.4256 -1.1921
-2 -3 -8 1.0724 -1.0729
-2 -3 -7 1.7036 1.3302
-2 -3 -6 -2.1382 1.4229
-2 -3 -5 0.1010 -2.8562
-2 -3 -4 2.6731 2.1609
-2 -3 -3 -3.7407 1.3699
-2 -3 -2 0.6839 -4.3460
-2 -3 -1 3.8805 2.7755
-2 -3 0 -3.7632 2.2800
-2 -3 1 0.1157 -2.4107
-2 -3 2 -1.3319 2.1890
-2 -3 3 -2.8197 -5.5468
-2 -3 4 7.6654 -2.0250
-2 -3 5 0.7665 6.7603
-2 -3 6 -4.1227 -0.3117
-2 -3 7 1.3149 -1.6428
-2 -3 8 0.2266 2.2654
-2 -3 9 -2.6277 -0.1925
-2 -3 10 -0.0641 -2.0425
-2 -3 11 1.0051 -0.6099
-2 -3 12 0.9363 0.3566
-2 -3 13 -0.3746 0.7434
-2 -3 14 -0.2318 -0.7009
-2 -3 15 0.9177 0.2122
-2 -3 16 -0.4717 0.8581
-2 -3 17 -0.5354 -0.6275
-2 -3 18 0.6537 -0.1100
-2 -2 -16 0.2061 -0.4816
-2 -2 -15 0.6139 0.4968
-2 -2 -14 -0.6756 0.5442
-2 -2 -13 -0.2535 -0.7191
-2 -2 -12 0.6797 0.3257
-2 -2 -11 -1.0596 0.5379
-2 -2 -10 -0.3817 -1.4751
-2 -2 -8 1.0561 0.7949
-2 -2 -7 -0.7650 1.4209
-2 -2 -6 -0.9345 -1.2945
-2 -2 -5 1.8658 0.3482
-2 -2 -4 -1.7586 2.0023
-2 -2 -3 -1.5174 -2.9045
-2 -2 -2 3.7534 -0.2408
-2 -2 -1 -1.6511 3.8172
-2 -2 0 -2.1978 -2.8739
-2 -2 1 1.6089 1.0493
-2 -2 2 -4.2878 -2.4309
-2 -2 3 7.0577 -5.7102
-2 -2 4 4.9816 9.4720
-2 -2 5 -8.8059 2.9831
-2 -2 6 -0.4937 -6.3236
-2 -2 7 3.6108 2.0490
-2 -2 8 -3.8664 1.4261
-2 -2 9 -0.0604 -4.0448
-2 -2 10 2.6570 0.2975
-2 -2 11 0.0914 0.9476
-2 -2 12 -0.0760 0.4840
-2 -2 13 -0.3964 -0.1159
-2 -2 14 0.4572 -0.0363
-2 -2 15 -0.2070 0.6684
-2 -2 16 -0.6618 -0.3104
-2 -2 17 0.4181 -0.4404
-2 -1 -17 -0.0572 -0.3908
-2 -1 -16 0.6130 0.1712
-2 -1 -15 -0.4315 0.6575
-2 -1 -14 -0.5304 -0.5860
-2 -1 -13 0.6669 -0.1975
-2 -1 -12 -0.4235 0.6974
-2 -1 -11 -0.6035 -1.1337
-2 -1 -10 1.4395 -0.4578
-2 -1 -9 0.4909 1.1345
-2 -1 -8 -0.6101 0.6406
-2 -1 -7 -0.4754 -0.3072
-2 -1 -6 0.2023 0.0989
-2 -1 -5 -0.5010 0.1840
-2 -1 -4 -0.4752 -0.3609
-2 -1 -3 0.2996 -1.0843
-2 -1 -2 1.2665 1.0233
-2 -1 -1 -1.8811 0.4399
-2 -1 0 0.5076 -1.3015
-2 -1 1 -1.2081 -0.1448
-2 -1 2 2.7800 -4.3215
-2 -1 4 -7.3258 6.5906
-2 -1 5 -5.1096 -7.1661
-2 -1 6 6.0277 -2.1018
-2 -1 7 -1.6018 4.3367
-2 -1 8 -2.2528 -4.2528
-2 -1 9 4.4747 -0.4107
-2 -1 10 -0.4143 2.7345
-2 -1 11 -0.8214 -0.2906
-2 -1 12 0.0245 0.0500
-2 -1 13 -0.0451 0.0717
-2 -1 14 -0.1713 0.1753
-2 -1 15 -0.3375 -0.0676
-2 0 -17 0.4208 -0.1101
-2 0 -16 -0.1594 0.4688
-2 0 -15 -0.3879 -0.3911
-2 0 -14 0.4845 -0.2649
-2 0 -13 0.0300 0.5287
-2 0 -12 -0.5641 -0.4506
-2 0 -11 1.0108 -0.5403
-2 0 -10 0.5077 1.2690
-2 0 -9 -1.1272 0.4891
-2 0 -8 -0.1854 -0.7774
-2 0 -7 0.1693 0.6330
-2 0 -6 -1.3331 -0.9253
-2 0 -5 2.0901 -0.7599
-2 0 -4 -1.1723 2.2169
-2 0 -3 -0.8373 -2.8687
-2 0 -2 2.7345 1.0312
-2 0 -1 -2.0347 1.0889
-2 0 0 0.2646 -2.0662
-2 0 1 1.9910 0.0453
-2 0 2 1.6124 2.2000
-2 0 3 -2.3815 3.8468
-2 0 4 -5.6068 -2.5369
-2 0 5 3.1084 -5.6435
-2 0 6 3.2353 3.9037
-2 0 7 -3.9058 -0.5884
-2 0 8 3.4175 -2.6337
-2 0 9 0.9455 3.7037
-2 0 10 -2.1749 -0.0487
-2 0 11 0.2758 -0.6380
-2 0 12 -0.0255 0.3422
-2 0 13 -0.4259 -0.1445
-2 0 14 0.1486 -0.2424
-2 1 -18 0.2808 -0.2565
-2 1 -17 0.0546 0.3083
-2 1 -16 -0.2095 -0.2640
-2 1 -15 0.4463 -0.0903
-2 1 -14 0.0408 0.4469
-2 1 -13 -0.4071 -0.0896
-2 1 -12 0.4569 -0.4020
-2 1 -11 0.4510 0.8912
-2 1 -10 -1.1231 0.5968
-2 1 -9 -0.6213 -1.1637
-2 1 -8 1.0010 0.0497
-2 1 -7 -1.5073 0.1160
-2 1 -6 1.9381 -2.5208
-2 1 -5 1.4220 4.3636
-2 1 -4 -5.3170 -1.8082
-2 1 -3 4.9803 -3.7374
-2 1 -2 0.5191 5.7113
-2 1 -1 -3.6350 -2.4469
-2 1 1 -1.9947 3.5183
-2 1 2 -1.7297 -2.2129
-2 1 3 0.1780 0.4349
-2 1 4 -1.4229 -2.7555
-2 1 5 4.3251 -0.4263
-2 1 6 -1.5687 3.1976
-2 1 7 -0.3973 -2.7236
-2 1 8 2.3341 1.7290
-2 1 9 -1.9753 1.2471
-2 1 10 -0.4177 -1.1074
-2 1 11 0.3608 0.0881
-2 1 12 -0.4980 0.0231
-2 1 13 0.2265 -0.6208
-2 1 14 0.2478 0.4092
-2 1 15 -0.3115 -0.2683
-2 1 16 0.3991 -0.0408
-2 2 -18 0.1932 0.2403
-2 2 -17 -0.1581 -0.0784
-2 2 -16 0.3585 -0.0009
-2 2 -15 -0.0726 0.4262
-2 2 -14 -0.3288 -0.0531
-2 2 -13 0.1734 -0.2262
-2 2 -12 0.1804 0.5202
-2 2 -11 -0.8231 0.2663
-2 2 -10 -0.5521 -0.8920
-2 2 -9 0.9079 -0.6672
-2 2 -8 -0.1615 0.8317
-2 2 -7 0.1092 -1.9862
-2 2 -6 3.2881 2.5621
-2 2 -5 -5.6713 2.1321
-2 2 -4 1.5738 -7.3038
-2 2 -3 5.9786 5.5185
-2 2 -2 -6.9598 2.2397
-2 2 -1 1.9182 -4.9806
-2 2 0 0.8910 4.5015
-2 2 1 -4.4624 -2.9173
-2 2 2 4.3820 -2.1140
-2 2 3 -0.8640 2.9367
-2 2 4 0.0095 -2.4162
-2 2 5 1.7957 2.0967
-2 2 6 -2.0912 0.1220
-2 2 7 1.0205 -0.8260
-2 2 8 -0.1317 1.1752
-2 2 9 -0.8776 -0.2756
-2 2 10 0.1754 -0.5020
-2 2 11 -0.0132 0.2176
-2 2 12 -0.1642 -0.5302
-2 2 13 0.6204 0.1319
-2 2 14 -0.3501 0.2291
-2 2 15 0.1453 -0.2387
-2 2 16 0.0086 0.1278
-2 3 -18 -0.1698 0.0546
-2 3 -17 0.2063 0.0092
-2 3 -16 -0.2086 0.3515
-2 3 -15 -0.2561 -0.2485
-2 3 -14 0.2063 -0.0654
-2 3 -13 -0.0837 0.3468
-2 3 -12 -0.6359 -0.1852
-2 3 -11 0.1349 -0.6973
-2 3 -10 0.4360 -0.1941
-2 3 -9 0.4206 0.2458
-2 3 -8 -0.2082 -0.2670
-2 3 -7 1.9391 0.4778
-2 3 -6 -2.5888 3.1555
-2 3 -5 -2.1220 -5.4896
-2 3 -4 7.2675 1.2644
-2 3 -3 -4.9712 6.4213
-2 3 -2 -3.1563 -6.5432
-2 3 -1 5.0395 0.8919
-2 3 0 -3.8072 1.4783
-2 3 1 2.0657 -4.4102
-2 3 2 2.8470 3.7865
-2 3 3 -3.2308 0.4862
-2 3 4 1.1197 -1.4815
-2 3 5 0.0776 1.4457
-2 3 6 -1.0632 -0.3826
-2 3 7 0.3980 -0.6183
-2 3 8 0.2044 0.4776
-2 3 10 0.3695 -0.1073
-2 3 11 -0.3276 0.0984
-2 3 12 0.2701 -0.3970
-2 3 13 0.1547 0.3104
-2 3 14 -0.0929 0.0016
-2 3 15 -0.0670 0.0006
-2 3 16 0.1190 -0.1353
-2 4 -18 0.1122 -0.1126
-2 4 -17 -0.1731 0.3468
-2 4 -16 -0.3641 -0.4542
-2 4 -15 0.5239 -0.1158
-2 4 -14 -0.1947 0.4804
-2 4 -13 -0.5589 -0.4454
-2 4 -12 0.6489 -0.6493
-2 4 -11 0.3819 0.6738
-2 4 -10 -0.3478 -0.2108
-2 4 -9 0.5890 0.0207
-2 4 -8 0.2762 0.5561
-2 4 -7 -0.8006 1.3422
-2 4 -6 -2.0986 -2.0969
-2 4 -5 4.1255 -1.2530
-2 4 -4 -1.1926 5.5335
-2 4 -3 -5.1740 -3.7625
-2 4 -2 4.8309 -3.0455
-2 4 -1 0.1368 3.9004
-2 4 0 -1.7192 -2.3062
-2 4 1 3.4290 0.4684
-2 4 2 -1.7639 3.1237
-2 4 3 -1.9515 -2.0588
-2 4 4 1.8398 -0.6190
-2 4 5 -0.4820 1.5254
-2 4 6 -1.0816 -1.1952
-2 4 7 1.3350 -0.3884
-2 4 8 -0.2650 0.8402
-2 4 9 -0.0794 -0.4101
-2 4 10 0.0394 0.3851
-2 4 11 -0.3857 -0.3624
-2 4 12 0.4480 -0.2238
-2 4 13 0.1494 0.3371
-2 4 14 -0.2623 0.0873
-2 4 15 0.0616 -0.2226
-2 5 -18 0.1202 0.2502
-2 5 -17 -0.5070 -0.2302
-2 5 -16 0.5865 -0.4840
-2 5 -15 0.1357 0.7158
-2 5 -14 -0.6668 -0.3200
-2 5 -13 0.7226 -0.6086
-2 5 -12 0.4403 1.0263
-2 5 -11 -1.0847 -0.0881
-2 5 -10 0.8362 -0.7457
-2 5 -9 0.2431 1.2590
-2 5 -8 -1.1264 0.1121
-2 5 -7 -0.4831 -0.9394
-2 5 -6 1.3394 -0.7450
-2 5 -5 0.2158 2.2826
-2 5 -4 -3.0618 -1.0027
-2 5 -3 2.1095 -3.0324
-2 5 -2 2.0958 2.4475
-2 5 -1 -2.0297 0.5917
-2 5 0 0.9968 -1.2929
-2 5 1 0.5825 2.2156
-2 5 2 -2.7452 -0.0620
-2 5 3 0.7436 -2.4812
-2 5 4 1.5501 1.4090
-2 5 5 -1.7424 0.3053
-2 5 6 0.7199 -1.4508
-2 5 7 0.6739 1.0656
-2 5 8 -0.7055 -0.0451
-2 5 9 0.2867 -0.0709
-2 5 10 -0.3827 0.1252
-2 5 11 0.1051 -0.5392
-2 5 12 0.5068 0.2298
-2 5 13 -0.2703 0.3455
-2 5 14 -0.0889 -0.2361
-2 6 -18 -0.2881 0.1620
-2 6 -17 0.1579 -0.5795
-2 6 -16 0.5794 0.5057
-2 6 -15 -0.6561 0.2081
-2 6 -14 0.3230 -0.5966
-2 6 -13 0.4333 0.7941
-2 6 -12 -1.0992 0.1160
-2 6 -11 0.4795 -1.1290
-2 6 -10 0.8031 1.1892
-2 6 -9 -1.5673 0.2790
-2 6 -8 0.1045 -1.3806
-2 6 -7 0.9035 0.2054
-2 6 -6 -0.2253 0.5918
-2 6 -5 -0.6081 -0.3711
-2 6 -4 0.5457 -0.7823
-2 6 -3 0.8873 0.5364
-2 6 -1 -0.3757 -0.3540
-2 6 0 0.5800 0.3396
-2 6 1 -1.1840 0.8378
-2 6 2 -0.7634 -1.8086
-2 6 3 1.8959 -0.2313
-2 6 4 -0.4853 1.3832
-2 6 5 -0.5323 -0.9288
-2 6 6 0.8523 0.2244
-2 6 7 -0.5755 0.4125
-2 6 8 0.0323 -0.5098
-2 6 9 0.2206 0.2574
-2 6 10 -0.2630 -0.1032
-2 6 11 0.3373 -0.1331
-2 6 12 -0.0458 0.3750
-2 6 13 -0.1920 -0.1557
-2 7 -18 -0.1174 -0.2282
-2 7 -17 0.4895 0.1026
-2 7 -16 -0.3391 0.5012
-2 7 -15 -0.1871 -0.4239
-2 7 -14 0.3374 0.2502
-2 7 -13 -0.5926 0.1629
-2 7 -12 0.1165 -0.7711
-2 7 -11 0.7765 0.5908
-2 7 -10 -1.1694 0.5800
-2 7 -9 -0.2124 -1.5273
-2 7 -8 1.3965 0.1935
-2 7 -7 -0.5001 0.8283
-2 7 -6 -0.1200 -0.6330
-2 7 -5 0.5319 0.4293
-2 7 -4 -0.6527 0.1610
-2 7 -3 0.3519 -0.5331
-2 7 -2 0.2106 0.6821
-2 7 -1 -0.5469 -0.0602
-2 7 0 0.0693 0.0089
-2 7 1 -0.6186 -0.1883
-2 7 2 0.5205 -0.8982
-2 7 3 0.7400 0.7046
-2 7 4 -0.6427 0.3334
-2 7 5 0.0446 -0.3818
-2 7 6 0.0341 0.2341
-2 7 7 -0.2263 -0.2880
-2 7 8 0.4743 -0.0880
-2 7 9 -0.0819 0.4346
-2 7 10 -0.1918 -0.1623
-2 7 11 0.0872 0.0672
-2 7 12 -0.1375 -0.0611
-2 8 -18 0.1715 0.0544
-2 8 -17 -0.1787 0.3240
-2 8 -16 -0.2925 -0.2591
-2 8 -15 0.2086 -0.0727
-2 8 -14 -0.1387 0.0659
-2 8 -13 0.0615 -0.2080
-2 8 -12 0.2036 0.1896
-2 8 -11 -0.4598 0.2359
-2 8 -10 -0.2702 -0.9006
-2 8 -9 1.2833 -0.1720
-2 8 -8 -0.1121 1.2938
-2 8 -7 -0.8201 -0.4693
-2 8 -6 0.6853 -0.0458
-2 8 -5 -0.6884 0.5749
-2 8 -4 -0.1134 -1.0795
-2 8 -3 0.9949 0.4948
-2 8 -2 -0.9071 0.5212
-2 8 -1 0.0845 -0.8761
-2 8 0 0.4349 0.5386
-2 8 1 -0.6803 -0.1473
-2 8 2 0.5816 -0.5187
-2 8 3 0.1787 0.7289
-2 8 4 -0.6047 -0.1677
-2 8 5 0.3483 -0.3049
-2 8 6 -0.0315 0.2601
-2 8 7 0.0368 -0.2472
-2 8 8 0.2544 0.3176
-2 8 9 -0.3686 0.1237
-2 8 10 -0.0234 -0.1948
-2 9 -17 -0.2139 -0.3036
-2 9 -16 0.2771 -0.1038
-2 9 -15 -0.0496 0.1142
-2 9 -14 0.0843 -0.0530
-2 9 -13 -0.1221 0.1773
-2 9 -12 -0.1828 -0.2694
-2 9 -11 0.1952 -0.2870
-2 9 -10 0.6020 -0.0391
-2 9 -9 0.1805 0.9757
-2 9 -8 -1.1066 0.0520
-2 9 -7 0.2849 -0.8210
-2 9 -6 0.2119 0.5907
-2 9 -5 -0.6213 -0.4450
-2 9 -4 0.8543 -0.2851
-2 9 -3 -0.2830 0.8317
-2 9 -2 -0.3894 -0.7858
-2 9 -1 0.9573 0.2516
-2 9 0 -0.7745 0.7408
-2 9 1 -0.2938 -0.9486
-2 9 2 0.7407 0.1594
-2 9 3 -0.4564 0.2911
-2 9 4 0.1752 -0.5215
-2 9 5 0.3622 0.4424
-2 9 6 -0.4073 0.0869
-2 9 7 0.1327 -0.1582
-2 9 8 -0.0813 0.1888
-2 9 9 -0.1243 -0.1476
-2 10 -17 0.3208 -0.1772
-2 10 -16 0.0189 0.2906
-2 10 -15 -0.1227 -0.1104
-2 10 -14 0.0312 0.0837
-2 10 -13 -0.1869 -0.2316
-2 10 -12 0.4282 -0.1790
-2 10 -11 0.2083 0.3467
-2 10 -10 -0.0438 0.3904
-2 10 -9 -0.6515 0.2180
-2 10 -8 -0.2190 -0.7945
-2 10 -7 0.6815 0.0509
-2 10 -6 -0.4050 0.3273
-2 10 -5 0.1230 -0.5822
-2 10 -4 0.4127 0.4557
-2 10 -3 -0.4839 -0.0463
-2 10 -2 0.5295 -0.1840
-2 10 -1 -0.2496 0.7657
-2 10 0 -0.6809 -0.5417
-2 10 1 0.5508 -0.3948
-2 10 2 0.0641 0.3383
-2 10 3 -0.0576 -0.2144
-2 10 4 0.3767 0.1666
-2 10 5 -0.2656 0.3758
-2 10 6 -0.2348 -0.2245
-2 10 7 0.0982 -0.0616
-2 11 -16 -0.2253 0.0145
-2 11 -15 0.0923 -0.1391
-2 11 -14 -0.0225 0.0359
-2 11 -13 0.1677 -0.1530
-2 11 -12 0.1954 0.3283
-2 11 -11 -0.2713 0.1939
-2 11 -10 -0.2178 -0.0122
-2 11 -9 -0.2643 -0.2801
-2 11 -8 0.3398 -0.3580
-2 11 -7 0.1927 0.3396
-2 11 -6 -0.2337 -0.1268
-2 11 -5 0.3676 -0.0367
-2 11 -4 -0.1393 0.3426
-2 11 -3 -0.0809 -0.1605
-2 11 -2 0.0266 0.2012
-2 11 -1 -0.3241 -0.1039
-2 11 0 0.0941 -0.2968
-2 11 1 0.2243 -0.0116
-2 11 2 0.0645 0.1401
-2 11 3 -0.0098 0.0075
-2 11 4 0.0782 0.1429
-2 11 5 -0.2175 0.1040
-2 12 -15 0.0835 0.0375
-2 12 -14 -0.0240 -0.0188
-2 12 -13 0.1467 0.0789
-2 12 -12 -0.1783 0.2058
-2 12 -11 -0.1501 -0.1575
-2 12 -10 -0.0156 -0.0119
-2 12 -9 -0.1181 -0.2560
-2 12 -8 0.4110 -0.1529
-2 12 -7 0.0876 0.3677
-2 12 -6 -0.1583 0.0064
-2 12 -5 0.0196 0.0498
-2 12 -4 -0.1168 0.0178
-2 12 -3 -0.0428 -0.0732
-2 12 -2 0.0467 -0.0543
-2 12 -1 -0.0430 0.0694
-2 12 0 -0.0460 -0.2261
-2 12 1 0.3225 0.0758
-2 12 2 -0.1995 0.2070
-2 12 3 0.0342 -0.2048
-2 13 -12 -0.1875 -0.1158
-2 13 -11 0.1381 -0.0733
-2 13 -10 -0.1577 0.0502
-2 13 -9 0.1369 -0.3790
-2 13 -8 0.4542 0.3188
-2 13 -7 -0.3771 0.3606
-2 13 -6 -0.1970 -0.2963
-2 13 -5 0.1709 -0.0622
-2 13 -4 -0.0268 0.0777
-2 13 -3 0.0074 -0.0728
-2 13 -2 0.0283 0.1217
-2 13 -1 -0.2028 -0.1313
-2 13 0 0.3032 -0.1512
-2 14 -7 -0.3256 -0.2477
-1 -14 1 0.0879 0.1647
-1 -14 10 -0.1113 0.1619
-1 -14 11 -0.0426 -0.0801
-1 -14 12 0.0808 0.0285
-1 -13 -1 0.0510 -0.0615
-1 -13 0 0.1246 0.0429
-1 -13 1 -0.0845 0.1784
-1 -13 2 -0.1609 -0.1741
-1 -13 3 0.2363 -0.0900
-1 -13 8 0.4377 0.2302
-1 -13 9 -0.2217 0.2954
-1 -13 10 -0.1556 -0.1965
-1 -13 11 0.1822 -0.0717
-1 -13 12 0.0337 0.1661
-1 -13 13 -0.1118 -0.0009
-1 -13 14 0.0644 -0.0023
-1 -12 -3 -0.0338 0.0080
-1 -12 -2 -0.0458 0.0086
-1 -12 -1 0.0118 -0.1242
-1 -12 0 0.1596 0.1077
-1 -12 1 -0.2040 0.0584
-1 -12 2 0.1549 -0.2037
-1 -12 3 0.1116 0.3421
-1 -12 4 -0.3992 0.0361
-1 -12 6 0.2753 -0.1058
-1 -12 7 0.1130 0.2138
-1 -12 8 -0.1629 0.0541
-1 -12 9 0.0165 -0.1290
-1 -12 10 0.1221 0.0470
-1 -12 11 -0.0284 0.1216
-1 -12 12 -0.0856 0.0110
-1 -12 13 -0.0230 0.0103
-1 -12 14 -0.1531 0.0284
-1 -12 15 -0.1250 -0.2893
-1 -11 -5 0.0705 0.0680
-1 -11 -4 0.0192 0.0074
-1 -11 -3 0.0393 0.1019
-1 -11 -2 -0.1428 -0.0025
-1 -11 -1 0.1253 -0.0798
-1 -11 0 -0.0980 0.1917
-1 -11 1 -0.0670 -0.2835
-1 -11 2 0.3343 0.2136
-1 -11 3 -0.4752 0.2181
-1 -11 4 -0.0203 -0.5839
-1 -11 5 0.5393 0.1761
-1 -11 6 -0.3509 0.4033
-1 -11 7 -0.2249 -0.4932
-1 -11 8 0.5654 -0.0505
-1 -11 9 -0.0659 0.5453
-1 -11 10 -0.4542 -0.1060
-1 -11 11 0.1075 -0.3235
-1 -11 12 0.1781 0.1193
-1 -11 13 -0.1630 0.0627
-1 -11 14 -0.0289 -0.2361
-1 -11 15 0.3082 -0.0733
-1 -11 16 0.1295 0.3113
-1 -10 -7 0.0974 -0.2110
-1 -10 -6 0.0868 0.0365
-1 -10 -5 0.0157 -0.0820
-1 -10 -4 0.2669 0.0173
-1 -10 -3 -0.0041 0.3737
-1 -10 -2 -0.2969 0.0225
-1 -10 -1 -0.1348 -0.0761
-1 -10 0 -0.0883 -0.3556
-1 -10 1 0.5697 -0.0348
-1 -10 2 -0.1981 0.6253
-1 -10 3 -0.4785 -0.4519
-1 -10 4 0.6220 -0.1875
-1 -10 5 -0.1828 0.6845
-1 -10 6 -0.6118 -0.5748
-1 -10 7 0.8958 -0.3752
-1 -10 8 0.0316 1.0537
-1 -10 9 -1.0376 -0.2782
-1 -10 10 0.4413 -0.9035
-1 -10 11 0.6890 0.4433
-1 -10 12 -0.3373 0.4105
-1 -10 13 -0.1353 -0.2021
-1 -10 14 0.1217 0.0293
-1 -10 15 -0.0471 0.1276
-1 -10 16 -0.1454 0.0099
-1 -10 17 -0.0599 -0.0689
-1 -9 -8 0.0192 -0.2558
-1 -9 -7 0.1136 0.0197
-1 -9 -6 -0.0530 -0.0667
-1 -9 -5 0.2675 -0.1940
-1 -9 -4 0.3731 0.4508
-1 -9 -3 -0.5043 0.4737
-1 -9 -2 -0.5026 -0.3545
-1 -9 -1 0.0972 -0.5677
-1 -9 0 0.7070 -0.0779
-1 -9 1 0.0831 0.8353
-1 -9 2 -0.8653 -0.0326
-1 -9 3 0.2304 -0.7853
-1 -9 4 0.5876 0.5350
-1 -9 5 -0.8852 0.2214
-1 -9 6 0.3090 -1.0442
-1 -9 7 0.7885 0.8596
-1 -9 8 -1.2440 0.1692
-1 -9 9 0.4946 -1.3839
-1 -9 10 1.3013 0.8802
-1 -9 11 -0.8733 1.0173
-1 -9 12 -0.5656 -0.5712
-1 -9 13 0.1845 -0.0897
-1 -9 14 -0.2022 -0.0718
-1 -9 15 0.1090 -0.2237
-1 -9 16 0.0812 0.0384
-1 -9 17 -0.0463 -0.0680
-1 -9 18 0.1553 -0.1676
-1 -8 -10 -0.0620 0.0646
-1 -8 -9 -0.0364 -0.0672
-1 -8 -8 0.0294 -0.0485
-1 -8 -7 0.0313 0.0147
-1 -8 -6 -0.0176 -0.1184
-1 -8 -5 0.3733 0.0114
-1 -8 -4 -0.0671 0.5940
-1 -8 -3 -0.7010 -0.1037
-1 -8 -2 0.1283 -0.7433
-1 -8 -1 0.7833 0.1888
-1 -8 0 -0.2542 0.8044
-1 -8 1 -0.7868 -0.2167
-1 -8 2 0.0930 -0.7999
-1 -8 3 0.9083 0.1410
-1 -8 4 -0.6137 0.9984
-1 -8 5 -0.8164 -1.3636
-1 -8 6 1.8245 -0.2381
-1 -8 7 -0.5635 1.5077
-1 -8 8 -0.4934 -1.2698
-1 -8 9 1.6659 0.6303
-1 -8 10 -1.2760 1.6887
-1 -8 11 -1.3343 -1.2537
-1 -8 12 0.7660 -0.6822
-1 -8 13 -0.0107 0.1797
-1 -8 14 0.1934 -0.4128
-1 -8 15 0.3937 0.2565
-1 -8 16 -0.1668 0.1248
-1 -8 17 0.1295 -0.1562
-1 -8 18 0.2679 0.2399
-1 -7 -12 -0.0617 -0.1506
-1 -7 -11 0.2052 -0.1096
-1 -7 -10 0.1230 0.2836
-1 -7 -9 -0.3097 0.0140
-1 -7 -8 0.1649 -0.1994
-1 -7 -7 -0.0241 0.2724
-1 -7 -6 -0.2386 -0.2582
-1 -7 -5 0.4164 -0.0848
-1 -7 -4 -0.1798 0.4184
-1 -7 -3 -0.1421 -0.5633
-1 -7 -2 0.9697 0.4656
-1 -7 -1 -1.1926 1.1758
-1 -7 0 -1.0248 -1.5959
-1 -7 1 1.3823 -0.6426
-1 -7 2 0.3878 0.7906
-1 -7 3 -0.4947 0.5150
-1 -7 4 -0.8793 -0.9840
-1 -7 5 1.9925 -1.0311
-1 -7 6 0.6401 2.6344
-1 -7 7 -2.2086 -0.2059
-1 -7 8 1.1241 -0.8631
-1 -7 9 -0.5721 1.7587
-1 -7 10 -1.9173 -1.3392
-1 -7 11 1.2745 -1.5367
-1 -7 12 0.7300 0.7154
-1 -7 13 -0.1163 -0.1349
-1 -7 14 0.6143 0.2243
-1 -7 15 -0.2688 0.5538
-1 -7 16 -0.1968 -0.2057
-1 -7 17 0.2432 0.1066
-1 -7 18 -0.2031 0.3729
-1 -7 19 -0.4062 -0.1382
-1 -6 -13 -0.0704 -0.1368
-1 -6 -12 0.2409 -0.2169
-1 -6 -11 0.3647 0.4053
-1 -6 -10 -0.5498 0.3230
-1 -6 -9 -0.0596 -0.5591
-1 -6 -8 0.4321 0.2936
-1 -6 -7 -0.6182 0.2338
-1 -6 -6 0.0388 -0.8191
-1 -6 -5 0.6862 0.3523
-1 -6 -4 -0.4147 -0.0156
-1 -6 -3 1.1971 0.1918
-1 -6 -2 -1.5084 2.3044
-1 -6 -1 -2.6638 -2.9362
-1 -6 0 3.6286 -2.0026
-1 -6 1 0.6802 3.2031
-1 -6 2 -2.0996 -0.5328
-1 -6 3 0.9737 -1.2521
-1 -6 4 1.3103 0.5658
-1 -6 5 0.1410 2.0445
-1 -6 6 -2.5318 0.4596
-1 -6 7 -0.1227 -2.0443
-1 -6 8 0.7563 0.6246
-1 -6 9 -1.3401 -0.4859
-1 -6 10 1.0143 -1.6555
-1 -6 11 1.3711 0.8306
-1 -6 12 -0.3608 0.5695
-1 -6 13 0.3190 0.0136
-1 -6 14 -0.1514 0.7822
-1 -6 15 -0.6718 -0.1218
-1 -6 16 0.1102 -0.2877
-1 -6 17 -0.0004 0.2389
-1 -6 18 -0.4049 -0.0803
-1 -6 19 0.0350 -0.3930
-1 -6 20 0.1794 -0.0450
-1 -5 -14 -0.0038 -0.1467
-1 -5 -13 0.2113 -0.1013
-1 -5 -12 0.3252 0.2815
-1 -5 -11 -0.3810 0.4659
-1 -5 -10 -0.4066 -0.4628
-1 -5 -9 0.5632 -0.2303
-1 -5 -8 -0.0142 0.7562
-1 -5 -7 -0.8747 -0.3767
-1 -5 -6 0.6720 -0.5754
-1 -5 -5 -0.0939 0.3492
-1 -5 -4 0.9869 -0.4195
-1 -5 -3 -0.3643 2.9737
-1 -5 -2 -4.6006 -2.2229
-1 -5 -1 4.2571 -4.8937
-1 -5 0 3.4812 5.4295
-1 -5 1 -5.2580 0.7804
-1 -5 2 2.0970 -4.0063
-1 -5 3 2.4620 3.8325
-1 -5 4 -3.7526 1.4180
-1 -5 5 -1.0758 -2.3402
-1 -5 6 0.7721 -0.9421
-1 -5 7 0.4779 -0.0617
-1 -5 8 0.0369 -0.2314
-1 -5 9 0.6489 -0.4512
-1 -5 10 0.8830 0.5152
-1 -5 11 -0.1180 0.8511
-1 -5 12 -0.2902 0.1378
-1 -5 13 -0.1385 0.4109
-1 -5 14 -0.7373 -0.0080
-1 -5 15 -0.0930 -0.5676
-1 -5 16 0.2240 -0.0402
-1 -5 17 -0.1754 0.0182
-1 -5 18 0.0362 -0.3636
-1 -5 19 0.3000 0.0476
-1 -5 20 -0.0348 0.0315
-1 -4 -16 0.0539 0.1362
-1 -4 -15 -0.1019 -0.1657
-1 -4 -14 0.2744 -0.0818
-1 -4 -13 0.1712 0.2391
-1 -4 -12 -0.1413 0.2727
-1 -4 -11 -0.3054 -0.0239
-1 -4 -10 -0.0042 -0.4255
-1 -4 -9 0.7454 0.2926
-1 -4 -8 -0.8944 0.9810
-1 -4 -7 -0.7927 -1.2290
-1 -4 -6 0.7306 -0.4602
-1 -4 -5 0.7875 -0.2716
-1 -4 -4 0.6553 2.2146
-1 -4 -2 2.5338 -6.0852
-1 -4 -1 6.5997 4.9491
-1 -4 0 -6.7812 5.0852
-1 -4 1 -1.4243 -7.4115
-1 -4 2 6.4944 3.2359
-1 -4 3 -6.7647 4.3246
-1 -4 4 -1.8639 -7.5623
-1 -4 5 5.8098 0.0026
-1 -4 6 -1.0985 3.0512
-1 -4 7 -0.7774 -1.6363
-1 -4 8 1.6094 0.3787
-1 -4 9 -0.5019 0.9255
-1 -4 10 0.0705 -0.0726
-1 -4 11 -0.2720 0.7234
-1 -4 12 -0.7367 -0.1583
-1 -4 13 -0.2056 -0.3811
-1 -4 14 0.0499 -0.3510
-1 -4 15 0.1656 -0.0883
-1 -4 16 0.0207 -0.0565
-1 -4 17 0.1131 -0.1841
-1 -4 18 0.3205 0.1102
-1 -4 19 -0.1617 0.1926
-1 -3 -17 0.1108 0.1762
-1 -3 -16 -0.2982 -0.1012
-1 -3 -15 0.2650 -0.3137
-1 -3 -14 0.2893 0.2279
-1 -3 -13 -0.0429 0.2119
-1 -3 -12 -0.0323 0.2236
-1 -3 -11 -0.5322 0.0102
-1 -3 -10 0.5021 -0.6438
-1 -3 -9 0.2513 1.5049
-1 -3 -8 -2.2786 -0.4448
-1 -3 -7 0.7259 -2.2792
-1 -3 -6 1.8626 0.2999
-1 -3 -4 -2.6405 -0.4449
-1 -3 -3 1.9647 -4.1740
-1 -3 -2 6.1597 3.7796
-1 -3 -1 -5.5347 7.7738
-1 -3 0 -7.4149 -7.2372
-1 -3 1 8.4152 -3.8795
-1 -3 2 -1.9278 8.1274
-1 -3 3 -6.0835 -7.1662
-1 -3 4 9.3612 -3.1356
-1 -3 5 0.3905 8.2265
-1 -3 6 -5.2068 -1.6185
-1 -3 7 2.6576 -1.9542
-1 -3 8 -0.4160 2.4131
-1 -3 9 -0.9745 -1.3527
-1 -3 10 1.0144 0.7285
-1 -3 11 -1.6151 0.2468
-1 -3 12 0.1487 -1.4743
-1 -3 13 0.9125 0.1282
-1 -3 14 -0.1253 0.4808
-1 -3 15 -0.2702 -0.2805
-1 -3 16 0.3539 -0.2075
-1 -3 17 0.2505 0.2534
-1 -3 18 -0.1816 0.2672
-1 -2 -16 0.1474 -0.5304
-1 -2 -15 0.5188 0.0857
-1 -2 -14 0.1352 0.3917
-1 -2 -13 -0.0883 0.3807
-1 -2 -12 -0.6623 0.2935
-1 -2 -11 -0.2478 -1.0034
-1 -2 -10 1.1636 0.6643
-1 -2 -8 -0.5290 -3.1500
-1 -2 -7 3.4224 -0.3136
-1 -2 -6 -0.1515 3.2819
-1 -2 -5 -3.1569 -1.6891
-1 -2 -4 4.0846 -3.2272
-1 -2 -3 3.9807 5.8326
-1 -2 -2 -5.8885 6.0683
-1 -2 -1 -8.8876 -5.0373
-1 -2 0 4.8078 -10.0823
-1 -2 1 7.5721 5.5094
-1 -2 2 -6.1378 1.9644
-1 -2 3 3.8198 -5.8468
-1 -2 4 4.5983 7.1922
-1 -2 5 -7.5250 2.5788
-1 -2 6 -0.0605 -5.5517
-1 -2 7 2.3902 2.0229
-1 -2 8 -2.3996 -0.5983
-1 -2 9 2.1004 -0.8800
-1 -2 10 -1.1687 1.8136
-1 -2 11 -0.7290 -2.2359
-1 -2 12 2.1027 0.0123
-1 -2 13 -0.2255 1.5270
-1 -2 14 -1.0522 -0.3521
-1 -2 15 0.5280 -0.6809
-1 -2 16 0.3706 0.5221
-1 -2 17 -0.3184 0.2089
-1 -1 -16 0.5483 -0.0304
-1 -1 -15 0.3063 0.4238
-1 -1 -14 -0.2069 0.6059
-1 -1 -13 -0.7874 0.1554
-1 -1 -12 -0.4634 -0.9568
-1 -1 -11 1.1946 -0.1930
-1 -1 -10 -0.8747 1.3586
-1 -1 -9 -1.4156 -2.2443
-1 -1 -8 3.3448 -1.5166
-1 -1 -7 1.2592 4.2376
-1 -1 -6 -5.1310 -0.5515
-1 -1 -5 4.3926 -5.5963
-1 -1 -4 5.1997 8.4236
-1 -1 -3 -9.5855 4.7538
-1 -1 -2 -5.7439 -6.7429
-1 -1 0 9.8427 -1.4524
-1 -1 1 2.0280 8.8479
-1 -1 2 -5.4162 0.1691
-1 -1 3 2.7655 -1.3671
-1 -1 4 -1.8580 5.0683
-1 -1 5 -5.0920 -3.6545
-1 -1 6 3.5936 -2.5489
-1 -1 7 -0.6619 1.6671
-1 -1 8 0.9141 -1.9997
-1 -1 9 0.8401 2.3576
-1 -1 10 -2.0483 -1.1748
-1 -1 11 2.2853 -0.9734
-1 -1 12 0.2446 2.2632
-1 -1 13 -1.8187 -0.0649
-1 -1 14 0.3749 -1.3423
-1 -1 15 0.8036 0.6673
-1 -1 16 -0.6441 0.3058
-1 0 -17 0.3797 -0.0444
-1 0 -16 0.2451 0.2336
-1 0 -15 -0.0823 0.6053
-1 0 -14 -0.8953 0.0519
-1 0 -13 -0.2359 -1.0152
-1 0 -12 1.0801 -0.2703
-1 0 -11 -0.2032 1.1318
-1 0 -10 -1.1603 -1.1283
-1 0 -9 2.0851 -1.4145
-1 0 -8 1.9911 3.1139
-1 0 -7 -4.7908 1.8647
-1 0 -6 0.6954 -6.9788
-1 0 -5 8.2171 5.7814
-1 0 -4 -10.4318 7.2658
-1 0 -3 -4.8967 -10.7629
-1 0 -1 3.1838 -1.9832
-1 0 0 8.1457 4.1690
-1 0 1 -5.1046 10.0522
-1 0 2 -7.2501 -5.6056
-1 0 3 5.3371 -1.4072
-1 0 4 -4.1483 3.7697
-1 0 5 -1.2725 -6.1513
-1 0 6 4.0229 0.5174
-1 0 7 -0.3814 0.4722
-1 0 8 1.2663 0.9490
-1 0 9 -1.7694 0.5010
-1 0 10 1.0783 -1.4786
-1 0 11 0.8299 1.9206
-1 0 12 -1.9488 0.4486
-1 0 13 -0.1215 -1.6876
-1 0 14 1.2770 0.4004
-1 1 -18 0.1181 -0.0497
-1 1 -17 0.0840 -0.0115
-1 1 -16 0.1518 0.3374
-1 1 -15 -0.7378 0.1442
-1 1 -14 -0.0652 -1.0513
-1 1 -13 1.1897 -0.0186
-1 1 -12 -0.1948 1.1646
-1 1 -11 -0.9047 -0.7838
-1 1 -10 1.4819 -0.5547
-1 1 -9 0.7286 1.9722
-1 1 -8 -2.7523 1.6577
-1 1 -6 7.4062 0.1450
-1 1 -5 -5.0152 8.8099
-1 1 -4 -7.1548 -9.5362
-1 1 -3 9.8738 -2.9683
-1 1 -2 -1.4587 4.8498
-1 1 0 3.8741 10.2955
-1 1 1 -13.1957 1.0122
-1 1 2 3.3214 -10.6290
-1 1 3 4.1495 6.7238
-1 1 4 -7.1260 -2.3244
-1 1 5 5.1345 -4.8051
-1 1 6 2.0978 3.8604
-1 1 7 -1.2505 0.8329
-1 1 8 -0.7786 -0.0287
-1 1 9 0.4553 -0.8180
-1 1 10 0.6406 1.1815
-1 1 11 -1.4080 0.5917
-1 1 12 -0.6077 -1.3592
-1 1 13 1.2793 -0.2624
-1 1 14 -0.3772 1.0207
-1 1 15 -0.5706 -0.7317
-1 1 16 0.5412 -0.2361
-1 2 -18 -0.0180 -0.1866
-1 2 -17 0.3403 0.0450
-1 2 -16 -0.3992 0.3479
-1 2 -15 -0.1383 -0.9000
-1 2 -14 1.2794 0.0862
-1 2 -13 -0.2408 1.4150
-1 2 -12 -1.2017 -0.6147
-1 2 -11 1.3564 -0.4963
-1 2 -10 -0.3851 2.0100
-1 2 -9 -2.1711 -0.4938
-1 2 -8 -0.6205 -2.4136
-1 2 -7 3.7184 -1.6801
-1 2 -6 0.5451 5.8050
-1 2 -5 -6.7938 -3.2391
-1 2 -4 7.3299 -4.9813
-1 2 -3 0.5704 8.4768
-1 2 -2 -5.2637 -4.5175
-1 2 0 -7.3634 8.0695
-1 2 2 9.4649 1.2080
-1 2 3 -5.8668 4.7131
-1 2 4 0.2899 -7.2595
-1 2 5 5.7448 2.7635
-1 2 6 -2.6153 3.4176
-1 2 7 -1.7665 -1.7207
-1 2 8 1.4034 -0.8307
-1 2 9 0.2769 1.4089
-1 2 10 -1.1274 0.1814
-1 2 11 -0.5064 -0.7107
-1 2 12 0.5957 -0.6985
-1 2 13 0.3524 0.6978
-1 2 14 -0.6501 -0.1938
-1 2 15 0.3680 -0.4338
-1 2 16 0.2893 0.1391
-1 3 -18 0.3235 -0.1202
-1 3 -17 -0.0219 0.4743
-1 3 -16 -0.4104 -0.5182
-1 3 -15 1.1206 -0.1431
-1 3 -14 -0.0812 1.5024
-1 3 -13 -1.5156 -0.2754
-1 3 -12 0.8381 -1.0268
-1 3 -11 -0.0743 1.8548
-1 3 -10 -2.6505 -1.3401
-1 3 -9 1.6852 -2.5883
-1 3 -8 2.0908 0.5543
-1 3 -7 0.9479 2.2054
-1 3 -6 -3.1278 0.8416
-1 3 -5 1.5790 -3.7359
-1 3 -4 2.7554 4.7949
-1 3 -3 -6.3845 0.0136
-1 3 -2 3.4588 -4.9873
-1 3 -1 1.0977 6.0580
-1 3 0 -6.3364 -3.3845
-1 3 1 6.2116 -3.8751
-1 3 2 -0.1129 6.1339
-1 3 3 -3.8042 -3.4705
-1 3 4 4.8235 -1.1381
-1 3 5 -0.5008 4.4537
-1 3 6 -3.3887 -1.2325
-1 3 7 1.7178 -2.1900
-1 3 8 0.9927 1.9515
-1 3 9 -1.5229 0.1347
-1 3 10 0.0142 -0.6070
-1 3 11 -0.0594 -0.3192
-1 3 12 0.4934 -0.1098
-1 3 13 -0.1284 0.2781
-1 3 14 -0.0320 -0.2577
-1 3 15 0.2620 -0.0461
-1 3 16 0.1625 0.2501
-1 4 -19 0.1106 -0.0443
-1 4 -18 0.1381 0.2961
-1 4 -17 -0.4869 -0.0470
-1 4 -16 0.5884 -0.4724
-1 4 -15 0.2768 1.1776
-1 4 -14 -1.4656 0.0931
-1 4 -13 0.1875 -1.3161
-1 4 -12 0.6470 0.9676
-1 4 -11 -2.2046 -0.5647
-1 4 -10 1.8488 -3.0633
-1 4 -9 2.7652 2.2414
-1 4 -8 -1.2626 1.6046
-1 4 -7 -0.6749 0.2472
-1 4 -6 -0.7857 -0.6421
-1 4 -5 1.1565 0.2536
-1 4 -4 -1.9878 1.4122
-1 4 -3 -0.9161 -2.9749
-1 4 -2 2.4385 0.2622
-1 4 -1 -1.5796 0.6648
-1 4 0 1.3603 -2.2773
-1 4 1 1.8982 2.6118
-1 4 2 -2.6872 0.6913
-1 4 4 1.2066 1.7221
-1 4 5 -2.3750 0.4619
-1 4 6 0.4266 -2.4951
-1 4 7 1.9019 1.2979
-1 4 8 -1.5638 0.8264
-1 4 9 0.0561 -0.9899
-1 4 10 0.1117 0.3038
-1 4 11 -0.1319 -0.3784
-1 4 12 0.3560 0.0272
-1 4 13 -0.0825 0.1444
-1 4 14 0.0285 -0.1668
-1 4 15 0.2452 0.1452
-1 5 -19 -0.0647 0.0709
-1 5 -18 -0.2551 0.0393
-1 5 -17 0.0873 -0.4451
-1 5 -16 0.4619 0.5200
-1 5 -15 -0.9774 0.3188
-1 5 -14 -0.1400 -1.1463
-1 5 -13 0.9224 0.2047
-1 5 -12 -1.0202 0.2889
-1 5 -11 0.7136 -2.1619
-1 5 -10 2.8264 1.7156
-1 5 -9 -2.0512 2.3112
-1 5 -8 -0.8546 -1.4055
-1 5 -7 0.2841 0.5472
-1 5 -6 -1.0681 -0.4748
-1 5 -5 0.5857 -0.6084
-1 5 -4 -0.3866 0.4625
-1 5 -3 -0.5601 -1.3181
-1 5 -2 1.6823 -0.8519
-1 5 -1 0.9839 1.2770
-1 5 0 -0.3356 0.7275
-1 5 1 -0.2179 0.6199
-1 5 2 -1.1034 0.1587
-1 5 3 -0.1280 -0.8764
-1 5 4 0.0307 0.1469
-1 5 5 -0.1888 -0.9724
-1 5 6 1.4952 0.2298
-1 5 7 -0.7670 1.2201
-1 5 8 -0.4532 -0.9145
-1 5 9 0.5994 0.2141
-1 5 10 -0.4833 0.1769
-1 5 11 0.0665 -0.4474
-1 5 12 0.2604 0.1362
-1 5 13 -0.1145 -0.0078
-1 5 14 0.2269 -0.0150
-1 6 -19 -0.1761 -0.2098
-1 6 -18 0.1023 -0.2773
-1 6 -17 0.3320 0.1360
-1 6 -16 -0.3996 0.2451
-1 6 -15 -0.0683 -0.6794
-1 6 -14 0.7310 0.0829
-1 6 -13 -0.3027 0.5049
-1 6 -12 -0.0523 -0.8215
-1 6 -11 1.5427 0.5702
-1 6 -10 -1.1832 1.8950
-1 6 -9 -1.3671 -1.4727
-1 6 -8 1.2738 -0.0988
-1 6 -7 -1.2061 0.7417
-1 6 -6 -0.0955 -1.8627
-1 6 -5 1.6072 0.6684
-1 6 -4 -1.6015 0.6041
-1 6 -3 0.6799 -2.4239
-1 6 -2 2.5753 1.6374
-1 6 -1 -1.8106 1.7375
-1 6 0 -0.2289 -1.1907
-1 6 1 0.2346 1.1675
-1 6 2 -1.7750 -0.4511
-1 6 3 0.5059 -1.4908
-1 6 4 0.7834 0.0211
-1 6 5 0.5686 0.2434
-1 6 6 -0.1178 0.8411
-1 6 7 -0.6975 -0.2600
-1 6 8 0.4328 -0.3374
-1 6 9 -0.0140 0.5240
-1 6 10 -0.4949 -0.2529
-1 6 11 0.3187 -0.3227
-1 6 12 0.0834 0.1722
-1 6 13 0.0792 -0.0535
-1 7 -18 0.3080 0.1873
-1 7 -17 -0.1898 0.1537
-1 7 -16 0.1171 -0.3306
-1 7 -15 0.4303 0.3631
-1 7 -14 -0.4156 0.3248
-1 7 -13 -0.0695 -0.3275
-1 7 -12 0.3519 0.1867
-1 7 -11 -0.4025 0.5825
-1 7 -10 -0.7472 -0.6242
-1 7 -9 0.8587 -0.4817
-1 7 -8 -0.2629 1.0408
-1 7 -7 -1.0454 -1.1598
-1 7 -6 1.7687 -0.6763
-1 7 -5 -0.2199 1.7850
-1 7 -4 -1.1500 -1.4715
-1 7 -3 2.4735 -0.0951
-1 7 -2 -0.9221 2.5544
-1 7 -1 -1.5505 -1.4714
-1 7 0 1.4411 0.0050
-1 7 1 -1.2852 1.0766
-1 7 2 -0.7227 -1.7630
-1 7 3 1.4711 -0.5427
-1 7 4 0.4824 0.8056
-1 7 5 -0.1769 0.4461
-1 7 6 -0.4302 0.1748
-1 7 7 -0.1771 -0.4591
-1 7 8 0.4648 0.0925
-1 7 9 -0.4050 0.3391
-1 7 10 -0.1122 -0.5014
-1 7 11 0.3213 0.0359
-1 7 12 -0.0050 0.0631
-1 8 -18 -0.1611 0.2861
-1 8 -17 -0.0015 -0.1948
-1 8 -16 0.2836 0.3949
-1 8 -15 -0.6862 0.2347
-1 8 -14 0.0413 -0.6393
-1 8 -13 0.2756 0.3584
-1 8 -12 -0.4617 -0.0918
-1 8 -11 0.1784 -0.3342
-1 8 -10 0.2119 0.0291
-1 8 -9 0.0598 0.3277
-1 8 -7 0.6077 -1.0014
-1 8 -6 0.9108 1.1038
-1 8 -5 -1.3379 0.2048
-1 8 -4 0.8942 -1.1107
-1 8 -3 0.4487 1.7893
-1 8 -2 -1.9324 -0.3786
-1 8 -1 1.0355 -1.2676
-1 8 0 0.2500 1.3519
-1 8 1 -1.3702 -0.5603
-1 8 2 0.8889 -1.1912
-1 8 3 0.8634 0.7832
-1 8 4 -0.4176 0.4573
-1 8 5 -0.1526 0.0219
-1 8 6 -0.3304 -0.1207
-1 8 7 0.3129 -0.3443
-1 8 8 0.0962 0.4725
-1 8 9 -0.4121 -0.1702
-1 8 10 0.2351 -0.2082
-1 9 -18 -0.2280 -0.0354
-1 9 -17 0.0982 0.0314
-1 9 -16 -0.4126 0.1839
-1 9 -15 -0.0775 -0.7007
-1 9 -14 0.6444 0.2683
-1 9 -13 -0.5953 0.2316
-1 9 -12 0.2344 -0.5999
-1 9 -11 0.2781 0.4105
-1 9 -10 -0.2354 -0.0592
-1 9 -9 0.0906 0.0567
-1 9 -8 -0.1811 -0.2316
-1 9 -7 0.6456 -0.0165
-1 9 -6 -0.3518 0.7690
-1 9 -5 -0.3831 -0.6957
-1 9 -4 0.7699 0.3655
-1 9 -3 -1.0359 0.4782
-1 9 -2 0.0440 -1.2372
-1 9 -1 0.9371 0.5429
-1 9 0 -0.8485 0.4197
-1 9 1 0.0214 -0.9354
-1 9 2 0.8274 0.2813
-1 9 3 -0.3690 0.5504
-1 9 4 -0.2092 -0.2871
-1 9 5 0.0720 0.0021
-1 9 6 0.0307 -0.1349
-1 9 7 0.1842 0.1988
-1 9 8 -0.2868 0.0838
-1 9 9 0.0232 -0.2175
-1 10 -17 0.0410 -0.0590
-1 10 -16 -0.0369 -0.2029
-1 10 -15 0.4314 0.0253
-1 10 -14 -0.2934 0.4461
-1 10 -13 -0.1981 -0.5447
-1 10 -12 0.5122 0.1216
-1 10 -11 -0.2594 0.1787
-1 10 -10 0.2034 -0.1321
-1 10 -9 -0.1368 0.3482
-1 10 -8 -0.1613 -0.3505
-1 10 -7 0.3656 0.2066
-1 10 -6 -0.4665 0.1605
-1 10 -5 0.1369 -0.3993
-1 10 -4 0.0418 0.3141
-1 10 -3 -0.2480 -0.3347
-1 10 -2 0.4781 -0.0166
-1 10 -1 -0.2033 0.3766
-1 10 0 -0.1945 -0.3265
-1 10 1 0.3881 -0.0421
-1 10 2 -0.0981 0.4156
-1 10 3 -0.3762 -0.2381
-1 10 4 0.3043 -0.2681
-1 10 5 0.1680 0.2413
-1 10 6 -0.1105 0.1341
-1 10 7 -0.1299 -0.0178
-1 11 -16 -0.0330 0.0793
-1 11 -15 -0.0777 0.1035
-1 11 -14 -0.1911 -0.2140
-1 11 -13 0.3642 -0.1517
-1 11 -12 0.0237 0.3463
-1 11 -11 -0.1123 -0.0852
-1 11 -10 0.0934 0.2096
-1 11 -9 -0.4213 -0.0156
-1 11 -8 0.1905 -0.3896
-1 11 -7 0.1384 0.3243
-1 11 -6 -0.3276 -0.1511
-1 11 -5 0.2811 -0.2292
-1 11 -4 0.1544 0.2196
-1 11 -3 -0.1108 0.1671
-1 11 -2 -0.1911 -0.0770
-1 11 -1 0.0777 -0.1422
-1 11 0 0.0762 0.0176
-1 11 1 0.0738 0.1174
-1 11 2 -0.2718 0.0741
-1 11 3 0.0469 -0.4040
-1 11 4 0.4018 0.1746
-1 11 5 -0.1971 0.2860
-1 12 -15 0.0555 -0.0896
-1 12 -14 0.1471 -0.0561
-1 12 -13 0.1234 0.2346
-1 12 -12 -0.2507 0.0788
-1 12 -11 0.0707 -0.1269
-1 12 -10 -0.1106 0.2353
-1 12 -9 -0.2910 -0.3420
-1 12 -8 0.4237 -0.1813
-1 12 -7 -0.0239 0.3078
-1 12 -6 -0.0986 -0.2069
-1 12 -5 0.3271 0.0548
-1 12 -4 -0.1159 0.4111
-1 12 -3 -0.4376 -0.1545
-1 12 -2 0.1903 -0.3329
-1 12 -1 0.1159 0.1421
-1 12 0 0.0259 -0.0475
-1 12 1 0.0139 0.1961
-1 12 2 -0.2185 -0.1610
-1 12 3 0.2877 -0.0951
-1 13 -13 -0.1467 0.1189
-1 13 -12 -0.0634 -0.1863
-1 13 -11 0.1423 0.1326
-1 13 -10 -0.3744 -0.0075
-1 13 -9 0.1977 -0.5062
-1 13 -8 0.4425 0.3116
-1 13 -7 -0.2936 0.2361
-1 13 -6 0.0008 -0.2029
-1 13 -5 0.1253 0.2027
-1 13 -4 -0.3386 0.0672
-1 13 -3 0.0059 -0.3509
-1 13 -2 0.2035 0.0623
-1 13 -1 -0.0268 -0.0149
-1 13 0 0.1330 0.0890
-1 14 -8 -0.1750 0.3916
-1 14 -7 -0.2535 -0.1879
-1 14 -6 0.1695 -0.0943
-1 14 -5 -0.0388 0.1537
0 -14 1 0.2088 0.0178
0 -14 10 0.0365 0.0370
0 -14 11 0.0051 0.0089
0 -14 12 0.0320 0.0396
0 -13 -1 -0.0442 -0.0872
0 -13 0 0.2285 -0.0857
0 -13 1 -0.0027 0.2967
0 -13 2 -0.2182 -0.1389
0 -13 3 0.2069 -0.0702
0 -13 8 0.0471 -0.0501
0 -13 9 0.0837 0.0668
0 -13 10 -0.0758 0.0373
0 -13 11 0.0515 -0.0549
0 -13 12 0.0196 0.1181
0 -13 13 -0.1313 -0.0047
0 -13 14 0.0096 -0.1048
0 -12 -3 0.0691 -0.0302
0 -12 -2 -0.1062 0.0880
0 -12 -1 0.0401 -0.1898
0 -12 0 0.0831 0.2214
0 -12 1 -0.2908 -0.1946
0 -12 2 0.4634 -0.1892
0 -12 3 0.0137 0.5682
0 -12 4 -0.5094 -0.1239
0 -12 6 0.1962 0.2877
0 -12 7 -0.3235 0.0040
0 -12 8 0.1487 -0.2695
0 -12 9 0.1395 0.1908
0 -12 10 -0.1230 0.0075
0 -12 11 0.0735 -0.0227
0 -12 12 -0.0350 0.1025
0 -12 13 -0.0957 -0.0324
0 -12 14 0.0030 -0.0673
0 -12 15 0.0363 0.0039
0 -11 -5 -0.0511 0.0465
0 -11 -4 0.0976 -0.0701
0 -11 -3 0.0191 0.2048
0 -11 -2 -0.1788 -0.0689
0 -11 -1 0.0577 0.0104
0 -11 0 -0.2488 -0.1525
0 -11 1 0.4770 -0.3696
0 -11 2 0.3155 0.7167
0 -11 3 -0.7676 0.1482
0 -11 4 0.0782 -0.6859
0 -11 5 0.5506 0.3590
0 -11 6 -0.6434 0.3631
0 -11 7 -0.1177 -0.7984
0 -11 8 0.7268 0.1153
0 -11 9 -0.2412 0.4708
0 -11 10 -0.1608 -0.2385
0 -11 11 0.1629 0.0941
0 -11 12 -0.2368 0.0851
0 -11 13 -0.0523 -0.2474
0 -11 14 0.1590 -0.0649
0 -11 15 0.0603 0.0547
0 -11 16 0.0017 -0.0354
0 -10 -7 0.0772 -0.0584
0 -10 -6 -0.0065 0.0497
0 -10 -5 -0.0490 -0.0804
0 -10 -4 0.1449 -0.0329
0 -10 -3 -0.0032 0.1471
0 -10 -2 -0.1060 0.0259
0 -10 -1 -0.1763 -0.1306
0 -10 0 0.2695 -0.3715
0 -10 1 0.4850 0.4167
0 -10 2 -0.4503 0.4722
0 -10 3 -0.3483 -0.4089
0 -10 4 0.4259 -0.0924
0 -10 5 -0.3160 0.5125
0 -10 6 -0.5176 -0.7699
0 -10 7 1.0498 -0.3214
0 -10 8 -0.0100 1.0035
0 -10 9 -0.6613 -0.2910
0 -10 10 0.3794 -0.1771
0 -10 11 -0.2743 0.2601
0 -10 12 -0.0383 -0.5376
0 -10 13 0.5261 0.1226
0 -10 14 -0.1250 0.3013
0 -10 15 -0.0500 -0.0420
0 -10 16 0.0423 0.0783
0 -10 17 -0.0848 0.1751
0 -9 -9 -0.1232 0.1104
0 -9 -8 -0.1229 -0.0694
0 -9 -7 0.0860 -0.0544
0 -9 -6 -0.1562 0.1292
0 -9 -5 -0.1071 -0.3955
0 -9 -4 0.4807 -0.0216
0 -9 -3 -0.0578 0.3831
0 -9 -2 -0.2457 -0.1177
0 -9 -1 0.1836 -0.1857
0 -9 0 0.1858 0.1908
0 -9 1 -0.0178 0.2003
0 -9 2 -0.2465 0.2916
0 -9 3 -0.4591 -0.3159
0 -9 4 0.2808 -0.2512
0 -9 5 -0.2098 0.0120
0 -9 6 0.4265 -0.5232
0 -9 7 0.4077 0.7857
0 -9 8 -0.8413 -0.0394
0 -9 9 0.4649 -0.5437
0 -9 10 0.0021 0.5637
0 -9 11 -0.2783 -0.5758
0 -9 12 0.9324 0.1882
0 -9 13 -0.5163 0.8875
0 -9 14 -0.5030 -0.5155
0 -9 15 0.2922 -0.0623
0 -9 16 -0.1800 0.1294
0 -9 17 -0.1657 -0.1937
0 -9 18 0.1018 -0.2623
0 -8 -10 0.0051 0.1937
0 -8 -9 -0.2734 0.0646
0 -8 -8 0.0528 -0.2758
0 -8 -7 0.0671 0.3279
0 -8 -6 -0.5608 -0.3022
0 -8 -5 0.5887 -0.5768
0 -8 -4 0.3564 0.6080
0 -8 -3 -0.4068 -0.0255
0 -8 -2 0.4593 -0.1417
0 -8 -1 -0.1190 0.7392
0 -8 0 -0.5809 -0.3722
0 -8 1 0.5182 0.1132
0 -8 2 -0.9946 0.3782
0 -8 3 0.0697 -1.4390
0 -8 4 1.1082 0.5630
0 -8 5 -0.7623 0.3132
0 -8 6 0.2681 -0.5655
0 -8 7 0.1691 0.2289
0 -8 8 0.2499 -0.1351
0 -8 9 0.1509 0.6567
0 -8 10 -0.6140 -0.1657
0 -8 11 0.6811 -0.1185
0 -8 12 -0.5195 1.0895
0 -8 13 -1.0907 -0.9074
0 -8 14 0.8529 -0.6663
0 -8 15 0.1222 0.5148
0 -8 16 -0.2373 -0.2046
0 -8 17 0.2294 -0.1902
0 -8 18 0.2368 0.0872
0 -8 19 0.0685 0.1850
0 -7 -12 0.0329 0.1081
0 -7 -11 0.0151 0.0194
0 -7 -10 -0.0814 0.1655
0 -7 -9 -0.1312 -0.2119
0 -7 -8 0.2578 0.1661
0 -7 -7 -0.5632 0.1264
0 -7 -6 0.0992 -0.8028
0 -7 -5 0.7007 0.2961
0 -7 -4 -0.4439 0.1755
0 -7 -3 0.7221 -0.5471
0 -7 -2 0.4875 1.6865
0 -7 -1 -2.1505 0.0933
0 -7 0 0.5921 -1.6165
0 -7 1 0.1450 1.1730
0 -7 2 -1.1449 -1.5083
0 -7 3 2.3920 -0.3439
0 -7 4 -0.8561 2.1294
0 -7 5 -1.2089 -1.8217
0 -7 6 2.1306 -0.4733
0 -7 7 0.3372 1.7841
0 -7 8 -1.0845 0.5413
0 -7 9 -0.5805 -0.4335
0 -7 10 0.1749 -0.2192
0 -7 11 -0.3981 0.4036
0 -7 12 -0.8371 -0.9481
0 -7 13 1.1533 -1.0149
0 -7 14 0.7374 0.9464
0 -7 15 -0.5371 0.2441
0 -7 16 0.0917 -0.2445
0 -7 17 0.1843 0.1370
0 -7 18 -0.0111 0.1895
0 -7 19 -0.0909 0.1293
0 -6 -13 0.0869 0.2071
0 -6 -12 -0.2085 -0.0819
0 -6 -11 0.2452 -0.1007
0 -6 -10 0.0158 0.2550
0 -6 -9 -0.1418 0.0557
0 -6 -8 -0.1819 0.0058
0 -6 -7 -0.1421 -0.3233
0 -6 -6 0.4243 -0.1531
0 -6 -5 -0.1820 0.3059
0 -6 -4 0.3258 -0.9268
0 -6 -3 1.7253 1.5194
0 -6 -2 -2.7619 1.9523
0 -6 -1 -1.2035 -3.1983
0 -6 0 2.2818 0.3127
0 -6 1 -1.7988 0.2693
0 -6 2 1.8828 -2.3202
0 -6 3 1.4314 3.1706
0 -6 4 -3.2487 -0.4806
0 -6 5 2.4560 -2.5774
0 -6 6 1.8561 3.5997
0 -6 7 -3.5462 1.3456
0 -6 8 -0.8195 -2.5124
0 -6 9 1.1261 -0.0779
0 -6 10 -0.7222 0.1383
0 -6 11 0.0208 -1.2682
0 -6 12 1.4085 -0.4235
0 -6 13 0.8188 1.1847
0 -6 14 -0.7399 0.7482
0 -6 15 -0.3665 -0.3030
0 -6 16 0.0979 -0.0593
0 -6 17 -0.0256 0.1261
0 -6 18 -0.1518 0.0070
0 -6 19 -0.0509 -0.0180
0 -6 20 -0.1452 -0.0709
0 -5 -15 0.0484 -0.2063
0 -5 -14 0.2980 0.1482
0 -5 -13 -0.3325 0.1440
0 -5 -12 0.1627 -0.4986
0 -5 -11 0.6137 0.4414
0 -5 -10 -0.6425 0.6200
0 -5 -8 0.5878 0.0109
0 -5 -7 -0.2256 0.2063
0 -5 -6 -0.0226 -0.0192
0 -5 -5 -0.2562 -0.5538
0 -5 -4 1.7552 0.0387
0 -5 -3 -1.0472 2.8989
0 -5 -2 -3.1275 -2.1552
0 -5 -1 2.5419 -2.0381
0 -5 0 -0.1061 1.8276
0 -5 1 -0.2367 -2.4232
0 -5 2 3.7147 1.6184
0 -5 3 -3.0778 3.1395
0 -5 4 -0.8658 -3.7901
0 -5 5 3.8280 1.9849
0 -5 6 -4.0893 3.3787
0 -5 7 -2.4148 -4.6510
0 -5 8 3.6657 -0.8917
0 -5 9 -0.8092 1.8532
0 -5 10 -0.3057 -1.9775
0 -5 11 2.2065 0.2117
0 -5 12 0.1603 1.7111
0 -5 13 -0.9737 0.6294
0 -5 14 -0.6410 -0.3280
0 -5 15 -0.0536 -0.3269
0 -5 16 0.0756 -0.0874
0 -5 17 -0.1037 -0.0109
0 -5 18 0.0625 -0.2081
0 -5 19 0.0678 0.1178
0 -5 20 -0.1158 -0.1292
0 -4 -16 0.0091 -0.2607
0 -4 -15 0.4364 -0.0154
0 -4 -14 -0.1657 0.4285
0 -4 -13 -0.2444 -0.5042
0 -4 -12 0.9367 -0.0069
0 -4 -11 -0.3388 1.3242
0 -4 -10 -1.3208 -0.8984
0 -4 -9 1.4107 -0.6993
0 -4 -8 -0.1450 1.3781
0 -4 -7 -0.7679 -0.4400
0 -4 -6 -0.0352 -0.2165
0 -4 -5 0.3217 -0.6384
0 -4 -4 0.7011 1.0202
0 -4 -3 -1.8319 0.3164
0 -4 -2 -0.0115 -2.3418
0 -4 -1 2.1763 0.0028
0 -4 0 0.1464 0.9612
0 -4 1 1.1489 0.4717
0 -4 2 -1.1580 3.0706
0 -4 3 -3.4588 -2.1883
0 -4 4 3.2643 -1.8765
0 -4 5 -0.8781 4.0104
0 -4 6 -3.9994 -3.4617
0 -4 7 4.7687 -2.8111
0 -4 8 0.5359 4.3490
0 -4 9 -2.6409 -1.8539
0 -4 10 3.1217 -0.8200
0 -4 11 -0.0601 2.8695
0 -4 12 -1.7570 0.0454
0 -4 13 -0.3594 -0.6603
0 -4 14 -0.0264 -0.3182
0 -4 15 0.0729 -0.2794
0 -4 16 0.1556 -0.0340
0 -4 17 0.0200 -0.1531
0 -4 18 0.3123 0.0781
0 -4 19 -0.1871 0.1762
0 -3 -17 0.0069 -0.2576
0 -3 -16 0.4290 -0.1030
0 -3 -15 0.0234 0.5013
0 -3 -14 -0.4556 -0.2444
0 -3 -13 0.6635 -0.4462
0 -3 -12 0.4139 1.2364
0 -3 -11 -1.7280 -0.0316
0 -3 -10 1.0025 -1.6469
0 -3 -9 0.8734 1.8732
0 -3 -8 -1.8744 0.0293
0 -3 -7 0.2410 -0.9842
0 -3 -6 -0.1896 0.1093
0 -3 -5 -0.0935 -1.1789
0 -3 -4 1.7199 0.0611
0 -3 -2 0.6212 -3.4450
0 -3 -1 5.4784 3.2239
0 -3 0 -4.7161 6.0362
0 -3 1 -5.1052 -3.9170
0 -3 2 1.5615 -3.6690
0 -3 3 2.6450 -0.4952
0 -3 4 0.9581 2.4162
0 -3 5 -2.8323 -0.2531
0 -3 6 2.3804 -3.1222
0 -3 7 2.2355 4.2387
0 -3 8 -4.6792 -0.0539
0 -3 9 2.5459 -3.4345
0 -3 10 1.5054 3.6640
0 -3 11 -3.0365 0.2195
0 -3 12 0.0723 -1.6255
0 -3 13 0.4753 -0.0006
0 -3 14 -0.0742 -0.1178
0 -3 15 0.2917 -0.1666
0 -3 16 0.0571 0.1566
0 -3 17 0.1295 -0.0912
0 -3 18 0.0469 0.2805
0 -2 -16 0.0434 0.4131
0 -2 -15 -0.4055 -0.1680
0 -2 -14 0.3979 -0.4338
0 -2 -13 0.6456 0.6790
0 -2 -12 -1.1151 0.7261
0 -2 -11 -0.1563 -1.4810
0 -2 -10 1.3821 0.9451
0 -2 -9 -1.7302 0.8826
0 -2 -8 -0.4075 -1.5778
0 -2 -7 0.6341 0.1296
0 -2 -6 -1.2780 -0.8047
0 -2 -5 2.6684 -2.5744
0 -2 -4 1.9131 4.2771
0 -2 -3 -3.9121 -2.4911
0 -2 -2 9.6193 -0.4041
0 -2 -1 -4.9515 15.9767
0 -2 1 9.7675 -16.4938
0 -2 2 11.5592 7.4909
0 -2 3 -4.1133 5.9909
0 -2 4 -1.9823 -1.3928
0 -2 5 0.4126 -0.6295
0 -2 6 1.0664 1.4184
0 -2 7 -3.4061 1.1546
0 -2 8 0.3006 -4.5309
0 -2 9 3.7503 2.3467
0 -2 10 -3.2656 1.8430
0 -2 11 -0.3432 -2.6194
0 -2 12 1.3662 0.1666
0 -2 13 -0.1972 0.4271
0 -2 14 0.0710 -0.2167
0 -2 15 0.1454 0.3016
0 -2 16 -0.2844 -0.1003
0 -2 17 0.2717 -0.0817
0 -1 -16 -0.3296 -0.2625
0 -1 -15 0.4744 -0.2987
0 -1 -14 0.3857 0.4890
0 -1 -13 -0.4576 0.6399
0 -1 -12 -0.6554 -0.5566
0 -1 -11 0.6441 -0.1288
0 -1 -10 -0.5213 0.5927
0 -1 -9 -0.6230 -0.6501
0 -1 -8 0.3012 -0.6596
0 -1 -7 -0.2591 -0.1139
0 -1 -6 0.9017 -2.7086
0 -1 -5 4.7929 2.7464
0 -1 -4 -4.9686 2.6528
0 -1 -3 5.8463 -5.2670
0 -1 -2 2.0949 18.2752
0 -1 0 7.9892 -33.5150
0 -1 2 -9.3167 20.8848
0 -1 3 -9.6588 -6.7027
0 -1 4 3.3628 -1.0934
0 -1 5 -2.1805 0.9596
0 -1 6 -0.7909 -1.2999
0 -1 7 -0.2154 -2.3275
0 -1 8 3.5068 -0.0263
0 -1 9 -1.3082 2.9760
0 -1 10 -1.4045 -2.0650
0 -1 11 1.6956 -0.2408
0 -1 12 -0.0639 0.9036
0 -1 13 -0.2860 -0.0345
0 -1 14 0.0319 0.1567
0 -1 15 -0.4686 -0.0616
0 0 -17 -0.2802 -0.2626
0 0 -15 0.2203 0.6072
0 0 -14 -0.3759 0.2374
0 0 -13 -0.3520 -0.0624
0 0 -12 -0.2101 -0.2836
0 0 -11 0.1117 -0.5100
0 0 -10 0.6180 0.3938
0 0 -9 -1.2051 0.1202
0 0 -8 0.5105 -1.6538
0 0 -6 2.8518 0.6736
0 0 -5 -1.8195 4.5602
0 0 -4 -1.0041 -4.4267
0 0 -3 6.4123 9.5486
0 0 -2 -23.8812 6.0469
0 0 2 -23.8812 -6.0469
0 0 3 6.4123 -9.5486
0 0 4 -1.0041 4.4267
0 0 5 -1.8195 -4.5602
0 0 6 2.8518 -0.6736
0 0 7 1.1422 0.2533
0 0 8 0.5105 1.6538
0 0 9 -1.2051 -0.1202
0 0 10 0.6180 -0.3938
0 0 11 0.1117 0.5100
0 0 12 -0.2101 0.2836
0 0 13 -0.3520 0.0624
0 0 14 -0.3759 -0.2374
0 0 15 0.2203 -0.6072
0 1 -18 -0.1813 -0.0946
0 1 -17 0.3026 -0.3376
0 1 -16 0.2677 0.5101
0 1 -15 -0.4686 0.0616
0 1 -14 0.0319 -0.1567
0 1 -13 -0.2860 0.0345
0 1 -12 -0.0639 -0.9036
0 1 -11 1.6956 0.2408
0 1 -10 -1.4045 2.0650
0 1 -9 -1.3082 -2.9760
0 1 -8 3.5068 0.0263
0 1 -7 -0.2154 2.3275
0 1 -6 -0.7909 1.2999
0 1 -5 -2.1805 -0.9596
0 1 -4 3.3628 1.0934
0 1 -3 -9.6588 6.7027
0 1 -2 -9.3167 -20.8848
0 1 0 7.9892 33.5150
0 1 2 2.0949 -18.2752
0 1 3 5.8463 5.2670
0 1 4 -4.9686 -2.6528
0 1 5 4.7929 -2.7464
0 1 6 0.9017 2.7086
0 1 7 -0.2591 0.1139
0 1 8 0.3012 0.6596
0 1 9 -0.6230 0.6501
0 1 10 -0.5213 -0.5927
0 1 11 0.6441 0.1288
0 1 12 -0.6554 0.5566
0 1 13 -0.4576 -0.6399
0 1 14 0.3857 -0.4890
0 1 15 0.4744 0.2987
0 1 16 -0.3296 0.2625
0 2 -18 -0.0719 -0.1818
0 2 -17 0.2717 0.0817
0 2 -16 -0.2844 0.1003
0 2 -15 0.1454 -0.3016
0 2 -14 0.0710 0.2167
0 2 -13 -0.1972 -0.4271
0 2 -12 1.3662 -0.1666
0 2 -11 -0.3432 2.6194
0 2 -10 -3.2656 -1.8430
0 2 -9 3.7503 -2.3467
0 2 -8 0.3006 4.5309
0 2 -7 -3.4061 -1.1546
0 2 -6 1.0664 -1.4184
0 2 -5 0.4126 0.6295
0 2 -4 -1.9823 1.3928
0 2 -3 -4.1133 -5.9909
0 2 -2 11.5592 -7.4909
0 2 -1 9.7675 16.4938
0 2 2 9.6193 0.4041
0 2 3 -3.9121 2.4911
0 2 4 1.9131 -4.2771
0 2 5 2.6684 2.5744
0 2 6 -1.2780 0.8047
0 2 7 0.6341 -0.1296
0 2 8 -0.4075 1.5778
0 2 9 -1.7302 -0.8826
0 2 10 1.3821 -0.9451
0 2 11 -0.1563 1.4810
0 2 12 -1.1151 -0.7261
0 2 13 0.6456 -0.6790
0 2 14 0.3979 0.4338
0 2 15 -0.4055 0.1680
0 2 16 0.0434 -0.4131
0 3 -19 -0.1762 0.1015
0 3 -18 0.0469 -0.2805
0 3 -17 0.1295 0.0912
0 3 -16 0.0571 -0.1566
0 3 -15 0.2917 0.1666
0 3 -14 -0.0742 0.1178
0 3 -13 0.4753 0.0006
0 3 -12 0.0723 1.6255
0 3 -11 -3.0365 -0.2195
0 3 -10 1.5054 -3.6640
0 3 -9 2.5459 3.4345
0 3 -8 -4.6792 0.0539
0 3 -7 2.2355 -4.2387
0 3 -6 2.3804 3.1222
0 3 -5 -2.8323 0.2531
0 3 -4 0.9581 -2.4162
0 3 -3 2.6450 0.4952
0 3 -2 1.5615 3.6690
0 3 0 -4.7161 -6.0362
0 3 1 5.4784 -3.2239
0 3 2 0.6212 3.4450
0 3 3 -1.2208 -1.2699
0 3 4 1.7199 -0.0611
0 3 5 -0.0935 1.1789
0 3 6 -0.1896 -0.1093
0 3 7 0.2410 0.9842
0 3 8 -1.8744 -0.0293
0 3 9 0.8734 -1.8732
0 3 10 1.0025 1.6469
0 3 11 -1.7280 0.0316
0 3 12 0.4139 -1.2364
0 3 13 0.6635 0.4462
0 3 14 -0.4556 0.2444
0 3 15 0.0234 -0.5013
0 3 16 0.4290 0.1030
0 4 -19 -0.1871 -0.1762
0 4 -18 0.3123 -0.0781
0 4 -17 0.0200 0.1531
0 4 -16 0.1556 0.0340
0 4 -15 0.0729 0.2794
0 4 -14 -0.0264 0.3182
0 4 -13 -0.3594 0.6603
0 4 -12 -1.7570 -0.0454
0 4 -11 -0.0601 -2.8695
0 4 -10 3.1217 0.8200
0 4 -9 -2.6409 1.8539
0 4 -8 0.5359 -4.3490
0 4 -7 4.7687 2.8111
0 4 -6 -3.9994 3.4617
0 4 -5 -0.8781 -4.0104
0 4 -4 3.2643 1.8765
0 4 -3 -3.4588 2.1883
0 4 -2 -1.1580 -3.0706
0 4 -1 1.1489 -0.4717
0 4 0 0.1464 -0.9612
0 4 1 2.1763 -0.0028
0 4 2 -0.0115 2.3418
0 4 3 -1.8319 -0.3164
0 4 4 0.7011 -1.0202
0 4 5 0.3217 0.6384
0 4 6 -0.0352 0.2165
0 4 7 -0.7679 0.4400
0 4 8 -0.1450 -1.3781
0 4 9 1.4107 0.6993
0 4 10 -1.3208 0.8984
0 4 11 -0.3388 -1.3242
0 4 12 0.9367 0.0069
0 4 13 -0.2444 0.5042
0 4 14 -0.1657 -0.4285
0 4 15 0.4364 0.0154
0 5 -19 0.0678 -0.1178
0 5 -18 0.0625 0.2081
0 5 -17 -0.1037 0.0109
0 5 -16 0.0756 0.0874
0 5 -15 -0.0536 0.3269
0 5 -14 -0.6410 0.3280
0 5 -13 -0.9737 -0.6294
0 5 -12 0.1603 -1.7111
0 5 -11 2.2065 -0.2117
0 5 -10 -0.3057 1.9775
0 5 -9 -0.8092 -1.8532
0 5 -8 3.6657 0.8917
0 5 -7 -2.4148 4.6510
0 5 -6 -4.0893 -3.3787
0 5 -5 3.8280 -1.9849
0 5 -4 -0.8658 3.7901
0 5 -3 -3.0778 -3.1395
0 5 -2 3.7147 -1.6184
0 5 -1 -0.2367 2.4232
0 5 0 -0.1061 -1.8276
0 5 1 2.5419 2.0381
0 5 2 -3.1275 2.1552
0 5 3 -1.0472 -2.8989
0 5 4 1.7552 -0.0387
0 5 5 -0.2562 0.5538
0 5 6 -0.0226 0.0192
0 5 7 -0.2256 -0.2063
0 5 8 0.5878 -0.0109
0 5 9 -0.3917 0.7372
0 5 10 -0.6425 -0.6200
0 5 11 0.6137 -0.4414
0 5 12 0.1627 0.4986
0 5 13 -0.3325 -0.1440
0 5 14 0.2980 -0.1482
0 6 -19 -0.0509 0.0180
0 6 -18 -0.1518 -0.0070
0 6 -17 -0.0256 -0.1261
0 6 -16 0.0979 0.0593
0 6 -15 -0.3665 0.3030
0 6 -14 -0.7399 -0.7482
0 6 -13 0.8188 -1.1847
0 6 -12 1.4085 0.4235
0 6 -11 0.0208 1.2682
0 6 -10 -0.7222 -0.1383
0 6 -9 1.1261 0.0779
0 6 -8 -0.8195 2.5124
0 6 -7 -3.5462 -1.3456
0 6 -6 1.8561 -3.5997
0 6 -5 2.4560 2.5774
0 6 -4 -3.2487 0.4806
0 6 -3 1.4314 -3.1706
0 6 -2 1.8828 2.3202
0 6 -1 -1.7988 -0.2693
0 6 0 2.2818 -0.3127
0 6 1 -1.2035 3.1983
0 6 2 -2.7619 -1.9523
0 6 3 1.7253 -1.5194
0 6 4 0.3258 0.9268
0 6 5 -0.1820 -0.3059
0 6 6 0.4243 0.1531
0 6 7 -0.1421 0.3233
0 6 8 -0.1819 -0.0058
0 6 9 -0.1418 -0.0557
0 6 10 0.0158 -0.2550
0 6 11 0.2452 0.1007
0 6 12 -0.2085 0.0819
0 6 13 0.0869 -0.2071
0 7 -19 -0.0909 -0.1293
0 7 -18 -0.0111 -0.1895
0 7 -17 0.1843 -0.1370
0 7 -16 0.0917 0.2445
0 7 -15 -0.5371 -0.2441
0 7 -14 0.7374 -0.9464
0 7 -13 1.1533 1.0149
0 7 -12 -0.8371 0.9481
0 7 -11 -0.3981 -0.4036
0 7 -10 0.1749 0.2192
0 7 -9 -0.5805 0.4335
0 7 -8 -1.0845 -0.5413
0 7 -7 0.3372 -1.7841
0 7 -6 2.1306 0.4733
0 7 -5 -1.2089 1.8217
0 7 -4 -0.8561 -2.1294
0 7 -3 2.3920 0.3439
0 7 -2 -1.1449 1.5083
0 7 -1 0.1450 -1.1730
0 7 0 0.5921 1.6165
0 7 1 -2.1505 -0.0933
0 7 2 0.4875 -1.6865
0 7 3 0.7221 0.5471
0 7 4 -0.4439 -0.1755
0 7 5 0.7007 -0.2961
0 7 6 0.0992 0.8028
0 7 7 -0.5632 -0.1264
0 7 8 0.2578 -0.1661
0 7 9 -0.1312 0.2119
0 7 10 -0.0814 -0.1655
0 7 11 0.0151 -0.0194
0 7 12 0.0329 -0.1081
0 8 -18 0.2368 -0.0872
0 8 -17 0.2294 0.1902
0 8 -16 -0.2373 0.2046
0 8 -15 0.1222 -0.5148
0 8 -14 0.8529 0.6663
0 8 -13 -1.0907 0.9074
0 8 -12 -0.5195 -1.0895
0 8 -11 0.6811 0.1185
0 8 -10 -0.6140 0.1657
0 8 -9 0.1509 -0.6567
0 8 -8 0.2499 0.1351
0 8 -7 0.1691 -0.2289
0 8 -6 0.2681 0.5655
0 8 -5 -0.7623 -0.3132
0 8 -4 1.1082 -0.5630
0 8 -3 0.0697 1.4390
0 8 -2 -0.9946 -0.3782
0 8 -1 0.5182 -0.1132
0 8 0 -0.5809 0.3722
0 8 1 -0.1190 -0.7392
0 8 2 0.4593 0.1417
0 8 3 -0.4068 0.0255
0 8 4 0.3564 -0.6080
0 8 5 0.5887 0.5768
0 8 6 -0.5608 0.3022
0 8 7 0.0671 -0.3279
0 8 8 0.0528 0.2758
0 8 9 -0.2734 -0.0646
0 8 10 0.0051 -0.1937
0 9 -18 0.1018 0.2623
0 9 -17 -0.1657 0.1937
0 9 -16 -0.1800 -0.1294
0 9 -15 0.2922 0.0623
0 9 -14 -0.5030 0.5155
0 9 -13 -0.5163 -0.8875
0 9 -12 0.9324 -0.1882
0 9 -11 -0.2783 0.5758
0 9 -10 0.0021 -0.5637
0 9 -9 0.4649 0.5437
0 9 -8 -0.8413 0.0394
0 9 -7 0.4077 -0.7857
0 9 -6 0.4265 0.5232
0 9 -5 -0.2098 -0.0120
0 9 -4 0.2808 0.2512
0 9 -3 -0.4591 0.3159
0 9 -2 -0.2465 -0.2916
0 9 -1 -0.0178 -0.2003
0 9 0 0.1858 -0.1908
0 9 1 0.1836 0.1857
0 9 2 -0.2457 0.1177
0 9 3 -0.0578 -0.3831
0 9 4 0.4807 0.0216
0 9 5 -0.1071 0.3955
0 9 6 -0.1562 -0.1292
0 9 7 0.0860 0.0544
0 9 8 -0.1229 0.0694
0 9 9 -0.1232 -0.1104
0 10 -17 -0.0848 -0.1751
0 10 -16 0.0423 -0.0783
0 10 -15 -0.0500 0.0420
0 10 -14 -0.1250 -0.3013
0 10 -13 0.5261 -0.1226
0 10 -12 -0.0383 0.5376
0 10 -11 -0.2743 -0.2601
0 10 -10 0.3794 0.1771
0 10 -9 -0.6613 0.2910
0 10 -8 -0.0100 -1.0035
0 10 -7 1.0498 0.3214
0 10 -6 -0.5176 0.7699
0 10 -5 -0.3160 -0.5125
0 10 -4 0.4259 0.0924
0 10 -3 -0.3483 0.4089
0 10 -2 -0.4503 -0.4722
0 10 -1 0.4850 -0.4167
0 10 0 0.2695 0.3715
0 10 1 -0.1763 0.1306
0 10 2 -0.1060 -0.0259
0 10 3 -0.0032 -0.1471
0 10 4 0.1449 0.0329
0 10 5 -0.0490 0.0804
0 10 6 -0.0065 -0.0497
0 10 7 0.0772 0.0584
0 11 -16 0.0017 0.0354
0 11 -15 0.0603 -0.0547
0 11 -14 0.1590 0.0649
0 11 -13 -0.0523 0.2474
0 11 -12 -0.2368 -0.0851
0 11 -11 0.1629 -0.0941
0 11 -10 -0.1608 0.2385
0 11 -9 -0.2412 -0.4708
0 11 -8 0.7268 -0.1153
0 11 -7 -0.1177 0.7984
0 11 -6 -0.6434 -0.3631
0 11 -5 0.5506 -0.3590
0 11 -4 0.0782 0.6859
0 11 -3 -0.7676 -0.1482
0 11 -2 0.3155 -0.7167
0 11 -1 0.4770 0.3696
0 11 0 -0.2488 0.1525
0 11 1 0.0577 -0.0104
0 11 2 -0.1788 0.0689
0 11 3 0.0191 -0.2048
0 11 4 0.0976 0.0701
0 11 5 -0.0511 -0.0465
0 12 -15 0.0363 -0.0039
0 12 -14 0.0030 0.0673
0 12 -13 -0.0957 0.0324
0 12 -12 -0.0350 -0.1025
0 12 -11 0.0735 0.0227
0 12 -10 -0.1230 -0.0075
0 12 -9 0.1395 -0.1908
0 12 -8 0.1487 0.2695
0 12 -7 -0.3235 -0.0040
0 12 -6 0.1962 -0.2877
0 12 -5 0.2132 0.3703
0 12 -4 -0.5094 0.1239
0 12 -3 0.0137 -0.5682
0 12 -2 0.4634 0.1892
0 12 -1 -0.2908 0.1946
0 12 0 0.0831 -0.2214
0 12 1 0.0401 0.1898
0 12 2 -0.1062 -0.0880
0 12 3 0.0691 0.0302
0 13 -13 -0.1313 0.0047
0 13 -12 0.0196 -0.1181
0 13 -11 0.0515 0.0549
0 13 -10 -0.0758 -0.0373
0 13 -9 0.0837 -0.0668
0 13 -8 0.0471 0.0501
0 13 -7 0.0299 0.0382
0 13 -6 -0.0242 0.0974
0 13 -5 -0.1432 0.0101
0 13 -4 -0.0168 -0.1886
0 13 -3 0.2069 0.0702
0 13 -2 -0.2182 0.1389
0 13 -1 -0.0027 -0.2967
0 13 0 0.2285 0.0857
0 14 -9 0.0750 0.0194
0 14 -8 0.0302 0.1146
0 14 -7 -0.1492 0.0563
0 14 -6 -0.0285 -0.1499
0 14 -5 0.1149 0.0137
1 -14 1 0.0924 -0.0184
1 -14 10 -0.0080 0.3207
1 -14 11 -0.1279 -0.0732
1 -14 12 0.0705 0.0304
1 -13 -1 -0.1662 -0.0793
1 -13 0 0.1330 -0.0890
1 -13 1 -0.0268 0.0149
1 -13 2 0.2035 -0.0623
1 -13 3 0.0059 0.3509
1 -13 8 0.4425 -0.3116
1 -13 9 0.1977 0.5062
1 -13 10 -0.3744 0.0075
1 -13 11 0.1423 -0.1326
1 -13 12 -0.0634 0.1863
1 -13 13 -0.1467 -0.1189
1 -13 14 0.0563 -0.0876
1 -12 -4 -0.0344 -0.2565
1 -12 -3 0.2877 0.0951
1 -12 -2 -0.2185 0.1610
1 -12 -1 0.0139 -0.1961
1 -12 0 0.0259 0.0475
1 -12 1 0.1159 -0.1421
1 -12 2 0.1903 0.3329
1 -12 3 -0.4376 0.1545
1 -12 4 -0.1159 -0.4111
1 -12 6 -0.0986 0.2069
1 -12 7 -0.0239 -0.3078
1 -12 8 0.4237 0.1813
1 -12 9 -0.2910 0.3420
1 -12 10 -0.1106 -0.2353
1 -12 11 0.0707 0.1269
1 -12 12 -0.2507 -0.0788
1 -12 13 0.1234 -0.2346
1 -12 14 0.1471 0.0561
1 -12 15 0.0555 0.0896
1 -11 -5 -0.1971 -0.2860
1 -11 -4 0.4018 -0.1746
1 -11 -3 0.0469 0.4040
1 -11 -2 -0.2718 -0.0741
1 -11 -1 0.0738 -0.1174
1 -11 0 0.0762 -0.0176
1 -11 1 0.0777 0.1422
1 -11 2 -0.1911 0.0770
1 -11 3 -0.1108 -0.1671
1 -11 4 0.1544 -0.2196
1 -11 5 0.2811 0.2292
1 -11 6 -0.3276 0.1511
1 -11 7 0.1384 -0.3243
1 -11 8 0.1905 0.3896
1 -11 9 -0.4213 0.0156
1 -11 10 0.0934 -0.2096
1 -11 11 -0.1123 0.0852
1 -11 12 0.0237 -0.3463
1 -11 13 0.3642 0.1517
1 -11 14 -0.1911 0.2140
1 -11 15 -0.0777 -0.1035
1 -11 16 -0.0330 -0.0793
1 -10 -7 -0.1299 0.0178
1 -10 -6 -0.1105 -0.1341
1 -10 -5 0.1680 -0.2413
1 -10 -4 0.3043 0.2681
1 -10 -3 -0.3762 0.2381
1 -10 -2 -0.0981 -0.4156
1 -10 -1 0.3881 0.0421
1 -10 0 -0.1945 0.3265
1 -10 1 -0.2033 -0.3766
1 -10 2 0.4781 0.0166
1 -10 3 -0.2480 0.3347
1 -10 4 0.0418 -0.3141
1 -10 5 0.1369 0.3993
1 -10 6 -0.4665 -0.1605
1 -10 7 0.3656 -0.2066
1 -10 8 -0.1613 0.3505
1 -10 9 -0.1368 -0.3482
1 -10 10 0.2034 0.1321
1 -10 11 -0.2594 -0.1787
1 -10 12 0.5122 -0.1216
1 -10 13 -0.1981 0.5447
1 -10 14 -0.2934 -0.4461
1 -10 15 0.4314 -0.0253
1 -10 16 -0.0369 0.2029
1 -10 17 0.0410 0.0590
1 -9 -9 0.0232 0.2175
1 -9 -8 -0.2868 -0.0838
1 -9 -7 0.1842 -0.1988
1 -9 -5 0.0720 -0.0021
1 -9 -4 -0.2092 0.2871
1 -9 -3 -0.3690 -0.5504
1 -9 -2 0.8274 -0.2813
1 -9 -1 0.0214 0.9354
1 -9 0 -0.8485 -0.4197
1 -9 1 0.9371 -0.5429
1 -9 2 0.0440 1.2372
1 -9 3 -1.0359 -0.4782
1 -9 4 0.7699 -0.3655
1 -9 5 -0.3831 0.6957
1 -9 6 -0.3518 -0.7690
1 -9 7 0.6456 0.0165
1 -9 8 -0.1811 0.2316
1 -9 9 0.0906 -0.0567
1 -9 10 -0.2354 0.0592
1 -9 11 0.2781 -0.4105
1 -9 12 0.2344 0.5999
1 -9 13 -0.5953 -0.2316
1 -9 14 0.6444 -0.2683
1 -9 15 -0.0775 0.7007
1 -9 16 -0.4126 -0.1839
1 -9 17 0.0982 -0.0314
1 -9 18 -0.2280 0.0354
1 -8 -10 0.2351 0.2082
1 -8 -9 -0.4121 0.1702
1 -8 -8 0.0962 -0.4725
1 -8 -7 0.3129 0.3443
1 -8 -6 -0.3304 0.1207
1 -8 -5 -0.1526 -0.0219
1 -8 -4 -0.4176 -0.4573
1 -8 -3 0.8634 -0.7832
1 -8 -2 0.8889 1.1912
1 -8 -1 -1.3702 0.5603
1 -8 0 0.2500 -1.3519
1 -8 1 1.0355 1.2676
1 -8 2 -1.9324 0.3786
1 -8 3 0.4487 -1.7893
1 -8 4 0.8942 1.1107
1 -8 5 -1.3379 -0.2048
1 -8 6 0.9108 -1.1038
1 -8 7 0.6077 1.0014
1 -8 8 -0.6806 0.1419
1 -8 9 0.0598 -0.3277
1 -8 10 0.2119 -0.0291
1 -8 11 0.1784 0.3342
1 -8 12 -0.4617 0.0918
1 -8 13 0.2756 -0.3584
1 -8 14 0.0413 0.6393
1 -8 15 -0.6862 -0.2347
1 -8 16 0.2836 -0.3949
1 -8 17 -0.0015 0.1948
1 -8 18 -0.1611 -0.2861
1 -7 -12 -0.0050 -0.0631
1 -7 -11 0.3213 -0.0359
1 -7 -10 -0.1122 0.5014
1 -7 -9 -0.4050 -0.3391
1 -7 -8 0.4648 -0.0925
1 -7 -7 -0.1771 0.4591
1 -7 -6 -0.4302 -0.1748
1 -7 -5 -0.1769 -0.4461
1 -7 -4 0.4824 -0.8056
1 -7 -2 -0.7227 1.7630
1 -7 -1 -1.2852 -1.0766
1 -7 0 1.4411 -0.0050
1 -7 1 -1.5505 1.4714
1 -7 2 -0.9221 -2.5544
1 -7 3 2.4735 0.0951
1 -7 4 -1.1500 1.4715
1 -7 5 -0.2199 -1.7850
1 -7 6 1.7687 0.6763
1 -7 7 -1.0454 1.1598
1 -7 8 -0.2629 -1.0408
1 -7 9 0.8587 0.4817
1 -7 10 -0.7472 0.6242
1 -7 11 -0.4025 -0.5825
1 -7 12 0.3519 -0.1867
1 -7 13 -0.0695 0.3275
1 -7 14 -0.4156 -0.3248
1 -7 15 0.4303 -0.3631
1 -7 16 0.1171 0.3306
1 -7 17 -0.1898 -0.1537
1 -7 18 0.3080 -0.1873
1 -7 19 0.2632 0.3355
1 -6 -13 0.0792 0.0535
1 -6 -12 0.0834 -0.1722
1 -6 -11 0.3187 0.3227
1 -6 -10 -0.4949 0.2529
1 -6 -9 -0.0140 -0.5240
1 -6 -8 0.4328 0.3374
1 -6 -7 -0.6975 0.2600
1 -6 -6 -0.1178 -0.8411
1 -6 -5 0.5686 -0.2434
1 -6 -4 0.7834 -0.0211
1 -6 -3 0.5059 1.4908
1 -6 -2 -1.7750 0.4511
1 -6 -1 0.2346 -1.1675
1 -6 0 -0.2289 1.1907
1 -6 1 -1.8106 -1.7375
1 -6 2 2.5753 -1.6374
1 -6 3 0.6799 2.4239
1 -6 4 -1.6015 -0.6041
1 -6 5 1.6072 -0.6684
1 -6 6 -0.0955 1.8627
1 -6 7 -1.2061 -0.7417
1 -6 8 1.2738 0.0988
1 -6 9 -1.3671 1.4727
1 -6 10 -1.1832 -1.8950
1 -6 11 1.5427 -0.5702
1 -6 12 -0.0523 0.8215
1 -6 13 -0.3027 -0.5049
1 -6 14 0.7310 -0.0829
1 -6 15 -0.0683 0.6794
1 -6 16 -0.3996 -0.2451
1 -6 17 0.3320 -0.1360
1 -6 18 0.1023 0.2773
1 -6 19 -0.1761 0.2098
1 -5 -15 -0.1025 -0.2254
1 -5 -14 0.2269 0.0150
1 -5 -13 -0.1145 0.0078
1 -5 -12 0.2604 -0.1362
1 -5 -11 0.0665 0.4474
1 -5 -10 -0.4833 -0.1769
1 -5 -9 0.5994 -0.2141
1 -5 -8 -0.4532 0.9145
1 -5 -7 -0.7670 -1.2201
1 -5 -6 1.4952 -0.2298
1 -5 -5 -0.1888 0.9724
1 -5 -4 0.0307 -0.1469
1 -5 -3 -0.1280 0.8764
1 -5 -2 -1.1034 -0.1587
1 -5 -1 -0.2179 -0.6199
1 -5 0 -0.3356 -0.7275
1 -5 1 0.9839 -1.2770
1 -5 2 1.6823 0.8519
1 -5 3 -0.5601 1.3181
1 -5 4 -0.3866 -0.4625
1 -5 5 0.5857 0.6084
1 -5 6 -1.0681 0.4748
1 -5 7 0.2841 -0.5472
1 -5 8 -0.8546 1.4055
1 -5 9 -2.0512 -2.3112
1 -5 10 2.8264 -1.7156
1 -5 11 0.7136 2.1619
1 -5 12 -1.0202 -0.2889
1 -5 13 0.9224 -0.2047
1 -5 14 -0.1400 1.1463
1 -5 15 -0.9774 -0.3188
1 -5 16 0.4619 -0.5200
1 -5 17 0.0873 0.4451
1 -5 18 -0.2551 -0.0393
1 -5 19 -0.0647 -0.0709
1 -5 20 -0.0010 -0.1092
1 -4 -16 -0.1779 -0.1719
1 -4 -15 0.2452 -0.1452
1 -4 -14 0.0285 0.1668
1 -4 -13 -0.0825 -0.1444
1 -4 -12 0.3560 -0.0272
1 -4 -11 -0.1319 0.3784
1 -4 -10 0.1117 -0.3038
1 -4 -9 0.0561 0.9899
1 -4 -8 -1.5638 -0.8264
1 -4 -7 1.9019 -1.2979
1 -4 -6 0.4266 2.4951
1 -4 -5 -2.3750 -0.4619
1 -4 -4 1.2066 -1.7221
1 -4 -3 0.6666 2.0026
1 -4 -2 -2.6872 -0.6913
1 -4 -1 1.8982 -2.6118
1 -4 0 1.3603 2.2773
1 -4 1 -1.5796 -0.6648
1 -4 2 2.4385 -0.2622
1 -4 3 -0.9161 2.9749
1 -4 4 -1.9878 -1.4122
1 -4 5 1.1565 -0.2536
1 -4 6 -0.7857 0.6421
1 -4 7 -0.6749 -0.2472
1 -4 8 -1.2626 -1.6046
1 -4 9 2.7652 -2.2414
1 -4 10 1.8488 3.0633
1 -4 11 -2.2046 0.5647
1 -4 12 0.6470 -0.9676
1 -4 13 0.1875 1.3161
1 -4 14 -1.4656 -0.0931
1 -4 15 0.2768 -1.1776
1 -4 16 0.5884 0.4724
1 -4 17 -0.4869 0.0470
1 -4 18 0.1381 -0.2961
1 -4 19 0.1106 0.0443
1 -3 -17 -0.1829 -0.1413
1 -3 -16 0.1625 -0.2501
1 -3 -15 0.2620 0.0461
1 -3 -14 -0.0320 0.2577
1 -3 -13 -0.1284 -0.2781
1 -3 -12 0.4934 0.1098
1 -3 -11 -0.0594 0.3192
1 -3 -10 0.0142 0.6070
1 -3 -9 -1.5229 -0.1347
1 -3 -8 0.9927 -1.9515
1 -3 -7 1.7178 2.1900
1 -3 -6 -3.3887 1.2325
1 -3 -5 -0.5008 -4.4537
1 -3 -4 4.8235 1.1381
1 -3 -3 -3.8042 3.4705
1 -3 -2 -0.1129 -6.1339
1 -3 -1 6.2116 3.8751
1 -3 0 -6.3364 3.3845
1 -3 1 1.0977 -6.0580
1 -3 2 3.4588 4.9873
1 -3 3 -6.3845 -0.0136
1 -3 4 2.7554 -4.7949
1 -3 5 1.5790 3.7359
1 -3 6 -3.1278 -0.8416
1 -3 7 0.9479 -2.2054
1 -3 8 2.0908 -0.5543
1 -3 9 1.6852 2.5883
1 -3 10 -2.6505 1.3401
1 -3 11 -0.0743 -1.8548
1 -3 12 0.8381 1.0268
1 -3 13 -1.5156 0.2754
1 -3 14 -0.0812 -1.5024
1 -3 15 1.1206 0.1431
1 -3 16 -0.4104 0.5182
1 -3 17 -0.0219 -0.4743
1 -3 18 0.3235 0.1202
1 -2 -16 0.2893 -0.1391
1 -2 -15 0.3680 0.4338
1 -2 -14 -0.6501 0.1938
1 -2 -13 0.3524 -0.6978
1 -2 -12 0.5957 0.6985
1 -2 -11 -0.5064 0.7107
1 -2 -10 -1.1274 -0.1814
1 -2 -9 0.2769 -1.4089
1 -2 -8 1.4034 0.8307
1 -2 -7 -1.7665 1.7207
1 -2 -6 -2.6153 -3.4176
1 -2 -5 5.7448 -2.7635
1 -2 -4 0.2899 7.2595
1 -2 -3 -5.8668 -4.7131
1 -2 -2 9.4649 -1.2080
1 -2 0 -7.3634 -8.0695
1 -2 1 7.9667 -1.0095
1 -2 2 -5.2637 4.5175
1 -2 3 0.5704 -8.4768
1 -2 4 7.3299 4.9813
1 -2 5 -6.7938 3.2391
1 -2 6 0.5451 -5.8050
1 -2 7 3.7184 1.6801
1 -2 8 -0.6205 2.4136
1 -2 9 -2.1711 0.4938
1 -2 10 -0.3851 -2.0100
1 -2 11 1.3564 0.4963
1 -2 12 -1.2017 0.6147
1 -2 13 -0.2408 -1.4150
1 -2 14 1.2794 -0.0862
1 -2 15 -0.1383 0.9000
1 -2 16 -0.3992 -0.3479
1 -2 17 0.3403 -0.0450
1 -1 -16 0.5412 0.2361
1 -1 -15 -0.5706 0.7317
1 -1 -14 -0.3772 -1.0207
1 -1 -13 1.2793 0.2624
1 -1 -12 -0.6077 1.3592
1 -1 -11 -1.4080 -0.5917
1 -1 -10 0.6406 -1.1815
1 -1 -9 0.4553 0.8180
1 -1 -8 -0.7786 0.0287
1 -1 -7 -1.2505 -0.8329
1 -1 -6 2.0978 -3.8604
1 -1 -5 5.1345 4.8051
1 -1 -4 -7.1260 2.3244
1 -1 -3 4.1495 -6.7238
1 -1 -2 3.3214 10.6290
1 -1 -1 -13.1957 -1.0122
1 -1 0 3.8741 -10.2955
1 -1 2 -1.4587 -4.8498
1 -1 3 9.8738 2.9683
1 -1 4 -7.1548 9.5362
1 -1 5 -5.0152 -8.8099
1 -1 6 7.4062 -0.1450
1 -1 7 -2.0438 4.6974
1 -1 8 -2.7523 -1.6577
1 -1 9 0.7286 -1.9722
1 -1 10 1.4819 0.5547
1 -1 11 -0.9047 0.7838
1 -1 12 -0.1948 -1.1646
1 -1 13 1.1897 0.0186
1 -1 14 -0.0652 1.0513
1 -1 15 -0.7378 -0.1442
1 0 -17 0.3454 0.0430
1 0 -15 -0.7964 -0.6974
1 0 -14 1.2770 -0.4004
1 0 -13 -0.1215 1.6876
1 0 -12 -1.9488 -0.4486
1 0 -11 0.8299 -1.9206
1 0 -10 1.0783 1.4786
1 0 -8 1.2663 -0.9490
1 0 -7 -0.3814 -0.4722
1 0 -6 4.0229 -0.5174
1 0 -5 -1.2725 6.1513
1 0 -4 -4.1483 -3.7697
1 0 -3 5.3371 1.4072
1 0 -2 -7.2501 5.6056
1 0 -1 -5.1046 -10.0522
1 0 0 8.1457 -4.1690
1 0 1 3.1838 1.9832
1 0 3 -4.8967 10.7629
1 0 4 -10.4318 -7.2658
1 0 5 8.2171 -5.7814
1 0 6 0.6954 6.9788
1 0 7 -4.7908 -1.8647
1 0 8 1.9911 -3.1139
1 0 9 2.0851 1.4145
1 0 10 -1.1603 1.1283
1 0 11 -0.2032 -1.1318
1 0 12 1.0801 0.2703
1 0 13 -0.2359 1.0152
1 0 14 -0.8953 -0.0519
1 1 -18 0.1612 0.0501
1 1 -17 -0.0690 0.3626
1 1 -16 -0.6441 -0.3058
1 1 -15 0.8036 -0.6673
1 1 -14 0.3749 1.3423
1 1 -13 -1.8187 0.0649
1 1 -12 0.2446 -2.2632
1 1 -11 2.2853 0.9734
1 1 -10 -2.0483 1.1748
1 1 -9 0.8401 -2.3576
1 1 -8 0.9141 1.9997
1 1 -7 -0.6619 -1.6671
1 1 -6 3.5936 2.5489
1 1 -5 -5.0920 3.6545
1 1 -4 -1.8580 -5.0683
1 1 -3 2.7655 1.3671
1 1 -2 -5.4162 -0.1691
1 1 -1 2.0280 -8.8479
1 1 0 9.8427 1.4524
1 1 1 1.9970 8.1465
1 1 2 -5.7439 6.7429
1 1 3 -9.5855 -4.7538
1 1 4 5.1997 -8.4236
1 1 5 4.3926 5.5963
1 1 6 -5.1310 0.5515
1 1 7 1.2592 -4.2376
1 1 8 3.3448 1.5166
1 1 9 -1.4156 2.2443
1 1 10 -0.8747 -1.3586
1 1 11 1.1946 0.1930
1 1 12 -0.4634 0.9568
1 1 13 -0.7874 -0.1554
1 1 14 -0.2069 -0.6059
1 1 15 0.3063 -0.4238
1 1 16 0.5483 0.0304
1 2 -18 -0.1510 0.1868
1 2 -17 -0.3184 -0.2089
1 2 -16 0.3706 -0.5221
1 2 -15 0.5280 0.6809
1 2 -14 -1.0522 0.3521
1 2 -13 -0.2255 -1.5270
1 2 -12 2.1027 -0.0123
1 2 -11 -0.7290 2.2359
1 2 -10 -1.1687 -1.8136
1 2 -9 2.1004 0.8800
1 2 -8 -2.3996 0.5983
1 2 -7 2.3902 -2.0229
1 2 -6 -0.0605 5.5517
1 2 -5 -7.5250 -2.5788
1 2 -4 4.5983 -7.1922
1 2 -3 3.8198 5.8468
1 2 -2 -6.1378 -1.9644
1 2 -1 7.5721 -5.5094
1 2 0 4.8078 10.0823
1 2 1 -8.8876 5.0373
1 2 2 -5.8885 -6.0683
1 2 3 3.9807 -5.8326
1 2 4 4.0846 3.2272
1 2 5 -3.1569 1.6891
1 2 6 -0.1515 -3.2819
1 2 7 3.4224 0.3136
1 2 8 -0.5290 3.1500
1 2 9 -2.0941 -0.9212
1 2 10 1.1636 -0.6643
1 2 11 -0.2478 1.0034
1 2 12 -0.6623 -0.2935
1 2 13 -0.0883 -0.3807
1 2 14 0.1352 -0.3917
1 2 15 0.5188 -0.0857
1 2 16 0.1474 0.5304
1 3 -19 -0.1023 0.2428
1 3 -18 -0.1816 -0.2672
1 3 -17 0.2505 -0.2534
1 3 -16 0.3539 0.2075
1 3 -15 -0.2702 0.2805
1 3 -14 -0.1253 -0.4808
1 3 -13 0.9125 -0.1282
1 3 -12 0.1487 1.4743
1 3 -11 -1.6151 -0.2468
1 3 -10 1.0144 -0.7285
1 3 -9 -0.9745 1.3527
1 3 -8 -0.4160 -2.4131
1 3 -7 2.6576 1.9542
1 3 -6 -5.2068 1.6185
1 3 -5 0.3905 -8.2265
1 3 -3 -6.0835 7.1662
1 3 -2 -1.9278 -8.1274
1 3 -1 8.4152 3.8795
1 3 0 -7.4149 7.2372
1 3 1 -5.5347 -7.7738
1 3 2 6.1597 -3.7796
1 3 3 1.9647 4.1740
1 3 4 -2.6405 0.4449
1 3 5 0.1043 -1.8449
1 3 6 1.8626 -0.2999
1 3 7 0.7259 2.2792
1 3 8 -2.2786 0.4448
1 3 9 0.2513 -1.5049
1 3 10 0.5021 0.6438
1 3 11 -0.5322 -0.0102
1 3 12 -0.0323 -0.2236
1 3 13 -0.0429 -0.2119
1 3 14 0.2893 -0.2279
1 3 15 0.2650 0.3137
1 3 16 -0.2982 0.1012
1 4 -19 -0.1617 -0.1926
1 4 -18 0.3205 -0.1102
1 4 -17 0.1131 0.1841
1 4 -16 0.0207 0.0565
1 4 -15 0.1656 0.0883
1 4 -14 0.0499 0.3510
1 4 -13 -0.2056 0.3811
1 4 -12 -0.7367 0.1583
1 4 -11 -0.2720 -0.7234
1 4 -10 0.0705 0.0726
1 4 -9 -0.5019 -0.9255
1 4 -8 1.6094 -0.3787
1 4 -7 -0.7774 1.6363
1 4 -6 -1.0985 -3.0512
1 4 -5 5.8098 -0.0026
1 4 -4 -1.8639 7.5623
1 4 -2 6.4944 -3.2359
1 4 -1 -1.4243 7.4115
1 4 0 -6.7812 -5.0852
1 4 1 6.5997 -4.9491
1 4 2 2.5338 6.0852
1 4 3 -4.3004 0.3681
1 4 4 0.6553 -2.2146
1 4 5 0.7875 0.2716
1 4 6 0.7306 0.4602
1 4 7 -0.7927 1.2290
1 4 8 -0.8944 -0.9810
1 4 9 0.7454 -0.2926
1 4 10 -0.0042 0.4255
1 4 11 -0.3054 0.0239
1 4 12 -0.1413 -0.2727
1 4 13 0.1712 -0.2391
1 4 14 0.2744 0.0818
1 4 15 -0.1019 0.1657
1 5 -19 0.3000 -0.0476
1 5 -18 0.0362 0.3636
1 5 -17 -0.1754 -0.0182
1 5 -16 0.2240 0.0402
1 5 -15 -0.0930 0.5676
1 5 -14 -0.7373 0.0080
1 5 -13 -0.1385 -0.4109
1 5 -12 -0.2902 -0.1378
1 5 -11 -0.1180 -0.8511
1 5 -10 0.8830 -0.5152
1 5 -9 0.6489 0.4512
1 5 -8 0.0369 0.2314
1 5 -7 0.4779 0.0617
1 5 -6 0.7721 0.9421
1 5 -5 -1.0758 2.3402
1 5 -4 -3.7526 -1.4180
1 5 -3 2.4620 -3.8325
1 5 -2 2.0970 4.0063
1 5 -1 -5.2580 -0.7804
1 5 0 3.4812 -5.4295
1 5 1 4.2571 4.8937
1 5 2 -4.6006 2.2229
1 5 3 -0.3643 -2.9737
1 5 4 0.9869 0.4195
1 5 5 -0.0939 -0.3492
1 5 6 0.6720 0.5754
1 5 8 -0.0142 -0.7562
1 5 9 0.5632 0.2303
1 5 10 -0.4066 0.4628
1 5 11 -0.3810 -0.4659
1 5 12 0.3252 -0.2815
1 5 13 0.2113 0.1013
1 5 14 -0.0038 0.1467
1 6 -19 0.0350 0.3930
1 6 -18 -0.4049 0.0803
1 6 -17 -0.0004 -0.2389
1 6 -16 0.1102 0.2877
1 6 -15 -0.6718 0.1218
1 6 -14 -0.1514 -0.7822
1 6 -13 0.3190 -0.0136
1 6 -12 -0.3608 -0.5695
1 6 -11 1.3711 -0.8306
1 6 -10 1.0143 1.6555
1 6 -9 -1.3401 0.4859
1 6 -8 0.7563 -0.6246
1 6 -7 -0.1227 2.0443
1 6 -6 -2.5318 -0.4596
1 6 -5 0.1410 -2.0445
1 6 -4 1.3103 -0.5658
1 6 -3 0.9737 1.2521
1 6 -2 -2.0996 0.5328
1 6 -1 0.6802 -3.2031
1 6 0 3.6286 2.0026
1 6 1 -2.6638 2.9362
1 6 2 -1.5084 -2.3044
1 6 3 1.1971 -0.1918
1 6 4 -0.4147 0.0156
1 6 5 0.6862 -0.3523
1 6 6 0.0388 0.8191
1 6 7 -0.6182 -0.2338
1 6 8 0.4321 -0.2936
1 6 9 -0.0596 0.5591
1 6 10 -0.5498 -0.3230
1 6 11 0.3647 -0.4053
1 6 12 0.2409 0.2169
1 6 13 -0.0704 0.1368
1 7 -19 -0.4062 0.1382
1 7 -18 -0.2031 -0.3729
1 7 -17 0.2432 -0.1066
1 7 -16 -0.1968 0.2057
1 7 -15 -0.2688 -0.5538
1 7 -14 0.6143 -0.2243
1 7 -13 -0.1163 0.1349
1 7 -12 0.7300 -0.7154
1 7 -11 1.2745 1.5367
1 7 -10 -1.9173 1.3392
1 7 -9 -0.5721 -1.7587
1 7 -8 1.1241 0.8631
1 7 -7 -2.2086 0.2059
1 7 -6 0.6401 -2.6344
1 7 -5 1.9925 1.0311
1 7 -4 -0.8793 0.9840
1 7 -3 -0.4947 -0.5150
1 7 -1 1.3823 0.6426
1 7 1 -1.1926 -1.1758
1 7 2 0.9697 -0.4656
1 7 3 -0.1421 0.5633
1 7 4 -0.1798 -0.4184
1 7 5 0.4164 0.0848
1 7 6 -0.2386 0.2582
1 7 7 -0.0241 -0.2724
1 7 8 0.1649 0.1994
1 7 9 -0.3097 -0.0140
1 7 10 0.1230 -0.2836
1 7 11 0.2052 0.1096
1 7 12 -0.0617 0.1506
1 8 -18 0.2679 -0.2399
1 8 -17 0.1295 0.1562
1 8 -16 -0.1668 -0.1248
1 8 -15 0.3937 -0.2565
1 8 -14 0.1934 0.4128
1 8 -13 -0.0107 -0.1797
1 8 -12 0.7660 0.6822
1 8 -11 -1.3343 1.2537
1 8 -10 -1.2760 -1.6887
1 8 -9 1.6659 -0.6303
1 8 -8 -0.4934 1.2698
1 8 -7 -0.5635 -1.5077
1 8 -6 1.8245 0.2381
1 8 -5 -0.8164 1.3636
1 8 -4 -0.6137 -0.9984
1 8 -3 0.9083 -0.1410
1 8 -2 0.0930 0.7999
1 8 -1 -0.7868 0.2167
1 8 0 -0.2542 -0.8044
1 8 1 0.7833 -0.1888
1 8 2 0.1283 0.7433
1 8 3 -0.7010 0.1037
1 8 4 -0.0671 -0.5940
1 8 5 0.3733 -0.0114
1 8 6 -0.0176 0.1184
1 8 7 0.0313 -0.0147
1 8 8 0.0294 0.0485
1 8 9 -0.0364 0.0672
1 8 10 -0.0620 -0.0646
1 9 -18 0.1553 0.1676
1 9 -17 -0.0463 0.0680
1 9 -16 0.0812 -0.0384
1 9 -15 0.1090 0.2237
1 9 -14 -0.2022 0.0718
1 9 -13 0.1845 0.0897
1 9 -12 -0.5656 0.5712
1 9 -11 -0.8733 -1.0173
1 9 -10 1.3013 -0.8802
1 9 -9 0.4946 1.3839
1 9 -8 -1.2440 -0.1692
1 9 -7 0.7885 -0.8596
1 9 -6 0.3090 1.0442
1 9 -5 -0.8852 -0.2214
1 9 -4 0.5876 -0.5350
1 9 -3 0.2304 0.7853
1 9 -2 -0.8653 0.0326
1 9 -1 0.0831 -0.8353
1 9 0 0.7070 0.0779
1 9 1 0.0972 0.5677
1 9 2 -0.5026 0.3545
1 9 3 -0.5043 -0.4737
1 9 4 0.3731 -0.4508
1 9 5 0.2675 0.1940
1 9 6 -0.0530 0.0667
1 9 7 0.1136 -0.0197
1 9 8 0.0192 0.2558
1 9 9 -0.2940 -0.0387
1 10 -17 -0.0599 0.0689
1 10 -16 -0.1454 -0.0099
1 10 -15 -0.0471 -0.1276
1 10 -14 0.1217 -0.0293
1 10 -13 -0.1353 0.2021
1 10 -12 -0.3373 -0.4105
1 10 -11 0.6890 -0.4433
1 10 -10 0.4413 0.9035
1 10 -9 -1.0376 0.2782
1 10 -8 0.0316 -1.0537
1 10 -7 0.8958 0.3752
1 10 -6 -0.6118 0.5748
1 10 -5 -0.1828 -0.6845
1 10 -4 0.6220 0.1875
1 10 -3 -0.4785 0.4519
1 10 -2 -0.1981 -0.6253
1 10 -1 0.5697 0.0348
1 10 0 -0.0883 0.3556
1 10 1 -0.1348 0.0761
1 10 2 -0.2969 -0.0225
1 10 3 -0.0041 -0.3737
1 10 4 0.2669 -0.0173
1 10 5 0.0157 0.0820
1 10 6 0.0868 -0.0365
1 10 7 0.0974 0.2110
1 11 -16 0.1295 -0.3113
1 11 -15 0.3082 0.0733
1 11 -14 -0.0289 0.2361
1 11 -13 -0.1630 -0.0627
1 11 -12 0.1781 -0.1193
1 11 -11 0.1075 0.3235
1 11 -10 -0.4542 0.1060
1 11 -9 -0.0659 -0.5453
1 11 -8 0.5654 0.0505
1 11 -7 -0.2249 0.4932
1 11 -6 -0.3509 -0.4033
1 11 -5 0.5393 -0.1761
1 11 -4 -0.0203 0.5839
1 11 -3 -0.4752 -0.2181
1 11 -2 0.3343 -0.2136
1 11 -1 -0.0670 0.2835
1 11 0 -0.0980 -0.1917
1 11 1 0.1253 0.0798
1 11 2 -0.1428 0.0025
1 11 3 0.0393 -0.1019
1 11 4 0.0192 -0.0074
1 11 5 0.0705 -0.0680
1 12 -15 -0.1250 0.2893
1 12 -14 -0.1531 -0.0284
1 12 -13 -0.0230 -0.0103
1 12 -12 -0.0856 -0.0110
1 12 -11 -0.0284 -0.1216
1 12 -10 0.1221 -0.0470
1 12 -9 0.0165 0.1290
1 12 -8 -0.1629 -0.0541
1 12 -7 0.1130 -0.2138
1 12 -6 0.2753 0.1058
1 12 -5 -0.0502 0.3499
1 12 -4 -0.3992 -0.0361
1 12 -3 0.1116 -0.3421
1 12 -2 0.1549 0.2037
1 12 -1 -0.2040 -0.0584
1 12 0 0.1596 -0.1077
1 12 1 0.0118 0.1242
1 12 2 -0.0458 -0.0086
1 12 3 -0.0338 -0.0080
1 13 -13 -0.1118 0.0009
1 13 -12 0.0337 -0.1661
1 13 -11 0.1822 0.0717
1 13 -10 -0.1556 0.1965
1 13 -9 -0.2217 -0.2954
1 13 -8 0.4377 -0.2302
1 13 -7 0.1979 0.4842
1 13 -6 -0.3801 0.1575
1 13 -5 -0.1667 -0.1956
1 13 -4 0.0764 -0.2190
1 13 -3 0.2363 0.0900
1 13 -2 -0.1609 0.1741
1 13 -1 -0.0845 -0.1784
1 13 0 0.1246 -0.0429
1 14 -8 0.1659 0.4516
1 14 -7 -0.4719 0.1104
2 -14 1 0.1188 0.1379
2 -14 10 -0.1410 0.1587
2 -14 11 0.0398 -0.1660
2 -14 12 0.1133 0.1426
2 -13 -1 -0.0152 -0.3285
2 -13 0 0.3032 0.1512
2 -13 1 -0.2028 0.1313
2 -13 2 0.0283 -0.1217
2 -13 3 0.0074 0.0728
2 -13 8 0.4542 -0.3188
2 -13 9 0.1369 0.3790
2 -13 10 -0.1577 -0.0502
2 -13 11 0.1381 0.0733
2 -13 12 -0.1875 0.1158
2 -13 13 -0.0462 -0.1634
2 -12 -3 0.0342 0.2048
2 -12 -2 -0.1995 -0.2070
2 -12 -1 0.3225 -0.0758
2 -12 0 -0.0460 0.2261
2 -12 1 -0.0430 -0.0694
2 -12 2 0.0467 0.0543
2 -12 3 -0.0428 0.0732
2 -12 4 -0.1168 -0.0178
2 -12 6 -0.1583 -0.0064
2 -12 7 0.0876 -0.3677
2 -12 8 0.4110 0.1529
2 -12 9 -0.1181 0.2560
2 -12 10 -0.0156 0.0119
2 -12 11 -0.1501 0.1575
2 -12 12 -0.1783 -0.2058
2 -12 13 0.1467 -0.0789
2 -12 14 -0.0240 0.0188
2 -11 -5 -0.2175 -0.1040
2 -11 -4 0.0782 -0.1429
2 -11 -3 -0.0098 -0.0075
2 -11 -2 0.0645 -0.1401
2 -11 -1 0.2243 0.0116
2 -11 0 0.0941 0.2968
2 -11 1 -0.3241 0.1039
2 -11 2 0.0266 -0.2012
2 -11 3 -0.0809 0.1605
2 -11 4 -0.1393 -0.3426
2 -11 5 0.3676 0.0367
2 -11 6 -0.2337 0.1268
2 -11 7 0.1927 -0.3396
2 -11 8 0.3398 0.3580
2 -11 9 -0.2643 0.2801
2 -11 10 -0.2178 0.0122
2 -11 11 -0.2713 -0.1939
2 -11 12 0.1954 -0.3283
2 -11 13 0.1677 0.1530
2 -11 14 -0.0225 -0.0359
2 -11 15 0.0923 0.1391
2 -10 -7 0.0982 0.0616
2 -10 -6 -0.2348 0.2245
2 -10 -5 -0.2656 -0.3758
2 -10 -4 0.3767 -0.1666
2 -10 -3 -0.0576 0.2144
2 -10 -2 0.0641 -0.3383
2 -10 -1 0.5508 0.3948
2 -10 0 -0.6809 0.5417
2 -10 1 -0.2496 -0.7657
2 -10 2 0.5295 0.1840
2 -10 3 -0.4839 0.0463
2 -10 4 0.4127 -0.4557
2 -10 5 0.1230 0.5822
2 -10 6 -0.4050 -0.3273
2 -10 7 0.6815 -0.0509
2 -10 8 -0.2190 0.7945
2 -10 9 -0.6515 -0.2180
2 -10 10 -0.0438 -0.3904
2 -10 11 0.2083 -0.3467
2 -10 12 0.4282 0.1790
2 -10 13 -0.1869 0.2316
2 -10 14 0.0312 -0.0837
2 -10 15 -0.1227 0.1104
2 -10 16 0.0189 -0.2906
2 -9 -9 -0.1243 0.1476
2 -9 -8 -0.0813 -0.1888
2 -9 -7 0.1327 0.1582
2 -9 -6 -0.4073 -0.0869
2 -9 -5 0.3622 -0.4424
2 -9 -4 0.1752 0.5215
2 -9 -3 -0.4564 -0.2911
2 -9 -2 0.7407 -0.1594
2 -9 -1 -0.2938 0.9486
2 -9 0 -0.7745 -0.7408
2 -9 1 0.9573 -0.2516
2 -9 2 -0.3894 0.7858
2 -9 3 -0.2830 -0.8317
2 -9 4 0.8543 0.2851
2 -9 5 -0.6213 0.4450
2 -9 6 0.2119 -0.5907
2 -9 7 0.2849 0.8210
2 -9 8 -1.1066 -0.0520
2 -9 9 0.1805 -0.9757
2 -9 10 0.6020 0.0391
2 -9 11 0.1952 0.2870
2 -9 12 -0.1828 0.2694
2 -9 13 -0.1221 -0.1773
2 -9 14 0.0843 0.0530
2 -9 15 -0.0496 -0.1142
2 -9 16 0.2771 0.1038
2 -9 17 -0.2139 0.3036
2 -8 -10 -0.0234 0.1948
2 -8 -9 -0.3686 -0.1237
2 -8 -8 0.2544 -0.3176
2 -8 -7 0.0368 0.2472
2 -8 -6 -0.0315 -0.2601
2 -8 -5 0.3483 0.3049
2 -8 -4 -0.6047 0.1677
2 -8 -3 0.1787 -0.7289
2 -8 -2 0.5816 0.5187
2 -8 -1 -0.6803 0.1473
2 -8 0 0.4349 -0.5386
2 -8 1 0.0845 0.8761
2 -8 2 -0.9071 -0.5212
2 -8 3 0.9949 -0.4948
2 -8 4 -0.1134 1.0795
2 -8 5 -0.6884 -0.5749
2 -8 6 0.6853 0.0458
2 -8 7 -0.8201 0.4693
2 -8 8 -0.1121 -1.2938
2 -8 9 1.2833 0.1720
2 -8 10 -0.2702 0.9006
2 -8 11 -0.4598 -0.2359
2 -8 12 0.2036 -0.1896
2 -8 13 0.0615 0.2080
2 -8 14 -0.1387 -0.0659
2 -8 15 0.2086 0.0727
2 -8 16 -0.2925 0.2591
2 -8 17 -0.1787 -0.3240
2 -8 18 0.1715 -0.0544
2 -7 -12 -0.1375 0.0611
2 -7 -11 0.0872 -0.0672
2 -7 -10 -0.1918 0.1623
2 -7 -9 -0.0819 -0.4346
2 -7 -8 0.4743 0.0880
2 -7 -7 -0.2263 0.2880
2 -7 -6 0.0341 -0.2341
2 -7 -5 0.0446 0.3818
2 -7 -4 -0.6427 -0.3334
2 -7 -3 0.7400 -0.7046
2 -7 -2 0.5205 0.8982
2 -7 -1 -0.6186 0.1883
2 -7 0 0.0693 -0.0089
2 -7 1 -0.5469 0.0602
2 -7 2 0.2106 -0.6821
2 -7 3 0.3519 0.5331
2 -7 4 -0.6527 -0.1610
2 -7 5 0.5319 -0.4293
2 -7 6 -0.1200 0.6330
2 -7 7 -0.5001 -0.8283
2 -7 8 1.3965 -0.1935
2 -7 9 -0.2124 1.5273
2 -7 10 -1.1694 -0.5800
2 -7 11 0.7765 -0.5908
2 -7 12 0.1165 0.7711
2 -7 13 -0.5926 -0.1629
2 -7 14 0.3374 -0.2502
2 -7 15 -0.1871 0.4239
2 -7 16 -0.3391 -0.5012
2 -7 17 0.4895 -0.1026
2 -7 18 -0.1174 0.2282
2 -6 -13 -0.1920 0.1557
2 -6 -12 -0.0458 -0.3750
2 -6 -11 0.3373 0.1331
2 -6 -10 -0.2630 0.1032
2 -6 -9 0.2206 -0.2574
2 -6 -8 0.0323 0.5098
2 -6 -7 -0.5755 -0.4125
2 -6 -6 0.8523 -0.2244
2 -6 -5 -0.5323 0.9288
2 -6 -4 -0.4853 -1.3832
2 -6 -3 1.8959 0.2313
2 -6 -2 -0.7634 1.8086
2 -6 -1 -1.1840 -0.8378
2 -6 0 0.5800 -0.3396
2 -6 1 -0.3757 0.3540
2 -6 2 -0.3823 -0.7817
2 -6 3 0.8873 -0.5364
2 -6 4 0.5457 0.7823
2 -6 5 -0.6081 0.3711
2 -6 6 -0.2253 -0.5918
2 -6 7 0.9035 -0.2054
2 -6 8 0.1045 1.3806
2 -6 9 -1.5673 -0.2790
2 -6 10 0.8031 -1.1892
2 -6 11 0.4795 1.1290
2 -6 12 -1.0992 -0.1160
2 -6 13 0.4333 -0.7941
2 -6 14 0.3230 0.5966
2 -6 15 -0.6561 -0.2081
2 -6 16 0.5794 -0.5057
2 -6 17 0.1579 0.5795
2 -6 18 -0.2881 -0.1620
2 -6 19 0.2772 -0.0334
2 -5 -15 0.1129 -0.1148
2 -5 -14 -0.0889 0.2361
2 -5 -13 -0.2703 -0.3455
2 -5 -12 0.5068 -0.2298
2 -5 -11 0.1051 0.5392
2 -5 -10 -0.3827 -0.1252
2 -5 -9 0.2867 0.0709
2 -5 -8 -0.7055 0.0451
2 -5 -7 0.6739 -1.0656
2 -5 -6 0.7199 1.4508
2 -5 -4 1.5501 -1.4090
2 -5 -3 0.7436 2.4812
2 -5 -2 -2.7452 0.0620
2 -5 -1 0.5825 -2.2156
2 -5 0 0.9968 1.2929
2 -5 1 -2.0297 -0.5917
2 -5 2 2.0958 -2.4475
2 -5 3 2.1095 3.0324
2 -5 4 -3.0618 1.0027
2 -5 5 0.2158 -2.2826
2 -5 6 1.3394 0.7450
2 -5 7 -0.4831 0.9394
2 -5 8 -1.1264 -0.1121
2 -5 9 0.2431 -1.2590
2 -5 10 0.8362 0.7457
2 -5 11 -1.0847 0.0881
2 -5 12 0.4403 -1.0263
2 -5 13 0.7226 0.6086
2 -5 14 -0.6668 0.3200
2 -5 15 0.1357 -0.7158
2 -5 16 0.5865 0.4840
2 -5 17 -0.5070 0.2302
2 -5 18 0.1202 -0.2502
2 -5 19 0.0207 0.2555
2 -4 -16 0.1312 -0.1733
2 -4 -15 0.0616 0.2226
2 -4 -14 -0.2623 -0.0873
2 -4 -13 0.1494 -0.3371
2 -4 -12 0.4480 0.2238
2 -4 -11 -0.3857 0.3624
2 -4 -10 0.0394 -0.3851
2 -4 -9 -0.0794 0.4101
2 -4 -8 -0.2650 -0.8402
2 -4 -7 1.3350 0.3884
2 -4 -6 -1.0816 1.1952
2 -4 -5 -0.4820 -1.5254
2 -4 -4 1.8398 0.6190
2 -4 -3 -1.9515 2.0588
2 -4 -2 -1.7639 -3.1237
2 -4 -1 3.4290 -0.4684
2 -4 0 -1.7192 2.3062
2 -4 1 0.1368 -3.9004
2 -4 2 4.8309 3.0455
2 -4 3 -5.1740 3.7625
2 -4 4 -1.1926 -5.5335
2 -4 5 4.1255 1.2530
2 -4 6 -2.0986 2.0969
2 -4 7 -0.8006 -1.3422
2 -4 8 0.2762 -0.5561
2 -4 9 0.5890 -0.0207
2 -4 10 -0.3478 0.2108
2 -4 11 0.3819 -0.6738
2 -4 12 0.6489 0.6493
2 -4 13 -0.5589 0.4454
2 -4 14 -0.1947 -0.4804
2 -4 15 0.5239 0.1158
2 -4 16 -0.3641 0.4542
2 -4 17 -0.1731 -0.3468
2 -4 18 0.1122 0.1126
2 -4 19 -0.2199 -0.0607
2 -3 -17 0.0816 -0.2010
2 -3 -16 0.1190 0.1353
2 -3 -15 -0.0670 -0.0006
2 -3 -14 -0.0929 -0.0016
2 -3 -13 0.1547 -0.3104
2 -3 -12 0.2701 0.3970
2 -3 -11 -0.3276 -0.0984
2 -3 -10 0.3695 0.1073
2 -3 -9 -0.4668 0.2119
2 -3 -8 0.2044 -0.4776
2 -3 -7 0.3980 0.6183
2 -3 -6 -1.0632 0.3826
2 -3 -5 0.0776 -1.4457
2 -3 -4 1.1197 1.4815
2 -3 -3 -3.2308 -0.4862
2 -3 -2 2.8470 -3.7865
2 -3 -1 2.0657 4.4102
2 -3 0 -3.8072 -1.4783
2 -3 1 5.0395 -0.8919
2 -3 2 -3.1563 6.5432
2 -3 3 -4.9712 -6.4213
2 -3 4 7.2675 -1.2644
2 -3 5 -2.1220 5.4896
2 -3 6 -2.5888 -3.1555
2 -3 7 1.9391 -0.4778
2 -3 8 -0.2082 0.2670
2 -3 9 0.4206 -0.2458
2 -3 10 0.4360 0.1941
2 -3 11 0.1349 0.6973
2 -3 12 -0.6359 0.1852
2 -3 13 -0.0837 -0.3468
2 -3 14 0.2063 0.0654
2 -3 15 -0.2561 0.2485
2 -3 16 -0.2086 -0.3515
2 -3 17 0.2063 -0.0092
2 -3 18 -0.1698 -0.0546
2 -2 -16 0.0086 -0.1278
2 -2 -15 0.1453 0.2387
2 -2 -14 -0.3501 -0.2291
2 -2 -13 0.6204 -0.1319
2 -2 -12 -0.1642 0.5302
2 -2 -11 -0.0132 -0.2176
2 -2 -10 0.1754 0.5020
2 -2 -9 -0.8776 0.2756
2 -2 -8 -0.1317 -1.1752
2 -2 -7 1.0205 0.8260
2 -2 -6 -2.0912 -0.1220
2 -2 -5 1.7957 -2.0967
2 -2 -4 0.0095 2.4162
2 -2 -3 -0.8640 -2.9367
2 -2 -2 4.3820 2.1140
2 -2 -1 -4.4624 2.9173
2 -2 0 0.8910 -4.5015
2 -2 1 1.9182 4.9806
2 -2 2 -6.9598 -2.2397
2 -2 3 5.9786 -5.5185
2 -2 4 1.5738 7.3038
2 -2 5 -5.6713 -2.1321
2 -2 6 3.2881 -2.5621
2 -2 7 0.1092 1.9862
2 -2 9 0.9079 0.6672
2 -2 10 -0.5521 0.8920
2 -2 12 0.1804 -0.5202
2 -2 13 0.1734 0.2262
2 -2 14 -0.3288 0.0531
2 -2 15 -0.0726 -0.4262
2 -2 16 0.3585 0.0009
2 -2 17 -0.1581 0.0784
2 -1 -16 0.3991 0.0408
2 -1 -15 -0.3115 0.2683
2 -1 -14 0.2478 -0.4092
2 -1 -13 0.2265 0.6208
2 -1 -12 -0.4980 -0.0231
2 -1 -11 0.3608 -0.0881
2 -1 -10 -0.4177 1.1074
2 -1 -9 -1.9753 -1.2471
2 -1 -8 2.3341 -1.7290
2 -1 -7 -0.3973 2.7236
2 -1 -6 -1.5687 -3.1976
2 -1 -5 4.3251 0.4263
2 -1 -4 -1.4229 2.7555
2 -1 -3 0.1780 -0.4349
2 -1 -2 -1.7297 2.2129
2 -1 -1 -1.9947 -3.5183
2 -1 1 -3.6350 2.4469
2 -1 2 0.5191 -5.7113
2 -1 3 4.9803 3.7374
2 -1 4 -5.3170 1.8082
2 -1 5 1.4220 -4.3636
2 -1 6 1.9381 2.5208
2 -1 7 -1.5073 -0.1160
2 -1 8 1.0010 -0.0497
2 -1 9 -0.6213 1.1637
2 -1 10 -1.1231 -0.5968
2 -1 11 0.4510 -0.8912
2 -1 12 0.4569 0.4020
2 -1 13 -0.4071 0.0896
2 -1 14 0.0408 -0.4469
2 -1 15 0.4463 0.0903
2 0 -17 0.1964 -0.2117
2 0 -16 0.1551 0.3766
2 0 -15 -0.1727 -0.0432
2 0 -14 0.1486 0.2424
2 0 -13 -0.4259 0.1445
2 0 -12 -0.0255 -0.3422
2 0 -11 0.2758 0.6380
2 0 -10 -2.1749 0.0487
2 0 -9 0.9455 -3.7037
2 0 -8 3.4175 2.6337
2 0 -7 -3.9058 0.5884
2 0 -4 -5.6068 2.5369
2 0 -3 -2.3815 -3.8468
2 0 -2 1.6124 -2.2000
2 0 -1 1.9910 -0.0453
2 0 0 0.2646 2.0662
2 0 1 -2.0347 -1.0889
2 0 2 2.7345 -1.0312
2 0 3 -0.8373 2.8687
2 0 4 -1.1723 -2.2169
2 0 5 2.0901 0.7599
2 0 6 -1.3331 0.9253
2 0 7 0.1693 -0.6330
2 0 8 -0.1854 0.7774
2 0 9 -1.1272 -0.4891
2 0 10 0.5077 -1.2690
2 0 11 1.0108 0.5403
2 0 12 -0.5641 0.4506
2 0 13 0.0300 -0.5287
2 0 14 0.4845 0.2649
2 1 -18 -0.2064 -0.1029
2 1 -17 0.3532 -0.0603
2 1 -16 -0.0400 0.4273
2 1 -15 -0.3375 0.0676
2 1 -14 -0.1713 -0.1753
2 1 -13 -0.0451 -0.0717
2 1 -12 0.0245 -0.0500
2 1 -11 -0.8214 0.2906
2 1 -10 -0.4143 -2.7345
2 1 -9 4.4747 0.4107
2 1 -8 -2.2528 4.2528
2 1 -6 6.0277 2.1018
2 1 -5 -5.1096 7.1661
2 1 -4 -7.3258 -6.5906
2 1 -3 6.3437 -5.7736
2 1 -2 2.7800 4.3215
2 1 -1 -1.2081 0.1448
2 1 0 0.5076 1.3015
2 1 1 -1.8811 -0.4399
2 1 2 1.2665 -1.0233
2 1 3 0.2996 1.0843
2 1 4 -0.4752 0.3609
2 1 5 -0.5010 -0.1840
2 1 6 0.2023 -0.0989
2 1 7 -0.4754 0.3072
2 1 8 -0.6101 -0.6406
2 1 9 0.4909 -1.1345
2 1 10 1.4395 0.4578
2 1 11 -0.6035 1.1337
2 1 12 -0.4235 -0.6974
2 1 13 0.6669 0.1975
2 1 14 -0.5304 0.5860
2 1 15 -0.4315 -0.6575
2 2 -18 0.0954 -0.4651
2 2 -17 0.4181 0.4404
2 2 -16 -0.6618 0.3104
2 2 -15 -0.2070 -0.6684
2 2 -14 0.4572 0.0363
2 2 -13 -0.3964 0.1159
2 2 -12 -0.0760 -0.4840
2 2 -11 0.0914 -0.9476
2 2 -10 2.6570 -0.2975
2 2 -9 -0.0604 4.0448
2 2 -8 -3.8664 -1.4261
2 2 -7 3.6108 -2.0490
2 2 -6 -0.4937 6.3236
2 2 -5 -8.8059 -2.9831
2 2 -4 4.9816 -9.4720
2 2 -3 7.0577 5.7102
2 2 -2 -4.2878 2.4309
2 2 -1 1.6089 -1.0493
2 2 0 -2.1978 2.8739
2 2 1 -1.6511 -3.8172
2 2 2 3.7534 0.2408
2 2 3 -1.5174 2.9045
2 2 4 -1.7586 -2.0023
2 2 5 1.8658 -0.3482
2 2 6 -0.9345 1.2945
2 2 7 -0.7650 -1.4209
2 2 8 1.0561 -0.7949
2 2 9 1.2602 0.5249
2 2 10 -0.3817 1.4751
2 2 11 -1.0596 -0.5379
2 2 12 0.6797 -0.3257
2 2 13 -0.2535 0.7191
2 2 14 -0.6756 -0.5442
2 2 15 0.6139 -0.4968
2 2 16 0.2061 0.4816
2 3 -18 0.6537 0.1100
2 3 -17 -0.5354 0.6275
2 3 -16 -0.4717 -0.8581
2 3 -15 0.9177 -0.2122
2 3 -14 -0.2318 0.7009
2 3 -13 -0.3746 -0.7434
2 3 -12 0.9363 -0.3566
2 3 -11 1.0051 0.6099
2 3 -10 -0.0641 2.0425
2 3 -9 -2.6277 0.1925
2 3 -8 0.2266 -2.2654
2 3 -7 1.3149 1.6428
2 3 -6 -4.1227 0.3117
2 3 -5 0.7665 -6.7603
2 3 -4 7.6654 2.0250
2 3 -3 -2.8197 5.5468
2 3 -2 -1.3319 -2.1890
2 3 -1 0.1157 2.4107
2 3 0 -3.7632 -2.2800
2 3 1 3.8805 -2.7755
2 3 2 0.6839 4.3460
2 3 3 -3.7407 -1.3699
2 3 4 2.6731 -2.1609
2 3 5 0.1010 2.8562
2 3 6 -2.1382 -1.4229
2 3 7 1.7036 -1.3302
2 3 8 1.0724 1.0729
2 3 9 -0.4256 1.1921
2 3 10 -1.1114 -0.2274
2 3 11 0.3210 -0.6654
2 3 12 0.1708 0.4559
2 3 13 -0.5599 -0.1253
2 3 14 0.2614 -0.5705
2 3 15 0.4009 0.3007
2 4 -19 0.5465 -0.1085
2 4 -18 -0.1768 0.6602
2 4 -17 -0.6154 -0.6149
2 4 -16 0.9331 -0.4732
2 4 -15 0.2153 0.9819
2 4 -14 -0.7909 -0.2497
2 4 -13 0.8124 -0.5486
2 4 -12 0.5330 1.1226
2 4 -11 -0.9332 0.8186
2 4 -10 -1.0278 -0.3219
2 4 -9 -0.4374 -0.6913
2 4 -8 -0.0524 -0.9520
2 4 -7 0.6669 -0.4736
2 4 -6 0.1643 -0.7554
2 4 -5 2.7207 -0.4142
2 4 -4 0.5825 3.7727
2 4 -3 -2.8663 0.3427
2 4 -2 -0.2755 -0.4797
2 4 -1 -1.8257 -0.7662
2 4 0 1.7001 -2.7909
2 4 1 2.1774 2.7211
2 4 2 -3.3672 0.4760
2 4 3 1.5118 -3.1039
2 4 4 1.7599 2.8905
2 4 5 -3.1018 -0.0177
2 4 6 1.1754 -2.3872
2 4 7 1.5342 1.2603
2 4 8 -0.7431 1.0409
2 4 9 -0.7741 -0.3044
2 4 10 0.1540 -0.4664
2 4 11 0.1716 0.1494
2 4 12 -0.1995 0.0603
2 4 13 -0.0771 -0.2838
2 4 14 0.3027 -0.0521
2 5 -19 0.0547 0.4493
2 5 -18 -0.4554 -0.2189
2 5 -17 0.5685 -0.4115
2 5 -16 0.3703 0.7788
2 5 -15 -0.7823 0.2352
2 5 -14 0.1488 -0.6531
2 5 -13 0.5266 0.7026
2 5 -12 -1.0856 0.5019
2 5 -11 -0.4611 -1.0032
2 5 -10 0.4104 -0.0417
2 5 -9 -0.9349 -0.5529
2 5 -8 1.5820 -1.9705
2 5 -7 2.1433 2.1567
2 5 -6 -1.8159 1.0438
2 5 -5 0.7101 -0.6926
2 5 -4 -0.4214 2.0382
2 5 -3 -2.3485 -0.7554
2 5 -2 0.2350 -1.8677
2 5 -1 1.2704 -0.5734
2 5 0 0.9967 1.1412
2 5 1 -1.5823 0.6451
2 5 2 0.4405 -2.1094
2 5 3 2.0437 1.7564
2 5 4 -2.5871 1.2043
2 5 5 -0.1331 -2.5610
2 5 6 1.9425 0.4968
2 5 7 -0.5588 1.2549
2 5 8 -0.7363 -0.4038
2 5 9 0.3031 -0.3288
2 5 10 0.0309 0.2368
2 5 11 -0.1460 -0.0411
2 5 12 -0.0894 -0.0855
2 5 13 0.0835 -0.2088
2 5 14 0.1765 0.0689
2 6 -19 -0.1935 0.0164
2 6 -18 0.1996 -0.1104
2 6 -17 0.0955 0.4005
2 6 -16 -0.4659 0.1836
2 6 -15 -0.2045 -0.4335
2 6 -14 0.4021 0.0523
2 6 -13 -0.5283 0.4178
2 6 -12 -0.4313 -0.8904
2 6 -11 0.8451 -0.2483
2 6 -10 -0.4055 0.3342
2 6 -9 0.5472 -1.5361
2 6 -8 2.5638 1.6113
2 6 -7 -2.5015 2.6136
2 6 -6 -1.3218 -2.7780
2 6 -5 2.2669 0.7040
2 6 -4 -2.3347 1.2726
2 6 -3 -0.3450 -2.8187
2 6 -2 2.2668 0.1534
2 6 -1 -0.2535 1.4018
2 6 0 -0.9155 -0.2656
2 6 1 0.5017 -0.9657
2 6 2 1.1777 1.0137
2 6 3 -1.5364 1.1136
2 6 4 -0.7247 -1.7385
2 6 5 1.5476 -0.3030
2 6 6 0.0641 1.1647
2 6 7 -0.7865 -0.0549
2 6 8 0.1822 -0.4503
2 6 9 0.1667 0.2905
2 6 10 -0.2874 0.0250
2 6 11 -0.0671 -0.1883
2 6 12 0.0829 -0.1745
2 7 -18 -0.2039 0.1676
2 7 -17 -0.2333 -0.1988
2 7 -16 0.0360 -0.1706
2 7 -15 0.1019 -0.1006
2 7 -14 -0.0070 0.1450
2 7 -13 -0.2831 -0.3236
2 7 -12 0.5677 -0.3854
2 7 -11 0.2570 0.5025
2 7 -10 -0.1049 -0.2808
2 7 -9 1.1708 0.5412
2 7 -8 -1.3410 1.9439
2 7 -7 -1.9520 -2.1033
2 7 -6 2.5085 -0.9478
2 7 -5 -0.5960 2.3220
2 7 -4 -1.6284 -1.8363
2 7 -3 2.2351 -0.7767
2 7 -2 0.0906 1.8889
2 7 -1 -1.2810 -0.3370
2 7 0 0.5981 -0.8100
2 7 1 0.5558 0.7913
2 7 2 -0.9158 0.4019
2 7 3 -0.2748 -0.9194
2 7 4 0.8064 -0.2102
2 7 5 0.2272 0.6521
2 7 6 -0.5132 0.2421
2 7 7 -0.1599 -0.3804
2 7 8 0.2461 0.0016
2 7 9 -0.1415 0.1588
2 7 10 -0.1542 -0.1958
2 7 11 0.1712 -0.1791
2 8 -18 -0.1569 -0.3529
2 8 -17 0.3781 -0.1438
2 8 -16 -0.0103 0.2456
2 8 -15 -0.0818 -0.1413
2 8 -14 0.1066 -0.0622
2 8 -13 0.1855 -0.0733
2 8 -12 0.2582 0.2674
2 8 -11 -0.1605 0.2838
2 8 -10 -0.0314 0.1214
2 8 -9 -0.5041 0.4614
2 8 -8 -0.9141 -0.9496
2 8 -7 1.3899 -0.9463
2 8 -6 0.4145 1.6648
2 8 -5 -1.6309 -0.4228
2 8 -4 1.1278 -1.3046
2 8 -3 0.8309 1.4394
2 8 -2 -1.3740 0.3364
2 8 -1 0.1216 -1.0584
2 8 0 0.5902 0.4832
2 8 1 -0.6594 0.0766
2 8 2 0.3082 -0.6212
2 8 3 0.4613 0.4120
2 8 4 -0.2478 0.3139
2 8 5 -0.2261 0.0066
2 8 6 -0.1696 -0.1548
2 8 7 0.0778 -0.1860
2 8 8 0.1046 0.0436
2 8 9 -0.0848 -0.0113
2 8 10 0.1110 -0.1410
2 9 -18 0.3514 -0.1510
2 9 -17 0.1229 0.4455
2 9 -16 -0.4135 -0.0660
2 9 -15 0.2590 -0.2951
2 9 -14 0.2016 0.2976
2 9 -13 -0.1648 0.1644
2 9 -12 -0.1047 0.0423
2 9 -11 -0.2023 0.0364
2 9 -10 -0.2200 -0.2210
2 9 -9 0.0814 -0.3852
2 9 -8 0.5265 -0.1066
2 9 -7 0.1633 0.6572
2 9 -6 -0.7548 -0.0053
2 9 -5 0.3341 -0.7880
2 9 -4 0.7489 0.6867
2 9 -3 -0.9530 0.6181
2 9 -2 -0.3521 -1.0330
2 9 -1 0.8199 0.0298
2 9 0 -0.3848 0.3118
2 9 1 0.2804 -0.5501
2 9 2 0.5066 0.6444
2 9 3 -0.6300 0.3760
2 9 4 -0.2575 -0.3609
2 9 5 0.0759 -0.1421
2 9 6 0.0065 -0.0843
2 9 7 0.1148 -0.0922
2 9 8 0.0825 0.0574
2 10 -17 -0.4150 0.1291
2 10 -16 0.0345 -0.4489
2 10 -15 0.3680 0.2505
2 10 -14 -0.3693 0.2358
2 10 -13 -0.1040 -0.3328
2 10 -12 0.1766 0.0327
2 10 -11 -0.1773 -0.0258
2 10 -10 0.1947 -0.2852
2 10 -9 0.3105 0.2748
2 10 -8 -0.2748 0.2584
2 10 -7 -0.1746 -0.2598
2 10 -6 0.2901 -0.1142
2 10 -5 0.1239 0.3887
2 10 -4 -0.5508 0.2026
2 10 -3 -0.2607 -0.7247
2 10 -2 0.7795 -0.1795
2 10 -1 -0.0527 0.5799
2 10 0 -0.1540 -0.3037
2 10 1 0.4345 0.2655
2 10 2 -0.4367 0.4299
2 10 3 -0.3569 -0.3305
2 10 4 0.1171 -0.2485
2 10 5 0.1021 -0.0321
2 10 6 0.0684 -0.0381
2 10 7 0.0913 0.0242
2 11 -16 0.2866 0.0050
2 11 -15 -0.2110 0.1884
2 11 -14 -0.0343 -0.3818
2 11 -13 0.4380 0.1187
2 11 -12 -0.2527 0.3699
2 11 -11 -0.2128 -0.3622
2 11 -10 0.4194 -0.0230
2 11 -9 -0.1471 0.3881
2 11 -8 -0.2550 -0.2753
2 11 -7 0.3631 -0.0483
2 11 -6 -0.1532 0.4133
2 11 -5 -0.4361 -0.2453
2 11 -4 0.1818 -0.4600
2 11 -3 0.4904 0.0396
2 11 -2 0.0432 0.4698
2 11 -1 -0.3349 0.0051
2 11 0 0.0956 -0.1260
2 11 1 -0.0222 0.1742
2 11 2 -0.1993 -0.0241
2 11 3 -0.0671 -0.1743
2 11 4 0.1032 -0.1359
2 11 5 0.1255 0.0154
2 12 -14 0.3850 0.2406
2 12 -13 -0.3551 0.4833
2 12 -12 -0.4849 -0.4359
2 12 -11 0.4994 -0.4064
2 12 -10 0.2743 0.5400
2 12 -9 -0.5181 0.1068
2 12 -8 0.0815 -0.3837
2 12 -7 0.1286 0.2513
2 12 -6 -0.3401 -0.1638
2 12 -5 0.3446 -0.3190
2 12 -4 0.2338 0.3182
2 12 -3 -0.1363 0.1577
2 12 -2 -0.1171 0.0531
2 12 -1 -0.1438 -0.0952
2 12 0 0.0904 -0.1345
2 12 1 0.0793 0.1197
2 12 2 -0.1695 0.0276
2 13 -12 0.4397 -0.4088
2 13 -11 0.3969 0.4809
2 13 -10 -0.5290 0.3467
2 13 -9 -0.2417 -0.5358
2 13 -8 0.4299 -0.0822
2 13 -7 -0.0734 0.1889
2 13 -6 0.1005 -0.1338
2 13 -5 0.0652 0.2806
2 13 -4 -0.2566 -0.0634
2 13 -3 0.1472 -0.0836
2 13 -2 -0.0958 0.1408
2 13 -1 -0.0696 -0.1821
3 -14 10 -0.0761 0.1575
3 -14 11 -0.1241 -0.0888
3 -13 0 0.2122 -0.0955
3 -13 1 0.1653 0.1652
3 -13 2 -0.1747 0.2304
3 -13 3 -0.2284 -0.1979
3 -13 8 0.2003 -0.2087
3 -13 9 0.1057 0.1933
3 -13 10 -0.1662 0.0218
3 -13 11 0.0237 -0.1554
3 -13 12 0.1684 0.0460
3 -12 -3 0.0261 0.1759
3 -12 -2 -0.2497 -0.1256
3 -12 -1 0.1877 -0.3137
3 -12 0 0.4009 0.2219
3 -12 1 -0.3109 0.4409
3 -12 2 -0.3419 -0.4117
3 -12 3 0.3984 -0.1435
3 -12 6 -0.1610 0.0616
3 -12 7 -0.0475 -0.2691
3 -12 8 0.2742 0.0225
3 -12 9 -0.0893 0.1896
3 -12 10 -0.0761 -0.1327
3 -12 11 0.1568 0.0081
3 -12 12 -0.0416 0.1747
3 -12 13 -0.1916 -0.0498
3 -12 14 0.0690 -0.1913
3 -11 -5 -0.2291 -0.1567
3 -11 -4 0.1342 -0.0776
3 -11 -3 -0.1229 0.1389
3 -11 -2 -0.1863 -0.3623
3 -11 -1 0.6259 -0.1768
3 -11 0 -0.0095 0.8023
3 -11 1 -0.7295 -0.3309
3 -11 2 0.5665 -0.3805
3 -11 3 -0.0496 0.5255
3 -11 4 -0.2389 -0.2992
3 -11 5 0.2641 0.0882
3 -11 6 -0.2719 0.0473
3 -11 7 0.1691 -0.2622
3 -11 8 0.1140 0.2575
3 -11 9 -0.1915 -0.0750
3 -11 10 0.2063 -0.0402
3 -11 11 -0.0799 0.2319
3 -11 12 -0.1867 -0.0987
3 -11 13 0.0525 -0.1431
3 -11 14 0.1294 0.0293
3 -11 15 -0.0587 0.1187
3 -10 -6 -0.2842 0.1499
3 -10 -5 -0.1481 -0.2528
3 -10 -4 0.1625 0.0152
3 -10 -3 -0.3298 -0.0302
3 -10 -2 0.3577 -0.6205
3 -10 -1 0.6423 0.7329
3 -10 0 -0.9368 0.3042
3 -10 1 0.2047 -0.7868
3 -10 2 0.3281 0.5559
3 -10 3 -0.5560 -0.1790
3 -10 4 0.4693 -0.2701
3 -10 5 -0.0880 0.4537
3 -10 6 -0.2238 -0.3254
3 -10 7 0.3453 0.0493
3 -10 8 -0.2064 0.1563
3 -10 9 0.1244 -0.1729
3 -10 10 0.0112 0.3242
3 -10 11 -0.3434 -0.1244
3 -10 12 0.1346 -0.2366
3 -10 13 0.1325 0.0687
3 -10 14 -0.0405 0.0935
3 -10 15 -0.0864 -0.0771
3 -10 16 0.1058 -0.0687
3 -9 -8 0.0906 0.0752
3 -9 -7 -0.0441 0.2623
3 -9 -6 -0.4340 -0.0557
3 -9 -5 0.1269 -0.4316
3 -9 -4 0.1520 0.1939
3 -9 -3 -0.1388 -0.3158
3 -9 -2 0.7100 0.1022
3 -9 -1 -0.4417 0.7774
3 -9 0 -0.4731 -0.6782
3 -9 1 0.6547 0.0083
3 -9 2 -0.3942 0.3850
3 -9 3 -0.0270 -0.5194
3 -9 4 0.3813 0.2423
3 -9 5 -0.3241 0.0865
3 -9 6 0.2077 -0.2202
3 -9 7 0.0223 0.3394
3 -9 8 -0.2277 -0.1285
3 -9 9 0.1346 0.0477
3 -9 10 -0.2930 0.0292
3 -9 11 0.0604 -0.3728
3 -9 12 0.3193 0.0632
3 -9 13 -0.0427 0.2479
3 -9 14 -0.2047 -0.0875
3 -9 15 0.1654 -0.1503
3 -9 16 0.0673 0.1609
3 -8 -10 0.0097 0.0565
3 -8 -9 -0.1512 -0.0214
3 -8 -8 0.1198 -0.0614
3 -8 -7 -0.2211 0.2151
3 -8 -6 -0.2225 -0.5445
3 -8 -5 0.7018 -0.0999
3 -8 -4 -0.1068 0.5715
3 -8 -3 -0.1996 -0.2713
3 -8 -2 0.2634 0.2315
3 -8 -1 -0.5164 0.0439
3 -8 0 0.2994 -0.5377
3 -8 1 0.3111 0.6037
3 -8 2 -0.7322 -0.0374
3 -8 3 0.3324 -0.6508
3 -8 4 0.4306 0.4274
3 -8 5 -0.2772 0.1897
3 -8 6 -0.0244 0.0248
3 -8 7 -0.2838 0.0329
3 -8 8 -0.0170 -0.3274
3 -8 9 0.1401 0.0124
3 -8 10 -0.0326 -0.1297
3 -8 11 0.3209 -0.0633
3 -8 12 0.0931 0.3996
3 -8 13 -0.4187 0.0477
3 -8 14 0.1080 -0.3848
3 -8 15 0.2521 0.2612
3 -8 16 -0.2439 0.0472
3 -8 17 0.1065 -0.0479
3 -7 -11 -0.0270 0.0289
3 -7 -10 -0.3088 0.0693
3 -7 -9 -0.0559 -0.4639
3 -7 -8 0.3483 0.1038
3 -7 -7 -0.3650 -0.0376
3 -7 -6 0.5606 -0.5805
3 -7 -5 0.5689 1.0104
3 -7 -4 -1.1827 0.2630
3 -7 -3 0.1945 -0.9718
3 -7 -2 0.4348 0.5166
3 -7 -1 -0.4633 -0.2125
3 -7 0 0.6879 -0.0173
3 -7 1 -0.6065 0.8011
3 -7 2 -0.5642 -1.1268
3 -7 3 1.3703 -0.1591
3 -7 4 -0.1926 1.3019
3 -7 6 0.2152 -0.4787
3 -7 7 0.0355 -0.0481
3 -7 8 0.2346 -0.1831
3 -7 9 0.1534 0.1844
3 -7 11 0.1425 0.2729
3 -7 12 -0.3965 0.1983
3 -7 13 -0.1131 -0.4474
3 -7 14 0.4280 0.1103
3 -7 15 -0.3253 0.2705
3 -7 16 0.0046 -0.3290
3 -7 17 0.1037 0.2257
3 -7 18 -0.2549 -0.1312
3 -6 -13 -0.2621 0.2688
3 -6 -12 -0.1408 -0.1502
3 -6 -11 -0.1249 0.0765
3 -6 -10 -0.2803 -0.4142
3 -6 -9 0.5855 -0.3065
3 -6 -8 0.0025 0.5434
3 -6 -7 -0.2180 -0.5827
3 -6 -6 1.1290 0.3650
3 -6 -5 -1.0182 1.2555
3 -6 -4 -0.8300 -1.4532
3 -6 -3 1.4361 -0.0835
3 -6 -2 -0.5514 0.9247
3 -6 -1 -0.1070 -0.7311
3 -6 0 0.3962 0.6974
3 -6 2 1.0387 -1.3202
3 -6 3 1.0064 1.7088
3 -6 4 -2.0453 0.3760
3 -6 5 0.2946 -1.8152
3 -6 6 1.0557 0.6382
3 -6 7 -0.5142 0.1972
3 -6 8 0.2743 -0.1858
3 -6 9 0.0289 0.2643
3 -6 10 -0.0548 0.1133
3 -6 11 -0.2267 0.0901
3 -6 12 -0.1195 -0.2460
3 -6 13 0.2534 -0.0475
3 -6 14 -0.1325 0.2849
3 -6 15 -0.2135 -0.3250
3 -6 16 0.3370 0.0196
3 -6 17 -0.2493 0.1247
3 -6 18 0.1090 -0.2899
3 -5 -14 -0.1993 0.3154
3 -5 -13 -0.2988 -0.1876
3 -5 -12 0.0699 -0.1857
3 -5 -11 -0.0528 -0.0573
3 -5 -10 0.2100 -0.3395
3 -5 -9 0.3969 0.4481
3 -5 -8 -0.6743 -0.0144
3 -5 -7 0.7683 -0.6626
3 -5 -6 0.2946 1.4202
3 -5 -5 -1.5937 -0.3273
3 -5 -4 0.9744 -1.2445
3 -5 -3 0.5896 1.4004
3 -5 -2 -1.3950 -0.1007
3 -5 -1 0.6260 -0.8569
3 -5 0 -0.1283 0.8469
3 -5 1 -0.6123 -1.2666
3 -5 2 2.0825 0.2031
3 -5 3 -1.4381 2.0712
3 -5 4 -1.0807 -2.4604
3 -5 5 2.5407 0.3605
3 -5 6 -1.3343 1.5914
3 -5 7 -0.3544 -1.3579
3 -5 8 0.8008 0.3428
3 -5 9 -0.3751 0.3391
3 -5 11 0.1218 -0.1186
3 -5 12 0.0009 0.1185
3 -5 13 -0.0990 -0.0181
3 -5 14 -0.1076 -0.1263
3 -5 15 0.2019 -0.1684
3 -5 16 0.0234 0.1781
3 -5 17 -0.0020 -0.1777
3 -5 18 0.2272 0.1620
3 -4 -15 -0.0127 0.1510
3 -4 -14 -0.1688 0.0181
3 -4 -13 -0.1193 -0.2695
3 -4 -12 0.3553 -0.0889
3 -4 -11 -0.0730 0.2176
3 -4 -10 0.0997 -0.0904
3 -4 -9 -0.2168 0.2638
3 -4 -8 -0.0715 -0.6915
3 -4 -7 1.0513 0.3181
3 -4 -6 -0.6787 1.1359
3 -4 -5 -0.8484 -1.0124
3 -4 -4 1.3737 -0.0967
3 -4 -3 -0.9876 1.5600
3 -4 -2 -1.2056 -1.8828
3 -4 -1 1.9343 -0.1954
3 -4 0 -1.0547 0.8462
3 -4 1 1.0035 -1.7147
3 -4 2 1.0816 2.6160
3 -4 3 -2.8840 -0.7066
3 -4 5 -0.7559 2.9516
3 -4 6 -1.8954 -2.2526
3 -4 7 2.2877 -0.3681
3 -4 8 -0.5127 1.4132
3 -4 9 -0.6017 -0.6061
3 -4 10 0.4617 -0.1978
3 -4 11 -0.0323 0.4092
3 -4 12 -0.3428 -0.2084
3 -4 13 0.1881 -0.1800
3 -4 14 0.0449 -0.0148
3 -4 15 0.1333 -0.0080
3 -4 16 0.0865 0.0304
3 -4 17 0.1274 0.2147
3 -4 18 -0.2570 0.1560
3 -4 19 -0.0781 -0.1561
3 -3 -16 0.0478 -0.0800
3 -3 -15 0.2404 0.0790
3 -3 -14 -0.3051 0.2057
3 -3 -13 0.1349 -0.4505
3 -3 -12 0.2495 0.4877
3 -3 -11 -0.5111 -0.1377
3 -3 -10 0.3336 -0.2432
3 -3 -9 -0.0884 0.2120
3 -3 -8 0.1271 -0.4725
3 -3 -7 0.9353 0.6757
3 -3 -6 -1.3960 1.0784
3 -3 -5 -0.3069 -1.8398
3 -3 -4 1.3609 1.3306
3 -3 -2 1.7335 -3.0799
3 -3 -1 1.6646 2.3820
3 -3 0 -1.4856 -0.6013
3 -3 1 2.2186 0.5262
3 -3 2 -2.3714 1.9741
3 -3 3 0.0304 -2.6493
3 -3 4 0.9567 2.2493
3 -3 5 -2.9778 -1.5670
3 -3 6 3.1542 -1.9266
3 -3 7 0.2978 3.0276
3 -3 8 -1.8866 -0.6752
3 -3 9 0.8403 -0.8200
3 -3 10 0.2089 0.7266
3 -3 11 -0.6203 -0.1370
3 -3 12 0.3049 -0.4408
3 -3 13 0.1809 0.2200
3 -3 14 -0.0050 -0.0204
3 -3 15 0.1416 0.0705
3 -3 16 0.0394 0.2669
3 -3 17 -0.3543 0.1412
3 -3 18 -0.1230 -0.2829
3 -2 -16 0.3932 -0.1473
3 -2 -15 0.0095 0.6664
3 -2 -14 -0.5489 -0.3375
3 -2 -13 0.4890 -0.0496
3 -2 -12 -0.4301 0.2474
3 -2 -11 0.1755 -0.6330
3 -2 -10 0.6078 0.5826
3 -2 -9 -0.9832 0.2555
3 -2 -8 0.7358 -1.1707
3 -2 -7 0.6094 2.1371
3 -2 -6 -2.8088 -0.8111
3 -2 -5 2.2184 -1.6829
3 -2 -4 -0.9537 2.4633
3 -2 -3 -1.3148 -3.5230
3 -2 -2 4.4615 0.3553
3 -2 -1 -1.4304 3.3209
3 -2 0 -0.9272 -1.3312
3 -2 1 0.2507 1.1276
3 -2 2 -1.4423 -0.9010
3 -2 3 0.9624 0.0833
3 -2 4 -2.0145 -0.4795
3 -2 5 2.4855 -2.6766
3 -2 6 1.7532 3.5732
3 -2 7 -3.1807 0.3197
3 -2 8 0.5672 -1.9987
3 -2 9 0.9322 0.8033
3 -2 10 -0.7882 0.2533
3 -2 11 0.1529 -0.6926
3 -2 12 0.4770 0.2934
3 -2 13 -0.1617 0.2142
3 -2 14 -0.0188 0.0231
3 -2 15 -0.0324 0.1412
3 -2 16 -0.3051 0.0801
3 -1 -17 0.1327 -0.2337
3 -1 -16 0.4063 0.4687
3 -1 -15 -0.6927 0.2453
3 -1 -14 0.0799 -0.5422
3 -1 -13 0.1491 0.2153
3 -1 -12 -0.1026 -0.2386
3 -1 -11 0.6612 0.1571
3 -1 -10 -0.7044 1.1103
3 -1 -9 -0.9968 -1.6242
3 -1 -8 2.3116 0.3269
3 -1 -7 -2.3878 1.8163
3 -1 -6 -0.0399 -3.5806
3 -1 -5 2.6914 1.9271
3 -1 -4 -2.9222 0.0853
3 -1 -3 2.7923 -2.7356
3 -1 -2 1.8388 4.6400
3 -1 -1 -4.8642 0.6668
3 -1 1 1.7956 1.0861
3 -1 2 -1.2285 0.7262
3 -1 3 -0.9771 -1.4113
3 -1 4 2.1008 -1.7900
3 -1 5 1.9767 2.9327
3 -1 6 -3.1219 1.2665
3 -1 7 -0.3436 -2.4808
3 -1 8 1.5482 0.2179
3 -1 9 -0.4775 0.8069
3 -1 10 -0.2840 -0.6488
3 -1 11 0.6910 0.0811
3 -1 12 -0.1906 0.5312
3 -1 13 -0.2812 -0.0533
3 -1 14 -0.0868 -0.0521
3 -1 15 -0.1683 -0.0649
3 0 -17 0.2818 0.0268
3 0 -16 -0.1903 0.4495
3 0 -15 -0.3533 -0.2889
3 0 -14 0.2604 -0.1768
3 0 -13 0.0792 0.2105
3 0 -12 -0.0227 -0.0215
3 0 -11 0.0537 0.6382
3 0 -10 -1.5769 -0.3893
3 0 -9 1.3858 -1.7690
3 0 -5 -1.0327 3.1651
3 0 -4 -1.4370 -2.3076
3 0 -3 3.3068 1.1731
3 0 -2 -3.9796 3.7432
3 0 -1 -2.9587 -6.0472
3 0 0 6.4182 -0.9344
3 0 1 -1.2984 5.0775
3 0 2 -3.1751 -2.6855
3 0 3 3.1246 -1.8520
3 0 4 1.2096 3.0795
3 0 5 -2.7377 0.7456
3 0 6 -0.3067 -2.0574
3 0 7 1.2721 -0.0913
3 0 8 0.0480 0.7591
3 0 9 -0.5341 -0.1204
3 0 10 0.4427 -0.3283
3 0 11 0.0824 0.6284
3 0 12 -0.5164 -0.0202
3 0 13 -0.0540 -0.2317
3 0 14 -0.0731 -0.1216
3 1 -18 -0.0805 0.0363
3 1 -17 0.0920 0.0999
3 1 -16 -0.2224 0.1447
3 1 -15 -0.0975 -0.2447
3 1 -14 0.2760 0.1127
3 1 -13 -0.4167 0.2471
3 1 -12 0.0236 -0.3664
3 1 -11 -0.4433 0.3637
3 1 -10 -0.3029 -1.5672
3 1 -9 1.8541 0.2221
3 1 -8 -0.6774 0.7219
3 1 -6 0.4592 2.4645
3 1 -5 -2.7804 0.0981
3 1 -4 0.9064 -1.9901
3 1 -3 -0.0658 2.7869
3 1 -2 -4.4812 -3.2237
3 1 -1 6.2587 -4.3955
3 1 0 2.2122 7.5084
3 1 1 -6.4513 -0.7204
3 1 2 2.8453 -4.1164
3 1 3 1.8509 3.6322
3 1 4 -3.3428 0.2489
3 1 5 0.6352 -2.3627
3 1 6 1.1578 0.7755
3 1 7 -0.3340 0.3303
3 1 8 -0.1724 0.1345
3 1 9 -0.1518 -0.3617
3 1 10 0.4164 0.1709
3 1 11 -0.3845 0.2656
3 1 12 -0.1340 -0.2860
3 1 13 0.0070 -0.1035
3 1 14 0.0846 -0.2803
3 2 -18 -0.1559 -0.1519
3 2 -17 0.0952 0.0910
3 2 -16 -0.2364 0.0133
3 2 -15 0.1315 -0.1370
3 2 -14 -0.2597 0.3532
3 2 -13 -0.4207 -0.7079
3 2 -12 0.6663 -0.0926
3 2 -11 -0.4852 -0.0979
3 2 -10 0.9842 -0.9479
3 2 -9 1.1975 1.0945
3 2 -8 -0.3061 1.3069
3 2 -7 -1.0519 0.6509
3 2 -6 -1.1924 -0.1937
3 2 -5 -0.6649 -1.3394
3 2 -4 1.0280 -0.2781
3 2 -3 -1.6895 -0.2702
3 2 -2 2.6677 -3.8216
3 2 -1 4.2558 5.0924
3 2 0 -6.0925 2.5712
3 2 1 0.0601 -5.2513
3 2 2 3.3333 2.2481
3 2 3 -3.3212 1.2741
3 2 4 0.3956 -3.1890
3 2 5 2.1133 1.3119
3 2 6 -1.2372 0.7775
3 2 7 0.0147 -0.4612
3 2 8 -0.2573 0.0272
3 2 9 0.2758 -0.4232
3 2 10 0.2166 0.3928
3 2 11 -0.2904 0.0655
3 2 12 -0.1124 -0.1748
3 2 13 0.1090 -0.2437
3 2 14 0.3577 0.0533
3 2 15 -0.0397 0.3960
3 3 -18 0.1174 -0.2284
3 3 -17 -0.0035 0.1424
3 3 -16 -0.0941 -0.1111
3 3 -15 -0.0377 0.1212
3 3 -14 -0.4688 -0.4296
3 3 -13 0.7817 -0.6440
3 3 -12 0.3521 0.6984
3 3 -11 -0.1867 -0.3765
3 3 -10 1.3242 0.1926
3 3 -9 -0.0053 2.3117
3 3 -8 -2.9996 0.4107
3 3 -7 -0.3864 -2.7760
3 3 -6 1.4282 0.1385
3 3 -5 -0.6324 -0.1439
3 3 -4 0.5354 -0.8923
3 3 -3 1.3422 -0.6249
3 3 -2 2.1845 2.2446
3 3 -1 -3.1506 2.7092
3 3 0 -1.8203 -3.4406
3 3 1 3.0104 -0.1473
3 3 2 -1.5017 2.1187
3 3 3 -0.9520 -2.5291
3 3 4 2.5564 0.2584
3 3 5 -1.0037 1.6599
3 3 6 -0.5159 -0.8907
3 3 7 0.1818 0.1265
3 3 8 -0.1403 -0.4436
3 3 9 0.6305 0.0481
3 3 10 -0.1123 0.5577
3 3 11 -0.4853 -0.0994
3 3 12 0.1241 -0.4376
3 3 13 0.3560 0.1457
3 3 14 -0.1148 0.2653
3 3 15 -0.1907 -0.0875
3 4 -18 0.2379 0.0570
3 4 -17 -0.1378 0.1172
3 4 -16 -0.0813 -0.1549
3 4 -15 -0.0486 -0.1782
3 4 -14 0.3795 -0.4511
3 4 -13 0.7242 0.5235
3 4 -12 -0.4509 0.5095
3 4 -11 0.2842 -0.3026
3 4 -10 0.4401 1.5252
3 4 -9 -2.9451 0.8704
3 4 -8 -0.9981 -4.0043
3 4 -7 3.9959 -0.2753
3 4 -6 -1.0450 2.7177
3 4 -5 -0.9448 -2.1348
3 4 -4 2.4842 0.1629
3 4 -3 -0.1581 2.2557
3 4 -2 -1.8476 0.4312
3 4 -1 -0.8422 -1.5019
3 4 0 1.3397 -0.7271
3 4 1 0.1271 1.3671
3 4 2 -1.3272 -0.7176
3 4 3 1.3702 -0.8870
3 4 4 0.1331 1.3878
3 4 5 -0.7751 -0.3940
3 4 6 0.3250 -0.0505
3 4 7 -0.3121 -0.1167
3 4 8 0.4755 -0.3307
3 4 9 0.2760 0.6030
3 4 10 -0.6343 0.2291
3 4 11 -0.0967 -0.6343
3 4 12 0.5359 0.1019
3 4 13 -0.2202 0.3411
3 4 14 -0.1580 -0.2029
3 5 -18 -0.0448 0.2830
3 5 -17 -0.2984 -0.1800
3 5 -16 0.2997 -0.3014
3 5 -15 0.2591 0.1843
3 5 -14 0.1918 0.1985
3 5 -13 -0.1446 0.5108
3 5 -12 -0.3780 -0.1273
3 5 -11 0.2850 0.3595
3 5 -10 -1.5858 0.7437
3 5 -9 -1.2624 -2.9922
3 5 -8 4.0527 -1.2259
3 5 -7 0.2442 4.1714
3 5 -6 -3.1545 -1.3133
3 5 -5 2.5731 -1.5036
3 5 -4 0.0517 2.9085
3 5 -3 -2.3441 -0.6835
3 5 -2 0.7214 -1.3726
3 5 -1 0.5772 0.3753
3 5 0 -0.0041 0.3161
3 5 1 -0.5059 0.1116
3 5 2 0.0655 -0.6958
3 5 3 0.5311 0.2648
3 5 4 -0.1918 0.1394
3 5 5 0.0779 0.1178
3 5 6 -0.3771 -0.0304
3 5 7 0.2511 -0.4403
3 5 8 0.4163 0.3757
3 5 9 -0.4338 0.3988
3 5 10 -0.3127 -0.5112
3 5 11 0.5555 -0.0985
3 5 12 -0.1317 0.4757
3 5 13 -0.3001 -0.2273
3 6 -18 -0.3729 -0.0124
3 6 -17 0.1662 -0.4894
3 6 -16 0.5077 0.3801
3 6 -15 -0.4112 0.3456
3 6 -14 -0.0857 -0.1761
3 6 -13 -0.0822 0.1123
3 6 -12 -0.1227 -0.0192
3 6 -11 -0.5092 0.1377
3 6 -10 -0.6393 -1.4002
3 6 -9 2.3957 -1.0835
3 6 -8 0.9891 3.1171
3 6 -7 -3.1631 0.1312
3 6 -6 1.1323 -2.3850
3 6 -5 1.0782 2.0928
3 6 -4 -2.2605 -0.1941
3 6 -3 0.9798 -1.6869
3 6 -2 0.8244 1.1513
3 6 -1 -0.8649 0.1596
3 6 0 0.0915 -0.4118
3 6 1 0.0426 0.0583
3 6 2 -0.0086 -0.1771
3 6 3 0.3403 -0.0441
3 6 4 0.0385 0.5052
3 6 5 -0.5973 -0.1147
3 6 6 0.3164 -0.5468
3 6 7 0.4231 0.4024
3 6 8 -0.3712 0.3356
3 6 9 -0.2750 -0.3501
3 6 10 0.3903 -0.1599
3 6 11 -0.0015 0.4178
3 6 12 -0.3638 -0.1083
3 7 -18 -0.1052 -0.3588
3 7 -17 0.5052 -0.0064
3 7 -16 -0.2456 0.5536
3 7 -15 -0.3900 -0.4426
3 7 -14 0.4411 -0.0816
3 7 -13 -0.1928 0.3388
3 7 -12 -0.3453 -0.2869
3 7 -11 0.1409 -0.5650
3 7 -10 0.9529 -0.1873
3 7 -9 0.4750 1.3793
3 7 -8 -1.6510 0.4264
3 7 -7 0.0588 -1.5562
3 7 -6 1.0195 0.7284
3 7 -5 -1.1716 0.2182
3 7 -4 0.5244 -1.1700
3 7 -3 0.8246 0.9711
3 7 -2 -1.0837 0.3821
3 7 -1 -0.0105 -0.9488
3 7 0 0.6596 0.2583
3 7 1 -0.4347 0.2726
3 7 2 0.1591 -0.4775
3 7 3 0.3167 0.5423
3 7 4 -0.7585 -0.0275
3 7 5 0.3889 -0.7510
3 7 6 0.5873 0.5727
3 7 7 -0.5340 0.3967
3 7 8 -0.2491 -0.3974
3 7 9 0.3021 -0.1308
3 7 10 0.0290 0.2757
3 7 11 -0.2634 -0.0252
3 8 -18 0.1513 -0.2257
3 8 -17 0.2251 0.2529
3 8 -16 -0.3453 0.0033
3 8 -15 0.2980 -0.2906
3 8 -14 0.0742 0.4950
3 8 -13 -0.5380 -0.1980
3 8 -12 0.4015 -0.4961
3 8 -11 0.4421 0.4558
3 8 -10 -0.3546 0.4069
3 8 -9 -0.3877 -0.1894
3 8 -8 0.0983 -0.3383
3 8 -7 0.1887 0.1357
3 8 -6 -0.2207 -0.0705
3 8 -5 0.3469 -0.2511
3 8 -4 0.2254 0.5391
3 8 -3 -0.6430 0.1971
3 8 -2 -0.1442 -0.7141
3 8 -1 0.7380 0.0236
3 8 0 -0.3102 0.6091
3 8 1 -0.2637 -0.5498
3 8 2 0.5348 0.2040
3 8 3 -0.5932 0.2236
3 8 4 0.2025 -0.7579
3 8 5 0.7020 0.4940
3 8 6 -0.5337 0.5298
3 8 7 -0.3383 -0.3934
3 8 8 0.2256 -0.1724
3 8 9 0.0534 0.1296
3 8 10 -0.1077 -0.0003
3 9 -17 0.1073 0.2868
3 9 -16 -0.1371 0.0052
3 9 -15 0.0482 0.1445
3 9 -14 -0.3833 -0.0368
3 9 -13 0.2430 -0.4678
3 9 -12 0.3966 0.4859
3 9 -11 -0.6649 0.2237
3 9 -10 -0.0098 -0.7025
3 9 -9 0.5829 0.1970
3 9 -8 -0.3716 0.3526
3 9 -7 -0.0797 -0.4981
3 9 -6 0.5405 0.1665
3 9 -5 -0.3020 0.4660
3 9 -4 -0.3195 -0.2621
3 9 -3 0.0989 -0.2241
3 9 -2 0.2535 -0.0075
3 9 -1 -0.0884 0.3247
3 9 0 -0.2765 -0.3218
3 9 1 0.4616 -0.0531
3 9 2 -0.2343 0.3470
3 9 3 -0.0451 -0.4300
3 9 4 0.4715 0.2320
3 9 5 -0.3274 0.3960
3 9 6 -0.2654 -0.2417
3 9 7 0.0834 -0.1281
3 9 8 0.0261 -0.0320
3 10 -16 -0.2619 -0.0710
3 10 -15 -0.1018 -0.1884
3 10 -14 0.1933 -0.2471
3 10 -13 0.2895 0.3047
3 10 -12 -0.4838 0.2306
3 10 -11 -0.1036 -0.6515
3 10 -10 0.7191 0.0665
3 10 -9 -0.2613 0.6321
3 10 -8 -0.4005 -0.4505
3 10 -7 0.5771 -0.0956
3 10 -6 -0.1752 0.5718
3 10 -5 -0.4114 -0.3071
3 10 -4 0.2674 -0.1735
3 10 -3 -0.0068 0.1454
3 10 -2 -0.0896 -0.0598
3 10 -1 0.0379 -0.1561
3 10 0 0.2441 0.0317
3 10 1 -0.0628 0.2149
3 10 2 -0.0522 -0.0915
3 10 3 0.0925 0.1298
3 10 4 -0.2139 0.0738
3 10 5 -0.0379 -0.1734
3 10 6 0.0576 0.0192
3 11 -15 0.2531 -0.1327
3 11 -14 0.1700 0.2305
3 11 -13 -0.2485 0.1685
3 11 -12 -0.1576 -0.3091
3 11 -11 0.3900 -0.1453
3 11 -10 0.0980 0.4483
3 11 -9 -0.4445 -0.0210
3 11 -8 0.2031 -0.3689
3 11 -7 0.2440 0.3793
3 11 -6 -0.4526 0.1114
3 11 -5 -0.0121 -0.3688
3 11 -4 0.1684 0.0404
3 11 -3 -0.0699 -0.0429
3 11 -2 0.1780 -0.0992
3 11 -1 0.1048 0.2123
3 11 0 -0.1619 0.0401
3 11 1 0.0885 -0.0610
3 11 2 -0.0351 0.2065
3 11 3 -0.2466 -0.0727
3 11 4 0.0538 -0.2082
3 12 -14 -0.1181 0.1154
3 12 -13 -0.1054 -0.0702
3 12 -12 0.0371 -0.1368
3 12 -11 0.1982 0.0457
3 12 -10 -0.1033 0.2246
3 12 -9 -0.1528 -0.1934
3 12 -8 0.2830 0.0222
3 12 -7 -0.2301 0.3293
3 12 -6 -0.3003 -0.3603
3 12 -5 0.3354 -0.2009
3 12 -4 0.0740 0.1701
3 12 -3 0.0417 -0.0248
3 12 -2 0.0522 0.1955
3 12 -1 -0.2350 -0.0063
3 12 0 0.1172 -0.1688
3 12 1 0.0616 0.2069
3 12 2 -0.2178 -0.0033
3 13 -11 0.1217 0.1492
3 13 -10 -0.1658 0.0704
3 13 -9 0.0390 -0.0940
3 13 -8 -0.0635 0.1600
3 13 -7 -0.2255 -0.2392
3 13 -6 0.3342 -0.1950
3 13 -5 0.0925 0.2895
3 13 -4 -0.1359 -0.0103
3 13 -3 0.0519 0.0311
3 13 -2 -0.1268 0.0204
4 -13 1 -0.0051 -0.0891
4 -13 2 0.0289 -0.0299
4 -13 8 0.0317 -0.0745
4 -13 9 0.0494 0.0766
4 -13 10 -0.0913 0.0154
4 -13 11 0.0144 -0.0690
4 -12 -2 -0.0173 0.0407
4 -12 -1 -0.0654 -0.0802
4 -12 0 0.1297 0.0144
4 -12 1 -0.1439 0.0787
4 -12 2 0.0637 -0.1828
4 -12 3 0.0712 0.1824
4 -12 4 -0.1827 -0.1006
4 -12 6 -0.0303 0.1631
4 -12 7 -0.0457 -0.0917
4 -12 8 0.0871 0.0803
4 -12 9 -0.1568 0.0322
4 -12 10 0.0397 -0.1590
4 -12 11 0.1014 0.0870
4 -12 12 -0.0822 0.0262
4 -11 -4 -0.1063 -0.0983
4 -11 -3 0.0962 0.0357
4 -11 -2 -0.1669 -0.0359
4 -11 -1 0.2428 -0.1107
4 -11 0 -0.1395 0.3360
4 -11 1 -0.1935 -0.3721
4 -11 2 0.3672 0.0963
4 -11 3 -0.3238 0.1209
4 -11 4 0.1714 -0.3590
4 -11 5 0.2309 0.3141
4 -11 6 -0.2536 0.0513
4 -11 7 0.0793 -0.0624
4 -11 8 -0.1433 0.1058
4 -11 9 -0.0279 -0.2638
4 -11 10 0.2555 0.0953
4 -11 11 -0.1791 0.1492
4 -11 12 -0.0201 -0.1723
4 -11 13 0.0819 0.0693
4 -10 -6 -0.0272 0.2630
4 -10 -5 -0.2986 -0.1371
4 -10 -4 0.2900 -0.1344
4 -10 -3 -0.1547 0.2938
4 -10 -2 -0.0587 -0.3171
4 -10 -1 0.1722 0.2614
4 -10 0 -0.3997 -0.1819
4 -10 1 0.4550 -0.2367
4 -10 2 -0.1059 0.4467
4 -10 3 -0.2048 -0.4050
4 -10 4 0.5148 0.0717
4 -10 5 -0.2193 0.4199
4 -10 6 -0.1954 -0.1911
4 -10 7 0.0317 0.0363
4 -10 8 -0.1534 -0.1641
4 -10 9 0.2898 -0.1063
4 -10 10 -0.0459 0.2853
4 -10 11 -0.1744 -0.1893
4 -10 12 0.2445 -0.0344
4 -10 13 -0.0700 0.1994
4 -10 14 -0.0850 -0.1132
4 -9 -7 0.1192 0.3272
4 -9 -6 -0.4598 0.0597
4 -9 -5 0.1769 -0.4419
4 -9 -4 0.2075 0.4241
4 -9 -3 -0.4599 -0.1026
4 -9 -2 0.2556 -0.2302
4 -9 -1 -0.0976 0.1519
4 -9 0 0.0978 -0.2957
4 -9 1 0.2563 0.3087
4 -9 2 -0.3871 0.0283
4 -9 3 0.2565 -0.3520
4 -9 4 0.2558 0.4574
4 -9 5 -0.4735 0.1382
4 -9 6 -0.0424 -0.2950
4 -9 7 0.0278 -0.0151
4 -9 8 0.0634 -0.1662
4 -9 9 0.1863 0.1364
4 -9 10 -0.1712 0.0572
4 -9 11 0.1188 -0.1498
4 -9 12 0.0971 0.2498
4 -9 13 -0.2901 0.0400
4 -9 14 0.0074 -0.2262
4 -9 15 0.0792 0.0283
4 -8 -9 0.0917 -0.1160
4 -8 -8 0.2625 0.1474
4 -8 -7 -0.3186 0.3449
4 -8 -6 -0.2481 -0.4963
4 -8 -5 0.5416 0.0115
4 -8 -4 -0.2888 0.4170
4 -8 -3 -0.2023 -0.4323
4 -8 -2 0.3865 0.0023
4 -8 -1 -0.1432 0.1942
4 -8 0 0.0494 -0.1885
4 -8 1 0.0993 0.2295
4 -8 2 -0.2517 -0.1266
4 -8 3 0.3994 -0.1015
4 -8 4 -0.1297 0.5691
4 -8 5 -0.5330 -0.2988
4 -8 6 0.3088 -0.3184
4 -8 7 0.0646 0.1729
4 -8 8 0.0017 -0.0846
4 -8 9 0.0848 0.0973
4 -8 10 -0.0696 -0.0027
4 -8 11 0.0934 0.0390
4 -8 12 -0.1550 0.1446
4 -8 13 -0.1472 -0.2190
4 -8 14 0.1870 -0.1027
4 -8 15 0.0384 0.0451
4 -8 16 0.1460 0.0079
4 -7 -11 -0.0134 -0.0018
4 -7 -10 -0.1708 0.0047
4 -7 -9 0.0782 -0.2507
4 -7 -8 0.1498 0.2466
4 -7 -7 -0.4143 -0.1041
4 -7 -6 0.3983 -0.4775
4 -7 -5 0.3730 0.6207
4 -7 -4 -0.7011 0.1018
4 -7 -3 0.2599 -0.5909
4 -7 -2 0.2730 0.5581
4 -7 -1 -0.6261 -0.1662
4 -7 0 0.5196 -0.4095
4 -7 1 0.0255 0.5811
4 -7 2 -0.2989 -0.3190
4 -7 3 0.4572 0.1854
4 -7 4 -0.6206 0.3332
4 -7 5 -0.0187 -0.7791
4 -7 6 0.5926 0.3036
4 -7 7 -0.4431 0.2159
4 -7 8 0.0874 -0.3548
4 -7 9 0.1683 0.1713
4 -7 10 -0.1005 0.0370
4 -7 11 0.0015 -0.0128
4 -7 12 -0.0366 -0.0052
4 -7 13 0.0149 -0.0579
4 -7 14 0.0433 -0.0046
4 -7 15 0.0923 -0.0114
4 -7 16 0.0521 0.2326
4 -6 -12 0.0062 0.0201
4 -6 -11 -0.2307 0.2241
4 -6 -10 -0.4006 -0.3920
4 -6 -9 0.4226 -0.3981
4 -6 -8 0.1426 0.3041
4 -6 -7 -0.0679 -0.2914
4 -6 -6 0.6970 0.2350
4 -6 -5 -0.5518 0.8381
4 -6 -4 -0.5768 -0.7973
4 -6 -3 0.8343 0.0210
4 -6 -2 -0.6808 0.5600
4 -6 -1 -0.0327 -1.0733
4 -6 0 1.0154 0.5252
4 -6 1 -0.8537 0.5435
4 -6 2 0.1325 -0.7740
4 -6 3 0.2684 0.6849
4 -6 4 -0.7802 -0.4429
4 -6 5 0.9488 -0.3276
4 -6 6 -0.3588 0.9442
4 -6 7 -0.5251 -0.7918
4 -6 8 0.7619 -0.0796
4 -6 9 -0.1343 0.4668
4 -6 10 -0.1935 -0.1806
4 -6 11 0.2118 -0.0265
4 -6 12 -0.0843 0.2320
4 -6 13 -0.1820 -0.1487
4 -6 14 0.1572 -0.1047
4 -6 15 0.0810 0.1632
4 -6 16 -0.2099 0.0878
4 -6 17 -0.0485 -0.2383
4 -5 -13 -0.0896 0.0073
4 -5 -12 -0.1118 0.1483
4 -5 -11 -0.5140 -0.1283
4 -5 -10 0.0921 -0.8543
4 -5 -9 0.9204 0.0882
4 -5 -8 -0.1476 0.5795
4 -5 -7 0.0547 -0.2264
4 -5 -6 0.2236 0.6997
4 -5 -5 -1.0587 0.0268
4 -5 -4 0.3722 -0.9400
4 -5 -3 0.3485 0.7903
4 -5 -2 -0.9419 -0.4898
4 -5 -1 1.2215 -0.6411
4 -5 0 -0.0573 1.5063
4 -5 1 -1.1388 -0.8265
4 -5 2 1.1642 -0.2138
4 -5 3 -0.7522 0.7149
4 -5 4 0.3256 -1.0666
4 -5 5 0.4741 1.2333
4 -5 6 -1.3902 -0.5236
4 -5 7 1.1480 -0.8667
4 -5 8 0.2269 1.1078
4 -5 9 -0.7188 -0.1492
4 -5 10 0.3207 -0.3627
4 -5 11 0.1125 0.4337
4 -5 12 -0.4480 -0.0956
4 -5 13 0.2261 -0.3074
4 -5 14 0.1259 0.2310
4 -5 15 -0.1791 0.0409
4 -5 16 -0.0272 -0.1502
4 -5 17 0.1153 0.0083
4 -4 -15 -0.1165 0.0596
4 -4 -14 -0.0393 0.0353
4 -4 -13 -0.1566 -0.0202
4 -4 -12 -0.1243 -0.0435
4 -4 -11 -0.2551 -0.4761
4 -4 -10 0.8820 -0.4843
4 -4 -9 0.4339 1.0833
4 -4 -8 -0.9658 0.0573
4 -4 -7 0.5350 -0.5772
4 -4 -6 0.0031 1.0549
4 -4 -5 -1.1077 -0.6193
4 -4 -4 1.0198 -0.4885
4 -4 -3 -0.5518 0.8994
4 -4 -2 -0.1771 -1.4049
4 -4 -1 1.5039 0.8649
4 -4 0 -1.6460 0.7175
4 -4 1 0.4703 -1.5888
4 -4 2 0.6099 1.1658
4 -4 3 -0.7333 -0.6016
4 -4 4 1.0493 0.5453
4 -4 5 -1.6319 0.3839
4 -4 6 0.7363 -1.7323
4 -4 7 1.0135 1.3885
4 -4 8 -1.3087 0.2083
4 -4 9 0.2526 -0.8881
4 -4 10 0.4946 0.4487
4 -4 11 -0.5220 0.1607
4 -4 12 0.1421 -0.4424
4 -4 13 0.2266 0.3167
4 -4 14 -0.3142 0.0449
4 -4 15 0.0030 -0.2356
4 -4 16 0.1623 0.0068
4 -4 17 -0.0548 0.0668
4 -4 18 0.0485 -0.0989
4 -3 -16 -0.2660 -0.0905
4 -3 -15 0.2218 -0.1395
4 -3 -14 -0.1383 0.1861
4 -3 -13 -0.0067 -0.2369
4 -3 -12 -0.0234 0.0602
4 -3 -11 0.1434 -0.4742
4 -3 -10 0.8165 0.5419
4 -3 -9 -1.0258 0.8279
4 -3 -8 -0.3579 -1.5209
4 -3 -7 1.7857 0.5785
4 -3 -6 -1.5655 1.4331
4 -3 -5 -0.3728 -1.8935
4 -3 -4 1.1456 0.8903
4 -3 -3 -1.5674 -0.3515
4 -3 -2 1.7287 -1.1962
4 -3 -1 -0.0079 2.1875
4 -3 0 -1.5202 -1.2440
4 -3 1 1.6224 -0.2901
4 -3 2 -0.4836 0.8854
4 -3 3 0.2516 -0.1392
4 -3 4 -0.9573 0.7121
4 -3 5 -0.1434 -1.7429
4 -3 6 1.5643 0.7988
4 -3 7 -1.2976 0.7504
4 -3 8 -0.0229 -1.2002
4 -3 9 0.8548 0.3217
4 -3 10 -0.4294 0.4912
4 -3 11 -0.1072 -0.4195
4 -3 12 0.2815 0.2357
4 -3 13 -0.3882 0.1019
4 -3 14 -0.0374 -0.3490
4 -3 15 0.2558 -0.0737
4 -3 16 0.0596 0.1620
4 -3 17 -0.0316 -0.0337
4 -2 -16 0.2798 -0.4550
4 -2 -15 0.2778 0.4516
4 -2 -14 -0.3391 -0.0406
4 -2 -13 0.1755 -0.0503
4 -2 -12 -0.1520 0.0100
4 -2 -11 0.3718 -0.1469
4 -2 -10 -0.1301 0.8674
4 -2 -9 -1.2591 -0.8403
4 -2 -8 1.9344 -1.1137
4 -2 -7 0.1915 2.7865
4 -2 -6 -2.5685 -1.0456
4 -2 -5 1.6779 -1.1136
4 -2 -4 -0.8049 1.1830
4 -2 -3 0.1212 -2.1037
4 -2 -2 2.1633 1.4463
4 -2 -1 -2.1257 1.1194
4 -2 0 0.2735 -1.9363
4 -2 1 1.1984 1.0883
4 -2 2 -0.9135 0.6013
4 -2 3 -0.6173 -0.2288
4 -2 4 -0.1174 -0.9968
4 -2 5 1.0779 0.1639
4 -2 6 -0.6283 0.6161
4 -2 7 -0.0181 -0.8078
4 -2 8 0.7159 0.2770
4 -2 9 -0.2888 0.5597
4 -2 10 -0.3518 -0.2444
4 -2 11 0.1892 -0.0438
4 -2 12 -0.2303 0.0804
4 -2 13 -0.0052 -0.3106
4 -2 14 0.2435 -0.0488
4 -2 15 0.1080 0.1575
4 -2 16 -0.0583 0.0537
4 -1 -16 0.6413 0.2804
4 -1 -15 -0.3988 0.5278
4 -1 -14 -0.2478 -0.3153
4 -1 -13 0.1456 0.0030
4 -1 -12 -0.1124 -0.0548
4 -1 -11 0.3066 0.0998
4 -1 -10 -0.7953 0.3597
4 -1 -9 0.2495 -1.6777
4 -1 -8 1.9954 1.4983
4 -1 -7 -2.5388 1.3201
4 -1 -6 -0.1182 -2.4361
4 -1 -5 1.1205 0.7395
4 -1 -4 -0.8465 -0.6326
4 -1 -3 1.9630 -0.3864
4 -1 -2 -0.3408 2.4015
4 -1 -1 -1.8741 -1.1108
4 -1 0 1.6416 -0.7122
4 -1 2 -1.3929 -0.9101
4 -1 3 0.8573 -0.9522
4 -1 4 0.4424 0.6742
4 -1 5 -0.5641 -0.1910
4 -1 6 0.7530 -0.4090
4 -1 7 0.1900 0.8935
4 -1 8 -0.5866 0.0969
4 -1 9 -0.1733 -0.1920
4 -1 10 -0.0155 -0.2047
4 -1 11 0.0613 -0.0891
4 -1 12 0.1425 -0.1201
4 -1 13 0.1886 0.1453
4 -1 14 -0.0861 0.1672
4 -1 15 -0.1039 -0.0716
4 0 -17 0.4810 -0.0303
4 0 -16 -0.0430 0.7140
4 0 -15 -0.7003 -0.1019
4 0 -14 0.1946 -0.4773
4 0 -13 0.0882 0.2978
4 0 -12 -0.1462 -0.3048
4 0 -11 0.2755 0.3980
4 0 -10 -0.8861 -0.4686
4 0 -9 1.5302 -0.6496
4 0 -8 -0.3075 2.0809
4 0 -7 -1.7735 -1.1965
4 0 -6 1.3435 -1.0244
4 0 -5 0.3182 0.8128
4 0 -4 -0.0183 -0.2921
4 0 -3 0.7921 0.8061
4 0 -2 -1.4628 0.8181
4 0 -1 -0.0974 -1.5569
4 0 1 -1.7109 -0.2317
4 0 2 1.1016 -1.6555
4 0 3 0.9352 1.4415
4 0 4 -1.3362 -0.1415
4 0 5 1.1874 -0.9079
4 0 6 0.2855 1.7267
4 0 7 -1.4960 -0.2206
4 0 8 0.3114 -0.7676
4 0 9 0.1014 0.0726
4 0 10 0.1222 -0.2186
4 0 11 0.3013 0.0714
4 0 12 0.1115 0.3074
4 0 13 -0.2735 0.2604
4 1 -17 0.1525 0.4214
4 1 -16 -0.6117 0.2273
4 1 -15 -0.1452 -0.6406
4 1 -14 0.4613 0.1857
4 1 -13 -0.5362 0.0080
4 1 -12 0.5339 -0.4129
4 1 -11 -0.3173 0.6756
4 1 -10 -0.1605 -1.0822
4 1 -9 1.2201 0.6315
4 1 -8 -1.1478 0.7620
4 1 -7 -0.2307 -1.3392
4 1 -6 1.4640 0.1459
4 1 -5 -0.5238 1.4052
4 1 -4 -0.7801 -0.8362
4 1 -3 0.7100 0.2389
4 1 -2 -0.8036 0.1308
4 1 -1 0.3145 -0.3432
4 1 0 -0.7450 0.1260
4 1 1 0.5277 -1.5791
4 1 2 1.6342 1.1327
4 1 3 -1.4044 0.9244
4 1 4 0.2491 -1.3100
4 1 5 0.8546 1.3907
4 1 6 -1.9221 0.1808
4 1 7 0.3283 -1.6028
4 1 8 0.7934 0.3784
4 1 9 -0.1179 0.0855
4 1 10 0.2500 0.0589
4 1 11 0.0284 0.3147
4 1 12 -0.2677 0.2559
4 2 -18 0.0429 0.1948
4 2 -17 -0.3337 0.2236
4 2 -16 -0.3306 -0.3940
4 2 -15 0.4076 -0.1684
4 2 -14 -0.3146 0.3016
4 2 -13 0.0613 -0.7646
4 2 -12 0.6622 0.5675
4 2 -11 -0.8544 -0.0429
4 2 -10 0.8167 -0.7625
4 2 -9 0.4868 1.2061
4 2 -8 -1.2954 0.1173
4 2 -7 0.5905 -1.2737
4 2 -6 0.9412 1.6565
4 2 -5 -2.4341 0.0763
4 2 -4 0.9551 -2.2369
4 2 -3 1.2711 1.4746
4 2 -2 -1.3125 0.4716
4 2 -1 -0.4340 -0.9225
4 2 0 0.7027 -0.9047
4 2 1 1.2968 0.6285
4 2 2 -0.5786 1.2670
4 2 3 -0.7309 -0.5838
4 2 4 0.6096 0.2228
4 2 5 -1.2132 0.4615
4 2 6 -0.1027 -1.6842
4 2 7 1.4063 0.1943
4 2 8 -0.2038 0.7170
4 2 9 -0.1305 -0.0546
4 2 10 0.0195 0.1367
4 2 11 -0.1665 0.1604
4 2 12 -0.3307 -0.0860
4 2 13 -0.0153 -0.3949
4 2 14 0.3134 -0.0581
4 3 -18 -0.2685 0.0731
4 3 -17 -0.2145 -0.2231
4 3 -16 0.1253 -0.2767
4 3 -15 0.0930 0.1260
4 3 -14 -0.1701 -0.3545
4 3 -13 0.7428 -0.0460
4 3 -12 -0.2949 0.6757
4 3 -11 -0.1567 -0.6965
4 3 -10 1.0509 0.4615
4 3 -9 -0.9930 1.2877
4 3 -8 -1.0975 -1.5349
4 3 -7 1.9870 -0.0946
4 3 -6 -1.5369 1.8770
4 3 -5 -0.9429 -2.9043
4 3 -4 3.2274 0.3882
4 3 -3 -1.3986 2.6040
4 3 -2 -1.7287 -1.7636
4 3 -1 1.6014 -1.0868
4 3 0 0.7100 1.0931
4 3 1 -0.4145 0.4920
4 3 2 -0.3311 0.1071
4 3 3 -0.1839 -0.0348
4 3 4 -0.5264 0.0696
4 3 5 -0.2548 -1.1290
4 3 6 1.3435 -0.1900
4 3 7 0.0492 1.0341
4 3 8 -0.5038 0.0032
4 3 9 0.0117 -0.1129
4 3 10 -0.0450 0.1014
4 3 11 -0.2107 -0.0578
4 3 12 0.0011 -0.2206
4 3 13 0.1133 -0.0766
4 3 14 0.1203 -0.0365
4 3 15 0.1433 0.1128
4 4 -18 -0.0762 -0.2649
4 4 -17 0.0505 -0.1197
4 4 -16 0.1527 -0.1752
4 4 -15 0.1536 0.0746
4 4 -14 0.1599 -0.0854
4 4 -13 0.2508 0.3735
4 4 -12 -0.3354 0.1167
4 4 -11 0.3339 -0.0444
4 4 -10 -0.3572 0.9865
4 4 -9 -1.5554 -0.8720
4 4 -8 1.5585 -1.5311
4 4 -7 0.5327 2.1535
4 4 -6 -2.1212 -1.1599
4 4 -5 2.6712 -1.2264
4 4 -4 -0.1469 3.2677
4 4 -3 -2.8913 -1.3528
4 4 -2 1.9713 -1.9495
4 4 -1 0.8636 1.8984
4 4 0 -1.2562 -0.0541
4 4 1 0.5803 -0.4154
4 4 2 -0.1169 0.7194
4 4 3 -0.7395 -0.1032
4 4 4 -0.1990 -0.8562
4 4 5 0.9623 -0.3722
4 4 6 0.3000 0.8312
4 4 7 -0.4816 0.1518
4 4 8 -0.0443 -0.1555
4 4 9 0.0018 0.0600
4 4 10 -0.1706 -0.0357
4 4 11 0.0472 -0.1970
4 4 12 0.0886 0.0407
4 4 13 -0.0038 -0.0789
4 4 14 0.1872 0.0415
4 5 -18 0.1888 0.0021
4 5 -17 -0.0526 -0.1195
4 5 -16 0.4063 -0.0035
4 5 -15 -0.1025 0.3593
4 5 -14 0.0172 -0.1625
4 5 -13 0.1844 0.4041
4 5 -12 -0.4793 0.2448
4 5 -11 -0.3520 -0.1284
4 5 -9 0.7864 -1.1478
4 5 -8 1.2014 1.2362
4 5 -7 -1.5811 0.3943
4 5 -6 0.9893 -1.3948
4 5 -5 0.5441 2.2216
4 5 -4 -2.6992 -0.6320
4 5 -3 1.6134 -2.3141
4 5 -2 1.3498 2.0542
4 5 -1 -1.8938 0.2214
4 5 0 0.6749 -1.3288
4 5 1 0.7344 1.1005
4 5 2 -1.1069 0.4325
4 5 3 -0.4276 -0.9412
4 5 4 0.7601 -0.4549
4 5 5 0.3289 0.5297
4 5 6 -0.2258 0.1277
4 5 7 -0.0008 0.0260
4 5 8 -0.0988 0.0512
4 5 9 -0.1109 -0.0377
4 5 10 -0.0182 -0.1725
4 5 11 0.1601 -0.0139
4 5 12 -0.0038 0.0623
4 5 13 0.0434 0.0063
4 6 -18 -0.0943 0.1474
4 6 -17 0.1347 -0.1914
4 6 -16 0.1157 0.4112
4 6 -15 -0.3853 -0.1382
4 6 -14 0.4445 -0.0140
4 6 -13 -0.4589 0.6944
4 6 -12 -0.8359 -0.7336
4 6 -11 0.6507 -0.8414
4 6 -10 0.7517 0.2606
4 6 -9 0.1592 0.6933
4 6 -8 -0.7194 0.2151
4 6 -7 0.2941 -0.6655
4 6 -6 0.2962 1.1352
4 6 -5 -1.7900 -0.3917
4 6 -4 1.1129 -1.8755
4 6 -3 1.3890 1.5497
4 6 -2 -1.5962 0.6060
4 6 -1 0.1493 -1.3708
4 6 0 1.0795 0.6562
4 6 1 -0.8587 0.8706
4 6 2 -0.7397 -0.8402
4 6 3 0.7032 -0.5627
4 6 4 0.2706 0.4762
4 6 5 -0.1759 -0.0269
4 6 6 0.1584 0.0884
4 6 7 -0.1752 0.1053
4 6 8 -0.0150 -0.0730
4 6 9 -0.0817 -0.0078
4 6 10 0.0601 -0.1631
4 6 11 0.1635 0.0884
4 6 12 -0.0680 0.1384
4 7 -18 -0.1900 -0.0644
4 7 -17 0.1435 -0.0251
4 7 -16 -0.1988 0.0732
4 7 -15 0.1963 -0.2415
4 7 -14 -0.0078 0.5818
4 7 -13 -0.9474 -0.4475
4 7 -12 0.8675 -1.1633
4 7 -11 1.1455 1.0831
4 7 -10 -1.0363 0.9158
4 7 -9 -0.5960 -0.8540
4 7 -8 0.7721 -0.2771
4 7 -7 -0.0690 0.9108
4 7 -6 -1.1264 -0.4832
4 7 -5 0.8654 -1.1513
4 7 -4 0.8751 1.0276
4 7 -3 -0.9091 0.4358
4 7 -2 -0.0490 -0.6678
4 7 -1 0.5272 0.1894
4 7 0 -0.3274 0.5620
4 7 1 -0.6444 -0.4433
4 7 2 0.5388 -0.5825
4 7 3 0.3149 0.5352
4 7 4 -0.3735 -0.0117
4 7 5 0.1714 -0.1179
4 7 6 -0.0683 0.0805
4 7 7 0.1237 -0.0738
4 7 8 -0.0573 0.2372
4 7 9 -0.1890 -0.1923
4 7 10 0.2479 -0.0647
4 7 11 -0.0235 0.2326
4 8 -17 0.1959 -0.0725
4 8 -16 0.0973 0.0376
4 8 -15 0.0489 0.2457
4 8 -14 -0.5133 -0.0860
4 8 -13 0.4439 -0.8163
4 8 -12 1.0276 0.8894
4 8 -11 -1.2399 1.0356
4 8 -10 -0.8131 -1.3770
4 8 -9 1.3198 -0.4268
4 8 -8 -0.0311 1.1783
4 8 -7 -1.0134 -0.4831
4 8 -6 0.8235 -0.7757
4 8 -5 0.4191 0.9073
4 8 -4 -0.6729 0.0344
4 8 -3 0.2040 -0.2692
4 8 -2 -0.0195 0.2249
4 8 -1 -0.1412 -0.0152
4 8 0 -0.2010 -0.1265
4 8 1 0.2378 -0.3872
4 8 2 0.3758 0.3750
4 8 3 -0.3939 0.2108
4 8 4 -0.0793 -0.2491
4 8 5 0.0362 -0.1195
4 8 6 0.2918 -0.0958
4 8 7 0.0744 0.4273
4 8 8 -0.3966 -0.0469
4 8 9 0.1564 -0.2251
4 9 -17 0.2521 0.2392
4 9 -16 -0.1479 0.2269
4 9 -15 -0.2171 -0.0984
4 9 -14 0.2061 -0.2744
4 9 -13 0.3979 0.4723
4 9 -12 -0.7947 0.5314
4 9 -11 -0.5852 -1.0476
4 9 -10 1.1587 -0.4834
4 9 -9 0.2069 1.1308
4 9 -8 -0.9978 -0.1918
4 9 -7 0.5905 -0.7679
4 9 -6 0.4374 0.8220
4 9 -5 -0.7632 0.0654
4 9 -4 0.2129 -0.4507
4 9 -3 0.0917 0.2931
4 9 -2 -0.2088 -0.0915
4 9 -1 0.0418 -0.0967
4 9 0 0.0581 -0.1194
4 9 1 0.2393 0.0810
4 9 2 -0.0868 0.2675
4 9 3 -0.2569 -0.0209
4 9 4 -0.1047 -0.2777
4 9 5 0.3447 -0.2229
4 9 6 0.2548 0.4042
4 9 7 -0.3783 0.1706
4 9 8 -0.0257 -0.2401
4 10 -16 -0.2045 -0.1410
4 10 -15 0.1606 -0.1064
4 10 -14 0.0059 0.2730
4 10 -13 -0.4207 -0.0375
4 10 -12 -0.0060 -0.5243
4 10 -11 0.5601 -0.0977
4 10 -10 0.1399 0.5608
4 10 -9 -0.5582 0.0478
4 10 -8 0.1744 -0.5387
4 10 -7 0.4594 0.4204
4 10 -6 -0.5535 0.3058
4 10 -5 -0.1245 -0.5117
4 10 -4 0.3553 0.0138
4 10 -3 -0.0803 0.2029
4 10 -2 -0.1191 -0.0962
4 10 -1 0.0772 -0.0822
4 10 0 0.0563 0.0070
4 10 1 0.1164 0.0520
4 10 2 -0.0921 0.2454
4 10 3 -0.3230 -0.1553
4 10 4 0.1928 -0.3380
4 10 5 0.3081 0.1854
4 10 6 -0.1465 0.2342
4 11 -15 -0.0197 0.1308
4 11 -14 -0.1988 -0.1719
4 11 -13 0.2967 -0.2116
4 11 -12 0.1294 0.3140
4 11 -11 -0.2195 0.0143
4 11 -10 0.0355 -0.1001
4 11 -9 0.0553 -0.0153
4 11 -8 0.1179 0.1076
4 11 -7 -0.1985 0.1990
4 11 -6 -0.2225 -0.2607
4 11 -5 0.2812 -0.1929
4 11 -4 0.1208 0.2849
4 11 -3 -0.2727 0.0157
4 11 -2 0.0816 -0.2056
4 11 -1 0.0702 0.0952
4 11 0 0.0157 -0.0673
4 11 1 0.1145 0.1872
4 11 2 -0.2943 0.0619
4 11 3 0.0057 -0.2747
4 11 4 0.1773 0.0138
4 12 -13 -0.0161 0.3347
4 12 -12 -0.3741 -0.1446
4 12 -11 0.2520 -0.3122
4 12 -10 0.2095 0.2566
4 12 -9 -0.1568 0.1397
4 12 -8 -0.1256 -0.0202
4 12 -7 -0.0842 -0.1430
4 12 -6 0.1674 -0.1280
4 12 -5 0.1134 0.1949
4 12 -4 -0.2179 0.0504
4 12 -3 0.0369 -0.2035
4 12 -2 0.1223 0.0959
4 12 -1 -0.0729 0.0013
4 12 0 0.0804 0.0251
4 12 1 -0.1148 0.0721
4 13 -10 -0.1042 0.1562
4 13 -9 -0.1375 0.0048
4 13 -8 -0.0967 -0.1458
4 13 -7 0.1635 -0.1291
4 13 -6 0.1008 0.1689
4 13 -5 -0.1495 0.0423
4 13 -4 0.0099 -0.1062
4 13 -3 0.0508 0.0309
5 -13 9 0.0261 0.0401
5 -12 0 -0.0650 0.1152
5 -12 1 -0.1874 -0.1391
5 -12 2 0.1925 -0.1653
5 -12 3 0.0822 0.1591
5 -12 4 -0.0441 0.0196
5 -12 7 0.0928 -0.2396
5 -12 8 0.2086 0.0924
5 -12 9 -0.0436 0.1216
5 -12 10 -0.0246 0.0373
5 -11 -2 -0.1217 0.0094
5 -11 -1 0.0785 -0.0030
5 -11 0 -0.1725 0.0457
5 -11 1 0.1011 -0.2321
5 -11 2 0.1199 0.2325
5 -11 3 -0.2365 -0.0625
5 -11 4 0.1804 -0.1076
5 -11 5 -0.0822 0.1840
5 -11 6 -0.1123 -0.2497
5 -11 7 0.3333 -0.0319
5 -11 8 -0.0100 0.3073
5 -11 9 -0.1946 0.0016
5 -11 10 -0.0542 -0.0613
5 -11 11 -0.0172 -0.1219
5 -11 12 0.1736 0.0019
5 -10 -4 0.2794 0.0410
5 -10 -3 -0.2058 0.2207
5 -10 -2 0.0035 -0.2100
5 -10 -1 0.0378 0.1920
5 -10 0 -0.1867 -0.1428
5 -10 1 0.1693 -0.0119
5 -10 2 -0.1869 0.0386
5 -10 3 0.1308 -0.2841
5 -10 4 0.2404 0.2360
5 -10 5 -0.2574 0.0875
5 -10 6 0.1032 -0.2278
5 -10 7 0.1796 0.2476
5 -10 8 -0.2847 0.1276
5 -10 9 -0.0812 -0.2105
5 -10 10 0.0811 -0.0606
5 -10 11 0.0890 -0.0148
5 -10 12 0.0067 0.1576
5 -10 13 -0.2060 -0.1008
5 -9 -6 -0.2402 -0.0941
5 -9 -5 0.3563 -0.1890
5 -9 -4 0.0013 0.4645
5 -9 -3 -0.3117 -0.1558
5 -9 -2 0.1725 -0.0123
5 -9 -1 -0.2282 0.0991
5 -9 0 -0.0492 -0.2923
5 -9 1 0.1942 -0.0597
5 -9 2 0.0835 0.0141
5 -9 3 0.1610 0.0834
5 -9 4 -0.0846 0.2574
5 -9 5 -0.2335 -0.1328
5 -9 6 0.2270 -0.1033
5 -9 7 -0.0644 0.3050
5 -9 9 0.1861 -0.1769
5 -9 10 0.0338 0.0885
5 -9 11 0.0279 -0.0314
5 -9 12 -0.0141 0.0581
5 -9 13 0.0313 -0.0937
5 -9 14 0.1014 0.1602
5 -8 -8 0.3009 0.0288
5 -8 -7 -0.2139 0.1971
5 -8 -6 0.0847 -0.3105
5 -8 -5 0.2620 0.3453
5 -8 -4 -0.4169 0.1445
5 -8 -3 -0.0369 -0.3020
5 -8 -2 0.1113 0.0773
5 -8 -1 -0.2380 -0.0676
5 -8 0 0.2014 -0.3935
5 -8 1 0.4245 0.2620
5 -8 2 -0.2155 0.2799
5 -8 3 -0.0516 -0.0656
5 -8 4 -0.1247 0.0896
5 -8 5 -0.0271 -0.2606
5 -8 6 0.2654 0.2034
5 -8 7 -0.4257 0.1325
5 -8 8 0.0500 -0.4543
5 -8 9 0.2527 0.1511
5 -8 10 -0.1097 -0.0333
5 -8 11 0.2135 0.0044
5 -8 12 -0.0596 0.2186
5 -8 13 -0.1305 0.0084
5 -8 14 -0.1411 -0.0722
5 -7 -9 0.2983 -0.2819
5 -7 -8 0.1638 0.3540
5 -7 -7 -0.2295 -0.0030
5 -7 -6 0.1273 -0.0360
5 -7 -5 -0.0994 0.2196
5 -7 -4 -0.3027 -0.1722
5 -7 -3 0.2505 -0.2997
5 -7 -2 0.1025 0.3321
5 -7 -1 -0.3279 -0.2558
5 -7 0 0.5721 -0.1838
5 -7 1 -0.0399 0.6378
5 -7 2 -0.4096 -0.2122
5 -7 3 0.2191 -0.0410
5 -7 4 -0.2120 0.0342
5 -7 5 0.2356 -0.1582
5 -7 6 -0.1678 0.3913
5 -7 7 -0.3059 -0.4988
5 -7 8 0.5550 -0.0600
5 -7 9 -0.1355 0.2972
5 -7 10 0.0648 -0.1590
5 -7 11 0.0758 0.2994
5 -7 12 -0.3397 0.0259
5 -7 13 -0.0740 -0.2646
5 -7 14 0.1766 -0.1762
5 -7 15 0.2430 0.1247
5 -6 -11 -0.1784 0.1508
5 -6 -10 -0.1029 -0.3608
5 -6 -9 0.4271 -0.0524
5 -6 -8 0.0184 0.3980
5 -6 -7 -0.3225 -0.0467
5 -6 -6 0.1824 -0.1762
5 -6 -5 -0.0958 0.3048
5 -6 -4 -0.2441 -0.4266
5 -6 -3 0.6076 0.0620
5 -6 -2 -0.4619 0.4764
5 -6 -1 -0.0895 -0.7095
5 -6 0 0.6552 0.3186
5 -6 1 -0.5044 0.3264
5 -6 2 0.0893 -0.3538
5 -6 3 -0.0365 0.3193
5 -6 4 -0.1873 -0.3660
5 -6 5 0.3343 0.1912
5 -6 6 -0.4689 -0.0610
5 -6 7 0.4835 -0.4093
5 -6 8 0.1198 0.5917
5 -6 9 -0.3652 -0.1160
5 -6 10 0.1635 -0.0454
5 -6 11 -0.1617 0.1074
5 -6 12 -0.0729 -0.2245
5 -6 13 0.1968 -0.0960
5 -6 14 0.1468 0.1270
5 -6 15 -0.0552 0.1784
5 -5 -12 0.0144 0.1545
5 -5 -11 -0.3289 -0.0242
5 -5 -10 0.0529 -0.5362
5 -5 -9 0.6585 0.1353
5 -5 -8 -0.3118 0.5617
5 -5 -7 -0.1824 -0.5059
5 -5 -6 0.5217 0.3684
5 -5 -5 -0.7950 0.2145
5 -5 -4 0.3199 -0.8032
5 -5 -3 0.3449 0.7816
5 -5 -2 -0.9043 -0.3351
5 -5 -1 0.8732 -0.6362
5 -5 0 0.1509 0.9853
5 -5 1 -0.6037 -0.2362
5 -5 2 0.2371 0.0310
5 -5 3 -0.4565 -0.1503
5 -5 4 0.5497 -0.3575
5 -5 5 -0.1029 0.5323
5 -5 6 -0.0788 -0.4473
5 -5 7 0.4080 0.4091
5 -5 8 -0.5752 0.1537
5 -5 9 0.0172 -0.4389
5 -5 10 0.2282 0.0282
5 -5 11 0.0115 0.0749
5 -5 12 0.0172 0.0261
5 -5 13 -0.0182 0.0470
5 -5 14 -0.0126 0.0069
5 -5 15 -0.0383 0.0345
5 -5 16 -0.0440 -0.0328
5 -4 -14 -0.0174 0.0587
5 -4 -13 -0.0774 -0.0424
5 -4 -12 -0.0584 0.1010
5 -4 -11 -0.4022 -0.3504
5 -4 -10 0.7259 -0.6045
5 -4 -9 0.4941 0.9676
5 -4 -8 -0.8724 0.0173
5 -4 -7 0.6147 -0.3645
5 -4 -6 -0.3964 0.9923
5 -4 -5 -0.8000 -1.0262
5 -4 -4 1.1447 -0.0960
5 -4 -3 -0.7169 0.6540
5 -4 -2 0.1950 -1.1829
5 -4 -1 1.0721 0.9528
5 -4 0 -1.1924 0.5143
5 -4 1 0.0453 -0.7639
5 -4 2 -0.0190 0.1503
5 -4 5 -0.5888 0.0268
5 -4 6 0.2818 -0.1360
5 -4 7 -0.2931 0.2652
5 -4 8 -0.1391 -0.4257
5 -4 9 0.3526 -0.1143
5 -4 10 0.1599 0.2502
5 -4 11 -0.1575 0.1785
5 -4 12 -0.1761 -0.0732
5 -4 13 0.0483 -0.1763
5 -4 14 0.1433 0.0848
5 -4 15 -0.0925 0.0744
5 -4 16 -0.0382 -0.0301
5 -3 -15 0.0115 0.0999
5 -3 -14 -0.2816 -0.0476
5 -3 -13 0.1471 -0.2316
5 -3 -12 -0.1506 0.1180
5 -3 -11 0.1109 -0.6943
5 -3 -10 1.0791 0.4688
5 -3 -9 -0.8109 0.9954
5 -3 -8 -0.3308 -0.9366
5 -3 -7 0.6556 0.6394
5 -3 -6 -1.3187 -0.0027
5 -3 -5 0.6831 -1.2216
5 -3 -4 0.3818 0.9328
5 -3 -3 -0.5598 -0.6825
5 -3 -2 1.3628 0.2330
5 -3 -1 -0.9789 1.3422
5 -3 0 -0.7702 -1.2095
5 -3 1 0.7753 -0.1642
5 -3 2 -0.0030 0.0258
5 -3 3 0.4566 0.2520
5 -3 4 -0.4759 0.4233
5 -3 5 -0.1570 -0.3442
5 -3 6 0.0206 -0.0322
5 -3 7 0.0639 -0.1500
5 -3 8 0.1075 0.0406
5 -3 9 0.0856 0.0401
5 -3 10 -0.0412 0.1832
5 -3 11 -0.2086 -0.0499
5 -3 12 0.0534 -0.2376
5 -3 13 0.2729 0.1034
5 -3 14 -0.1569 0.2357
5 -3 15 -0.1372 -0.1087
5 -3 16 -0.0173 -0.0725
5 -2 -15 -0.2017 0.0327
5 -2 -14 0.0085 -0.4072
5 -2 -13 0.3696 0.1142
5 -2 -12 -0.1940 0.0185
5 -2 -11 0.5412 -0.1931
5 -2 -10 0.0218 1.0603
5 -2 -9 -1.1702 -0.3760
5 -2 -8 0.8102 -0.6299
5 -2 -7 -0.3178 0.9039
5 -2 -6 -0.5031 -1.0057
5 -2 -5 0.9118 0.0962
5 -2 -4 -0.4279 0.1156
5 -2 -3 0.8384 -0.2754
5 -2 -2 -0.2172 1.4071
5 -2 -1 -1.3715 -0.7019
5 -2 0 0.8482 -0.8991
5 -2 1 0.3954 0.5733
5 -2 2 -0.1368 0.1647
5 -2 3 -0.1385 0.1150
5 -2 4 -0.1393 -0.0428
5 -2 5 -0.1677 -0.1817
5 -2 6 0.3583 -0.2424
5 -2 7 0.0426 0.4795
5 -2 8 -0.3713 -0.2249
5 -2 9 0.3024 -0.1403
5 -2 10 -0.0266 0.1991
5 -2 11 -0.0690 -0.1273
5 -2 12 0.2395 0.0391
5 -2 13 -0.1333 0.3176
5 -2 14 -0.2808 -0.1419
5 -2 15 0.0217 -0.1816
5 -2 16 0.1146 -0.1039
5 -1 -16 -0.0093 -0.0433
5 -1 -15 -0.0618 -0.1876
5 -1 -14 0.3907 -0.1193
5 -1 -13 0.0949 0.4897
5 -1 -12 -0.3778 -0.0944
5 -1 -11 0.4063 0.0426
5 -1 -10 -0.6642 0.5385
5 -1 -9 -0.2336 -1.0648
5 -1 -8 0.8799 0.3198
5 -1 -7 -0.6404 0.2844
5 -1 -6 0.1382 -0.5147
5 -1 -5 0.1840 0.0286
5 -1 -4 0.4393 -0.0238
5 -1 -3 0.0210 0.8705
5 -1 -2 -1.0394 -0.1039
5 -1 -1 0.2524 -0.9417
5 -1 0 0.6852 0.3484
5 -1 1 -0.3666 0.4119
5 -1 2 -0.1866 -0.3730
5 -1 3 0.4026 0.0674
5 -1 4 -0.3942 0.3192
5 -1 5 0.0221 -0.6028
5 -1 6 0.4423 0.4823
5 -1 7 -0.7228 -0.0197
5 -1 8 0.4098 -0.6080
5 -1 9 0.3253 0.4770
5 -1 10 -0.3119 0.0808
5 -1 11 0.1055 -0.1160
5 -1 12 -0.0238 0.2529
5 -1 13 -0.3005 -0.0709
5 -1 14 -0.0177 -0.2354
5 0 -17 0.0119 -0.1037
5 0 -16 0.0461 0.0009
5 0 -15 0.1182 -0.0788
5 0 -14 0.2690 0.3305
5 0 -13 -0.6109 0.3524
5 0 -12 -0.0725 -0.7708
5 0 -11 0.5284 0.5138
5 0 -10 -0.9474 -0.0958
5 0 -9 0.6659 -0.8749
5 0 -8 0.4643 0.8216
5 0 -7 -0.7085 0.1148
5 0 -6 0.0623 -0.6942
5 0 -5 0.8254 0.2207
5 0 -4 -0.3918 0.8424
5 0 -3 -0.6285 -0.4316
5 0 -2 0.3095 -0.3542
5 0 -1 0.1994 0.1879
5 0 0 -0.2051 0.1670
5 0 1 -0.1657 -0.3606
5 0 2 0.5835 -0.0939
5 0 3 -0.1326 0.7390
5 0 4 -0.6247 -0.4545
5 0 5 0.6073 -0.1692
5 0 6 -0.3818 0.3770
5 0 7 0.1000 -0.6624
5 0 8 0.5653 0.4586
5 0 9 -0.5046 0.2818
5 0 10 -0.0158 -0.3404
5 0 11 0.1467 0.1632
5 0 12 -0.2285 0.0292
5 0 13 -0.0466 -0.1703
5 1 -17 0.0458 -0.0085
5 1 -16 0.0404 0.0545
5 1 -15 0.0785 0.1270
5 1 -14 -0.3375 0.3730
5 1 -13 -0.5432 -0.7058
5 1 -12 1.0047 -0.2455
5 1 -11 -0.4376 0.9095
5 1 -10 -0.4312 -1.0241
5 1 -9 1.1934 0.0814
5 1 -8 -0.4328 1.0521
5 1 -7 -0.7723 -0.7762
5 1 -6 1.1945 -0.3012
5 1 -5 -0.3766 1.4023
5 1 -4 -1.1040 -0.9673
5 1 -3 1.1333 -0.4433
5 1 -2 -0.1460 0.8937
5 1 -1 -0.5483 -0.4043
5 1 0 0.3702 -0.3236
5 1 1 0.2697 0.1902
5 1 2 -0.0210 0.3654
5 1 3 -0.5075 -0.0148
5 1 4 0.1789 -0.4874
5 1 5 0.1930 0.2951
5 1 6 -0.1526 -0.2012
5 1 7 0.4021 0.1788
5 1 8 -0.4364 0.3164
5 1 9 -0.0878 -0.4679
5 1 10 0.3281 0.1109
5 1 11 -0.1944 0.1485
5 1 12 -0.0410 -0.1460
5 2 -17 0.0921 -0.0023
5 2 -16 -0.0685 0.1852
5 2 -15 -0.2424 0.0539
5 2 -14 -0.3984 -0.3602
5 2 -13 0.6206 -0.6452
5 2 -12 0.4535 0.8630
5 2 -11 -0.8607 -0.1048
5 2 -10 0.6591 -0.6367
5 2 -9 0.3535 0.9944
5 2 -8 -1.1183 -0.0300
5 2 -7 0.6653 -0.9517
5 2 -6 0.3268 1.3765
5 2 -5 -1.6588 -0.6274
5 2 -4 1.4113 -1.2377
5 2 -3 0.3917 1.6207
5 2 -2 -1.2987 -0.3830
5 2 -1 0.8120 -0.7435
5 2 0 0.1945 0.8642
5 2 1 -0.6035 -0.1836
5 2 2 0.2519 -0.2062
5 2 3 -0.0555 0.0429
5 2 4 0.1794 -0.0556
5 2 5 -0.0389 0.1830
5 2 6 -0.0224 0.0065
5 2 7 -0.2008 0.0823
5 2 8 -0.0304 -0.3627
5 2 9 0.3631 0.0992
5 2 10 -0.1917 0.2265
5 3 -18 0.0561 -0.1125
5 3 -17 -0.0001 0.2427
5 3 -16 -0.3913 -0.1258
5 3 -15 0.0378 -0.3615
5 3 -14 0.2507 -0.3101
5 3 -13 0.6359 0.2169
5 3 -12 -0.2585 0.6426
5 3 -11 -0.3434 -0.3104
5 3 -10 0.3866 0.0621
5 3 -9 -0.4592 0.4334
5 3 -8 -0.2064 -0.7518
5 3 -7 0.6913 0.4305
5 3 -6 -1.1550 0.0866
5 3 -5 0.8338 -1.4060
5 3 -4 0.9615 1.5274
5 3 -3 -1.6368 0.1114
5 3 -2 0.7042 -1.2195
5 3 -1 0.5332 1.2057
5 3 0 -1.2655 -0.1653
5 3 1 0.6101 -0.8909
5 3 2 0.3149 0.6018
5 3 3 -0.2235 -0.1029
5 3 4 0.2013 0.1742
5 3 5 -0.3186 0.1415
5 3 6 -0.1458 -0.2501
5 3 7 0.1690 -0.2315
5 3 8 0.2681 0.1724
5 3 9 -0.2155 0.1862
5 3 10 -0.0420 -0.2350
5 4 -18 0.0571 0.1280
5 4 -17 -0.4149 -0.0897
5 4 -16 0.2491 -0.5664
5 4 -15 0.3853 0.2026
5 4 -14 0.1098 -0.0255
5 4 -13 0.4174 0.4775
5 4 -12 -0.6661 0.6147
5 4 -11 -0.5308 -0.6342
5 4 -10 0.4406 -0.1734
5 4 -9 -0.2329 0.1314
5 4 -8 0.1476 -0.3129
5 4 -7 -0.0711 0.1089
5 4 -6 0.3871 -0.5811
5 4 -5 0.7175 1.0757
5 4 -4 -1.4920 0.3143
5 4 -3 0.3820 -1.3967
5 4 -2 0.8945 1.0113
5 4 -1 -1.3161 0.2387
5 4 0 0.3132 -1.1726
5 4 1 0.6452 0.5361
5 4 2 -0.3581 0.0221
5 4 3 0.3754 0.0247
5 4 4 -0.2975 0.4672
5 4 5 -0.4148 -0.3299
5 4 6 0.2466 -0.3629
5 4 7 0.2967 0.2082
5 4 8 -0.2358 0.1585
5 4 9 0.0169 -0.2631
5 5 -18 -0.2237 -0.0829
5 5 -17 0.2221 -0.5343
5 5 -16 0.6289 0.3581
5 5 -15 -0.3320 0.3056
5 5 -14 0.3303 -0.1009
5 5 -13 -0.2034 0.9842
5 5 -12 -1.3663 -0.4464
5 5 -11 0.5950 -1.2863
5 5 -10 0.7575 0.6364
5 5 -9 -0.5560 0.0883
5 5 -8 0.2910 -0.4589
5 5 -7 0.5546 0.2238
5 5 -6 0.0183 0.8996
5 5 -5 -1.2541 0.0513
5 5 -4 0.2288 -1.3064
5 5 -3 0.9851 0.6190
5 5 -2 -0.8554 0.4796
5 5 -1 -0.0366 -0.7905
5 5 0 0.4297 0.1885
5 5 1 -0.1685 -0.0731
5 5 2 0.4862 -0.0145
5 5 3 -0.0876 0.6681
5 5 4 -0.6619 -0.0466
5 5 5 -0.0426 -0.5811
5 5 6 0.4543 -0.0305
5 5 7 -0.0995 0.2486
5 5 8 0.0026 -0.2333
5 6 -18 0.2016 -0.2853
5 6 -17 0.5285 0.2724
5 6 -16 -0.3150 0.5487
5 6 -15 -0.1859 -0.2754
5 6 -14 0.1629 0.4787
5 6 -13 -1.1874 0.0353
5 6 -12 0.1010 -1.6361
5 6 -11 1.5940 0.2830
5 6 -10 -0.4871 1.0578
5 6 -9 -0.3265 -0.6423
5 6 -8 0.7550 0.1996
5 6 -7 -0.3640 0.9017
5 6 -6 -1.0587 -0.3433
5 6 -5 0.3736 -1.0560
5 6 -4 0.7746 0.4764
5 6 -3 -0.4947 0.3253
5 6 -2 0.0382 -0.3131
5 6 -1 -0.0249 0.1520
5 6 0 -0.0597 -0.3691
5 6 1 0.5760 0.0547
5 6 2 -0.0204 0.6022
5 6 3 -0.5251 0.1798
5 6 4 -0.3825 -0.4517
5 6 5 0.3944 -0.3880
5 6 6 0.1624 0.2757
5 6 7 -0.0644 -0.1278
5 7 -17 -0.1548 0.3921
5 7 -16 -0.3742 -0.0706
5 7 -15 -0.0134 -0.0942
5 7 -14 -0.4090 -0.0279
5 7 -13 -0.0400 -0.9645
5 7 -12 1.3323 -0.0987
5 7 -11 0.0350 1.3105
5 7 -10 -0.8848 -0.1627
5 7 -9 0.4127 -0.2788
5 7 -8 -0.2184 0.6413
5 7 -7 -0.7983 -0.4918
5 7 -6 0.6202 -0.7952
5 7 -5 0.5424 0.6780
5 7 -4 -0.6086 0.0942
5 7 -3 0.3146 -0.3306
5 7 -2 -0.0977 0.4485
5 7 -1 -0.2823 -0.4788
5 7 0 0.6306 -0.0176
5 7 1 -0.0972 0.5253
5 7 2 -0.2998 0.0279
5 7 3 -0.2584 -0.1371
5 7 4 0.1120 -0.3569
5 7 5 0.2004 0.1421
5 8 -17 -0.2120 0.0806
5 8 -16 -0.2610 -0.1972
5 8 -15 0.0367 -0.4015
5 8 -14 0.3959 -0.2485
5 8 -13 0.5526 0.2273
5 8 -12 -0.0010 0.7291
5 8 -11 -0.6684 0.1336
5 8 -10 -0.0961 -0.3802
5 8 -9 -0.0067 0.0891
5 8 -8 -0.3264 -0.3543
5 8 -7 0.6115 -0.4799
5 8 -6 0.4180 0.7774
5 8 -5 -0.8071 0.1124
5 8 -4 0.2902 -0.6261
5 8 -3 0.2478 0.5512
5 8 -2 -0.5331 -0.1744
5 8 -1 0.4475 -0.3052
5 8 0 0.0602 0.4821
5 8 1 -0.3409 -0.0565
5 8 2 0.0438 -0.1738
5 8 3 0.1029 0.0144
5 8 4 -0.0804 0.1375
5 9 -16 0.0871 -0.4704
5 9 -15 0.6379 -0.0135
5 9 -14 0.1536 0.6737
5 9 -13 -0.5188 0.2402
5 9 -12 -0.2142 -0.2209
5 9 -11 -0.0771 -0.0866
5 9 -10 -0.0863 -0.2240
5 9 -9 0.1636 -0.2574
5 9 -8 0.4174 -0.0219
5 9 -7 0.1618 0.5639
5 9 -6 -0.6528 0.1225
5 9 -5 0.0830 -0.6115
5 9 -4 0.4204 0.3134
5 9 -3 -0.4338 0.1558
5 9 -2 0.0740 -0.4231
5 9 -1 0.3421 0.2209
5 9 0 -0.3052 0.2346
5 9 1 -0.0988 -0.3563
5 9 2 0.3814 0.0628
5 10 -15 0.0266 0.5663
5 10 -14 -0.6397 0.1099
5 10 -13 -0.0787 -0.5501
5 10 -12 0.2786 0.0597
5 10 -11 -0.2077 -0.0575
5 10 -10 0.2772 -0.2882
5 10 -9 0.3151 0.2879
5 10 -8 -0.1629 0.3443
5 10 -7 -0.3813 -0.0600
5 10 -6 0.0674 -0.3698
5 10 -5 0.2772 0.1433
5 10 -4 -0.2061 0.1571
5 10 -3 -0.0883 -0.2471
5 10 -2 0.3133 -0.0640
5 10 -1 -0.0067 0.3953
5 10 0 -0.3970 -0.1740
5 11 -14 -0.0204 -0.3649
5 11 -13 0.3333 0.0284
5 11 -12 -0.1491 0.1503
5 11 -11 0.0931 -0.2344
5 11 -10 0.2390 0.2425
5 11 -9 -0.2315 0.2152
5 11 -8 -0.2197 -0.1370
5 11 -7 0.0761 -0.2302
5 11 -6 0.1876 0.0793
5 11 -5 -0.0916 0.0987
5 11 -4 -0.0473 -0.0826
5 11 -3 0.1006 -0.0830
5 11 -2 0.1373 0.1909
5 12 -12 -0.0001 -0.1071
5 12 -11 0.0961 0.1027
5 12 -10 -0.1271 0.0564
5 12 -9 -0.0464 -0.0556
5 12 -8 -0.0370 -0.0889
5 12 -7 0.1345 -0.0747
5 12 -6 0.0558 0.1253
5 12 -5 -0.0720 0.0278
6 -12 3 -0.0303 -0.0923
6 -12 7 -0.0958 -0.2547
6 -12 8 0.2079 -0.0968
6 -11 0 -0.0394 0.0785
6 -11 1 -0.0108 -0.0558
6 -11 2 0.0183 -0.0045
6 -11 3 0.0713 -0.0285
6 -11 4 0.0685 0.1657
6 -11 5 -0.2351 0.1181
6 -11 6 -0.1864 -0.2536
6 -11 7 0.2232 -0.2468
6 -11 8 0.2533 0.1568
6 -11 9 -0.0675 0.1877
6 -10 -2 0.1419 -0.2363
6 -10 -1 0.0892 0.1910
6 -10 0 -0.1247 -0.0402
6 -10 1 0.0918 -0.0337
6 -10 2 0.0028 0.0858
6 -10 3 -0.0595 0.0411
6 -10 4 -0.0969 -0.0131
6 -10 5 -0.0777 -0.1188
6 -10 6 0.0986 -0.2080
6 -10 7 0.3141 0.0606
6 -10 8 -0.0152 0.3171
6 -10 9 -0.2110 0.0557
6 -10 10 -0.1511 -0.0896
6 -10 11 0.0537 -0.2135
6 -9 -4 -0.1852 0.2726
6 -9 -3 -0.0534 -0.2873
6 -9 -2 0.2480 0.1314
6 -9 -1 -0.1945 0.1458
6 -9 0 -0.0506 -0.1676
6 -9 1 0.1283 0.0296
6 -9 2 -0.1096 0.1166
6 -9 3 -0.1134 -0.1738
6 -9 4 0.1702 -0.0765
6 -9 5 -0.0018 0.0567
6 -9 6 0.1334 -0.0722
6 -9 7 0.0834 0.2794
6 -9 8 -0.2690 0.0601
6 -9 9 -0.0877 -0.1259
6 -9 10 0.0081 -0.1986
6 -9 11 0.3086 0.0443
6 -9 12 -0.1910 0.3077
6 -8 -6 0.2193 -0.3207
6 -8 -5 0.1333 0.2583
6 -8 -4 -0.1422 -0.0328
6 -8 -3 0.1248 -0.0011
6 -8 -2 -0.0757 0.1898
6 -8 -1 -0.2556 -0.1089
6 -8 0 0.1555 -0.2744
6 -8 1 0.1874 0.2254
6 -8 2 -0.2725 0.0033
6 -8 3 0.1891 -0.2340
6 -8 4 0.0866 0.2667
6 -8 5 -0.1583 -0.1023
6 -8 6 0.2021 0.0714
6 -8 7 -0.2393 0.1448
6 -8 8 -0.0198 -0.2064
6 -8 9 0.0315 0.0083
6 -8 10 0.1155 -0.0814
6 -8 11 0.0028 0.2755
6 -8 12 -0.3226 -0.1897
6 -7 -8 -0.1011 0.2931
6 -7 -7 -0.1501 -0.1482
6 -7 -6 0.1153 -0.0752
6 -7 -5 0.1027 0.1009
6 -7 -4 -0.1229 0.1162
6 -7 -3 -0.0307 -0.0758
6 -7 -2 -0.1153 0.0874
6 -7 -1 -0.1093 -0.3684
6 -7 0 0.5121 0.0092
6 -7 1 -0.1940 0.4368
6 -7 2 -0.1700 -0.3129
6 -7 3 0.2551 0.1400
6 -7 4 -0.2985 0.0183
6 -7 5 0.2456 -0.1994
6 -7 6 -0.0597 0.3308
6 -7 7 -0.1799 -0.2411
6 -7 8 0.1984 0.0459
6 -7 9 -0.1363 0.0218
6 -7 10 0.0795 -0.0463
6 -7 11 -0.0925 0.0077
6 -7 12 0.1470 -0.1398
6 -7 13 0.0789 0.2346
6 -6 -9 0.3015 0.1762
6 -6 -8 -0.0935 0.3626
6 -6 -7 -0.3916 -0.1081
6 -6 -6 0.2547 -0.2806
6 -6 -5 0.0039 0.3689
6 -6 -4 -0.2665 -0.2653
6 -6 -3 0.2948 0.0299
6 -6 -2 -0.3068 0.0352
6 -6 -1 0.3327 -0.3726
6 -6 0 0.2038 0.5625
6 -6 1 -0.5100 -0.0709
6 -6 3 -0.1790 0.1859
6 -6 4 0.1081 -0.3669
6 -6 5 0.2422 0.3996
6 -6 6 -0.4474 -0.0521
6 -6 7 0.2489 -0.2379
6 -6 8 -0.0245 0.2308
6 -6 9 -0.1106 -0.1550
6 -6 10 0.1495 -0.0540
6 -6 11 0.1021 0.1151
6 -6 12 -0.1240 0.1802
6 -6 13 -0.2089 -0.1646
6 -6 14 0.1850 -0.1703
6 -5 -11 0.1384 -0.0549
6 -5 -10 0.1730 -0.0951
6 -5 -9 0.3616 0.3630
6 -5 -8 -0.5875 0.4319
6 -5 -7 -0.1798 -0.6764
6 -5 -6 0.4620 0.2396
6 -5 -5 -0.4873 0.0008
6 -5 -4 0.4132 -0.3586
6 -5 -3 -0.0321 0.5044
6 -5 -2 -0.2504 -0.3876
6 -5 -1 0.4837 0.1402
6 -5 0 -0.4038 0.2916
6 -5 1 0.0367 -0.3696
6 -5 2 0.0540 0.2484
6 -5 3 -0.1598 -0.3142
6 -5 4 0.4476 0.1631
6 -5 5 -0.4429 0.2666
6 -5 6 0.0285 -0.4731
6 -5 7 0.3079 0.1978
6 -5 8 -0.2065 0.1319
6 -5 9 -0.0275 -0.1782
6 -5 10 0.1949 0.0482
6 -5 11 -0.1321 0.2372
6 -5 12 -0.2667 -0.2034
6 -5 13 0.2356 -0.2692
6 -5 14 0.2353 0.2190
6 -4 -12 0.3472 0.0775
6 -4 -11 -0.2105 0.0938
6 -4 -10 0.3568 -0.2436
6 -4 -9 0.0601 0.7301
6 -4 -8 -0.7313 -0.2749
6 -4 -7 0.5069 -0.3007
6 -4 -6 -0.2816 0.4075
6 -4 -5 -0.0169 -0.6080
6 -4 -4 0.4914 0.3786
6 -4 -3 -0.5108 0.0890
6 -4 -2 0.2798 -0.3350
6 -4 -1 0.0151 0.3779
6 -4 0 -0.1716 -0.2075
6 -4 1 0.1611 0.1600
6 -4 2 -0.3346 -0.1164
6 -4 3 0.3727 -0.2026
6 -4 4 -0.0996 0.3775
6 -4 5 -0.1716 -0.3088
6 -4 6 0.3367 0.0078
6 -4 7 -0.0357 0.3072
6 -4 8 -0.3164 -0.0083
6 -4 9 0.0445 -0.3060
6 -4 10 0.2084 0.1291
6 -4 11 -0.1990 0.0723
6 -4 12 0.0223 -0.2496
6 -4 13 0.2857 0.0661
6 -4 14 -0.0772 0.2704
6 -3 -13 0.4219 -0.1212
6 -3 -12 -0.1425 0.4665
6 -3 -11 -0.2419 -0.5108
6 -3 -10 0.7378 0.1558
6 -3 -9 -0.4809 0.6212
6 -3 -8 -0.1889 -0.4843
6 -3 -7 0.1254 0.2705
6 -3 -6 -0.4416 -0.3447
6 -3 -5 0.5816 -0.2668
6 -3 -4 -0.0350 0.4508
6 -3 -3 -0.1132 -0.2042
6 -3 -2 0.1501 0.1495
6 -3 -1 -0.1509 -0.0235
6 -3 0 0.1224 0.0874
6 -3 1 -0.3502 0.0313
6 -3 2 0.1524 -0.4002
6 -3 3 0.2157 0.2038
6 -3 4 -0.0518 0.0110
6 -3 5 0.0430 0.1042
6 -3 6 -0.0508 0.0308
6 -3 7 -0.1254 0.1559
6 -3 8 -0.2877 -0.3080
6 -3 9 0.4088 -0.2492
6 -3 10 0.1296 0.3655
6 -3 11 -0.2730 0.0095
6 -3 12 0.1106 -0.2017
6 -3 13 0.1308 0.2023
6 -3 14 -0.2002 0.0587
6 -3 15 -0.0296 -0.1201
6 -2 -15 -0.1747 0.0247
6 -2 -14 0.1739 -0.3173
6 -2 -13 0.2414 0.4110
6 -2 -12 -0.5686 -0.0891
6 -2 -11 0.5524 -0.5718
6 -2 -10 0.3968 0.8916
6 -2 -9 -0.8413 0.1293
6 -2 -8 0.0425 -0.3691
6 -2 -7 -0.2316 0.0065
6 -2 -6 0.1307 -0.5894
6 -2 -5 0.5884 0.1670
6 -2 -4 -0.0462 0.4057
6 -2 -3 -0.2710 0.0921
6 -2 -2 -0.0774 -0.2603
6 -2 -1 0.2858 0.1280
6 -2 0 -0.3893 0.2244
6 -2 1 -0.0762 -0.4927
6 -2 2 0.3449 -0.0095
6 -2 3 0.1711 0.1075
6 -2 4 -0.0409 0.4432
6 -2 5 -0.5142 -0.1812
6 -2 6 0.2891 -0.2469
6 -2 7 -0.1487 0.1737
6 -2 8 0.0735 -0.3839
6 -2 9 0.3952 0.2512
6 -2 10 -0.3098 0.2916
6 -2 11 -0.1465 -0.3138
6 -2 12 0.2737 0.0095
6 -2 13 -0.0999 0.1701
6 -2 14 -0.0631 -0.0743
6 -2 15 0.0110 -0.0271
6 -1 -15 -0.0705 -0.3044
6 -1 -14 0.4124 0.0725
6 -1 -13 -0.2918 0.3554
6 -1 -12 -0.1015 -0.5810
6 -1 -11 0.8321 0.3084
6 -1 -10 -0.6643 0.8494
6 -1 -9 -0.5737 -0.6770
6 -1 -8 0.2804 -0.1819
6 -1 -7 -0.1218 -0.2547
6 -1 -6 0.6038 -0.3091
6 -1 -5 0.4404 0.7042
6 -1 -4 -0.7165 0.4837
6 -1 -3 -0.3383 -0.7645
6 -1 -2 0.8104 0.0021
6 -1 -1 -0.3872 0.7434
6 -1 0 -0.5295 -0.5950
6 -1 1 0.4839 -0.2974
6 -1 2 0.2672 0.1368
6 -1 3 0.1493 0.5162
6 -1 4 -0.8228 0.1232
6 -1 5 0.1477 -0.8579
6 -1 6 0.5450 0.3595
6 -1 7 -0.3253 0.1207
6 -1 8 0.1628 -0.1283
6 -1 9 -0.0713 0.2558
6 -1 10 -0.2222 -0.2113
6 -1 11 0.2703 -0.1145
6 -1 12 0.0060 0.2112
6 -1 13 -0.0716 -0.0099
6 -1 14 -0.0548 0.0198
6 0 -14 0.0625 0.4056
6 0 -13 -0.4112 -0.1094
6 0 -12 0.4646 -0.2970
6 0 -11 0.0158 0.8420
6 0 -10 -0.9419 -0.2738
6 0 -9 0.3114 -0.6638
6 0 -8 0.1941 0.0544
6 0 -7 0.2752 -0.2528
6 0 -6 0.6052 0.5008
6 0 -5 -0.6823 0.8186
6 0 -4 -0.7788 -0.9387
6 0 -3 1.2217 -0.4329
6 0 -2 -0.0754 1.3529
6 0 -1 -1.2126 -0.4795
6 0 0 0.5668 -0.8516
6 0 1 0.4799 0.3000
6 0 2 0.1426 0.3437
6 0 3 -0.5166 0.4491
6 0 4 -0.4124 -0.7977
6 0 5 0.8951 -0.1188
6 0 6 -0.1582 0.7122
6 0 7 -0.3878 -0.2375
6 0 8 0.1372 -0.0974
6 0 9 -0.0770 -0.0369
6 0 10 0.1804 -0.1213
6 0 11 0.0763 0.1984
6 0 12 -0.0714 0.0458
6 0 13 -0.0964 0.0796
6 1 -15 0.1407 0.2537
6 1 -14 -0.2695 0.1752
6 1 -13 -0.0888 -0.3353
6 1 -12 0.3576 0.2184
6 1 -11 -0.5660 0.2502
6 1 -10 -0.1273 -0.6704
6 1 -9 0.4711 -0.1563
6 1 -8 0.3027 0.1220
6 1 -7 0.2559 0.4129
6 1 -6 -0.4954 0.6181
6 1 -5 -0.8446 -0.7174
6 1 -4 1.1200 -0.7645
6 1 -3 0.3736 1.5016
6 1 -2 -1.6146 -0.1043
6 1 -1 0.4068 -1.3733
6 1 0 0.8794 0.4051
6 1 1 -0.1256 0.3607
6 1 2 -0.0753 0.2750
6 1 3 -0.5568 -0.1433
6 1 4 0.4298 -0.5473
6 1 5 0.2904 0.6569
6 1 6 -0.6476 -0.0014
6 1 7 0.1441 -0.4294
6 1 8 0.1480 0.1015
6 1 9 0.0347 -0.0540
6 1 10 0.1163 0.1184
6 1 11 -0.0520 0.0969
6 2 -16 0.0446 0.1145
6 2 -15 -0.0328 0.0785
6 2 -14 -0.2169 0.0065
6 2 -13 0.0810 -0.2721
6 2 -12 0.1325 0.2088
6 2 -11 -0.3025 -0.0667
6 2 -10 0.1454 -0.4213
6 2 -9 0.5899 0.0952
6 2 -8 0.0198 0.6821
6 2 -7 -0.6235 0.2161
6 2 -6 -0.4856 -0.5799
6 2 -5 0.7696 -0.6567
6 2 -4 0.5424 1.1550
6 2 -3 -1.4634 0.1828
6 2 -2 0.1916 -1.4659
6 2 -1 1.1289 0.3937
6 2 0 -0.3769 0.5694
6 2 1 -0.0030 -0.1718
6 2 2 -0.1316 0.3104
6 2 3 -0.2288 -0.3628
6 2 4 0.3684 0.1246
6 2 5 -0.4478 0.1636
6 2 6 0.0723 -0.5177
6 2 7 0.3434 0.1658
6 2 8 -0.0924 0.0990
6 2 9 0.0482 0.0263
6 2 10 -0.0422 0.0655
6 3 -17 -0.0450 0.0308
6 3 -16 0.0372 -0.1528
6 3 -15 0.0823 0.2074
6 3 -14 -0.3160 -0.1629
6 3 -13 0.3857 -0.2680
6 3 -12 0.1027 0.4620
6 3 -11 -0.4439 -0.1489
6 3 -10 0.4852 -0.3898
6 3 -9 0.2838 0.7895
6 3 -8 -0.8675 0.1685
6 3 -7 -0.1712 -0.7155
6 3 -6 0.5925 -0.3016
6 3 -5 0.3689 0.7171
6 3 -4 -1.0040 0.2089
6 3 -3 0.1090 -1.1841
6 3 -2 1.0846 0.3883
6 3 -1 -0.5192 0.7142
6 3 0 -0.1958 -0.5006
6 3 1 0.3541 0.2687
6 3 2 -0.4523 0.1344
6 3 3 0.0322 -0.2690
6 3 4 -0.1119 0.0390
6 3 5 0.0726 -0.3959
6 3 6 0.4200 0.1457
6 3 7 -0.0762 0.2582
6 3 8 -0.0976 0.0830
6 4 -16 0.3401 0.0584
6 4 -15 -0.2489 0.2220
6 4 -14 0.0852 -0.4152
6 4 -13 0.4640 0.3966
6 4 -12 -0.6015 0.3649
6 4 -11 -0.0823 -0.6940
6 4 -10 0.6496 0.3498
6 4 -9 -0.7236 0.4466
6 4 -8 -0.1938 -0.8110
6 4 -7 0.6446 -0.0646
6 4 -6 0.0717 0.4997
6 4 -5 -0.5629 0.0445
6 4 -4 0.1319 -0.7360
6 4 -3 0.7981 0.3738
6 4 -2 -0.5341 0.6429
6 4 -1 -0.3196 -0.5683
6 4 0 0.5159 0.0425
6 4 1 -0.2823 0.4155
6 4 2 -0.3061 -0.2753
6 4 3 0.0474 -0.2398
6 4 4 0.2204 -0.2132
6 4 5 0.3178 0.1679
6 4 6 -0.0030 0.2432
6 4 7 -0.1165 0.2437
6 5 -14 0.1620 0.1482
6 5 -13 -0.3764 0.3192
6 5 -12 -0.3637 -0.5227
6 5 -11 0.5938 -0.1849
6 5 -10 -0.1949 0.5401
6 5 -9 -0.3295 -0.5465
6 5 -8 0.6413 -0.0640
6 5 -7 -0.1093 0.5071
6 5 -6 -0.3686 -0.1829
6 5 -5 0.2713 -0.3562
6 5 -4 0.3848 0.4162
6 5 -3 -0.5226 0.3174
6 5 -2 -0.1386 -0.5026
6 5 -1 0.3922 0.0545
6 5 0 -0.1538 0.2965
6 5 1 -0.2815 -0.1064
6 5 2 -0.0538 -0.3368
6 5 3 0.3886 -0.2092
6 5 4 0.2413 0.3324
6 5 5 -0.1076 0.1383
6 6 -12 0.3484 -0.1089
6 6 -11 0.0839 0.2834
6 6 -10 -0.1981 -0.1439
6 6 -9 0.3883 -0.0452
6 6 -8 -0.1394 0.4625
6 6 -7 -0.3728 -0.2896
6 6 -6 0.4118 -0.2509
6 6 -5 0.1529 0.5416
6 6 -4 -0.6317 0.0229
6 6 -3 0.1658 -0.5774
6 6 -2 0.3615 0.3261
6 6 -1 -0.3348 0.1104
6 6 0 0.0124 -0.1547
6 6 1 -0.1265 -0.0547
6 6 2 0.2268 -0.3484
6 6 3 0.3840 0.3329
6 6 4 -0.2401 0.2355
6 7 -11 0.0328 -0.1134
6 7 -10 0.1701 0.1625
6 7 -9 -0.2358 0.2643
6 7 -8 -0.2956 -0.2980
6 7 -7 0.3832 -0.2559
6 7 -6 0.1738 0.5149
6 7 -5 -0.6536 0.0348
6 7 -4 0.1784 -0.6839
6 7 -3 0.5166 0.3969
6 7 -2 -0.4843 0.2028
6 7 -1 0.0895 -0.3549
6 7 0 0.0563 0.2142
6 7 1 -0.1557 -0.2573
6 7 2 0.4249 -0.0247
6 8 -11 0.2387 0.2263
6 8 -10 -0.3769 0.1661
6 8 -9 -0.1309 -0.3695
6 8 -8 0.3109 -0.1296
6 8 -7 0.1435 0.3126
6 8 -6 -0.4038 0.1213
6 8 -5 -0.0155 -0.4989
6 8 -4 0.4760 0.1469
6 8 -3 -0.2639 0.3032
6 8 -2 -0.0692 -0.2511
6 8 -1 0.1177 0.1126
6 8 0 -0.2029 -0.0548
6 9 -11 -0.2814 0.1956
6 9 -10 -0.0612 -0.3951
6 9 -9 0.3139 0.0273
6 9 -8 -0.0192 0.1788
6 9 -7 -0.1263 0.0432
6 9 -6 -0.0705 -0.1652
6 9 -5 0.1960 -0.0354
6 9 -4 0.0062 0.1471
6 9 -3 -0.0592 0.0522
6 9 -2 -0.1429 -0.0133
6 10 -10 0.2749 0.0930
6 10 -9 -0.1416 0.1455
6 10 -8 -0.0068 -0.0768
6 10 -7 -0.0220 0.0329
6 10 -6 -0.0052 -0.0668
6 10 -5 0.0770 -0.0050
6 10 -4 0.0475 0.1435
6 11 -8 0.0078 0.1143
6 11 -7 -0.1025 -0.1013
6 11 -6 0.1299 -0.0506
7 -11 4 -0.0146 -0.0621
7 -11 5 0.0769 0.0316
7 -11 6 -0.0857 0.0851
7 -10 1 0.1233 0.1059
7 -10 2 -0.1088 0.0504
7 -10 3 0.0165 -0.0715
7 -10 4 0.0576 0.0642
7 -10 5 -0.1130 0.0866
7 -10 6 -0.1084 -0.1610
7 -10 7 0.1556 -0.0711
7 -9 -2 -0.1287 0.0866
7 -9 -1 0.0125 -0.2134
7 -9 0 0.2195 0.1164
7 -9 1 -0.1564 0.1469
7 -9 2 -0.0439 -0.1223
7 -9 3 0.0750 0.0385
7 -9 4 -0.0985 0.0835
7 -9 5 -0.1360 -0.1665
7 -9 6 0.2265 -0.1432
7 -9 7 0.0541 0.2011
7 -9 8 -0.0517 -0.0655
7 -9 9 0.1103 0.1378
7 -8 -4 0.1946 0.1634
7 -8 -3 -0.2580 0.1428
7 -8 -2 -0.0193 -0.3077
7 -8 -1 0.2938 0.0898
7 -8 0 -0.1285 0.2302
7 -8 1 -0.1431 -0.0939
7 -8 2 0.0347 -0.0659
7 -8 3 0.0100 0.0271
7 -8 4 -0.1019 -0.0595
7 -8 5 0.1729 -0.1854
7 -8 6 0.1627 0.2770
7 -8 7 -0.2632 0.0195
7 -8 8 0.1249 -0.1020
7 -8 9 -0.0971 0.1524
7 -8 10 -0.0761 -0.1978
7 -7 -6 -0.0026 -0.4031
7 -7 -5 0.4952 0.1484
7 -7 -4 -0.3209 0.3906
7 -7 -2 0.3050 0.0696
7 -7 -1 -0.1398 0.1660
7 -7 0 -0.0528 -0.0711
7 -7 1 -0.0510 -0.0052
7 -7 2 0.0168 -0.1217
7 -7 3 0.0711 0.0340
7 -7 4 0.0195 -0.0713
7 -7 5 0.1771 0.1580
7 -7 6 -0.2844 0.1401
7 -7 7 0.0033 -0.2787
7 -7 8 0.1343 0.1156
7 -7 9 -0.1151 -0.0377
7 -7 10 0.1394 -0.0478
7 -6 -7 -0.3796 -0.3370
7 -6 -6 0.5654 -0.2298
7 -6 -4 -0.2958 -0.2997
7 -6 -3 0.2976 0.0746
7 -6 -2 -0.2986 0.1040
7 -6 -1 0.1189 -0.2799
7 -6 0 0.0907 0.2393
7 -6 1 -0.2189 -0.1210
7 -6 2 0.2209 -0.1062
7 -6 3 0.0084 0.1603
7 -6 4 -0.0160 0.0166
7 -6 5 -0.1146 0.0748
7 -6 6 -0.0518 -0.1917
7 -6 7 0.1696 0.0218
7 -6 8 -0.0594 0.0793
7 -6 9 0.0046 -0.0558
7 -6 10 0.0631 0.0635
7 -6 11 -0.1312 0.1033
7 -5 -9 0.2549 0.2784
7 -5 -8 -0.4774 0.1923
7 -5 -7 0.0701 -0.5020
7 -5 -6 0.2612 0.2983
7 -5 -5 -0.2533 -0.0916
7 -5 -4 0.2915 0.0559
7 -5 -3 -0.3925 0.2156
7 -5 -2 0.0387 -0.5278
7 -5 -1 0.4080 0.2844
7 -5 0 -0.3908 0.1363
7 -5 1 0.1268 -0.3351
7 -5 2 0.1929 0.2586
7 -5 3 -0.2459 0.0790
7 -5 4 -0.0466 -0.1783
7 -5 5 0.1380 -0.0463
7 -5 6 0.0153 0.1147
7 -5 7 -0.0631 -0.0239
7 -5 8 0.0067 -0.0063
7 -5 9 0.0157 -0.0594
7 -5 10 0.0912 0.1053
7 -5 11 -0.2061 0.0339
7 -5 12 0.0807 -0.2454
7 -4 -10 0.2683 -0.0428
7 -4 -9 -0.0769 0.5052
7 -4 -7 0.2149 -0.2268
7 -4 -6 0.0103 0.0165
7 -4 -5 0.2180 0.0227
7 -4 -4 -0.2231 0.2905
7 -4 -3 -0.1508 -0.4097
7 -4 -2 0.4247 0.0905
7 -4 -1 -0.2852 0.2576
7 -4 0 -0.0100 -0.3506
7 -4 1 0.3030 0.1930
7 -4 2 -0.2927 0.2282
7 -4 3 -0.1877 -0.3325
7 -4 4 0.3772 -0.1435
7 -4 5 0.0239 0.3995
7 -4 6 -0.3123 -0.1329
7 -4 7 0.1837 -0.1234
7 -4 8 -0.0281 0.0598
7 -4 9 0.1326 -0.0316
7 -4 10 -0.0689 0.2349
7 -4 11 -0.1974 -0.1525
7 -4 12 0.1591 -0.0797
7 -3 -11 -0.0955 -0.0947
7 -3 -10 0.2150 0.2142
7 -3 -9 -0.4267 0.2141
7 -3 -8 -0.1347 -0.4121
7 -3 -7 0.2282 -0.0858
7 -3 -6 0.1055 0.0610
7 -3 -5 -0.0311 0.1183
7 -3 -4 -0.0422 -0.0920
7 -3 -3 0.1171 0.1082
7 -3 -2 -0.2436 0.0397
7 -3 -1 0.1023 -0.2891
7 -3 0 0.2484 0.2168
7 -3 1 -0.2485 0.2058
7 -3 2 -0.2444 -0.2473
7 -3 3 0.3218 -0.3279
7 -3 4 0.3048 0.4830
7 -3 5 -0.5804 0.0963
7 -3 6 0.1596 -0.4713
7 -3 7 0.2164 0.2430
7 -3 8 -0.1081 0.0150
7 -3 9 0.0343 0.0865
7 -3 10 -0.1840 0.0056
7 -3 11 0.0044 -0.1620
7 -3 12 0.0714 -0.0150
7 -2 -13 0.2290 0.3088
7 -2 -12 -0.2924 0.1573
7 -2 -11 0.0149 -0.1664
7 -2 -10 -0.0084 0.1970
7 -2 -9 -0.2765 -0.1405
7 -2 -8 0.1630 -0.2222
7 -2 -7 0.0953 0.1012
7 -2 -6 -0.0431 -0.0464
7 -2 -5 0.1973 -0.0265
7 -2 -4 0.0001 0.3484
7 -2 -3 -0.4406 -0.0935
7 -2 -2 0.2327 -0.4057
7 -2 -1 0.2443 0.3240
7 -2 0 -0.2860 0.0615
7 -2 1 -0.0134 -0.1457
7 -2 2 0.0567 -0.1659
7 -2 3 0.3837 0.1643
7 -2 4 -0.4213 0.4312
7 -2 5 -0.2292 -0.6050
7 -2 6 0.5623 0.0485
7 -2 7 -0.1851 0.3693
7 -2 8 -0.1956 -0.1516
7 -2 9 0.0664 -0.0957
7 -2 10 0.0211 0.0137
7 -2 11 -0.0018 -0.0432
7 -2 12 0.0699 -0.0345
7 -1 -14 0.1946 0.1431
7 -1 -13 -0.1546 0.2860
7 -1 -12 -0.2881 -0.1548
7 -1 -11 0.1610 -0.1565
7 -1 -10 -0.0393 0.1396
7 -1 -9 -0.0853 -0.1608
7 -1 -8 0.1429 -0.0307
7 -1 -7 -0.0171 0.0248
7 -1 -6 0.1402 -0.0736
7 -1 -5 0.1092 0.3230
7 -1 -4 -0.4669 0.0571
7 -1 -3 0.0944 -0.4752
7 -1 -2 0.2907 0.2560
7 -1 -1 -0.3008 -0.0221
7 -1 0 0.2833 -0.1732
7 -1 1 -0.0403 0.3061
7 -1 2 -0.0581 -0.1510
7 -1 3 0.0313 0.2746
7 -1 4 -0.4384 -0.2472
7 -1 5 0.4822 -0.3497
7 -1 6 0.1374 0.5524
7 -1 7 -0.4963 -0.0396
7 -1 8 0.1309 -0.3896
7 -1 9 0.2525 0.1496
7 -1 10 -0.1064 0.1070
7 -1 11 -0.0146 -0.0435
7 -1 12 0.0337 0.0070
7 0 -14 0.0605 0.1560
7 0 -13 -0.2905 0.1127
7 0 -12 -0.0557 -0.3539
7 0 -11 0.2666 0.0853
7 0 -10 -0.2043 0.0933
7 0 -9 0.0366 -0.2507
7 0 -8 0.2332 0.0749
7 0 -7 -0.0458 0.1513
7 0 -6 -0.0201 0.0419
7 0 -5 -0.1773 0.0768
7 0 -4 -0.0508 -0.2735
7 0 -3 0.2060 0.0806
7 0 -2 -0.1980 -0.0595
7 0 -1 0.4083 -0.1908
7 0 0 0.0476 0.6435
7 0 1 -0.6126 -0.1376
7 0 2 0.2287 -0.3192
7 0 3 -0.0659 0.1492
7 0 4 0.0559 -0.3296
7 0 5 0.3746 0.2718
7 0 6 -0.4141 0.2495
7 0 7 -0.0645 -0.4524
7 0 8 0.3796 0.0747
7 0 9 -0.0935 0.2280
7 0 10 -0.0901 -0.0010
7 0 11 -0.0918 -0.0389
7 0 12 0.0367 -0.0861
7 1 -14 -0.0226 0.2994
7 1 -13 -0.3572 -0.1842
7 1 -12 0.2984 -0.2291
7 1 -11 -0.0136 0.2870
7 1 -10 -0.2048 -0.2462
7 1 -9 0.4088 -0.1242
7 1 -8 0.0465 0.4688
7 1 -7 -0.3887 -0.0230
7 1 -6 0.0263 -0.2048
7 1 -5 0.0519 -0.0444
7 1 -4 0.0741 0.0302
7 1 -3 -0.0962 -0.0637
7 1 -2 0.3573 -0.1340
7 1 -1 0.0883 0.6623
7 1 0 -0.8203 -0.0129
7 1 1 0.1170 -0.7493
7 1 2 0.4720 0.1790
7 1 3 -0.1640 0.1081
7 1 4 0.1802 -0.0619
7 1 5 -0.0922 0.2790
7 1 6 -0.1889 -0.2228
7 1 7 0.2511 -0.0242
7 1 8 -0.0588 0.1605
7 1 9 -0.0345 0.0178
7 1 10 -0.1724 0.0161
7 1 11 0.0163 -0.2449
7 2 -15 0.2423 0.2195
7 2 -14 -0.3864 0.1781
7 2 -13 -0.0064 -0.4290
7 2 -12 0.2844 0.1573
7 2 -11 -0.2558 0.0321
7 2 -10 0.2362 -0.3063
7 2 -9 0.2925 0.4630
7 2 -8 -0.5640 0.1771
7 2 -7 -0.0204 -0.4687
7 2 -6 0.2454 0.0527
7 2 -5 -0.0303 0.0673
7 2 -4 -0.0228 -0.0494
7 2 -3 0.2176 -0.0426
7 2 -2 0.0346 0.4798
7 2 -1 -0.6935 -0.0009
7 2 0 0.0241 -0.7620
7 2 1 0.6621 0.0405
7 2 2 -0.0733 0.4183
7 2 3 -0.1121 -0.0983
7 2 4 0.0660 0.1209
7 2 5 -0.1705 -0.0172
7 2 6 0.0714 -0.0554
7 2 7 -0.0698 0.0275
7 2 8 0.0787 -0.0468
7 2 9 -0.1274 0.1299
7 3 -14 -0.2905 -0.2278
7 3 -13 0.2673 -0.1538
7 3 -12 -0.0022 0.1841
7 3 -11 -0.0212 -0.1524
7 3 -10 0.2697 0.1965
7 3 -9 -0.4199 0.2621
7 3 -8 -0.0857 -0.5223
7 3 -7 0.4158 0.1369
7 3 -6 -0.2374 0.1884
7 3 -5 -0.0159 -0.2125
7 3 -4 0.2086 0.0410
7 3 -3 -0.0567 0.3110
7 3 -2 -0.4516 -0.0832
7 3 -1 0.0843 -0.5210
7 3 0 0.4788 0.0351
7 3 1 0.0119 0.3374
7 3 2 -0.1252 0.0035
7 3 3 0.0365 0.0884
7 3 4 -0.1934 0.0519
7 3 5 -0.0457 -0.1300
7 3 6 -0.0236 -0.0748
7 3 7 0.1556 -0.0976
7 3 8 -0.0046 0.2136
7 4 -14 -0.0349 -0.1708
7 4 -13 0.1366 -0.0110
7 4 -12 0.0250 0.0996
7 4 -11 -0.0291 0.0825
7 4 -10 -0.2245 0.0386
7 4 -9 0.0160 -0.4184
7 4 -8 0.5211 0.2253
7 4 -7 -0.4423 0.4353
7 4 -6 -0.2347 -0.5064
7 4 -5 0.4336 -0.0580
7 4 -4 -0.0582 0.3580
7 4 -3 -0.3373 -0.1574
7 4 -2 0.2339 -0.3094
7 4 -1 0.2118 0.2280
7 4 0 -0.1373 0.0564
7 4 1 0.1093 -0.0456
7 4 2 0.0252 0.2415
7 4 3 -0.2905 0.0674
7 4 4 -0.1247 -0.2160
7 4 5 0.0474 -0.1771
7 4 6 0.2264 -0.0999
7 5 -13 0.1778 0.0096
7 5 -12 -0.1614 0.1912
7 5 -11 -0.2027 -0.2557
7 5 -10 0.2911 -0.2863
7 5 -9 0.4330 0.3669
7 5 -8 -0.5120 0.5223
7 5 -7 -0.4670 -0.6209
7 5 -6 0.6004 -0.3066
7 5 -5 0.1196 0.4922
7 5 -4 -0.3900 -0.0756
7 5 -3 0.2760 -0.3018
7 5 -2 0.1649 0.4183
7 5 -1 -0.4259 -0.0400
7 5 0 0.2488 -0.3117
7 5 1 0.1772 0.3747
7 5 2 -0.3677 0.1142
7 5 3 -0.1372 -0.2320
7 5 4 0.0266 -0.2008
7 5 5 0.2471 -0.1499
7 6 -13 0.0256 0.1443
7 6 -12 -0.2185 -0.2823
7 6 -11 0.5223 -0.2387
7 6 -10 0.2663 0.6360
7 6 -9 -0.6724 0.3207
7 6 -8 -0.3484 -0.6666
7 6 -7 0.5996 -0.3073
7 6 -6 0.2093 0.4794
7 6 -5 -0.3713 0.0677
7 6 -4 0.1250 -0.3124
7 6 -3 0.2520 0.3394
7 6 -2 -0.4845 0.1217
7 6 -1 0.0678 -0.4862
7 6 0 0.3672 0.2255
7 6 1 -0.2602 0.2240
7 6 2 -0.1411 -0.1486
7 6 3 -0.0485 -0.1343
7 7 -11 0.2208 0.7788
7 7 -10 -0.9260 0.1795
7 7 -9 -0.1074 -0.8984
7 7 -8 0.7321 -0.0400
7 7 -7 -0.0003 0.4942
7 7 -6 -0.2830 -0.0178
7 7 -5 0.0549 -0.1759
7 7 -4 0.1624 0.1467
7 7 -3 -0.2621 0.1628
7 7 -2 -0.1219 -0.3254
7 7 -1 0.2987 -0.0609
7 7 0 0.0391 0.2171
7 7 1 -0.1415 0.0882
7 8 -10 -0.1063 -1.0279
7 8 -9 0.9535 0.0635
7 8 -8 -0.1978 0.6910
7 8 -7 -0.3642 -0.2329
7 8 -6 0.1922 -0.1141
7 8 -5 0.0038 0.1490
7 8 -4 -0.1400 -0.0039
7 8 -3 -0.0279 -0.1336
7 8 -2 0.0934 -0.0831
7 8 -1 0.1744 0.0396
7 8 0 -0.0209 0.2844
7 9 -8 -0.5096 -0.2577
7 9 -7 0.2631 -0.2172
7 9 -6 0.0219 0.2059
7 9 -5 -0.1595 -0.0581
7 9 -4 0.0742 -0.1298
7 9 -3 0.0727 0.0505
7 9 -2 0.0378 -0.0163
7 10 -6 -0.0700 -0.0002
7 10 -5 0.0195 -0.0648
7 10 -4 0.0772 0.0330
8 -9 2 0.2097 -0.2332
8 -9 3 0.1286 0.2127
8 -9 4 -0.1576 0.0443
8 -8 0 -0.2745 0.0483
8 -8 1 0.0449 -0.2860
8 -8 2 0.2326 0.1020
8 -8 3 -0.1019 0.1553
8 -8 4 -0.0870 -0.0822
8 -8 5 0.0829 -0.0164
8 -8 6 -0.0691 0.0918
8 -7 -2 0.1968 0.0244
8 -7 -1 -0.0615 0.1300
8 -7 0 -0.0756 -0.0672
8 -7 1 0.0518 -0.0435
8 -7 2 0.0391 0.0312
8 -7 3 -0.0210 0.0424
8 -7 4 -0.0228 -0.0110
8 -7 5 -0.0228 0.0140
8 -7 6 -0.0288 -0.0705
8 -7 7 0.0895 -0.0083
8 -6 -3 0.1789 -0.1127
8 -6 -2 0.0651 0.0950
8 -6 -1 -0.0351 0.0944
8 -6 0 -0.1502 -0.0200
8 -6 1 0.0416 -0.1878
8 -6 2 0.1830 0.0753
8 -6 3 -0.0922 0.1438
8 -6 4 -0.1034 -0.0895
8 -6 5 0.0970 -0.0808
8 -6 6 0.0592 0.1318
8 -6 7 -0.1620 0.0252
8 -6 8 -0.0043 -0.1451
8 -5 -5 -0.3233 -0.0777
8 -5 -4 0.1229 -0.1701
8 -5 -3 0.0677 0.0950
8 -5 -2 -0.0472 0.0654
8 -5 -1 -0.1296 -0.0179
8 -5 0 0.0126 -0.2021
8 -5 1 0.2413 0.0219
8 -5 2 -0.0378 0.2376
8 -5 3 -0.2095 -0.0684
8 -5 4 0.1374 -0.1738
8 -5 5 0.1225 0.2430
8 -5 6 -0.3246 0.0530
8 -5 7 -0.0085 -0.3091
8 -5 8 0.1960 -0.0455
8 -4 -7 0.0932 0.2709
8 -4 -6 -0.2619 0.0185
8 -4 -5 0.0624 -0.1740
8 -4 -4 0.0881 0.1075
8 -4 -3 -0.1278 0.0661
8 -4 -2 -0.0975 -0.1413
8 -4 -1 0.1393 -0.1336
8 -4 0 0.1421 0.1041
8 -4 1 -0.0401 0.1286
8 -4 2 -0.1241 0.0102
8 -4 3 0.0208 -0.1437
8 -4 4 0.1525 0.1618
8 -4 5 -0.3366 0.1026
8 -4 6 -0.0167 -0.4016
8 -4 7 0.2874 0.0091
8 -4 8 0.0818 0.0754
8 -4 9 0.0909 0.2264
8 -3 -8 0.0378 0.1835
8 -3 -7 -0.1808 -0.0006
8 -3 -6 0.0383 -0.1469
8 -3 -5 0.1202 0.0591
8 -3 -4 -0.0829 0.1430
8 -3 -3 -0.1993 -0.1379
8 -3 -2 0.2116 -0.2237
8 -3 -1 0.1669 0.2496
8 -3 0 -0.2033 0.0438
8 -3 1 0.0705 -0.0830
8 -3 2 -0.0227 0.0996
8 -3 3 -0.0459 -0.0025
8 -3 4 -0.1577 -0.0007
8 -3 5 0.0370 -0.3218
8 -3 6 0.3240 0.1068
8 -3 7 -0.0980 0.1480
8 -3 8 0.0632 0.0130
8 -3 9 -0.1315 0.1718
8 -2 -10 0.0868 -0.1753
8 -2 -9 0.0665 0.1114
8 -2 -8 -0.1207 -0.0324
8 -2 -7 0.0729 -0.1114
8 -2 -6 0.1081 0.0403
8 -2 -5 0.0258 0.1523
8 -2 -4 -0.2480 0.0471
8 -2 -3 0.0278 -0.3312
8 -2 -2 0.3145 0.1685
8 -2 -1 -0.2800 0.1645
8 -2 0 0.0604 -0.2773
8 -2 1 0.1632 0.2424
8 -2 2 -0.2960 0.0432
8 -2 3 -0.0355 -0.2486
8 -2 4 0.2069 -0.1384
8 -2 5 0.2193 0.2236
8 -2 6 -0.2357 0.1683
8 -2 7 -0.0282 -0.1687
8 -2 8 0.0534 0.0733
8 -2 9 -0.0789 -0.0222
8 -1 -11 -0.1054 -0.2986
8 -1 -10 0.1507 -0.0455
8 -1 -9 -0.0258 -0.0333
8 -1 -8 0.1495 -0.0799
8 -1 -7 0.1063 0.1393
8 -1 -6 -0.0137 0.1295
8 -1 -5 -0.1896 0.1377
8 -1 -4 -0.1929 -0.2827
8 -1 -3 0.3413 -0.0925
8 -1 -2 -0.1053 0.2925
8 -1 -1 -0.1299 -0.2697
8 -1 0 0.3010 0.0753
8 -1 1 -0.2292 0.2066
8 -1 2 -0.0868 -0.2910
8 -1 3 0.2993 -0.0327
8 -1 4 0.0365 0.3090
8 -1 5 -0.3105 0.0237
8 -1 6 0.0318 -0.2506
8 -1 7 0.1312 0.0740
8 -1 8 -0.0565 0.0281
8 -1 9 0.0107 -0.0055
8 0 -12 -0.2491 -0.2909
8 0 -11 0.1760 -0.2007
8 0 -10 0.0776 -0.0357
8 0 -9 0.2221 -0.0643
8 0 -8 0.1652 0.2871
8 0 -7 -0.1930 0.1919
8 0 -6 -0.1762 0.0179
8 0 -5 -0.2177 -0.1806
8 0 -4 0.2166 -0.2691
8 0 -3 0.1435 0.2327
8 0 -2 -0.1870 -0.0514
8 0 -1 0.1724 -0.0985
8 0 0 0.0135 0.1580
8 0 1 -0.0528 -0.0535
8 0 2 0.1266 0.0595
8 0 3 -0.1343 0.2209
8 0 4 -0.2996 -0.1813
8 0 5 0.2144 -0.2991
8 0 6 0.2084 0.2163
8 0 7 -0.1731 0.0989
8 0 8 -0.0433 -0.1149
8 0 9 0.0785 -0.0306
8 1 -12 0.1301 -0.2730
8 1 -11 0.1621 -0.0349
8 1 -10 0.2272 -0.0265
8 1 -9 0.2087 0.3508
8 1 -8 -0.3436 0.2882
8 1 -7 -0.2320 -0.1848
8 1 -6 -0.0657 -0.1148
8 1 -5 0.0382 -0.2606
8 1 -4 0.2785 0.0207
8 1 -3 -0.0142 0.1505
8 1 -2 -0.0282 -0.0030
8 1 -1 0.0198 -0.0234
8 1 0 0.1176 0.0651
8 1 1 -0.0722 0.2231
8 1 2 -0.2875 0.0170
8 1 3 -0.1663 -0.3158
8 1 4 0.3195 -0.2701
8 1 5 0.2667 0.2869
8 1 6 -0.2163 0.2027
8 1 7 -0.1661 -0.1502
8 1 8 0.1328 -0.1722
8 1 9 0.1598 0.1381
8 2 -12 0.2387 -0.0828
8 2 -11 0.2132 0.1099
8 2 -10 0.0876 0.3211
8 2 -9 -0.3707 0.2437
8 2 -8 -0.2419 -0.3263
8 2 -7 0.1583 -0.0785
8 2 -6 -0.1168 -0.0766
8 2 -5 0.2315 -0.2237
8 2 -4 0.2431 0.2177
8 2 -3 -0.1159 0.2315
8 2 -2 -0.1868 -0.0805
8 2 -1 0.1599 -0.0772
8 2 0 -0.0541 0.2681
8 2 1 -0.3147 -0.0976
8 2 2 0.0083 -0.2963
8 2 3 0.2520 -0.1289
8 2 4 0.1975 0.1902
8 2 5 -0.1006 0.1822
8 2 6 -0.1653 -0.0150
8 2 7 -0.0042 -0.1990
8 2 8 0.2335 0.0449
8 2 9 -0.0710 0.1989
8 3 -11 -0.1655 0.3521
8 3 -10 -0.3681 -0.0228
8 3 -9 -0.0798 -0.3576
8 3 -8 0.2955 -0.0289
8 3 -7 -0.1519 0.1388
8 3 -6 0.0614 -0.3194
8 3 -5 0.3783 0.1722
8 3 -4 -0.1399 0.3591
8 3 -3 -0.3117 -0.0647
8 3 -2 0.0671 -0.2150
8 3 -1 0.0483 0.1381
8 3 0 -0.1770 -0.1131
8 3 1 0.1563 -0.1357
8 3 2 0.0578 0.0715
8 3 3 0.0326 -0.0066
8 3 4 0.0590 0.0627
8 3 5 -0.0407 0.1088
8 3 6 -0.1232 -0.0451
8 3 7 0.0895 -0.0706
8 4 -11 -0.4614 -0.2954
8 4 -10 0.2291 -0.3957
8 4 -9 0.3011 0.1564
8 4 -8 -0.1701 0.1727
8 4 -7 0.0097 -0.2493
8 4 -6 0.2962 0.1819
8 4 -5 -0.2348 0.2735
8 4 -4 -0.2258 -0.1579
8 4 -3 0.0611 -0.1721
8 4 -2 0.0691 0.0309
8 4 -1 -0.0342 -0.0905
8 4 0 0.2184 0.0063
8 4 1 -0.0959 0.2220
8 4 2 -0.1210 -0.1717
8 4 3 0.1895 -0.0230
8 4 4 -0.0003 0.1589
8 4 5 -0.1018 0.0271
8 4 6 -0.0461 -0.0250
8 5 -10 0.3546 0.4065
8 5 -9 -0.3488 0.1397
8 5 -8 0.1061 -0.2879
8 5 -7 0.2243 0.3388
8 5 -6 -0.4666 0.1336
8 5 -5 -0.0397 -0.4180
8 5 -4 0.2398 0.0126
8 5 -3 -0.0361 0.0618
8 5 -2 0.0396 -0.0862
8 5 -1 0.1655 0.0936
8 5 0 -0.1546 0.2031
8 5 1 -0.1453 -0.2194
8 5 2 0.2415 -0.0281
8 5 3 -0.0606 0.1912
8 5 4 -0.0812 -0.0692
8 6 -8 0.3523 0.3765
8 6 -7 -0.6224 0.1898
8 6 -6 -0.0014 -0.6790
8 6 -5 0.5197 0.1464
8 6 -4 -0.2071 0.2420
8 6 -3 0.0100 -0.2005
8 6 -2 0.1752 0.1604
8 6 -1 -0.2250 0.1413
8 6 0 -0.0741 -0.2450
8 6 1 0.2342 0.0278
8 6 2 -0.1210 0.1825
8 7 -7 -0.1402 -0.6450
8 7 -6 0.6413 0.0738
8 7 -5 -0.2387 0.4441
8 7 -4 -0.1633 -0.3087
8 7 -3 0.2930 0.0773
8 7 -2 -0.2172 0.2203
8 7 -1 -0.1089 -0.2588
8 7 0 0.2268 0.0188
8 7 1 -0.1206 0.1470
8 8 -3 -0.0514 0.2554
8 8 -2 -0.1873 -0.1335
8 8 -1 0.1462 -0.0784
9 -6 -3 -0.0385 -0.1180
9 -6 -2 0.1201 -0.0108
9 -6 -1 -0.0441 0.0871
9 -6 0 -0.0346 -0.0936
9 -6 1 0.1042 0.0165
9 -5 -4 -0.0989 -0.1754
9 -5 -3 0.1964 -0.0894
9 -5 -2 0.0352 0.1839
9 -5 -1 -0.1388 -0.0324
9 -5 0 0.0756 -0.0789
9 -5 1 0.0219 0.0684
9 -5 2 -0.0101 -0.0192
9 -5 3 0.0381 0.0685
9 -4 -6 -0.0895 0.1191
9 -4 -5 -0.1668 -0.1330
9 -4 -4 0.1817 -0.1585
9 -4 -3 0.0876 0.2059
9 -4 -2 -0.1820 -0.0092
9 -4 -1 0.0771 -0.1176
9 -4 0 0.0445 0.0819
9 -4 1 -0.0308 -0.0054
9 -4 2 0.0201 0.0350
9 -4 3 -0.0756 0.0131
9 -3 -8 0.0247 0.0077
9 -3 -7 0.0039 0.0952
9 -3 -6 -0.1577 -0.0189
9 -3 -5 0.0849 -0.1736
9 -3 -4 0.1119 0.1648
9 -3 -3 -0.2025 -0.0114
9 -3 -2 0.1307 -0.1617
9 -3 -1 0.0591 0.1755
9 -3 0 -0.1230 -0.0471
9 -3 1 0.0994 -0.0168
9 -3 2 -0.0705 0.0845
9 -3 3 -0.0356 -0.1086
9 -3 4 0.1427 0.0177
9 -2 -8 0.0559 -0.0056
9 -2 -7 -0.0550 0.0675
9 -2 -6 -0.0223 -0.1153
9 -2 -5 0.1245 0.0778
9 -2 -4 -0.1810 0.0481
9 -2 -3 0.0879 -0.2134
9 -2 -2 0.1392 0.2031
9 -2 -1 -0.2231 -0.0073
9 -2 0 0.1446 -0.1383
9 -2 1 0.0103 0.2044
9 -2 2 -0.1786 -0.0890
9 -2 3 0.1519 -0.1044
9 -2 4 0.0039 0.2342
9 -1 -8 0.1001 0.0893
9 -1 -7 -0.0843 0.0102
9 -1 -6 0.0923 -0.0237
9 -1 -5 -0.0806 0.1331
9 -1 -4 -0.0705 -0.1668
9 -1 -3 0.1664 0.0564
9 -1 -2 -0.1555 0.0659
9 -1 -1 0.0796 -0.1616
9 -1 0 0.0862 0.1944
9 -1 1 -0.2379 -0.0086
9 -1 2 0.0818 -0.2161
9 -1 3 0.1445 0.1522
9 -1 4 -0.2552 0.0160
9 0 -8 -0.0568 0.1705
9 0 -7 -0.0232 -0.0604
9 0 -6 0.0218 0.1282
9 0 -5 -0.1844 -0.0476
9 0 -4 0.0869 -0.1153
9 0 -3 -0.0045 0.0494
9 0 -2 0.0422 -0.0721
9 0 -1 0.0555 0.1244
9 0 0 -0.1630 0.0041
9 0 1 0.0276 -0.1712
9 0 2 0.1625 0.0432
9 0 3 -0.0834 0.1109
9 0 4 0.0197 -0.1559
9 1 -7 -0.0068 0.0316
9 1 -6 -0.1709 -0.0132
9 1 -5 0.0438 -0.1764
9 1 -4 0.0614 0.0373
9 1 -3 0.0252 -0.0524
9 1 -2 0.0692 0.0862
9 1 -1 -0.0907 0.0156
9 1 0 0.0168 -0.0591
9 1 1 0.0476 -0.0086
9 1 2 0.0457 0.0566
9 1 3 -0.0220 0.0446
9 1 4 -0.0171 0.0926
9 2 -6 0.1303 -0.1682
9 2 -5 0.0720 0.1423
9 2 -4 -0.1008 -0.1009
9 2 -3 0.1993 -0.0207
9 2 -2 -0.0140 0.1648
9 2 -1 -0.0846 0.0316
9 2 0 -0.0935 -0.0669
9 2 1 0.1162 -0.1027
9 2 2 0.0827 0.1601
9 2 3 -0.1588 0.1091
9 3 -5 -0.2911 -0.0834
9 3 -4 0.2877 -0.2150
9 3 -3 0.1224 0.3570
9 3 -2 -0.2839 0.1101
9 3 -1 -0.1846 -0.1891
9 3 0 0.1652 -0.2561
9 3 1 0.2611 0.1869
0 0 0 0.0 0.0
;
_shelx_fab_checksum              78635
_olex2_submission_special_instructions 'No special instructions were received'
loop_
_space_group_symop_operation_xyz
'x, y, z'
loop_
_atom_site_label
_atom_site_type_symbol
_atom_site_fract_x
_atom_site_fract_y
_atom_site_fract_z
_atom_site_U_iso_or_equiv
_atom_site_adp_type
_atom_site_occupancy
_atom_site_site_symmetry_order
_atom_site_calc_flag
_atom_site_refinement_flags_posn
_atom_site_refinement_flags_adp
_atom_site_refinement_flags_occupancy
_atom_site_disorder_assembly
_atom_site_disorder_group
Cd1 Cd 0.86338(2) 0.71597(2) 0.62848(2) 0.02241(5) Uani 1 1 d . . . . .
P1 P 0.68837(12) 0.36746(8) 0.54780(6) 0.02801(15) Uani 1 1 d . . . . .
O1 O 1.0968(4) 0.9077(3) 0.6702(2) 0.0317(6) Uani 1 1 d . . . . .
H1A H 1.0392 0.9879 0.6790 0.048 Uiso 1 1 d R U . . .
H1B H 1.1709 0.9000 0.6180 0.048 Uiso 1 1 d R U . . .
O2 O 0.6435(5) 0.8870(3) 0.6638(3) 0.0401(7) Uani 1 1 d . . . . .
H2A H 0.5646 0.8847 0.6059 0.060 Uiso 1 1 d R U . . .
H2B H 0.5462 0.8766 0.7058 0.060 Uiso 1 1 d R U . . .
O3 O 1.1270(5) 0.5722(3) 0.6152(3) 0.0396(7) Uani 1 1 d . . . . .
H3A H 1.0942 0.5033 0.6331 0.059 Uiso 1 1 d R U . . .
H3B H 1.2213 0.6166 0.6590 0.059 Uiso 1 1 d R U . . .
O4 O 0.6666(4) 0.5206(3) 0.5641(2) 0.0309(6) Uani 1 1 d . . . . .
O5 O 0.9010(4) 0.3340(3) 0.5537(3) 0.0477(7) Uani 1 1 d . . . . .
O6 O 0.5713(6) 0.2696(3) 0.4527(3) 0.0570(9) Uani 1 1 d . . . . .
O7 O 0.5903(4) 0.3526(3) 0.6445(2) 0.0376(5) Uani 1 1 d . . . . .
O8 O 0.1128(4) 0.1606(3) 0.6208(2) 0.0386(6) Uani 1 1 d . . . . .
H8 H 0.0339 0.1961 0.5928 0.058 Uiso 1 1 calc R U . . .
O9 O 0.0564(5) 0.1852(3) 0.8146(3) 0.0493(8) Uani 1 1 d . . . . .
H9 H 0.0041 0.2054 0.8688 0.074 Uiso 1 1 calc R U . . .
O10 O 0.4814(3) 0.3176(3) 0.82749(18) 0.0336(5) Uani 1 1 d . . . . .
N1 N 0.8668(6) 0.7104(4) 0.4599(3) 0.0310(8) Uani 1 1 d . . . . .
N2 N 0.8633(6) 0.7444(4) -0.2008(3) 0.0279(7) Uani 1 1 d . . . . .
N3 N 0.3343(4) 0.5244(3) 0.9165(2) 0.0302(5) Uani 1 1 d . . . . .
N4 N 0.3690(4) 0.7414(3) 0.9156(2) 0.0343(6) Uani 1 1 d . . . . .
N5 N 0.3523(5) 0.5788(3) 1.1011(3) 0.0347(7) Uani 1 1 d . . . . .
N6 N 0.3978(5) 0.8261(4) 1.1965(3) 0.0419(8) Uani 1 1 d . . . . .
N7 N 0.4320(7) 0.9908(4) 1.1209(3) 0.0587(9) Uani 1 1 d D U . . .
H7A H 0.4477 1.0553 1.1807 0.070 Uiso 1 1 calc R U . . .
H7B H 0.4352 1.0123 1.0671 0.070 Uiso 1 1 calc DR U . . .
C1 C 0.8591(7) 0.8237(5) 0.4360(4) 0.0351(10) Uani 1 1 d . . . . .
H1 H 0.8485 0.9091 0.4886 0.042 Uiso 1 1 calc R U . . .
C2 C 0.8659(8) 0.8226(5) 0.3373(4) 0.0382(10) Uani 1 1 d . . . . .
H2 H 0.8666 0.9055 0.3247 0.046 Uiso 1 1 calc R U . . .
C3 C 0.8716(7) 0.6943(5) 0.2573(3) 0.0318(9) Uani 1 1 d . . . . .
C4 C 0.8702(9) 0.5775(5) 0.2820(4) 0.0457(12) Uani 1 1 d . . . . .
H4 H 0.8689 0.4898 0.2303 0.055 Uiso 1 1 calc R U . . .
C5 C 0.8707(8) 0.5880(5) 0.3841(3) 0.0381(11) Uani 1 1 d . . . . .
H5 H 0.8739 0.5070 0.3992 0.046 Uiso 1 1 calc R U . . .
C6 C 0.8709(7) 0.6812(5) 0.1497(3) 0.0345(9) Uani 1 1 d . . . . .
H6 H 0.8613 0.5910 0.1009 0.041 Uiso 1 1 calc R U . . .
C7 C 0.8826(6) 0.7852(5) 0.1156(3) 0.0320(9) Uani 1 1 d . . . . .
H7 H 0.8961 0.8758 0.1638 0.038 Uiso 1 1 calc R U . . .
C8 C 0.8758(6) 0.7676(5) 0.0059(3) 0.0282(8) Uani 1 1 d . . . . .
C9 C 0.8946(7) 0.8855(5) -0.0215(3) 0.0357(9) Uani 1 1 d . . . . .
H9A H 0.9097 0.9744 0.0290 0.043 Uiso 1 1 calc R U . . .
C10 C 0.8907(7) 0.8700(5) -0.1237(4) 0.0348(9) Uani 1 1 d . . . . .
H10 H 0.9078 0.9497 -0.1401 0.042 Uiso 1 1 calc R U . . .
C11 C 0.8456(7) 0.6398(5) -0.0732(3) 0.0328(9) Uani 1 1 d . . . . .
H11 H 0.8327 0.5585 -0.0587 0.039 Uiso 1 1 calc R U . . .
C12 C 0.8342(7) 0.6316(5) -0.1746(3) 0.0327(9) Uani 1 1 d . . . . .
H12 H 0.8054 0.5448 -0.2263 0.039 Uiso 1 1 calc R U . . .
C13 C 0.5772(5) 0.2196(3) 0.6555(3) 0.0298(6) Uani 1 1 d . . . . .
H13A H 0.7021 0.2016 0.6830 0.036 Uiso 1 1 calc R U . . .
H13B H 0.5448 0.1464 0.5892 0.036 Uiso 1 1 calc R U . . .
C14 C 0.4214(4) 0.2195(3) 0.7266(2) 0.0244(5) Uani 1 1 d D . . . .
H14 H 0.4042 0.1257 0.7294 0.029 Uiso 1 1 calc DR U . . .
C15 C 0.1331(5) 0.3080(3) 0.8042(3) 0.0353(7) Uani 1 1 d . . . . .
H15 H 0.0333 0.3760 0.8106 0.042 Uiso 1 1 calc R U . . .
C16 C 0.3130(5) 0.3714(3) 0.8801(3) 0.0318(6) Uani 1 1 d . . . . .
H16 H 0.3054 0.3416 0.9389 0.038 Uiso 1 1 calc R U . . .
C17 C 0.3454(5) 0.6088(4) 0.8603(3) 0.0347(7) Uani 1 1 d . . . . .
H17 H 0.3369 0.5745 0.7891 0.042 Uiso 1 1 calc R U . . .
C18 C 0.3762(5) 0.7463(3) 1.0154(3) 0.0301(6) Uani 1 1 d . . . . .
C19 C 0.3553(5) 0.6131(3) 1.0179(3) 0.0281(6) Uani 1 1 d . . . . .
C20 C 0.3746(6) 0.6921(4) 1.1870(3) 0.0418(8) Uani 1 1 d . . . . .
H20 H 0.3740 0.6755 1.2480 0.050 Uiso 1 1 calc R U . . .
C21 C 0.4024(6) 0.8570(4) 1.1116(4) 0.0407(8) Uani 1 1 d . . . . .
C23 C 0.2217(4) 0.2664(3) 0.7015(2) 0.0276(6) Uani 1 1 d . . . . .
H23 H 0.2407 0.3493 0.6831 0.033 Uiso 1 1 calc R U . . .
O11 O 0.3657(7) 0.0177(4) 0.3954(3) 0.0663(11) Uani 1 1 d G . . . .
H11A H 0.4492 0.0873 0.4169 0.099 Uiso 1 1 d G U . . .
H11B H 0.4185 -0.0428 0.3468 0.099 Uiso 1 1 d G U . . .
O13 O 0.3456(4) 0.8630(3) 0.5180(2) 0.0410(6) Uani 1 1 d G . . . .
H13C H 0.3256 0.7784 0.4777 0.062 Uiso 1 1 d G U . . .
H13D H 0.3130 0.9107 0.4817 0.062 Uiso 1 1 d G U . . .
O16 O 0.2564(10) 0.3202(5) 0.1223(4) 0.1023(18) Uani 1 1 d . . . . .
O15 O 0.8739(10) 1.2927(7) 0.9918(5) 0.1136(18) Uani 1 1 d . U . . .
O12 O 0.3629(5) 0.5802(4) 0.4575(3) 0.0620(9) Uani 1 1 d . . . . .
O14 O 0.4036(5) 0.9349(4) 0.8224(3) 0.0539(8) Uani 1 1 d . . . . .
O17 O 0.5272(8) 1.1563(5) 0.9991(4) 0.0866(13) Uani 1 1 d . . . . .
loop_
_atom_site_aniso_label
_atom_site_aniso_U_11
_atom_site_aniso_U_22
_atom_site_aniso_U_33
_atom_site_aniso_U_23
_atom_site_aniso_U_13
_atom_site_aniso_U_12
Cd1 0.03085(8) 0.02246(8) 0.01575(7) 0.00945(5) 0.00122(5) -0.00079(5)
P1 0.0389(4) 0.0210(3) 0.0248(4) 0.0097(3) 0.0027(3) -0.0035(3)
O1 0.0365(14) 0.0264(12) 0.0317(14) 0.0103(10) 0.0040(10) -0.0033(9)
O2 0.0375(15) 0.0479(17) 0.0395(16) 0.0199(13) 0.0042(12) 0.0133(12)
O3 0.0333(14) 0.0386(15) 0.0501(18) 0.0199(13) 0.0017(12) 0.0055(11)
O4 0.0340(13) 0.0240(11) 0.0383(15) 0.0166(11) -0.0018(11) -0.0033(9)
O5 0.0432(14) 0.0373(13) 0.071(2) 0.0271(14) 0.0167(13) 0.0093(11)
O6 0.089(3) 0.0342(15) 0.0408(17) 0.0114(13) -0.0185(17) -0.0183(16)
O7 0.0573(15) 0.0213(11) 0.0367(13) 0.0119(9) 0.0182(11) -0.0020(10)
O8 0.0446(14) 0.0223(12) 0.0434(15) 0.0079(11) -0.0117(11) -0.0017(10)
O9 0.0555(18) 0.0294(13) 0.0572(19) 0.0064(12) 0.0280(15) -0.0099(12)
O10 0.0348(11) 0.0362(12) 0.0257(11) 0.0059(9) 0.0022(8) 0.0063(9)
N1 0.0419(19) 0.0359(17) 0.0193(16) 0.0160(14) -0.0001(13) -0.0037(13)
N2 0.0345(17) 0.0332(16) 0.0186(16) 0.0121(13) 0.0035(13) 0.0036(12)
N3 0.0420(14) 0.0223(12) 0.0246(12) 0.0064(10) 0.0046(10) -0.0008(10)
N4 0.0425(15) 0.0253(13) 0.0338(14) 0.0097(11) 0.0007(11) -0.0026(11)
N5 0.0449(17) 0.0318(15) 0.0281(17) 0.0112(13) 0.0065(13) 0.0000(12)
N6 0.0507(19) 0.0363(17) 0.0294(19) 0.0010(15) 0.0025(15) -0.0010(14)
N7 0.078(2) 0.0363(15) 0.0550(18) 0.0095(14) -0.0007(16) -0.0046(14)
C1 0.052(2) 0.0330(19) 0.0253(18) 0.0164(15) 0.0020(16) 0.0003(16)
C2 0.062(3) 0.034(2) 0.0223(18) 0.0154(15) -0.0003(16) -0.0021(17)
C3 0.0359(19) 0.045(2) 0.0196(17) 0.0180(16) 0.0029(13) 0.0018(15)
C4 0.085(3) 0.036(2) 0.0168(17) 0.0096(15) 0.0100(18) 0.007(2)
C5 0.066(3) 0.033(2) 0.0214(18) 0.0165(16) 0.0049(17) 0.0020(18)
C6 0.043(2) 0.043(2) 0.0162(16) 0.0106(15) 0.0002(13) 0.0017(16)
C7 0.0373(18) 0.042(2) 0.0180(16) 0.0121(15) 0.0019(13) 0.0022(15)
C8 0.0281(16) 0.0392(19) 0.0177(16) 0.0107(14) 0.0025(12) 0.0027(13)
C9 0.059(2) 0.0268(17) 0.0226(17) 0.0105(14) 0.0034(15) 0.0057(16)
C10 0.053(2) 0.0262(17) 0.0254(18) 0.0095(14) 0.0033(15) 0.0029(15)
C11 0.049(2) 0.0313(19) 0.0238(18) 0.0161(15) 0.0048(15) 0.0020(15)
C12 0.044(2) 0.036(2) 0.0176(16) 0.0093(14) 0.0016(13) 0.0049(15)
C13 0.0397(16) 0.0206(14) 0.0305(15) 0.0096(12) 0.0124(12) 0.0029(11)
C14 0.0320(13) 0.0180(11) 0.0250(13) 0.0093(10) 0.0048(10) 0.0024(9)
C15 0.0339(15) 0.0208(13) 0.0473(19) 0.0064(13) 0.0134(13) 0.0002(11)
C16 0.0482(18) 0.0198(14) 0.0292(16) 0.0098(12) 0.0098(13) 0.0052(12)
C17 0.0475(18) 0.0277(15) 0.0298(15) 0.0121(13) 0.0020(13) -0.0042(12)
C18 0.0309(15) 0.0243(14) 0.0305(17) 0.0046(12) 0.0019(12) 0.0010(11)
C19 0.0313(14) 0.0247(14) 0.0256(16) 0.0056(12) 0.0032(12) 0.0023(11)
C20 0.048(2) 0.046(2) 0.0269(18) 0.0073(15) 0.0037(14) 0.0040(16)
C21 0.0427(19) 0.0280(16) 0.042(2) 0.0015(16) -0.0016(16) 0.0002(13)
C23 0.0328(14) 0.0171(11) 0.0310(15) 0.0072(11) -0.0021(11) 0.0005(10)
O11 0.123(3) 0.0365(17) 0.0323(16) 0.0055(13) 0.0104(18) -0.0136(19)
O13 0.0508(15) 0.0393(13) 0.0366(13) 0.0179(11) 0.0041(11) 0.0029(11)
O16 0.167(5) 0.067(3) 0.082(3) 0.035(3) 0.032(3) 0.000(3)
O15 0.118(3) 0.113(3) 0.107(3) 0.035(2) 0.021(2) 0.004(2)
O12 0.0459(17) 0.0473(18) 0.094(3) 0.0290(19) -0.0058(16) 0.0055(14)
O14 0.0516(17) 0.069(2) 0.064(2) 0.0488(18) 0.0115(14) 0.0112(15)
O17 0.118(4) 0.076(3) 0.065(3) 0.025(2) 0.004(2) 0.006(3)
loop_
_atom_type_symbol
_atom_type_description
_atom_type_scat_dispersion_real
_atom_type_scat_dispersion_imag
_atom_type_scat_source
C C 0.0033 0.0016 'International Tables Vol C Tables 4.2.6.8 and 6.1.1.4'
H H 0.0000 0.0000 'International Tables Vol C Tables 4.2.6.8 and 6.1.1.4'
Cd Cd -0.8075 1.2024 'International Tables Vol C Tables 4.2.6.8 and 6.1.1.4'
N N 0.0061 0.0033 'International Tables Vol C Tables 4.2.6.8 and 6.1.1.4'
O O 0.0106 0.0060 'International Tables Vol C Tables 4.2.6.8 and 6.1.1.4'
P P 0.1023 0.0942 'International Tables Vol C Tables 4.2.6.8 and 6.1.1.4'
loop_
_geom_angle_atom_site_label_1
_geom_angle_atom_site_label_2
_geom_angle_atom_site_label_3
_geom_angle
_geom_angle_site_symmetry_1
_geom_angle_site_symmetry_3
_geom_angle_publ_flag
O2 Cd1 O1 83.39(12) . . ?
O2 Cd1 O3 169.44(11) . . ?
O2 Cd1 N1 90.18(14) . . ?
O2 Cd1 N2 86.07(13) . 1_556 ?
O3 Cd1 O1 87.59(11) . . ?
O4 Cd1 O1 170.34(10) . . ?
O4 Cd1 O2 102.07(11) . . ?
O4 Cd1 O3 87.64(11) . . ?
O4 Cd1 N1 86.54(13) . . ?
O4 Cd1 N2 98.13(12) . 1_556 ?
N1 Cd1 O1 85.47(12) . . ?
N1 Cd1 O3 94.57(14) . . ?
N2 Cd1 O1 90.14(12) 1_556 . ?
N2 Cd1 O3 88.48(13) 1_556 . ?
N2 Cd1 N1 174.53(16) 1_556 . ?
O4 P1 O7 102.47(16) . . ?
O5 P1 O4 111.99(16) . . ?
O5 P1 O7 108.12(17) . . ?
O6 P1 O4 112.73(19) . . ?
O6 P1 O5 113.4(2) . . ?
O6 P1 O7 107.29(19) . . ?
Cd1 O1 H1A 111.6 . . ?
Cd1 O1 H1B 111.6 . . ?
H1A O1 H1B 102.3 . . ?
Cd1 O2 H2A 113.6 . . ?
Cd1 O2 H2B 113.6 . . ?
H2A O2 H2B 100.2 . . ?
Cd1 O3 H3A 109.8 . . ?
Cd1 O3 H3B 109.9 . . ?
H3A O3 H3B 104.1 . . ?
P1 O4 Cd1 135.00(18) . . ?
C13 O7 P1 119.6(2) . . ?
C23 O8 H8 109.5 . . ?
C15 O9 H9 109.5 . . ?
C16 O10 C14 109.6(2) . . ?
C1 N1 Cd1 123.1(3) . . ?
C1 N1 C5 117.9(4) . . ?
C5 N1 Cd1 119.0(3) . . ?
C10 N2 Cd1 123.5(3) . 1_554 ?
C12 N2 Cd1 119.5(3) . 1_554 ?
C12 N2 C10 117.0(4) . . ?
C17 N3 C16 128.6(3) . . ?
C17 N3 C19 105.8(3) . . ?
C19 N3 C16 125.6(3) . . ?
C17 N4 C18 104.4(3) . . ?
C19 N5 C20 111.5(3) . . ?
C20 N6 C21 118.9(4) . . ?
H7A N7 H7B 120.0 . . ?
C21 N7 H7A 120.0 . . ?
C21 N7 H7B 120.0 . . ?
N1 C1 H1 118.1 . . ?
N1 C1 C2 123.8(5) . . ?
C2 C1 H1 118.1 . . ?
C1 C2 H2 120.8 . . ?
C1 C2 C3 118.5(4) . . ?
C3 C2 H2 120.8 . . ?
C2 C3 C6 122.8(4) . . ?
C4 C3 C2 117.3(4) . . ?
C4 C3 C6 119.9(4) . . ?
C3 C4 H4 119.7 . . ?
C3 C4 C5 120.6(4) . . ?
C5 C4 H4 119.7 . . ?
N1 C5 C4 121.7(4) . . ?
N1 C5 H5 119.1 . . ?
C4 C5 H5 119.1 . . ?
C3 C6 H6 116.9 . . ?
C7 C6 C3 126.1(4) . . ?
C7 C6 H6 116.9 . . ?
C6 C7 H7 117.8 . . ?
C6 C7 C8 124.5(4) . . ?
C8 C7 H7 117.8 . . ?
C9 C8 C7 119.6(4) . . ?
C11 C8 C7 123.7(4) . . ?
C11 C8 C9 116.7(4) . . ?
C8 C9 H9A 120.0 . . ?
C10 C9 C8 120.0(4) . . ?
C10 C9 H9A 120.0 . . ?
N2 C10 C9 123.0(4) . . ?
N2 C10 H10 118.5 . . ?
C9 C10 H10 118.5 . . ?
C8 C11 H11 119.7 . . ?
C8 C11 C12 120.5(4) . . ?
C12 C11 H11 119.7 . . ?
N2 C12 C11 122.6(4) . . ?
N2 C12 H12 118.7 . . ?
C11 C12 H12 118.7 . . ?
O7 C13 H13A 109.9 . . ?
O7 C13 H13B 109.9 . . ?
O7 C13 C14 109.1(2) . . ?
H13A C13 H13B 108.3 . . ?
C14 C13 H13A 109.9 . . ?
C14 C13 H13B 109.9 . . ?
O10 C14 C13 109.3(3) . . ?
O10 C14 H14 109.1 . . ?
O10 C14 C23 104.0(2) . . ?
C13 C14 H14 109.1 . . ?
C13 C14 C23 116.1(3) . . ?
C23 C14 H14 109.1 . . ?
O9 C15 H15 111.8 . . ?
O9 C15 C16 110.9(3) . . ?
O9 C15 C23 107.7(3) . . ?
C16 C15 H15 111.8 . . ?
C23 C15 H15 111.8 . . ?
C23 C15 C16 102.2(3) . . ?
O10 C16 N3 108.1(3) . . ?
O10 C16 C15 107.0(3) . . ?
O10 C16 H16 109.3 . . ?
N3 C16 C15 113.7(3) . . ?
N3 C16 H16 109.3 . . ?
C15 C16 H16 109.3 . . ?
N3 C17 H17 123.1 . . ?
N4 C17 N3 113.8(3) . . ?
N4 C17 H17 123.1 . . ?
N4 C18 C19 110.7(3) . . ?
N4 C18 C21 133.3(3) . . ?
C19 C18 C21 116.0(4) . . ?
N3 C19 C18 105.3(3) . . ?
N5 C19 N3 127.7(3) . . ?
N5 C19 C18 126.9(3) . . ?
N5 C20 H20 115.9 . . ?
N6 C20 N5 128.2(4) . . ?
N6 C20 H20 115.9 . . ?
N6 C21 C18 118.4(4) . . ?
N7 C21 N6 119.0(4) . . ?
N7 C21 C18 122.6(5) . . ?
O8 C23 C14 112.1(2) . . ?
O8 C23 C15 114.8(3) . . ?
O8 C23 H23 109.4 . . ?
C14 C23 H23 109.4 . . ?
C15 C23 C14 101.6(3) . . ?
C15 C23 H23 109.4 . . ?
H11A O11 H11B 104.5 . . ?
H13C O13 H13D 104.6 . . ?
loop_
_geom_bond_atom_site_label_1
_geom_bond_atom_site_label_2
_geom_bond_distance
_geom_bond_site_symmetry_2
_geom_bond_publ_flag
Cd1 O1 2.368(3) . ?
Cd1 O2 2.292(3) . ?
Cd1 O3 2.348(3) . ?
Cd1 O4 2.240(3) . ?
Cd1 N1 2.347(4) . ?
Cd1 N2 2.306(4) 1_556 ?
P1 O4 1.519(3) . ?
P1 O5 1.514(3) . ?
P1 O6 1.513(3) . ?
P1 O7 1.600(2) . ?
O1 H1A 0.8975 . ?
O1 H1B 0.8973 . ?
O2 H2A 0.9426 . ?
O2 H2B 0.9420 . ?
O3 H3A 0.8579 . ?
O3 H3B 0.8573 . ?
O7 C13 1.427(4) . ?
O8 H8 0.8200 . ?
O8 C23 1.407(4) . ?
O9 H9 0.8200 . ?
O9 C15 1.406(4) . ?
O10 C14 1.437(4) . ?
O10 C16 1.426(4) . ?
N1 C1 1.322(6) . ?
N1 C5 1.325(6) . ?
N2 Cd1 2.306(4) 1_554 ?
N2 C10 1.351(6) . ?
N2 C12 1.347(6) . ?
N3 C16 1.465(4) . ?
N3 C17 1.368(4) . ?
N3 C19 1.382(4) . ?
N4 C17 1.301(5) . ?
N4 C18 1.380(5) . ?
N5 C19 1.335(5) . ?
N5 C20 1.337(5) . ?
N6 C20 1.336(6) . ?
N6 C21 1.339(7) . ?
N7 H7A 0.8600 . ?
N7 H7B 0.8600 . ?
N7 C21 1.338(6) . ?
C1 H1 0.9300 . ?
C1 C2 1.384(7) . ?
C2 H2 0.9300 . ?
C2 C3 1.394(7) . ?
C3 C4 1.361(7) . ?
C3 C6 1.466(6) . ?
C4 H4 0.9300 . ?
C4 C5 1.397(6) . ?
C5 H5 0.9300 . ?
C6 H6 0.9300 . ?
C6 C7 1.319(6) . ?
C7 H7 0.9300 . ?
C7 C8 1.482(6) . ?
C8 C9 1.399(6) . ?
C8 C11 1.379(6) . ?
C9 H9A 0.9300 . ?
C9 C10 1.382(7) . ?
C10 H10 0.9300 . ?
C11 H11 0.9300 . ?
C11 C12 1.391(6) . ?
C12 H12 0.9300 . ?
C13 H13A 0.9700 . ?
C13 H13B 0.9700 . ?
C13 C14 1.503(4) . ?
C14 H14 0.9800 . ?
C14 C23 1.531(4) . ?
C15 H15 0.9800 . ?
C15 C16 1.540(5) . ?
C15 C23 1.518(5) . ?
C16 H16 0.9800 . ?
C17 H17 0.9300 . ?
C18 C19 1.383(5) . ?
C18 C21 1.414(5) . ?
C20 H20 0.9300 . ?
C23 H23 0.9800 . ?
O11 H11A 0.8507 . ?
O11 H11B 0.8497 . ?
O13 H13C 0.8497 . ?
O13 H13D 0.8493 . ?
loop_
_geom_hbond_atom_site_label_D
_geom_hbond_atom_site_label_H
_geom_hbond_atom_site_label_A
_geom_hbond_distance_DH
_geom_hbond_distance_HA
_geom_hbond_distance_DA
_geom_hbond_angle_DHA
_geom_hbond_site_symmetry_A
O1 H1A O9 0.90 2.22 2.876(4) 129.7 1_665
O1 H1B O13 0.90 1.84 2.729(4) 170.2 1_655
O2 H2A O13 0.94 1.84 2.746(4) 159.9 .
O2 H2B O14 0.94 1.87 2.755(5) 154.5 .
O3 H3A O5 0.86 2.07 2.679(4) 127.3 .
O8 H8 O5 0.82 1.93 2.719(4) 161.1 1_455
O9 H9 O15 0.82 1.92 2.730(7) 167.0 1_445
N7 H7B O17 0.86 2.12 2.892(7) 148.6 .
O11 H11A O6 0.85 1.90 2.725(5) 162.5 .
O11 H11B N6 0.85 2.05 2.804(5) 148.0 1_544
O13 H13C O12 0.85 1.98 2.725(5) 146.0 .
O13 H13D O11 0.85 1.94 2.733(5) 153.9 1_565
loop_
_geom_torsion_atom_site_label_1
_geom_torsion_atom_site_label_2
_geom_torsion_atom_site_label_3
_geom_torsion_atom_site_label_4
_geom_torsion
_geom_torsion_site_symmetry_1
_geom_torsion_site_symmetry_2
_geom_torsion_site_symmetry_3
_geom_torsion_site_symmetry_4
_geom_torsion_publ_flag
Cd1 N1 C1 C2 178.3(4) . . . . ?
Cd1 N1 C5 C4 179.1(4) . . . . ?
Cd1 N2 C10 C9 -178.6(4) 1_554 . . . ?
Cd1 N2 C12 C11 175.5(4) 1_554 . . . ?
P1 O7 C13 C14 -159.7(2) . . . . ?
O4 P1 O7 C13 178.3(3) . . . . ?
O5 P1 O4 Cd1 -16.8(3) . . . . ?
O5 P1 O7 C13 -63.3(3) . . . . ?
O6 P1 O4 Cd1 -146.2(3) . . . . ?
O6 P1 O7 C13 59.4(3) . . . . ?
O7 P1 O4 Cd1 98.8(3) . . . . ?
O7 C13 C14 O10 -65.8(3) . . . . ?
O7 C13 C14 C23 51.3(4) . . . . ?
O9 C15 C16 O10 93.3(3) . . . . ?
O9 C15 C16 N3 -147.4(3) . . . . ?
O9 C15 C23 O8 40.0(4) . . . . ?
O9 C15 C23 C14 -81.2(3) . . . . ?
O10 C14 C23 O8 -161.8(3) . . . . ?
O10 C14 C23 C15 -38.8(3) . . . . ?
N1 C1 C2 C3 3.2(8) . . . . ?
N4 C18 C19 N3 -0.1(4) . . . . ?
N4 C18 C19 N5 -178.9(3) . . . . ?
N4 C18 C21 N6 178.6(4) . . . . ?
N4 C18 C21 N7 -1.7(7) . . . . ?
C1 N1 C5 C4 1.1(8) . . . . ?
C1 C2 C3 C4 0.0(8) . . . . ?
C1 C2 C3 C6 177.4(5) . . . . ?
C2 C3 C4 C5 -2.4(9) . . . . ?
C2 C3 C6 C7 6.5(7) . . . . ?
C3 C4 C5 N1 2.0(9) . . . . ?
C3 C6 C7 C8 -178.2(5) . . . . ?
C4 C3 C6 C7 -176.1(5) . . . . ?
C5 N1 C1 C2 -3.7(8) . . . . ?
C6 C3 C4 C5 -180.0(5) . . . . ?
C6 C7 C8 C9 -178.4(4) . . . . ?
C6 C7 C8 C11 3.7(7) . . . . ?
C7 C8 C9 C10 179.2(5) . . . . ?
C7 C8 C11 C12 177.8(4) . . . . ?
C8 C9 C10 N2 2.1(8) . . . . ?
C8 C11 C12 N2 4.1(7) . . . . ?
C9 C8 C11 C12 -0.2(7) . . . . ?
C10 N2 C12 C11 -4.7(7) . . . . ?
C11 C8 C9 C10 -2.7(7) . . . . ?
C12 N2 C10 C9 1.6(7) . . . . ?
C13 C14 C23 O8 78.1(4) . . . . ?
C13 C14 C23 C15 -158.8(3) . . . . ?
C14 O10 C16 N3 -126.0(3) . . . . ?
C14 O10 C16 C15 -3.2(3) . . . . ?
C16 O10 C14 C13 151.0(3) . . . . ?
C16 O10 C14 C23 26.4(3) . . . . ?
C16 N3 C17 N4 -178.4(3) . . . . ?
C16 N3 C19 N5 -3.1(6) . . . . ?
C16 N3 C19 C18 178.2(3) . . . . ?
C16 C15 C23 O8 156.9(3) . . . . ?
C16 C15 C23 C14 35.8(3) . . . . ?
C17 N3 C16 O10 62.8(4) . . . . ?
C17 N3 C16 C15 -55.9(5) . . . . ?
C17 N3 C19 N5 179.2(3) . . . . ?
C17 N3 C19 C18 0.5(4) . . . . ?
C17 N4 C18 C19 -0.3(4) . . . . ?
C17 N4 C18 C21 178.8(4) . . . . ?
C18 N4 C17 N3 0.7(4) . . . . ?
C19 N3 C16 O10 -114.4(3) . . . . ?
C19 N3 C16 C15 127.0(3) . . . . ?
C19 N3 C17 N4 -0.8(4) . . . . ?
C19 N5 C20 N6 0.0(6) . . . . ?
C19 C18 C21 N6 -2.4(5) . . . . ?
C19 C18 C21 N7 177.4(4) . . . . ?
C20 N5 C19 N3 -179.2(3) . . . . ?
C20 N5 C19 C18 -0.7(5) . . . . ?
C20 N6 C21 N7 -177.8(4) . . . . ?
C20 N6 C21 C18 1.9(6) . . . . ?
C21 N6 C20 N5 -0.8(7) . . . . ?
C21 C18 C19 N3 -179.4(3) . . . . ?
C21 C18 C19 N5 1.8(5) . . . . ?
C23 C15 C16 O10 -21.3(3) . . . . ?
C23 C15 C16 N3 98.0(3) . . . . ?
loop_
_smtbx_masks_void_nr
_smtbx_masks_void_average_x
_smtbx_masks_void_average_y
_smtbx_masks_void_average_z
_smtbx_masks_void_volume
_smtbx_masks_void_count_electrons
_smtbx_masks_void_content
1 0.078 0.217 0.277 90.7 44.9 '4.5 water'
