#------------------------------------------------------------------------------
#$Date: 2021-06-05 21:19:52 +0300 (Sat, 05 Jun 2021) $
#$Revision: 265989 $
#$URL: file:///home/coder/svn-repositories/cod/cif/7/24/23/7242370.cif $
#------------------------------------------------------------------------------
#
# This file is available in the Crystallography Open Database (COD),
# http://www.crystallography.net/
#
# All data on this site have been placed in the public domain by the
# contributors.
#
data_7242370
loop_
_publ_author_name
'Ahmed, Muhammad Naeem'
'Madni, Murtaza'
'Anjum, Shaista'
'Andleeb, Saiqa'
'Hameed, Shahid'
'Khan, Abdul Majeed'
'Ashfaq, Muhammad'
'Tahir, Muhammad Nawaz'
'Gil, Diego M.'
'Frontera, Antonio'
_publ_section_title
;
 Crystal engineering with pyrazolyl-thiazole derivatives:
 structure-directing role of \p-stacking and \s-hole interactions
;
_journal_issue                   18
_journal_name_full               CrystEngComm
_journal_page_first              3276
_journal_page_last               3287
_journal_paper_doi               10.1039/D1CE00256B
_journal_volume                  23
_journal_year                    2021
_chemical_formula_iupac          'C21 H17 Br Cl N3 O2 S'
_chemical_formula_moiety         'C21 H17 Br Cl N3 O2 S'
_chemical_formula_sum            'C21 H17 Br Cl N3 O2 S'
_chemical_formula_weight         490.80
_chemical_name_systematic
;
Ethyl 2-[5-(4-bromophenyl)-3-(4-chlorophenyl)-4,5-dihydro-1H-pyrazol-1-yl]-
1,3-thiazole-4-carboxylate
;
_space_group_crystal_system      triclinic
_space_group_IT_number           1
_space_group_name_Hall           'P 1'
_space_group_name_H-M_alt        'P 1'
_atom_sites_solution_hydrogens   geom
_atom_sites_solution_primary     direct
_atom_sites_solution_secondary   difmap
_audit_creation_method           SHELXL-2018/3
_audit_update_record
;
2021-02-05 deposited with the CCDC.	2021-03-09 downloaded from the CCDC.
;
_cell_angle_alpha                73.421(5)
_cell_angle_beta                 89.483(5)
_cell_angle_gamma                86.045(6)
_cell_formula_units_Z            1
_cell_length_a                   4.7441(4)
_cell_length_b                   9.5883(9)
_cell_length_c                   12.0770(11)
_cell_measurement_reflns_used    3367
_cell_measurement_temperature    296(2)
_cell_measurement_theta_max      27.502
_cell_measurement_theta_min      2.222
_cell_volume                     525.23(8)
_computing_cell_refinement       'SAINT (Bruker, 2007)'
_computing_data_collection       'APEX2 (Bruker, 2007)'
_computing_data_reduction        'SAINT (Bruker, 2007)'
_computing_molecular_graphics
'ORTEP-3 for Windows (Farrugia, 1997) and PLATON (Spek, 2009)'
_computing_publication_material
;
WinGX (Farrugia, 1999) and PLATON (Spek, 2009)
;
_computing_structure_refinement  'SHELXL-2018/3  (Sheldrick, 2015)'
_computing_structure_solution    'SHELXS97 (Sheldrick, 2008)'
_diffrn_ambient_temperature      296(2)
_diffrn_detector_area_resol_mean 7.72
_diffrn_measured_fraction_theta_full 0.986
_diffrn_measured_fraction_theta_max 0.986
_diffrn_measurement_device_type  'Bruker Kappa APEXII CCD'
_diffrn_measurement_method       \w
_diffrn_radiation_monochromator  graphite
_diffrn_radiation_source         'fine-focus sealed tube'
_diffrn_radiation_type           MoK\a
_diffrn_radiation_wavelength     0.71073
_diffrn_reflns_av_R_equivalents  0.0268
_diffrn_reflns_av_unetI/netI     0.0417
_diffrn_reflns_limit_h_max       6
_diffrn_reflns_limit_h_min       -5
_diffrn_reflns_limit_k_max       12
_diffrn_reflns_limit_k_min       -12
_diffrn_reflns_limit_l_max       15
_diffrn_reflns_limit_l_min       -15
_diffrn_reflns_number            8109
_diffrn_reflns_theta_full        27.502
_diffrn_reflns_theta_max         27.502
_diffrn_reflns_theta_min         2.222
_diffrn_standards_number         0
_exptl_absorpt_coefficient_mu    2.206
_exptl_absorpt_correction_T_max  0.746
_exptl_absorpt_correction_T_min  0.668
_exptl_absorpt_correction_type   multi-scan
_exptl_absorpt_process_details   '(SADABS; Bruker, 2005)'
_exptl_crystal_colour            white
_exptl_crystal_density_diffrn    1.552
_exptl_crystal_density_method    'not measured'
_exptl_crystal_description       needle
_exptl_crystal_F_000             248
_exptl_crystal_size_max          0.40
_exptl_crystal_size_mid          0.18
_exptl_crystal_size_min          0.16
_refine_diff_density_max         0.168
_refine_diff_density_min         -0.302
_refine_diff_density_rms         0.048
_refine_ls_abs_structure_details
;
 Refined as a perfect inversion twin.
;
_refine_ls_abs_structure_Flack   0.5
_refine_ls_extinction_method     none
_refine_ls_goodness_of_fit_ref   1.032
_refine_ls_hydrogen_treatment    constr
_refine_ls_matrix_type           full
_refine_ls_number_parameters     263
_refine_ls_number_reflns         4306
_refine_ls_number_restraints     3
_refine_ls_restrained_S_all      1.032
_refine_ls_R_factor_all          0.0499
_refine_ls_R_factor_gt           0.0346
_refine_ls_shift/su_max          0.000
_refine_ls_shift/su_mean         0.000
_refine_ls_structure_factor_coef Fsqd
_refine_ls_weighting_details
'w=1/[\s^2^(Fo^2^)+(0.0336P)^2^] where P=(Fo^2^+2Fc^2^)/3'
_refine_ls_weighting_scheme      calc
_refine_ls_wR_factor_gt          0.0713
_refine_ls_wR_factor_ref         0.0766
_reflns_Friedel_coverage         1.000
_reflns_Friedel_fraction_full    0.993
_reflns_Friedel_fraction_max     0.986
_reflns_number_gt                3367
_reflns_number_total             4306
_reflns_threshold_expression     I>2\s(I)
_cod_data_source_file            d1ce00256b2.cif
_cod_data_source_block           A31P
_cod_depositor_comments
'Adding full bibliography for 7242370--7242372.cif.'
_cod_database_code               7242370
_shelx_shelxl_version_number     2018/3
_shelx_space_group_comment
;
The symmetry employed for this shelxl refinement is uniquely defined
by the following loop, which should always be used as a source of
symmetry information in preference to the above space-group names.
They are only intended as comments.
;
_shelx_estimated_absorpt_t_min   0.472
_shelx_estimated_absorpt_t_max   0.719
_shelx_res_file
;
TITL A31P_0m in P1 WHITE NEEDLE
    shelx.res
    created by SHELXL-2018/3 at 11:33:41 on 22-Jan-2021
CELL  0.71073   4.7441   9.5883  12.0770   73.421   89.483   86.045
ZERR     1.00   0.0004   0.0009   0.0011    0.005    0.005    0.006
LATT  -1
SFAC  C    H    N    O    S    CL   BR
UNIT  21   17   3    2    1    1    1
ACTA
L.S.  40
MERG   2
FMAP   2
PLAN   20
SIZE     0.160   0.180   0.400
HTAB    2.00000
BOND   $H
CONF
LIST   4
TEMP    23.00
OMIT     0   0  -1
OMIT     0   0   1
EQIV $1 x+1, y+1, z
HTAB C8 O2_$1
TWIN
WGHT    0.033600
FVAR       0.34602
BR1   7    1.135875    0.094839    1.344047    11.00000    0.17585    0.08846 =
         0.04573   -0.01367   -0.02175   -0.00826
CL1   6    1.767227    0.735998    0.307332    11.00000    0.09080    0.08347 =
         0.06389   -0.00099    0.01540   -0.03343
S1    5    0.917379   -0.077294    0.649155    11.00000    0.06426    0.04988 =
         0.04708   -0.02427    0.00952   -0.01219
O1    4    0.270734   -0.255141    0.960975    11.00000    0.06616    0.04803 =
         0.06384   -0.01620    0.01748   -0.01131
O2    4    0.353145   -0.416185    0.859500    11.00000    0.08375    0.04825 =
         0.08041   -0.02624    0.00476   -0.02721
N1    3    0.652149   -0.073402    0.837812    11.00000    0.05104    0.03629 =
         0.04055   -0.01367    0.00147   -0.00931
N2    3    0.944708    0.120677    0.766594    11.00000    0.06610    0.04036 =
         0.04495   -0.02033    0.01221   -0.01670
N3    3    1.110469    0.187773    0.674078    11.00000    0.05072    0.04162 =
         0.04218   -0.01337    0.00339   -0.00864
C1    1    0.239351   -0.448899    1.137842    11.00000    0.09477    0.08267 =
         0.06949   -0.00550    0.00125   -0.00900
AFIX 137
H1A   2    0.374510   -0.511579    1.111864    11.00000   -1.50000
H1B   2    0.111659   -0.507048    1.190679    11.00000   -1.50000
H1C   2    0.336275   -0.390790    1.176112    11.00000   -1.50000
AFIX   0
C2    1    0.078539   -0.352279    1.037516    11.00000    0.06524    0.07072 =
         0.06805   -0.00839    0.01285   -0.01796
AFIX  23
H2A   2   -0.009518   -0.410532    0.995551    11.00000   -1.20000
H2B   2   -0.069275   -0.294715    1.063904    11.00000   -1.20000
AFIX   0
C3    1    0.393699   -0.301069    0.877362    11.00000    0.04770    0.04176 =
         0.04982   -0.01077   -0.00859   -0.00408
C4    1    0.583926   -0.195680    0.807026    11.00000    0.04264    0.03209 =
         0.04701   -0.01534   -0.00301   -0.00274
C5    1    0.706581   -0.215786    0.711703    11.00000    0.05285    0.03986 =
         0.05529   -0.02552    0.00367   -0.00897
AFIX  43
H5    2    0.680520   -0.294587    0.683336    11.00000   -1.20000
AFIX   0
C6    1    0.827372   -0.003754    0.761704    11.00000    0.04833    0.03516 =
         0.03799   -0.01462   -0.00341   -0.00217
C7    1    1.115312    0.324810    0.668963    11.00000    0.04730    0.03899 =
         0.04294   -0.01292   -0.00816   -0.00373
C8    1    0.936322    0.367132    0.758900    11.00000    0.05927    0.03914 =
         0.04689   -0.01649    0.00010   -0.00664
AFIX  23
H8A   2    0.784855    0.438744    0.723440    11.00000   -1.20000
H8B   2    1.048881    0.406664    0.807915    11.00000   -1.20000
AFIX   0
C9    1    0.818865    0.223013    0.828026    11.00000    0.04832    0.04001 =
         0.04617   -0.01991    0.00050   -0.00712
AFIX  13
H9    2    0.612786    0.230376    0.819126    11.00000   -1.20000
AFIX   0
C10   1    0.896055    0.179777    0.955027    11.00000    0.05444    0.03610 =
         0.04165   -0.01625    0.00483   -0.01114
C11   1    1.107206    0.076308    1.005141    11.00000    0.06971    0.04315 =
         0.05425   -0.01872    0.00273    0.00405
AFIX  43
H11   2    1.204599    0.024362    0.960765    11.00000   -1.20000
AFIX   0
C12   1    1.177030    0.048293    1.120806    11.00000    0.08945    0.05087 =
         0.05873   -0.01242   -0.01109    0.00966
AFIX  43
H12   2    1.320010   -0.022244    1.153956    11.00000   -1.20000
AFIX   0
C13   1    1.034697    0.124861    1.186052    11.00000    0.09581    0.04869 =
         0.03663   -0.00839   -0.00521   -0.01499
C14   1    0.820015    0.227205    1.139966    11.00000    0.09056    0.06863 =
         0.05424   -0.02990    0.00650    0.00260
AFIX  43
H14   2    0.721787    0.277711    1.185171    11.00000   -1.20000
AFIX   0
C15   1    0.752379    0.253766    1.023069    11.00000    0.07650    0.06036 =
         0.05560   -0.02479   -0.00429    0.01383
AFIX  43
H15   2    0.606936    0.323027    0.990411    11.00000   -1.20000
AFIX   0
C16   1    1.282588    0.422586    0.581674    11.00000    0.04892    0.04394 =
         0.03959   -0.01329   -0.00485   -0.00944
C17   1    1.464194    0.371340    0.507906    11.00000    0.06909    0.04603 =
         0.04912   -0.01452    0.00294   -0.00951
AFIX  43
H17   2    1.482647    0.272063    0.514625    11.00000   -1.20000
AFIX   0
C18   1    1.616194    0.466059    0.425371    11.00000    0.06810    0.06368 =
         0.05216   -0.01910    0.01355   -0.01494
AFIX  43
H18   2    1.740340    0.430714    0.378072    11.00000   -1.20000
AFIX   0
C19   1    1.582864    0.613433    0.413466    11.00000    0.05704    0.05739 =
         0.04328   -0.00079   -0.00319   -0.02030
C20   1    1.408698    0.667561    0.484961    11.00000    0.07012    0.04254 =
         0.05967   -0.00811   -0.00159   -0.01494
AFIX  43
H20   2    1.389714    0.767232    0.476615    11.00000   -1.20000
AFIX   0
C21   1    1.260326    0.571062    0.570412    11.00000    0.05795    0.04708 =
         0.05256   -0.01140    0.00582   -0.00578
AFIX  43
H21   2    1.145224    0.606692    0.620372    11.00000   -1.20000
AFIX   0
HKLF    4




REM  A31P_0m in P1 WHITE NEEDLE
REM wR2 = 0.0766, GooF = S = 1.032, Restrained GooF = 1.032 for all data
REM R1 = 0.0346 for 3367 Fo > 4sig(Fo) and 0.0499 for all 4306 data
REM 263 parameters refined using 3 restraints

END

WGHT      0.0336      0.0000

REM Instructions for potential hydrogen bonds
HTAB C8 O2_$1

REM Highest difference peak  0.168,  deepest hole -0.302,  1-sigma level  0.048
Q1    1  -0.2128 -0.4525  0.9858  11.00000  0.05    0.17
Q2    1   0.8313  0.5086  0.5962  11.00000  0.05    0.15
Q3    1   0.9903 -0.1001  1.1830  11.00000  0.05    0.15
Q4    1   0.9462  0.3737  1.1360  11.00000  0.05    0.15
Q5    1   1.3806  0.2677  0.5038  11.00000  0.05    0.15
Q6    1   1.4112  0.2635  0.4214  11.00000  0.05    0.14
Q7    1   1.1774 -0.1374  1.2894  11.00000  0.05    0.14
Q8    1   0.2593 -0.7039  1.1950  11.00000  0.05    0.14
Q9    1   1.0514 -0.0450  0.7126  11.00000  0.05    0.14
Q10   1   1.2224  0.1177  0.5595  11.00000  0.05    0.14
Q11   1  -0.0611 -0.3189  0.8550  11.00000  0.05    0.14
Q12   1   0.9520  0.5516  0.5179  11.00000  0.05    0.13
Q13   1   1.4409  0.1573  0.9965  11.00000  0.05    0.13
Q14   1   1.5494  0.0798  0.4640  11.00000  0.05    0.13
Q15   1   1.6315  0.1769  0.4813  11.00000  0.05    0.13
Q16   1   0.1211 -0.5999  1.3332  11.00000  0.05    0.13
Q17   1  -0.0638 -0.4780  0.9155  11.00000  0.05    0.13
Q18   1   1.7710  0.2037  0.4158  11.00000  0.05    0.13
Q19   1   0.0593 -0.6146  1.0738  11.00000  0.05    0.13
Q20   1   1.3896  0.0445  0.5425  11.00000  0.05    0.13
;
_shelx_res_checksum              70589
_shelx_hkl_file
;
  -1   0   0  179.10    5.21
  -1   0   0  173.39    5.79
  -1   0   0  179.98    5.76
   1   0   0  172.95    5.76
   1   0   0  161.03    6.52
   1   0   0  180.07    5.21
   1   0   0  178.75    5.80
  -2   0   0   29.61    1.01
  -2   0   0   30.37    1.16
  -2   0   0   29.00    1.34
   2   0   0   29.84    1.06
   2   0   0   33.75    1.06
   2   0   0   31.96    1.18
   2   0   0   30.71    1.15
   2   0   0   32.83    1.36
   3   0   0    3.38    0.33
   3  -1   0   12.98    0.64
  -3   1   0   12.24    0.65
  -3   1   0   14.37    0.82
  -3   1   0   13.62    0.68
   2  -1   0   28.24    1.24
   2  -1   0   26.64    1.04
  -2   1   0   27.63    1.07
  -2   1   0   28.79    1.25
  -2   1   0   28.18    1.06
   1  -1   0  571.09   16.66
   1  -1   0  558.76   17.64
   1  -1   0  473.58   19.90
   1  -1   0  523.42   18.00
   1  -1   0  537.07   18.00
   1  -1   0  587.32   17.83
   1  -1   0  544.27   15.96
  -1   1   0  498.54   17.97
  -1   1   0  539.78   16.07
  -1   1   0  479.79   19.99
  -1   1   0  562.07   17.79
  -1   1   0  566.91   17.97
   0  -1   0   76.92    2.60
   0  -1   0   76.40    2.41
   0  -1   0   76.31    2.60
   0   1   0   77.09    2.60
   0   1   0   75.96    2.60
  -1  -1   0  228.95    7.21
  -1  -1   0  238.26    6.91
  -1  -1   0  242.38    7.82
  -1  -1   0  230.72    7.78
   1   1   0  213.32    8.61
   1   1   0  232.32    7.83
   1   1   0  229.13    7.21
   1   1   0  241.03    7.78
   1   1   0  233.32    6.92
  -2  -1   0   65.99    2.22
  -2  -1   0   63.84    1.99
  -2  -1   0   65.60    2.23
   2   1   0   65.84    2.25
   2   1   0   67.37    2.00
   2   1   0   66.47    2.60
   2   1   0   63.66    2.27
   2   1   0   65.30    2.27
   2   1   0   64.28    2.07
   2   1   0   64.91    2.24
   3   1   0   28.86    1.02
   3   1   0   27.24    0.94
   3   1   0   27.76    1.13
   3   1   0   27.75    1.02
   4   1   0    7.01    0.39
   4   1   0    7.57    0.35
   4   1   0    8.85    0.38
   5   1   0    1.52    0.18
   6   1   0    0.66    0.17
  -4   2   0    0.42    0.34
  -4   2   0   -0.21    0.23
   3  -2   0   16.79    0.59
   3  -2   0   15.47    0.59
   3  -2   0   16.37    0.73
   3  -2   0   15.61    0.53
  -3   2   0   14.64    0.74
  -3   2   0   15.10    0.77
  -3   2   0   17.24    0.95
   2  -2   0   51.67    1.83
   2  -2   0   53.33    1.81
   2  -2   0   52.06    1.80
   2  -2   0   51.50    1.66
   2  -2   0   53.42    2.14
  -2   2   0   52.91    2.15
  -2   2   0   50.76    1.85
  -2   2   0   52.41    1.88
   1  -2   0  237.79    7.73
   1  -2   0  236.39    7.92
   1  -2   0  241.66    7.92
   1  -2   0  226.73    8.76
   1  -2   0  237.01    7.34
   1  -2   0  233.63    7.79
  -1   2   0  240.35    7.91
  -1   2   0  229.65    8.77
  -1   2   0  233.90    7.92
  -1   2   0  240.34    7.32
  -1   2   0  236.06    7.81
  -1   2   0  235.69    7.75
   0  -2   0  243.48    7.85
   0  -2   0  255.44    8.47
   0  -2   0  254.30    8.47
   0   2   0  257.03    8.47
   0   2   0  249.73    8.47
  -1  -2   0  364.29   11.52
  -1  -2   0  377.84   12.42
  -1  -2   0  374.46   12.43
   1   2   0  358.44   11.52
   1   2   0  368.79   12.42
   1   2   0  377.48   12.43
  -2  -2   0    3.31    0.26
  -2  -2   0    2.78    0.15
  -2  -2   0    2.64    0.20
   2   2   0    2.62    0.24
   2   2   0    2.58    0.16
   2   2   0    2.33    0.28
   2   2   0    2.63    0.22
   2   2   0    2.56    0.19
   2   2   0    3.30    0.25
  -3  -2   0   45.04    1.59
   3   2   0   46.17    1.41
   3   2   0   43.11    1.62
   3   2   0   43.78    1.49
   3   2   0   42.56    1.62
   3   2   0   47.51    1.70
   4   2   0    8.99    0.48
   4   2   0    8.95    0.43
   5   2   0    1.33    0.21
   5   2   0    1.53    0.24
   6   2   0    0.00    0.19
   4  -3   0    0.98    0.14
  -4   3   0    0.70    0.31
  -4   3   0    1.60    0.44
  -4   3   0    0.71    0.29
   3  -3   0    9.78    0.46
   3  -3   0    9.26    0.39
   3  -3   0   10.64    0.46
  -3   3   0    9.43    0.61
  -3   3   0   10.49    0.59
  -3   3   0    9.10    0.69
   2  -3   0   36.12    1.28
   2  -3   0   36.46    1.29
   2  -3   0   35.87    1.51
   2  -3   0   34.55    1.28
   2  -3   0   34.75    1.16
  -2   3   0   33.63    1.34
  -2   3   0   33.92    1.52
  -2   3   0   34.29    1.31
   1  -3   0   28.28    1.03
   1  -3   0   27.37    0.95
   1  -3   0   29.19    1.05
   1  -3   0   27.56    1.05
  -1   3   0   27.34    1.16
  -1   3   0   27.50    1.04
  -1   3   0   27.71    1.04
  -1   3   0   27.06    1.01
  -1   3   0   28.85    0.94
  -1   3   0   27.82    1.05
   0  -3   0   76.03    2.63
   0  -3   0   73.62    2.63
   0  -3   0   74.53    2.42
   0   3   0   76.64    2.64
   0   3   0   74.82    2.63
  -1  -3   0  105.40    3.42
  -1  -3   0  105.54    3.72
   1   3   0  111.27    3.72
   1   3   0  106.82    3.71
   1   3   0  106.83    3.43
  -2  -3   0   53.77    1.98
   2   3   0   54.74    1.98
   2   3   0   54.45    1.82
   2   3   0   55.34    1.98
  -3  -3   0   15.64    0.73
   3   3   0   15.30    0.71
   3   3   0   15.47    0.65
   3   3   0   16.37    0.72
   4   3   0    2.06    0.25
   4   3   0    2.50    0.30
   5   3   0    0.24    0.20
   5   3   0    0.44    0.24
   6   3   0    0.44    0.24
   5  -4   0    0.03    0.16
  -5   4   0    0.02    0.33
   4  -4   0    2.37    0.26
   4  -4   0    2.21    0.22
  -4   4   0    3.33    0.44
  -4   4   0    2.42    0.49
  -4   4   0    2.13    0.41
   3  -4   0    3.21    0.25
   3  -4   0    3.82    0.30
   3  -4   0    3.21    0.29
  -3   4   0    3.41    0.47
  -3   4   0    3.02    0.40
  -3   4   0    3.20    0.35
   2  -4   0    1.49    0.25
   2  -4   0    1.17    0.21
   2  -4   0    1.62    0.22
   2  -4   0    1.29    0.17
  -2   4   0    1.44    0.25
  -2   4   0    1.70    0.23
  -2   4   0    1.53    0.21
  -2   4   0    1.48    0.28
   1  -4   0   64.88    2.14
   1  -4   0   67.53    2.34
   1  -4   0   64.08    2.33
  -1   4   0   64.12    2.32
  -1   4   0   64.62    2.12
  -1   4   0   65.10    2.55
  -1   4   0   64.77    2.28
  -1   4   0   65.54    2.24
   0  -4   0   16.35    0.66
   0  -4   0   17.25    0.74
   0  -4   0   16.23    0.74
   0   4   0   17.23    0.75
   0   4   0   17.47    0.66
  -1  -4   0  254.25    7.93
  -1  -4   0  257.28    8.59
   1   4   0  247.48    7.94
   1   4   0  249.58    8.57
  -2  -4   0  198.51    6.94
   2   4   0  197.48    6.42
   2   4   0  212.82    6.96
   2   4   0  200.61    6.94
  -3  -4   0    3.67    0.37
   3   4   0    2.97    0.30
   3   4   0    2.97    0.33
   3   4   0    2.79    0.33
   4   4   0    6.08    0.49
   4   4   0    6.30    0.45
   5   4   0    2.03    0.36
   5   4   0    1.38    0.29
   5  -5   0   -0.07    0.19
  -5   5   0    0.57    0.40
   4  -5   0    4.46    0.39
   4  -5   0    4.64    0.35
  -4   5   0    4.03    0.55
  -4   5   0    4.04    0.50
  -4   5   0    4.09    0.61
   3  -5   0    1.47    0.22
   3  -5   0    1.56    0.26
  -3   5   0    1.18    0.29
  -3   5   0    1.36    0.35
  -3   5   0    1.97    0.35
   2  -5   0    5.38    0.43
   2  -5   0    5.21    0.41
   2  -5   0    4.94    0.37
  -2   5   0    5.19    0.48
  -2   5   0    5.71    0.43
  -2   5   0    4.14    0.37
  -2   5   0    5.81    0.47
   1  -5   0   12.45    0.59
   1  -5   0   13.23    0.66
  -1   5   0   13.76    0.68
  -1   5   0   13.46    0.59
  -1   5   0   14.07    0.58
  -1   5   0   12.05    0.64
  -1   5   0   13.46    0.64
   0  -5   0   35.10    1.24
   0  -5   0   34.09    1.37
   0   5   0   35.97    1.37
   0   5   0   31.68    1.22
   0   5   0   35.11    1.26
  -1  -5   0   67.15    2.27
  -1  -5   0   68.95    2.49
   1   5   0   65.75    2.47
   1   5   0   67.63    2.28
  -2  -5   0   21.26    0.98
  -2  -5   0   21.33    0.69
   2   5   0   19.36    0.94
   2   5   0   19.96    0.85
  -3  -5   0    6.41    0.53
   3   5   0    4.93    0.41
   3   5   0    4.18    0.43
   4   5   0    1.35    0.32
   4   5   0    1.21    0.30
   5   5   0    1.22    0.33
   5   5   0    2.16    0.41
   5  -6   0    0.51    0.24
  -5   6   0    0.15    0.41
   4  -6   0    0.60    0.24
   4  -6   0    1.17    0.29
  -4   6   0    0.58    0.43
  -4   6   0    0.73    0.40
   3  -6   0    2.70    0.32
   3  -6   0    3.12    0.37
  -3   6   0    3.08    0.49
  -3   6   0    3.24    0.41
  -3   6   0    3.39    0.45
   2  -6   0    0.53    0.23
   2  -6   0    0.67    0.21
  -2   6   0    0.73    0.25
  -2   6   0    0.56    0.26
  -2   6   0    0.43    0.25
  -2   6   0    0.71    0.23
   1  -6   0    2.68    0.36
   1  -6   0    2.96    0.31
  -1   6   0    2.51    0.31
  -1   6   0    2.30    0.31
  -1   6   0    2.53    0.30
  -1   6   0    2.02    0.25
   0  -6   0   78.03    2.93
   0  -6   0   82.38    2.69
   0   6   0   80.38    2.67
   0   6   0   78.29    2.92
   0   6   0   79.54    2.77
  -1  -6   0    9.61    0.62
   1   6   0    9.78    0.54
   1   6   0    9.16    0.60
  -2  -6   0   47.60    1.88
   2   6   0   48.89    1.71
   2   6   0   42.44    1.82
  -3  -6   0    5.38    0.54
   3   6   0    3.42    0.40
   3   6   0    3.57    0.45
   4   6   0    2.04    0.37
   4   6   0    2.04    0.40
   5   6   0    0.02    0.32
   5   6   0    0.50    0.32
   4  -7   0    1.23    0.35
  -4   7   0    0.96    0.48
  -4   7   0    0.91    0.43
   3  -7   0    0.12    0.25
   3  -7   0    0.16    0.26
  -3   7   0    0.06    0.30
  -3   7   0   -0.17    0.26
  -3   7   0    0.27    0.34
   2  -7   0    2.69    0.39
   2  -7   0    3.81    0.38
  -2   7   0    2.58    0.39
  -2   7   0    3.09    0.38
  -2   7   0    2.75    0.41
  -2   7   0    3.93    0.43
   1  -7   0   11.71    0.72
   1  -7   0   11.10    0.61
  -1   7   0   10.88    0.57
  -1   7   0   12.57    0.67
  -1   7   0   10.75    0.66
  -1   7   0   10.84    0.68
   0  -7   0   13.84    0.77
   0  -7   0   12.30    0.69
   0   7   0   12.35    0.74
   0   7   0   12.50    0.68
   0   7   0   12.75    0.65
  -1  -7   0    0.40    0.30
   1   7   0    0.79    0.28
   1   7   0    0.85    0.30
  -2  -7   0   15.62    0.92
   2   7   0   14.14    0.84
   2   7   0   14.88    0.78
  -3  -7   0    2.18    0.44
   3   7   0    2.01    0.41
   3   7   0    1.88    0.38
   4   7   0    1.66    0.41
   4   7   0    1.64    0.39
   5   7   0    1.36    0.44
   5   7   0    0.75    0.38
   4  -8   0   -0.11    0.33
  -4   8   0    0.15    0.42
   3  -8   0    0.70    0.34
  -3   8   0    0.94    0.40
  -3   8   0    1.98    0.47
   2  -8   0    2.34    0.43
  -2   8   0    2.21    0.36
  -2   8   0    1.93    0.39
  -2   8   0    1.61    0.37
   1  -8   0    1.78    0.39
  -1   8   0    1.91    0.32
  -1   8   0    2.14    0.39
  -1   8   0    2.45    0.37
  -1   8   0    1.80    0.29
   0  -8   0    4.88    0.55
   0   8   0    4.82    0.43
   0   8   0    6.60    0.59
   0   8   0    4.82    0.41
  -1  -8   0    7.79    0.70
   1   8   0    8.31    0.66
  -2  -8   0    0.72    0.36
   2   8   0    0.33    0.32
   2   8   0    0.60    0.34
   3   8   0    3.17    0.49
   3   8   0    3.69    0.54
   4   8   0    7.12    0.65
   4   8   0    6.18    0.68
   3  -9   0    1.09    0.41
  -3   9   0    0.69    0.45
   2  -9   0    2.19    0.45
  -2   9   0    3.14    0.45
  -2   9   0    3.37    0.51
   1  -9   0    2.53    0.48
  -1   9   0    3.29    0.41
  -1   9   0    3.42    0.46
  -1   9   0    2.41    0.35
  -1   9   0    3.08    0.51
   0  -9   0    1.03    0.39
   0   9   0    1.15    0.41
   0   9   0    0.94    0.30
  -1  -9   0    4.50    0.60
   1   9   0    5.55    0.44
   1   9   0    5.52    0.62
  -2  -9   0    5.57    0.68
   2   9   0    4.99    0.62
  -3  -9   0    5.32    0.69
   3   9   0    3.51    0.57
   4   9   0    1.54    0.51
  -3  10   0   -0.03    0.45
   2 -10   0   -0.70    0.33
  -2  10   0   -0.11    0.38
   1 -10   0    0.58    0.39
  -1  10   0    0.96    0.42
  -1  10   0    0.84    0.38
  -1  10   0    0.65    0.30
   0 -10   0    0.41    0.42
   0  10   0    1.41    0.35
   0  10   0    0.95    0.46
  -1 -10   0    3.03    0.57
   1  10   0    4.68    0.64
  -2 -10   0    0.37    0.44
   2  10   0    0.74    0.45
   3  10   0    1.17    0.47
  -2  11   0    0.10    0.43
   1 -11   0    1.48    0.52
   0 -11   0    1.63    0.55
   0  11   0    1.89    0.55
  -1 -11   0    0.34    0.47
   1  11   0    0.28    0.48
  -2 -11   0    1.65    0.60
   2  11   0    0.87    0.52
   2  11  -1    0.27    0.53
  -2 -11   1    1.14    0.60
   1  11  -1   -0.03    0.49
  -1 -11   1   -0.01    0.48
   0  11  -1    0.81    0.51
   0 -11   1    0.78    0.49
   1 -11   1   -0.01    0.43
   3  10  -1    1.52    0.54
   2  10  -1    0.99    0.47
  -2 -10   1    2.01    0.55
   1  10  -1    2.67    0.55
  -1 -10   1    2.85    0.57
   0  10  -1    1.54    0.48
   0 -10   1    1.49    0.47
  -1  10  -1    1.90    0.38
  -1  10  -1    1.58    0.41
   1 -10   1    2.16    0.48
  -2  10  -1   -0.06    0.38
   2 -10   1    0.13    0.38
   4   9  -1    1.58    0.50
   3   9  -1    3.50    0.58
  -3  -9   1    4.05    0.64
   2   9  -1    0.73    0.41
  -2  -9   1    1.20    0.47
   1   9  -1    1.16    0.44
  -1  -9   1    1.63    0.46
   0   9  -1    9.54    0.62
   0   9  -1    8.97    0.63
   0   9  -1    9.36    0.80
   0  -9   1    9.60    0.76
  -1   9  -1    0.88    0.35
  -1   9  -1    0.94    0.32
  -1   9  -1    0.99    0.42
  -1   9  -1    0.82    0.28
   1  -9   1    0.38    0.34
  -2   9  -1    0.68    0.39
  -2   9  -1    0.86    0.39
  -2   9  -1    0.74    0.35
   2  -9   1    0.76    0.36
  -3   9  -1    0.74    0.45
   3  -9   1    0.48    0.37
   4   8  -1    0.84    0.39
   4   8  -1    1.06    0.45
   3   8  -1    2.23    0.43
   3   8  -1    1.74    0.42
  -3  -8   1    2.03    0.47
   2   8  -1    3.38    0.50
  -2  -8   1    3.73    0.53
   1   8  -1    5.20    0.40
   1   8  -1    4.41    0.54
  -1  -8   1    5.28    0.58
   0   8  -1    5.14    0.56
   0   8  -1    5.64    0.44
   0  -8   1    5.33    0.57
  -1   8  -1    0.80    0.28
  -1   8  -1    0.80    0.29
  -1   8  -1    0.59    0.23
  -1   8  -1    0.69    0.32
   1  -8   1    0.85    0.33
  -2   8  -1    1.04    0.36
  -2   8  -1    1.43    0.34
  -2   8  -1    0.50    0.35
   2  -8   1    0.89    0.33
  -3   8  -1    0.34    0.39
  -3   8  -1    0.23    0.35
   3  -8   1    0.26    0.32
  -4   8  -1   -0.04    0.41
   4  -8   1    0.40    0.35
   5   7  -1    0.30    0.38
   5   7  -1    0.27    0.36
   4   7  -1    0.35    0.33
   4   7  -1    0.70    0.37
   3   7  -1    0.82    0.33
   3   7  -1    0.99    0.36
  -3  -7   1    0.80    0.39
   2   7  -1   11.71    0.77
   2   7  -1   12.93    0.71
  -2  -7   1   11.70    0.78
   1   7  -1   63.46    2.53
   1   7  -1   66.33    2.31
   1   7  -1   65.49    2.29
  -1  -7   1   66.53    2.55
   0   7  -1    0.19    0.21
   0   7  -1    0.09    0.18
   0   7  -1    0.04    0.23
   0  -7   1    0.42    0.28
  -1   7  -1   14.11    0.78
  -1   7  -1   13.58    0.73
  -1   7  -1   13.81    0.67
  -1   7  -1   14.30    0.81
   1  -7   1   14.09    0.80
  -2   7  -1    2.02    0.36
  -2   7  -1    2.25    0.39
  -2   7  -1    2.15    0.40
  -2   7  -1    2.44    0.35
   2  -7   1    1.90    0.37
  -3   7  -1    0.70    0.32
  -3   7  -1    0.29    0.33
  -3   7  -1    0.66    0.35
   3  -7   1    0.56    0.29
  -4   7  -1    0.47    0.42
  -4   7  -1    0.33    0.44
   4  -7   1    0.62    0.33
   5   6  -1    0.27    0.33
   5   6  -1    0.16    0.36
   4   6  -1    1.39    0.36
   4   6  -1    1.20    0.32
   3   6  -1   21.41    0.96
   3   6  -1   20.94    1.03
  -3  -6   1   20.00    1.06
   2   6  -1   18.37    0.97
   2   6  -1   21.52    0.91
  -2  -6   1   18.27    0.97
   1   6  -1    1.08    0.25
   1   6  -1    0.60    0.25
  -1  -6   1    0.45    0.25
   0   6  -1   22.77    1.04
   0   6  -1   23.14    0.93
   0   6  -1   22.79    0.91
   0  -6   1   22.04    1.04
   0  -6   1   22.83    0.93
  -1   6  -1   23.29    1.00
  -1   6  -1   23.47    1.05
  -1   6  -1   24.26    0.95
  -1   6  -1   22.56    1.09
   1  -6   1   24.43    0.97
   1  -6   1   23.37    1.06
  -2   6  -1    4.45    0.49
  -2   6  -1    4.28    0.41
  -2   6  -1    4.38    0.39
  -2   6  -1    4.07    0.43
   2  -6   1    4.10    0.43
   2  -6   1    4.62    0.37
  -3   6  -1    1.21    0.34
  -3   6  -1    1.41    0.41
  -3   6  -1    1.66    0.35
   3  -6   1    1.08    0.25
   3  -6   1    1.40    0.30
  -4   6  -1    0.78    0.41
  -4   6  -1    1.07    0.46
   4  -6   1    1.08    0.30
   4  -6   1    0.46    0.25
  -5   6  -1    0.34    0.43
   5  -6   1    0.65    0.25
   5   5  -1    0.09    0.28
   5   5  -1    0.46    0.32
   4   5  -1   12.38    0.67
   4   5  -1   12.65    0.74
   3   5  -1   36.36    1.54
   3   5  -1   37.76    1.41
  -3  -5   1   38.81    1.57
   2   5  -1    9.54    0.58
   2   5  -1    9.29    0.53
  -2  -5   1    7.37    0.58
   1   5  -1   45.85    1.61
   1   5  -1   45.08    1.76
  -1  -5   1   45.76    1.78
   0   5  -1   94.28    3.25
   0   5  -1   85.38    2.96
   0   5  -1   91.34    3.07
   0  -5   1   91.81    2.98
   0  -5   1   89.71    3.24
  -1   5  -1   37.49    1.54
  -1   5  -1   36.00    1.42
  -1   5  -1   37.10    1.28
  -1   5  -1   34.77    1.36
  -1   5  -1   37.28    1.33
   1  -5   1   33.09    1.42
   1  -5   1   38.54    1.31
  -2   5  -1   17.88    0.97
  -2   5  -1   19.65    0.85
  -2   5  -1   18.31    0.86
  -2   5  -1   18.43    0.83
   2  -5   1   17.30    0.84
   2  -5   1   19.48    0.87
   2  -5   1   18.50    0.76
  -3   5  -1    3.61    0.44
  -3   5  -1    3.88    0.41
  -3   5  -1    4.11    0.53
   3  -5   1    3.92    0.37
   3  -5   1    3.80    0.32
  -4   5  -1    1.73    0.40
  -4   5  -1    1.66    0.48
  -4   5  -1    1.10    0.38
   4  -5   1    1.59    0.24
   4  -5   1    1.60    0.28
  -5   5  -1    0.32    0.39
   5  -5   1    0.26    0.20
   5   4  -1    1.11    0.28
   5   4  -1    1.32    0.33
   4   4  -1    6.26    0.49
   4   4  -1    6.25    0.45
   3   4  -1   11.35    0.57
   3   4  -1   11.74    0.64
   3   4  -1   10.86    0.63
  -3  -4   1   12.71    0.66
   2   4  -1    9.83    0.48
   2   4  -1    9.54    0.55
  -2  -4   1    8.86    0.56
   1   4  -1   21.78    0.94
   1   4  -1   22.50    0.85
  -1  -4   1   21.85    0.94
  -1  -4   1   23.25    0.85
  -1  -4   1   22.37    0.75
   0   4  -1  131.03    4.53
   0   4  -1  131.62    4.36
   0  -4   1  129.32    4.53
   0  -4   1  130.98    4.18
  -1   4  -1   90.04    3.15
  -1   4  -1   91.87    3.54
  -1   4  -1   91.29    3.10
  -1   4  -1   91.30    3.22
  -1   4  -1   93.98    2.95
   1  -4   1   92.76    3.12
   1  -4   1   94.58    3.24
   1  -4   1   91.64    2.97
   1  -4   1   87.50    3.22
  -2   4  -1    1.26    0.25
  -2   4  -1    1.59    0.21
  -2   4  -1    1.67    0.23
  -2   4  -1    1.59    0.30
   2  -4   1    1.37    0.21
   2  -4   1    1.28    0.18
   2  -4   1    1.35    0.21
  -3   4  -1    2.17    0.32
  -3   4  -1    1.59    0.37
  -3   4  -1    1.96    0.34
   3  -4   1    2.45    0.26
   3  -4   1    2.46    0.22
  -4   4  -1   -0.30    0.32
  -4   4  -1    0.28    0.31
  -4   4  -1    0.24    0.30
   4  -4   1    0.50    0.18
   4  -4   1    0.55    0.17
   5  -4   1    0.04    0.16
   6   3  -1    0.31    0.26
   5   3  -1    0.45    0.22
   5   3  -1    0.42    0.25
   4   3  -1    0.18    0.18
   4   3  -1    0.19    0.20
   3   3  -1   10.49    0.55
   3   3  -1   10.38    0.49
   3   3  -1   10.57    0.56
  -3  -3   1   10.55    0.56
   2   3  -1   69.14    2.38
   2   3  -1   65.28    2.28
   2   3  -1   63.63    2.36
   2   3  -1   66.20    2.18
  -2  -3   1   66.99    2.38
   1   3  -1   46.12    1.73
   1   3  -1   46.20    1.59
   1   3  -1   50.83    1.75
  -1  -3   1   48.87    1.59
  -1  -3   1   46.00    1.74
  -1  -3   1   47.42    1.45
   0   3  -1  142.01    4.93
   0   3  -1  146.26    4.78
   0   3  -1  148.70    4.94
   0  -3   1  145.13    4.56
   0  -3   1  143.50    4.94
   0  -3   1  139.84    4.94
  -1   3  -1  113.88    3.52
  -1   3  -1  110.76    3.42
  -1   3  -1  107.54    3.76
  -1   3  -1  116.66    4.25
  -1   3  -1  111.03    3.72
  -1   3  -1  112.30    3.83
   1  -3   1  108.87    3.53
   1  -3   1  114.40    3.84
   1  -3   1  107.91    3.83
   1  -3   1  110.53    3.75
  -2   3  -1   20.77    1.03
  -2   3  -1   21.15    0.81
  -2   3  -1   19.12    0.84
  -2   3  -1   20.42    0.89
   2  -3   1   20.68    0.74
   2  -3   1   22.16    1.00
   2  -3   1   19.78    0.82
   2  -3   1   22.01    0.82
   2  -3   1   21.64    0.83
  -3   3  -1    9.82    0.57
  -3   3  -1   10.39    0.76
  -3   3  -1   10.27    0.62
   3  -3   1   10.39    0.47
   3  -3   1    9.23    0.46
   3  -3   1    9.72    0.41
  -4   3  -1    2.08    0.36
  -4   3  -1    2.37    0.41
  -4   3  -1    2.75    0.51
   4  -3   1    2.24    0.19
   4  -3   1    2.36    0.20
   5  -3   1    0.05    0.12
   6   2  -1   -0.08    0.20
   5   2  -1    1.24    0.22
   5   2  -1    1.69    0.26
   4   2  -1    0.22    0.18
   4   2  -1    0.23    0.15
   3   2  -1    9.78    0.48
   3   2  -1    9.01    0.48
   3   2  -1    9.98    0.44
   3   2  -1    9.60    0.57
   3   2  -1    9.63    0.37
   2   2  -1  173.97    5.95
   2   2  -1  173.11    5.96
   2   2  -1  169.63    5.51
   2   2  -1  183.73    5.86
  -2  -2   1  176.24    5.96
   1   2  -1  225.01    7.52
   1   2  -1  222.24    7.52
   1   2  -1  222.34    6.96
  -1  -2   1  220.53    7.51
  -1  -2   1  228.32    6.96
  -1  -2   1  217.42    7.52
   0   2  -1   85.20    2.87
   0   2  -1   86.01    2.87
   0   2  -1   83.72    2.53
   0   2  -1   82.50    2.76
   0  -2   1   83.36    2.87
   0  -2   1   84.05    2.87
   0  -2   1   82.03    2.52
   0  -2   1   79.81    2.64
  -1   2  -1   12.75    0.50
  -1   2  -1   12.28    0.51
  -1   2  -1   12.50    0.61
  -1   2  -1   12.64    0.53
  -1   2  -1   12.17    0.50
  -1   2  -1   12.36    0.51
  -1   2  -1   12.68    0.45
   1  -2   1   12.85    0.49
   1  -2   1   13.09    0.52
   1  -2   1   13.52    0.52
   1  -2   1   12.82    0.46
   1  -2   1   13.12    0.52
  -2   2  -1  116.44    4.54
  -2   2  -1  118.20    3.62
  -2   2  -1  122.99    3.95
  -2   2  -1  111.62    3.96
  -2   2  -1  116.80    4.01
   2  -2   1  118.55    3.98
   2  -2   1  119.41    3.98
   2  -2   1  115.18    3.94
   2  -2   1  119.12    4.51
   2  -2   1  112.53    3.67
  -3   2  -1    4.17    0.48
  -3   2  -1    3.60    0.35
  -3   2  -1    3.86    0.39
   3  -2   1    3.69    0.22
   3  -2   1    3.78    0.19
   3  -2   1    3.45    0.32
   3  -2   1    3.40    0.23
  -4   2  -1    2.85    0.50
   4  -2   1    2.47    0.17
   6   1  -1    0.04    0.17
   5   1  -1    1.42    0.19
   4   1  -1    0.37    0.13
   4   1  -1    0.50    0.15
   3   1  -1   26.27    1.00
   3   1  -1   27.05    1.00
   3   1  -1   28.29    1.12
   3   1  -1   26.39    0.91
   2   1  -1   64.59    1.90
   2   1  -1   65.66    2.17
   2   1  -1   60.73    2.16
   2   1  -1   62.92    2.00
   2   1  -1   64.40    2.18
   2   1  -1   64.32    2.17
   2   1  -1   61.39    2.50
  -2  -1   1   59.01    2.14
  -2  -1   1   59.56    2.15
   1   1  -1  230.85    7.97
   1   1  -1  237.92    7.81
   1   1  -1  236.78    7.39
   1   1  -1  241.73    7.97
  -1  -1   1  238.23    7.97
  -1  -1   1  238.38    7.97
  -1  -1   1  237.32    7.38
   0   1  -1   24.87    0.87
   0   1  -1   25.34    0.87
   0   1  -1   23.97    0.81
   0   1  -1   24.15    0.76
   0  -1   1   22.67    0.86
   0  -1   1   23.85    0.81
   0  -1   1   24.43    0.87
   0  -1   1   24.49    0.76
   0  -1   1   23.16    0.79
  -1   1  -1  897.77   32.46
  -1   1  -1  981.08   32.10
  -1   1  -1  966.73   31.91
   1  -1   1 1000.00   30.09
   1  -1   1  963.88   31.83
   1  -1   1  962.93   32.47
   1  -1   1  993.82   29.00
   1  -1   1  974.93   31.95
   1  -1   1  978.61   32.52
  -2   1  -1   63.62    2.58
  -2   1  -1   64.10    2.23
  -2   1  -1   64.15    2.02
   2  -1   1   65.99    2.18
   2  -1   1   60.11    2.17
   2  -1   1   67.50    2.57
   2  -1   1   62.82    2.22
  -3   1  -1    5.24    0.42
  -3   1  -1    5.97    0.53
  -3   1  -1    5.32    0.38
   3  -1   1    5.54    0.40
  -4   1  -1    1.35    0.40
   5   0  -1    0.63    0.13
   4   0  -1    1.96    0.15
   3   0  -1   34.30    1.11
   3   0  -1   34.28    1.21
   3   0  -1   35.87    1.35
  -3   0   1   33.73    1.34
   2   0  -1   31.51    0.99
   2   0  -1   31.06    0.98
   2   0  -1   30.25    1.13
   2   0  -1   30.43    1.07
   2   0  -1   31.99    1.15
   2   0  -1   30.92    1.07
   2   0  -1   30.42    1.33
  -2   0   1   28.37    1.13
   1   0  -1   67.08    2.28
   1   0  -1   70.05    2.13
   1   0  -1   69.02    2.29
   1   0  -1   71.26    2.30
   1   0  -1   68.63    2.30
  -1   0   1   68.26    2.30
  -1   0   1   66.33    2.12
  -1   0   1   67.95    2.12
  -1   0   1   65.60    2.29
  -1   0   1   66.48    2.28
   0   0  -1   23.96    0.84
   0   0  -1   23.36    0.74
   0   0   1   22.92    0.74
   0   0   1   25.31    0.77
   0   0   1   24.48    0.84
  -1   0  -1   21.07    0.68
  -1   0  -1   20.00    0.72
  -1   0  -1   21.17    0.87
   1   0   1   21.14    0.72
   1   0   1   20.21    0.68
   1   0   1   20.06    0.74
   1   0   1   21.17    0.86
   1   0   1   21.30    0.76
   1   0   1   20.09    0.72
  -2   0  -1  125.60    4.88
  -2   0  -1  124.73    3.86
   2   0   1  130.87    4.28
   2   0   1  133.24    4.89
   2   0   1  124.03    4.27
   2   0   1  125.61    4.28
  -3   0  -1   12.68    0.79
  -3   0  -1   13.26    0.57
   3   0   1   13.45    0.49
   3   0   1   12.45    0.48
   3   0   1   15.06    0.67
  -4   1   1    1.19    0.30
   3  -1  -1    5.39    0.39
  -3   1   1    4.06    0.38
  -3   1   1    3.81    0.35
   2  -1  -1    4.58    0.38
   2  -1  -1    4.63    0.21
   2  -1  -1    4.92    0.29
   2  -1  -1    4.22    0.20
  -2   1   1    5.47    0.33
  -2   1   1    4.51    0.30
   1  -1  -1  119.84    3.76
   1  -1  -1  117.46    4.54
   1  -1  -1  121.59    3.76
   1  -1  -1  123.82    4.06
   1  -1  -1  119.32    4.00
   1  -1  -1  124.91    4.03
   1  -1  -1  121.40    4.07
  -1   1   1  119.12    4.03
  -1   1   1  117.62    4.06
  -1   1   1  123.50    4.01
   0  -1  -1    2.22    0.13
   0  -1  -1    2.07    0.12
   0  -1  -1    1.91    0.13
   0   1   1    2.02    0.13
   0   1   1    1.69    0.13
  -1  -1  -1   34.58    1.17
  -1  -1  -1   33.38    1.06
  -1  -1  -1   34.56    1.17
  -1  -1  -1   32.50    1.32
  -1  -1  -1   32.72    1.03
   1   1   1   32.74    1.32
   1   1   1   32.44    1.03
   1   1   1   34.49    1.18
   1   1   1   33.11    1.17
   1   1   1   32.89    1.07
  -2  -1  -1   12.11    0.45
  -2  -1  -1   11.58    0.46
  -2  -1  -1   12.48    0.64
  -2  -1  -1   12.19    0.45
   2   1   1   11.44    0.64
   2   1   1   12.59    0.50
   2   1   1   11.82    0.55
   2   1   1   12.05    0.46
   2   1   1   12.04    0.43
   2   1   1   12.11    0.49
  -3  -1  -1   14.37    0.84
  -3  -1  -1   14.35    0.58
   3   1   1   14.23    0.53
   3   1   1   14.85    0.58
   3   1   1   14.00    0.69
   3   1   1   14.35    0.58
   4   1   1    5.50    0.30
   4   1   1    4.98    0.29
   4   1   1    5.09    0.29
   5   1   1    0.78    0.16
   6   1   1    0.41    0.16
  -4   2   1    1.53    0.34
  -4   2   1    1.06    0.30
   3  -2  -1   10.15    0.40
   3  -2  -1    9.65    0.35
   3  -2  -1    9.81    0.52
   3  -2  -1    9.49    0.39
  -3   2   1    8.75    0.55
  -3   2   1    8.93    0.54
  -3   2   1    9.42    0.68
   2  -2  -1   40.80    1.30
   2  -2  -1   40.40    1.71
   2  -2  -1   41.59    1.43
   2  -2  -1   40.16    1.43
   2  -2  -1   41.33    1.46
  -2   2   1   41.26    1.48
  -2   2   1   38.67    1.50
   1  -2  -1    2.68    0.19
   1  -2  -1    2.17    0.18
   1  -2  -1    2.23    0.15
   1  -2  -1    2.33    0.18
   1  -2  -1    2.17    0.16
   1  -2  -1    2.45    0.21
  -1   2   1    1.96    0.20
  -1   2   1    2.16    0.17
  -1   2   1    2.10    0.16
  -1   2   1    2.31    0.13
  -1   2   1    1.89    0.17
  -1   2   1    2.15    0.16
   0  -2  -1  465.73   14.98
   0  -2  -1  440.17   13.89
   0  -2  -1  449.71   14.98
   0   2   1  449.99   15.17
   0   2   1  426.32   16.52
   0   2   1  453.53   15.18
  -1  -2  -1  269.77    8.91
  -1  -2  -1  269.37    8.93
  -1  -2  -1  262.19    8.26
  -1  -2  -1  263.65    7.91
   1   2   1  262.83    9.82
   1   2   1  264.05    8.92
   1   2   1  257.54    8.27
   1   2   1  271.48    8.93
  -2  -2  -1    0.36    0.10
  -2  -2  -1    0.27    0.11
  -2  -2  -1    0.46    0.09
   2   2   1    0.35    0.09
   2   2   1    0.10    0.10
   2   2   1    0.25    0.12
   2   2   1    0.28    0.11
   2   2   1    0.08    0.15
  -3  -2  -1   16.68    0.64
  -3  -2  -1   18.08    0.68
   3   2   1   18.53    0.83
   3   2   1   18.59    0.75
   3   2   1   17.59    0.68
   3   2   1   17.85    0.74
   4   2   1    1.80    0.24
   4   2   1    2.49    0.23
   5   2   1    1.08    0.21
   6   2   1    0.12    0.19
  -5   3   1   -0.18    0.30
   4  -3  -1    0.51    0.14
  -4   3   1    0.31    0.26
  -4   3   1    0.28    0.30
   3  -3  -1    2.10    0.17
   3  -3  -1    2.22    0.20
   3  -3  -1    2.21    0.21
  -3   3   1    1.98    0.32
  -3   3   1    2.86    0.40
  -3   3   1    2.30    0.31
   2  -3  -1    2.43    0.29
   2  -3  -1    3.20    0.24
   2  -3  -1    2.61    0.22
   2  -3  -1    3.05    0.24
   2  -3  -1    2.73    0.20
  -2   3   1    2.45    0.25
  -2   3   1    2.49    0.28
  -2   3   1    2.80    0.21
  -2   3   1    3.45    0.35
   1  -3  -1   19.63    0.84
   1  -3  -1   20.34    0.78
   1  -3  -1   18.62    0.69
   1  -3  -1   19.00    0.75
   1  -3  -1   19.08    0.78
  -1   3   1   20.21    0.85
  -1   3   1   19.41    0.68
  -1   3   1   19.62    0.77
  -1   3   1   19.03    0.77
  -1   3   1   18.82    0.77
  -1   3   1   19.73    0.74
   0  -3  -1  220.11    7.28
   0  -3  -1  212.64    6.74
   0  -3  -1  214.31    7.28
   0   3   1  205.08    7.27
   0   3   1  222.28    7.29
  -1  -3  -1   26.80    1.04
  -1  -3  -1   27.51    0.94
  -1  -3  -1   26.01    1.02
   1   3   1   25.49    1.02
   1   3   1   27.03    1.04
   1   3   1   25.56    0.94
  -2  -3  -1   14.06    0.48
  -2  -3  -1   12.85    0.63
   2   3   1   14.67    0.71
   2   3   1   13.38    0.62
   2   3   1   13.66    0.62
   2   3   1   13.01    0.56
  -3  -3  -1   34.06    1.29
  -3  -3  -1   31.70    1.08
   3   3   1   35.26    1.32
   3   3   1   33.62    1.31
   3   3   1   34.72    1.21
   4   3   1    1.24    0.26
   4   3   1    1.76    0.25
   5   3   1    0.38    0.22
   5   3   1    0.09    0.22
   6   3   1    0.18    0.24
   5  -4  -1    0.28    0.17
  -5   4   1   -0.06    0.34
   4  -4  -1    0.10    0.16
   4  -4  -1    0.35    0.16
  -4   4   1   -0.22    0.28
  -4   4   1    0.08    0.26
   3  -4  -1    5.28    0.36
   3  -4  -1    4.80    0.30
   3  -4  -1    4.84    0.37
  -3   4   1    4.24    0.41
  -3   4   1    5.40    0.50
  -3   4   1    4.31    0.52
   2  -4  -1   32.83    1.28
   2  -4  -1   36.37    1.46
   2  -4  -1   32.78    1.16
   2  -4  -1   34.03    1.28
  -2   4   1   33.73    1.48
  -2   4   1   32.49    1.28
  -2   4   1   31.21    1.31
  -2   4   1   33.86    1.27
   1  -4  -1   73.57    2.41
   1  -4  -1   78.34    2.65
   1  -4  -1   70.23    2.63
  -1   4   1   75.06    2.40
  -1   4   1   77.27    2.64
  -1   4   1   71.84    2.86
  -1   4   1   72.71    2.58
   0  -4  -1    1.50    0.21
   0  -4  -1    1.39    0.18
   0  -4  -1    1.34    0.20
   0   4   1    1.29    0.19
  -1  -4  -1    2.72    0.24
  -1  -4  -1    2.87    0.29
   1   4   1    1.99    0.24
   1   4   1    2.48    0.23
  -2  -4  -1   16.32    0.78
  -2  -4  -1   15.46    0.57
   2   4   1   16.16    0.74
   2   4   1   16.71    0.77
   2   4   1   16.91    0.70
   2   4   1   16.46    0.81
  -3  -4  -1    5.68    0.45
  -3  -4  -1    5.60    0.26
   3   4   1    5.50    0.45
   3   4   1    5.27    0.39
   3   4   1    4.82    0.42
   4   4   1    6.61    0.52
   4   4   1    6.83    0.47
   5   4   1    2.72    0.35
   5   4   1    3.47    0.41
   5  -5  -1    0.12    0.20
  -5   5   1   -0.24    0.36
   4  -5  -1    0.89    0.24
   4  -5  -1    0.81    0.21
  -4   5   1    0.69    0.34
  -4   5   1    1.03    0.45
  -4   5   1    1.75    0.39
   3  -5  -1    1.78    0.24
   3  -5  -1    2.08    0.29
  -3   5   1    1.92    0.36
  -3   5   1    2.50    0.34
  -3   5   1    1.98    0.41
   2  -5  -1   17.98    0.83
   2  -5  -1   18.06    0.74
   2  -5  -1   19.13    0.85
   2  -5  -1   19.53    0.91
  -2   5   1   19.16    0.84
  -2   5   1   17.46    0.86
  -2   5   1   17.88    0.93
  -2   5   1   17.50    0.81
   1  -5  -1   13.99    0.70
   1  -5  -1   15.53    0.72
   1  -5  -1   15.08    0.62
  -1   5   1   14.46    0.71
  -1   5   1   15.05    0.64
  -1   5   1   14.33    0.61
  -1   5   1   14.59    0.70
  -1   5   1   14.69    0.68
   0  -5  -1   42.03    1.54
   0  -5  -1   42.95    1.40
   0   5   1   40.45    1.52
   0   5   1   31.96    1.36
  -1  -5  -1   34.39    1.23
  -1  -5  -1   32.56    1.34
   1   5   1   32.30    1.22
   1   5   1   33.56    1.34
  -2  -5  -1    4.54    0.43
   2   5   1    3.39    0.36
   2   5   1    4.17    0.35
   2   5   1    4.21    0.37
  -3  -5  -1    4.53    0.46
   3   5   1    4.37    0.44
   3   5   1    5.06    0.41
   4   5   1    6.41    0.50
   4   5   1    6.58    0.56
   5   5   1    2.83    0.39
   5   5   1    2.59    0.43
   5  -6  -1    0.09    0.22
  -5   6   1    0.08    0.39
   4  -6  -1    1.83    0.32
   4  -6  -1    1.11    0.26
  -4   6   1    1.06    0.42
  -4   6   1    1.09    0.43
   3  -6  -1    9.29    0.51
   3  -6  -1    9.48    0.60
  -3   6   1    8.71    0.66
  -3   6   1    9.27    0.66
  -3   6   1   10.06    0.77
   2  -6  -1    0.28    0.21
   2  -6  -1    0.56    0.24
  -2   6   1    1.00    0.26
  -2   6   1    0.82    0.26
  -2   6   1    0.71    0.23
  -2   6   1    0.73    0.27
   1  -6  -1   14.69    0.81
   1  -6  -1   16.78    0.74
  -1   6   1   17.32    0.81
  -1   6   1   16.38    0.78
  -1   6   1   16.37    0.80
   0  -6  -1    2.72    0.34
   0  -6  -1    3.10    0.30
   0   6   1    2.60    0.28
   0   6   1    3.02    0.23
   0   6   1    2.28    0.32
   0   6   1    2.43    0.26
  -1  -6  -1   16.10    0.83
   1   6   1   15.38    0.80
   1   6   1   15.76    0.74
  -2  -6  -1   22.70    1.13
   2   6   1   24.13    1.09
   2   6   1   24.74    1.01
  -3  -6  -1    8.91    0.68
   3   6   1    8.53    0.59
   3   6   1    9.52    0.65
   4   6   1    1.02    0.35
   4   6   1    0.80    0.31
   5   6   1   -0.09    0.29
   5   6   1    0.37    0.36
   4  -7  -1    1.48    0.35
   4  -7  -1    1.45    0.31
  -4   7   1    1.66    0.51
  -4   7   1    1.25    0.47
   3  -7  -1    1.86    0.36
   3  -7  -1    1.46    0.31
  -3   7   1    1.69    0.37
  -3   7   1    1.94    0.41
  -3   7   1    1.80    0.39
   2  -7  -1    0.60    0.27
   2  -7  -1    0.40    0.24
  -2   7   1    0.33    0.26
  -2   7   1    0.88    0.28
  -2   7   1    0.29    0.23
  -2   7   1    0.22    0.28
   1  -7  -1    8.29    0.54
   1  -7  -1    7.50    0.57
  -1   7   1    8.10    0.57
  -1   7   1    6.81    0.51
  -1   7   1    8.00    0.52
   0  -7  -1   10.08    0.57
   0  -7  -1    8.67    0.63
   0   7   1    9.07    0.53
   0   7   1    9.71    0.56
   0   7   1    8.77    0.62
   0   7   1    9.42    0.49
  -1  -7  -1   34.58    1.51
   1   7   1   35.39    1.37
   1   7   1   35.06    1.50
  -2  -7  -1    7.59    0.64
   2   7   1    5.71    0.56
   2   7   1    7.06    0.55
  -3  -7  -1    0.73    0.34
   3   7   1    0.36    0.31
   3   7   1    0.57    0.33
   4   7   1    0.94    0.37
   4   7   1    0.90    0.37
   5   7   1    1.29    0.41
   5   7   1    1.48    0.45
   4  -8  -1    0.52    0.34
  -4   8   1    0.11    0.44
  -4   8   1    0.96    0.44
   3  -8  -1    0.54    0.32
  -3   8   1    0.32    0.36
  -3   8   1    0.93    0.42
   2  -8  -1    2.41    0.43
  -2   8   1    3.12    0.47
  -2   8   1    2.66    0.38
  -2   8   1    2.21    0.39
   1  -8  -1    3.16    0.47
  -1   8   1    3.11    0.36
  -1   8   1    2.85    0.33
  -1   8   1    3.59    0.46
  -1   8   1    3.36    0.42
   0  -8  -1   15.51    0.89
   0   8   1   15.06    0.77
   0   8   1   15.20    0.72
   0   8   1   14.33    0.87
  -1  -8  -1    5.65    0.59
   1   8   1    5.84    0.60
  -2  -8  -1   18.03    1.05
   2   8   1   17.59    0.93
   2   8   1   15.85    0.95
  -3  -8  -1    1.26    0.44
   3   8   1    0.73    0.38
   3   8   1    1.80    0.40
   4   8   1    0.54    0.36
   4   8   1    0.16    0.39
   3  -9  -1    0.96    0.39
  -3   9   1    1.10    0.44
   2  -9  -1    1.87    0.42
  -2   9   1    3.02    0.43
  -2   9   1    2.99    0.48
   1  -9  -1    2.31    0.46
  -1   9   1    2.57    0.37
  -1   9   1    3.58    0.46
  -1   9   1    3.15    0.48
   0  -9  -1    4.57    0.57
   0   9   1    4.45    0.46
   0   9   1    4.80    0.56
  -1  -9  -1    4.33    0.59
   1   9   1    4.33    0.58
  -2  -9  -1    1.00    0.44
   2   9   1    0.78    0.39
  -3  -9  -1    0.27    0.40
   3   9   1   -0.32    0.33
   4   9   1    0.55    0.43
   3 -10  -1    0.59    0.41
  -3  10   1    0.63    0.45
   2 -10  -1    1.58    0.47
  -2  10   1    2.11    0.50
   1 -10  -1    0.57    0.39
  -1  10   1    0.20    0.36
  -1  10   1   -0.01    0.28
  -1  10   1    0.46    0.38
   0 -10  -1    1.12    0.44
   0  10   1    0.91    0.33
   0  10   1    1.03    0.47
  -1 -10  -1    3.34    0.58
   1  10   1    3.46    0.59
   1  10   1    3.15    0.41
  -2 -10  -1    0.67    0.45
   2  10   1    1.15    0.45
   3  10   1    0.38    0.43
   2 -11  -1    0.16    0.44
  -2  11   1   -0.21    0.43
   1 -11  -1    0.58    0.45
  -1  11   1    0.94    0.44
   0 -11  -1    0.26    0.44
   0  11   1    0.18    0.33
   0  11   1   -0.28    0.43
  -1 -11  -1    0.16    0.47
   1  11   1    0.58    0.48
  -2 -11  -1    1.95    0.58
   2  11   1    2.42    0.59
   0 -12  -1    0.05    0.48
   0  12   1    0.56    0.58
  -1 -12  -1    1.26    0.56
   1  12   1    0.71    0.58
   1  11  -2    0.38    0.51
  -1 -11   2   -0.07    0.47
   0  11  -2    0.19    0.48
   0 -11   2    0.15    0.45
   1 -11   2    0.77    0.48
   3  10  -2    0.05    0.44
   2  10  -2    1.54    0.55
  -2 -10   2    0.22    0.45
   1  10  -2   -0.28    0.40
  -1 -10   2   -0.15    0.40
   0  10  -2    0.14    0.44
   0 -10   2    0.31    0.43
   1 -10   2    1.74    0.48
   2 -10   2    1.05    0.44
   3   9  -2    3.59    0.59
   2   9  -2    0.57    0.41
  -2  -9   2    1.04    0.45
   1   9  -2    0.82    0.39
  -1  -9   2    0.69    0.42
   0   9  -2    0.73    0.40
   0  -9   2    0.34    0.37
  -1   9  -2    1.34    0.37
  -1   9  -2    1.74    0.39
  -1   9  -2    1.65    0.46
  -1   9  -2    1.57    0.32
   1  -9   2    1.54    0.43
  -2   9  -2   -0.26    0.35
  -2   9  -2    0.77    0.38
  -2   9  -2    0.05    0.32
   2  -9   2    0.13    0.35
  -3   9  -2    0.43    0.43
   3  -9   2    0.64    0.41
   4   8  -2    1.40    0.46
   3   8  -2    1.87    0.44
  -3  -8   2    1.69    0.48
   2   8  -2    0.26    0.34
  -2  -8   2   -0.24    0.32
   1   8  -2   12.73    0.87
   1   8  -2   14.04    0.66
  -1  -8   2   15.16    0.92
   0   8  -2   12.42    0.67
   0   8  -2   12.15    0.85
   0  -8   2   11.26    0.80
  -1   8  -2    1.06    0.32
  -1   8  -2    1.48    0.33
  -1   8  -2    0.43    0.32
  -1   8  -2    0.81    0.25
   1  -8   2    1.18    0.37
  -2   8  -2    2.57    0.45
  -2   8  -2    2.27    0.39
  -2   8  -2    2.58    0.47
   2  -8   2    2.18    0.44
  -3   8  -2    0.30    0.42
  -3   8  -2    1.06    0.39
  -3   8  -2    0.84    0.42
   3  -8   2   -0.09    0.31
   4   7  -2    2.83    0.46
   4   7  -2    3.11    0.51
   3   7  -2    2.15    0.42
   3   7  -2    2.23    0.41
  -3  -7   2    2.26    0.44
   2   7  -2   15.25    0.82
   2   7  -2   15.74    0.91
  -2  -7   2   16.80    0.98
   1   7  -2   20.76    1.08
   1   7  -2   22.55    0.99
   1   7  -2   21.95    0.86
  -1  -7   2   22.73    1.12
   0   7  -2    3.31    0.32
   0   7  -2    3.08    0.43
   0  -7   2    4.11    0.47
  -1   7  -2    2.00    0.33
  -1   7  -2    1.82    0.26
  -1   7  -2    1.57    0.34
  -1   7  -2    1.87    0.30
   1  -7   2    1.78    0.36
  -2   7  -2    2.73    0.44
  -2   7  -2    1.92    0.33
  -2   7  -2    2.65    0.41
  -2   7  -2    2.06    0.37
   2  -7   2    2.53    0.39
  -3   7  -2    2.03    0.49
  -3   7  -2    1.46    0.35
  -3   7  -2    0.87    0.40
   3  -7   2    1.43    0.36
  -4   7  -2    0.97    0.43
   4  -7   2    0.71    0.33
   5   6  -2    0.86    0.35
   5   6  -2    0.59    0.38
   4   6  -2    0.60    0.33
   4   6  -2    1.45    0.35
   3   6  -2    7.50    0.61
   3   6  -2    8.72    0.61
  -3  -6   2    8.94    0.70
   2   6  -2   33.57    1.26
   2   6  -2   28.98    1.34
  -2  -6   2   30.35    1.37
   1   6  -2    1.56    0.27
   1   6  -2    1.42    0.31
   1   6  -2    2.06    0.19
  -1  -6   2    1.82    0.33
   0   6  -2    7.96    0.44
   0   6  -2    7.96    0.56
   0   6  -2    7.35    0.48
   0  -6   2    8.06    0.49
   0  -6   2    8.11    0.57
  -1   6  -2    1.57    0.26
  -1   6  -2    1.72    0.32
  -1   6  -2    1.39    0.22
  -1   6  -2    1.90    0.31
   1  -6   2    1.90    0.33
   1  -6   2    1.96    0.29
  -2   6  -2    5.46    0.45
  -2   6  -2    6.33    0.50
  -2   6  -2    5.58    0.50
  -2   6  -2    5.69    0.56
   2  -6   2    5.44    0.49
   2  -6   2    6.99    0.48
  -3   6  -2    5.36    0.64
  -3   6  -2    4.56    0.54
  -3   6  -2    5.49    0.52
   3  -6   2    4.56    0.47
   3  -6   2    5.39    0.42
  -4   6  -2    2.05    0.56
  -4   6  -2    1.61    0.45
   4  -6   2    2.21    0.35
   4  -6   2    1.96    0.32
   5   5  -2    0.88    0.31
   5   5  -2    0.63    0.34
   4   5  -2    1.41    0.35
   4   5  -2    1.50    0.31
   3   5  -2    3.36    0.41
   3   5  -2    3.67    0.37
  -3  -5   2    4.08    0.45
   2   5  -2    4.90    0.45
   2   5  -2    4.64    0.38
  -2  -5   2    5.58    0.49
   1   5  -2   43.17    1.54
   1   5  -2   45.14    1.71
  -1  -5   2   41.24    1.69
   0   5  -2    2.71    0.32
   0   5  -2    2.05    0.24
   0   5  -2    2.59    0.22
   0  -5   2    1.65    0.28
   0  -5   2    2.37    0.27
  -1   5  -2   27.15    1.03
  -1   5  -2   25.90    1.12
  -1   5  -2   26.87    1.01
  -1   5  -2   27.74    1.07
  -1   5  -2   26.96    1.21
   1  -5   2   25.62    1.13
   1  -5   2   28.56    1.03
  -2   5  -2   14.67    0.76
  -2   5  -2   13.95    0.69
  -2   5  -2   14.86    0.87
  -2   5  -2   14.11    0.71
   2  -5   2   14.94    0.66
   2  -5   2   15.15    0.75
   2  -5   2   14.74    0.75
  -3   5  -2    0.55    0.30
  -3   5  -2    0.20    0.24
  -3   5  -2    0.60    0.34
   3  -5   2    0.27    0.22
   3  -5   2    0.27    0.20
  -4   5  -2    0.13    0.32
  -4   5  -2    0.37    0.39
  -4   5  -2    0.49    0.34
   4  -5   2    0.15    0.21
   4  -5   2    0.29    0.22
   5  -5   2    0.19    0.22
   5   4  -2    0.09    0.25
   5   4  -2   -0.29    0.25
   4   4  -2    0.00    0.22
   4   4  -2   -0.12    0.24
   3   4  -2    4.19    0.36
   3   4  -2    5.03    0.44
  -3  -4   2    5.15    0.45
   2   4  -2    5.27    0.31
   2   4  -2    4.81    0.35
   2   4  -2    5.39    0.43
  -2  -4   2    4.85    0.42
   1   4  -2   20.76    0.79
   1   4  -2   18.70    0.86
  -1  -4   2   18.63    0.86
  -1  -4   2   19.56    0.77
  -1  -4   2   18.85    0.67
   0   4  -2   15.01    0.60
   0   4  -2   15.60    0.72
   0  -4   2   16.42    0.74
   0  -4   2   16.03    0.64
  -1   4  -2   28.20    0.98
  -1   4  -2   27.39    1.21
  -1   4  -2   25.99    1.00
  -1   4  -2   28.19    1.11
  -1   4  -2   26.58    1.01
  -1   4  -2   26.48    1.05
   1  -4   2   27.86    1.00
   1  -4   2   27.36    1.03
   1  -4   2   28.57    1.13
   1  -4   2   27.84    1.11
  -2   4  -2   12.88    0.64
  -2   4  -2   14.72    0.67
  -2   4  -2   13.87    0.81
  -2   4  -2   14.19    0.65
  -2   4  -2   13.93    0.69
   2  -4   2   13.95    0.59
   2  -4   2   13.05    0.66
   2  -4   2   14.35    0.67
  -3   4  -2    2.22    0.37
  -3   4  -2    1.76    0.40
  -3   4  -2    1.84    0.31
   3  -4   2    1.75    0.23
   3  -4   2    2.32    0.28
  -4   4  -2    2.08    0.44
  -4   4  -2    2.79    0.55
  -4   4  -2    2.56    0.43
   4  -4   2    2.93    0.29
   4  -4   2    2.59    0.26
   5  -4   2    0.30    0.19
   5   3  -2   -0.07    0.23
   5   3  -2    0.08    0.23
   4   3  -2    0.04    0.19
   4   3  -2    0.30    0.22
   3   3  -2   15.55    0.68
   3   3  -2   17.82    0.81
   3   3  -2   16.99    0.78
   3   3  -2   15.92    0.76
  -3  -3   2   16.04    0.77
   2   3  -2   39.00    1.39
   2   3  -2   33.80    1.24
   2   3  -2   33.23    1.37
   2   3  -2   36.32    1.28
  -2  -3   2   36.21    1.39
   1   3  -2  182.52    6.34
   1   3  -2  175.06    5.85
   1   3  -2  192.87    6.34
  -1  -3   2  190.65    5.53
  -1  -3   2  186.66    5.86
  -1  -3   2  184.22    6.34
   0   3  -2   81.62    2.74
   0   3  -2   85.14    2.89
   0   3  -2   80.76    2.53
   0  -3   2   81.64    2.89
   0  -3   2   81.28    2.89
   0  -3   2   81.17    2.65
  -1   3  -2   46.47    1.70
  -1   3  -2   47.68    1.66
  -1   3  -2   48.16    1.58
  -1   3  -2   51.07    1.95
  -1   3  -2   47.46    1.74
  -1   3  -2   47.81    1.58
   1  -3   2   49.26    1.76
   1  -3   2   48.65    1.69
   1  -3   2   46.81    1.74
   1  -3   2   46.85    1.59
  -2   3  -2    0.81    0.17
  -2   3  -2    1.70    0.29
  -2   3  -2    0.65    0.21
  -2   3  -2    1.33    0.18
  -2   3  -2    1.15    0.23
   2  -3   2    1.14    0.19
   2  -3   2    1.20    0.16
   2  -3   2    1.14    0.18
   2  -3   2    0.91    0.17
  -3   3  -2    3.26    0.48
  -3   3  -2    1.80    0.31
  -3   3  -2    2.51    0.35
  -3   3  -2    2.60    0.32
   3  -3   2    3.28    0.27
   3  -3   2    2.95    0.26
   3  -3   2    2.52    0.21
  -4   3  -2    0.46    0.37
   4  -3   2    0.73    0.16
   4  -3   2    0.58    0.16
   5  -3   2    1.06    0.18
   6   2  -2   -0.07    0.22
   5   2  -2    0.23    0.19
   5   2  -2    0.39    0.22
   4   2  -2    2.71    0.29
   4   2  -2    2.57    0.26
   3   2  -2    9.33    0.49
   3   2  -2    8.96    0.43
   3   2  -2    9.10    0.55
   3   2  -2    8.31    0.48
  -3  -2   2    9.11    0.48
   2   2  -2  111.08    3.80
   2   2  -2  108.21    3.50
   2   2  -2  104.14    3.79
   2   2  -2  112.73    3.70
  -2  -2   2  112.77    3.80
   1   2  -2   54.85    1.81
   1   2  -2   53.88    1.77
   1   2  -2   53.88    1.64
   1   2  -2   56.90    1.94
   1   2  -2   53.61    1.93
  -1  -2   2   52.62    1.93
  -1  -2   2   55.73    1.94
  -1  -2   2   54.41    1.64
  -1  -2   2   51.82    1.77
   0   2  -2  111.50    3.39
   0   2  -2  112.62    3.85
   0   2  -2  110.56    3.70
   0   2  -2  113.84    3.85
   0  -2   2  111.03    3.84
   0  -2   2  109.96    3.70
   0  -2   2  113.13    3.85
   0  -2   2  115.04    3.39
   0  -2   2  111.60    3.55
  -1   2  -2   94.01    3.16
  -1   2  -2   88.55    3.06
  -1   2  -2   94.63    3.52
  -1   2  -2   93.98    2.90
  -1   2  -2   89.86    2.83
  -1   2  -2   91.40    3.10
   1  -2   2   86.43    3.15
   1  -2   2   90.78    2.91
   1  -2   2   93.88    3.16
   1  -2   2   93.80    3.10
   1  -2   2   89.90    3.04
  -2   2  -2   12.41    0.58
  -2   2  -2   11.43    0.60
  -2   2  -2   11.87    0.56
  -2   2  -2   12.17    0.51
  -2   2  -2   13.02    0.72
   2  -2   2   13.23    0.54
   2  -2   2   13.23    0.56
   2  -2   2   13.85    0.70
   2  -2   2   12.06    0.47
   2  -2   2   12.60    0.54
  -3   2  -2    3.66    0.47
  -3   2  -2    4.06    0.37
  -3   2  -2    3.73    0.35
  -3   2  -2    4.03    0.41
   3  -2   2    3.94    0.23
   3  -2   2    4.29    0.28
   3  -2   2    4.55    0.27
   3  -2   2    3.71    0.34
  -4   2  -2    8.31    0.79
   4  -2   2    6.48    0.31
   4  -2   2    6.29    0.30
  -5   2  -2    0.65    0.48
   5  -2   2    0.59    0.13
   6   1  -2    0.29    0.21
   5   1  -2    0.41    0.18
   4   1  -2    7.07    0.37
   4   1  -2    7.29    0.40
   3   1  -2    4.31    0.26
   3   1  -2    3.96    0.36
   3   1  -2    4.15    0.26
   3   1  -2    4.05    0.29
   3   1  -2    4.22    0.29
  -3  -1   2    3.84    0.27
   2   1  -2  105.09    3.87
   2   1  -2  114.35    3.83
   2   1  -2  116.87    3.58
   2   1  -2  112.76    3.39
   2   1  -2  115.55    3.88
   2   1  -2  117.81    3.83
  -2  -1   2  113.96    3.82
  -2  -1   2  110.09    3.87
   1   1  -2   32.67    1.10
   1   1  -2   32.09    1.17
   1   1  -2   33.56    1.17
   1   1  -2   32.00    1.07
   1   1  -2   31.37    0.98
   1   1  -2   31.45    1.12
  -1  -1   2   32.46    1.16
  -1  -1   2   32.78    1.07
  -1  -1   2   32.42    1.10
  -1  -1   2   31.34    1.17
   0   1  -2   68.05    2.36
   0   1  -2   71.30    2.37
   0   1  -2   68.22    2.08
   0  -1   2   68.36    2.08
   0  -1   2   68.62    2.27
   0  -1   2   69.10    2.37
   0  -1   2   67.38    2.36
   0  -1   2   66.88    2.18
  -1   1  -2   78.50    2.67
  -1   1  -2   79.91    2.51
  -1   1  -2   85.67    3.09
  -1   1  -2   78.63    2.46
  -1   1  -2   82.41    2.74
   1  -1   2   76.11    2.73
   1  -1   2   79.76    2.67
   1  -1   2   78.48    2.52
   1  -1   2   81.98    2.72
   1  -1   2   78.77    2.74
  -2   1  -2   26.38    1.04
  -2   1  -2   26.84    0.96
  -2   1  -2   26.57    1.24
  -2   1  -2   26.99    0.96
  -2   1  -2   27.34    0.96
   2  -1   2   27.87    1.03
   2  -1   2   28.91    1.00
   2  -1   2   29.49    1.23
   2  -1   2   26.47    0.90
  -3   1  -2   19.69    0.79
  -3   1  -2   17.66    1.04
   3  -1   2   19.99    0.73
   3  -1   2   19.50    0.71
   3  -1   2   20.17    0.85
   3  -1   2   18.42    0.65
  -4   1  -2    0.68    0.25
  -4   1  -2    0.49    0.32
   4  -1   2    0.24    0.10
  -5   1  -2    1.35    0.49
   6   0  -2    0.14    0.17
   5   0  -2    6.00    0.33
   4   0  -2    0.76    0.14
   4   0  -2    0.64    0.14
   3   0  -2    2.02    0.18
   3   0  -2    1.82    0.15
   3   0  -2    1.65    0.24
  -3   0   2    2.10    0.28
   2   0  -2   10.70    0.40
   2   0  -2   11.12    0.46
   2   0  -2   10.65    0.50
   2   0  -2   12.22    0.52
  -2   0   2   10.69    0.44
  -2   0   2   11.19    0.51
  -2   0   2   11.03    0.51
   1   0  -2   57.48    1.95
   1   0  -2   55.63    1.90
   1   0  -2   56.58    1.90
   1   0  -2   57.79    1.79
  -1   0   2   55.68    1.78
  -1   0   2   55.17    1.94
  -1   0   2   55.47    1.94
  -1   0   2   55.92    1.90
  -1   0   2   58.68    1.79
  -1   0   2   54.29    1.90
   0   0  -2  122.68    3.73
   0   0   2  122.31    3.73
   0   0   2  124.43    3.90
   0   0   2  128.76    4.22
  -1   0  -2  346.58   10.29
  -1   0  -2  315.34   12.81
  -1   0  -2  338.98   11.61
  -1   0  -2  351.35   11.57
   1   0   2  348.78   11.32
   1   0   2  356.57   11.58
   1   0   2  359.70   10.29
   1   0   2  350.35   11.57
  -2   0  -2   19.05    0.74
  -2   0  -2   19.73    0.97
  -2   0  -2   21.06    0.72
  -2   0  -2   20.98    0.73
   2   0   2   21.97    0.97
   2   0   2   21.24    0.76
   2   0   2   21.08    0.82
   2   0   2   19.23    0.75
  -3   0  -2    8.04    0.43
  -3   0  -2    8.13    0.61
   3   0   2    7.49    0.34
   3   0   2    8.47    0.51
   3   0   2    7.88    0.36
  -4   0  -2    3.10    0.50
  -4   0  -2    3.33    0.34
   4   0   2    3.34    0.20
   5   0   2    0.40    0.15
   5  -1  -2    2.40    0.19
   4  -1  -2    2.26    0.17
   4  -1  -2    2.70    0.21
  -4   1   2    3.18    0.41
   3  -1  -2    5.77    0.40
   3  -1  -2    5.21    0.24
   3  -1  -2    5.00    0.24
   3  -1  -2    5.66    0.28
   3  -1  -2    5.19    0.28
  -3   1   2    5.28    0.40
  -3   1   2    5.13    0.40
   2  -1  -2   21.42    0.70
   2  -1  -2   20.78    0.82
   2  -1  -2   21.40    0.77
   2  -1  -2   20.83    0.99
   2  -1  -2   20.65    0.77
   2  -1  -2   19.92    0.69
  -2   1   2   20.97    0.83
  -2   1   2   20.97    0.75
  -2   1   2   19.12    0.83
  -2   1   2   22.24    0.74
   1  -1  -2  212.86    6.91
   1  -1  -2  205.99    6.87
   1  -1  -2  206.24    7.02
   1  -1  -2  206.07    6.51
   1  -1  -2  219.88    7.02
   1  -1  -2  209.98    6.50
  -1   1   2  195.78    6.50
  -1   1   2  214.85    6.50
  -1   1   2  209.91    6.87
  -1   1   2  209.07    6.91
  -1   1   2  209.89    7.03
   0  -1  -2  273.89    8.54
   0  -1  -2  273.15    9.21
   0  -1  -2  279.18    9.21
   0   1   2  275.49    9.21
   0   1   2  271.24    9.24
  -1  -1  -2  581.13   18.74
  -1  -1  -2  486.49   20.61
  -1  -1  -2  591.60   16.64
  -1  -1  -2  527.58   18.65
   1   1   2  590.27   16.55
   1   1   2  582.82   18.66
   1   1   2  534.83   20.63
   1   1   2  543.97   17.30
   1   1   2  552.30   18.76
  -2  -1  -2   63.43    2.55
  -2  -1  -2   62.46    1.99
  -2  -1  -2   65.35    2.19
   2   1   2   64.60    2.54
   2   1   2   63.17    2.21
   2   1   2   65.59    2.22
   2   1   2   62.51    2.03
  -3  -1  -2    0.31    0.22
  -3  -1  -2    0.41    0.15
   3   1   2   -0.02    0.17
   3   1   2    0.56    0.14
   3   1   2    0.39    0.12
   3   1   2    0.38    0.10
  -4  -1  -2    2.06    0.27
  -4  -1  -2    2.41    0.45
   4   1   2    2.35    0.20
   4   1   2    2.22    0.20
   5   1   2    0.21    0.16
   6   1   2    0.07    0.15
  -5   2   2    1.57    0.42
   4  -2  -2    1.66    0.16
  -4   2   2    1.53    0.33
  -4   2   2    1.55    0.34
   3  -2  -2   16.36    0.61
   3  -2  -2   14.62    0.55
   3  -2  -2   14.31    0.59
  -3   2   2   14.93    0.73
  -3   2   2   14.64    0.74
   2  -2  -2   42.07    1.65
   2  -2  -2   36.89    1.36
   2  -2  -2   40.31    1.39
   2  -2  -2   38.02    1.36
   2  -2  -2   38.29    1.26
  -2   2   2   38.05    1.33
  -2   2   2   37.10    1.40
  -2   2   2   35.75    1.41
   1  -2  -2    0.87    0.11
   1  -2  -2    1.10    0.14
   1  -2  -2    0.95    0.13
   1  -2  -2    0.95    0.15
   1  -2  -2    0.76    0.12
  -1   2   2    0.98    0.14
  -1   2   2    1.24    0.14
  -1   2   2    0.80    0.12
  -1   2   2    1.09    0.13
  -1   2   2    1.43    0.12
   0  -2  -2  147.72    4.78
   0  -2  -2  150.12    5.17
   0  -2  -2  152.33    5.16
   0   2   2  150.48    5.16
   0   2   2  160.40    5.18
  -1  -2  -2   38.76    1.32
  -1  -2  -2   41.65    1.37
  -1  -2  -2   41.69    1.63
  -1  -2  -2   42.48    1.51
  -1  -2  -2   42.32    1.51
   1   2   2   43.50    1.39
   1   2   2   43.14    1.53
   1   2   2   41.72    1.51
   1   2   2   43.03    1.63
  -2  -2  -2   31.92    1.05
  -2  -2  -2   32.95    1.18
  -2  -2  -2   31.98    1.37
   2   2   2   33.05    1.37
   2   2   2   31.52    1.09
   2   2   2   31.43    1.19
   2   2   2   31.94    1.21
  -3  -2  -2    6.30    0.31
  -3  -2  -2    5.97    0.51
  -3  -2  -2    6.13    0.35
   3   2   2    6.68    0.40
   3   2   2    5.37    0.36
   3   2   2    6.09    0.34
  -4  -2  -2    0.35    0.18
   4   2   2    0.34    0.17
   4   2   2    0.00    0.16
   5   2   2    1.26    0.24
   6   2   2    1.28    0.23
   5  -3  -2    0.22    0.13
  -5   3   2   -0.22    0.32
   4  -3  -2    0.53    0.15
   4  -3  -2    0.44    0.12
  -4   3   2    0.79    0.32
  -4   3   2    0.47    0.26
   3  -3  -2   15.91    0.64
   3  -3  -2   14.49    0.63
   3  -3  -2   14.55    0.57
  -3   3   2   14.43    0.76
  -3   3   2   14.64    0.73
   2  -3  -2    3.45    0.27
   2  -3  -2    3.30    0.26
   2  -3  -2    3.57    0.36
   2  -3  -2    2.96    0.22
   2  -3  -2    2.73    0.23
  -2   3   2    3.31    0.32
  -2   3   2    3.41    0.24
  -2   3   2    2.64    0.26
   1  -3  -2  146.85    4.76
   1  -3  -2  150.38    5.16
   1  -3  -2  149.93    5.15
   1  -3  -2  150.00    5.65
  -1   3   2  154.58    5.66
  -1   3   2  153.42    5.06
  -1   3   2  147.95    5.15
  -1   3   2  151.04    5.14
  -1   3   2  150.17    4.74
  -1   3   2  153.73    5.01
   0  -3  -2  268.61    9.01
   0  -3  -2  266.08    9.02
   0  -3  -2  262.56    8.35
   0   3   2  269.21    9.02
   0   3   2  266.41    9.01
  -1  -3  -2   28.61    1.11
  -1  -3  -2   28.36    1.12
  -1  -3  -2   28.28    1.01
   1   3   2   29.77    1.14
   1   3   2   30.27    1.14
   1   3   2   27.85    1.01
   1   3   2   27.86    1.11
  -2  -3  -2   25.71    0.89
  -2  -3  -2   26.50    1.06
   2   3   2   27.28    1.06
   2   3   2   25.93    0.96
   2   3   2   27.03    1.17
   2   3   2   27.60    1.08
  -3  -3  -2    0.90    0.18
  -3  -3  -2    0.43    0.14
   3   3   2    0.81    0.21
   3   3   2    0.89    0.20
   3   3   2    0.57    0.18
  -4  -3  -2    6.25    0.39
   4   3   2    6.62    0.43
   4   3   2    6.58    0.45
   5   3   2    2.39    0.32
   5   3   2    2.17    0.30
   6   3   2    0.48    0.25
   5  -4  -2    0.92    0.20
  -5   4   2    1.63    0.44
   4  -4  -2    0.47    0.17
   4  -4  -2    0.39    0.18
  -4   4   2    0.42    0.28
  -4   4   2    0.33    0.32
   3  -4  -2    4.94    0.38
   3  -4  -2    5.39    0.39
   3  -4  -2    4.92    0.33
  -3   4   2    5.58    0.44
  -3   4   2    5.06    0.48
   2  -4  -2   27.54    1.15
   2  -4  -2   30.06    1.16
   2  -4  -2   28.20    1.04
   2  -4  -2   30.93    1.31
  -2   4   2   29.60    1.31
  -2   4   2   27.74    1.18
  -2   4   2   29.44    1.15
  -2   4   2   30.20    1.13
   1  -4  -2   92.82    3.40
   1  -4  -2   95.24    3.67
   1  -4  -2   99.59    3.40
   1  -4  -2   96.01    3.13
  -1   4   2   96.64    3.69
  -1   4   2   96.57    3.39
  -1   4   2   97.30    3.11
  -1   4   2   99.61    3.28
  -1   4   2   97.49    3.33
   0  -4  -2   18.98    0.84
   0  -4  -2   19.83    0.84
   0  -4  -2   19.90    0.75
   0   4   2   18.58    0.82
   0   4   2   19.07    0.74
  -1  -4  -2  121.46    4.23
  -1  -4  -2  122.24    3.89
   1   4   2  120.30    4.21
   1   4   2  122.48    4.51
   1   4   2  117.14    3.88
  -2  -4  -2    2.18    0.19
  -2  -4  -2    2.23    0.28
   2   4   2    2.29    0.27
   2   4   2    1.87    0.26
   2   4   2    1.90    0.24
   2   4   2    2.07    0.29
  -3  -4  -2   20.02    0.74
  -3  -4  -2   21.47    0.93
   3   4   2   19.36    0.92
   3   4   2   20.52    0.85
   3   4   2   21.13    1.06
   3   4   2   22.82    0.97
   4   4   2    2.13    0.30
   4   4   2    2.27    0.33
   5   4   2    1.91    0.35
   5   4   2    1.47    0.31
   5  -5  -2    0.41    0.22
  -5   5   2   -0.24    0.37
   4  -5  -2    0.66    0.23
   4  -5  -2    0.44    0.20
  -4   5   2    0.68    0.34
  -4   5   2    1.00    0.35
   3  -5  -2   11.87    0.65
   3  -5  -2   12.02    0.58
  -3   5   2   13.03    0.77
  -3   5   2   13.32    0.73
  -3   5   2   12.44    0.81
   2  -5  -2   43.02    1.82
   2  -5  -2   43.83    1.52
   2  -5  -2   42.09    1.68
   2  -5  -2   45.87    1.69
  -2   5   2   44.60    1.65
  -2   5   2   41.14    1.67
  -2   5   2   44.51    1.65
  -2   5   2   42.84    1.85
   1  -5  -2   24.89    0.97
   1  -5  -2   25.29    1.08
   1  -5  -2   27.31    1.10
  -1   5   2   25.07    1.03
  -1   5   2   25.89    0.95
  -1   5   2   25.06    1.06
  -1   5   2   24.76    1.08
   0  -5  -2   79.28    2.95
   0  -5  -2   82.90    2.70
   0   5   2   80.81    2.94
   0   5   2   83.05    3.05
  -1  -5  -2   38.88    1.54
   1   5   2   38.68    1.50
   1   5   2   38.21    1.39
  -2  -5  -2    5.16    0.47
  -2  -5  -2    5.94    0.36
   2   5   2    6.69    0.44
   2   5   2    6.95    0.45
   2   5   2    5.85    0.45
  -3  -5  -2   23.49    0.83
  -3  -5  -2   23.54    1.08
   3   5   2   25.03    1.19
   3   5   2   23.66    1.08
   3   5   2   23.18    0.98
   4   5   2    1.08    0.30
   4   5   2    1.31    0.33
   5   5   2    0.06    0.27
   5   5   2    0.32    0.31
   5  -6  -2    0.07    0.23
  -5   6   2   -0.31    0.37
   4  -6  -2    0.32    0.23
   4  -6  -2    0.43    0.26
  -4   6   2    0.27    0.38
   3  -6  -2    8.06    0.58
   3  -6  -2    9.76    0.52
  -3   6   2    9.43    0.72
  -3   6   2    8.62    0.61
  -3   6   2    7.08    0.65
   2  -6  -2   30.64    1.26
   2  -6  -2   29.35    1.12
   2  -6  -2   26.88    1.22
  -2   6   2   30.01    1.24
  -2   6   2   28.86    1.20
  -2   6   2   28.20    1.24
  -2   6   2   28.61    1.33
   1  -6  -2   24.36    1.08
   1  -6  -2   24.96    0.97
  -1   6   2   24.65    1.08
  -1   6   2   23.40    1.02
  -1   6   2   23.49    1.05
  -1   6   2   24.47    0.95
   0  -6  -2   22.78    1.07
   0  -6  -2   23.74    0.96
   0   6   2   23.72    0.95
   0   6   2   25.06    0.95
   0   6   2   22.76    1.06
  -1  -6  -2   17.29    0.89
   1   6   2   17.94    0.81
   1   6   2   17.27    0.86
  -2  -6  -2   32.71    1.45
   2   6   2   33.36    1.31
   2   6   2   35.06    1.43
   2   6   2   33.79    1.44
  -3  -6  -2    9.54    0.69
  -3  -6  -2    8.61    0.43
   3   6   2    8.45    0.61
   3   6   2    9.96    0.61
   4   6   2    1.94    0.39
   4   6   2    1.38    0.34
   5   6   2   -0.18    0.31
   5   6   2    0.35    0.33
   4  -7  -2    2.36    0.39
   4  -7  -2    1.70    0.31
  -4   7   2    1.60    0.49
   3  -7  -2    3.15    0.37
   3  -7  -2    4.50    0.48
  -3   7   2    4.68    0.52
  -3   7   2    4.45    0.55
  -3   7   2    4.09    0.54
   2  -7  -2    1.08    0.31
   2  -7  -2    0.97    0.27
  -2   7   2    2.12    0.34
  -2   7   2    1.39    0.32
  -2   7   2    1.97    0.38
  -2   7   2    1.38    0.30
   1  -7  -2    6.02    0.46
   1  -7  -2    4.18    0.46
  -1   7   2    6.45    0.53
  -1   7   2    5.35    0.41
  -1   7   2    5.49    0.47
   0  -7  -2    1.07    0.25
   0  -7  -2    1.37    0.34
   0   7   2    1.60    0.17
   0   7   2    0.97    0.29
   0   7   2    1.97    0.29
   0   7   2    1.32    0.26
  -1  -7  -2   23.68    1.15
   1   7   2   23.87    1.02
   1   7   2   23.96    1.13
  -2  -7  -2   26.71    1.29
   2   7   2   29.99    1.19
   2   7   2   27.00    1.21
   2   7   2   26.80    1.26
  -3  -7  -2   26.87    1.27
   3   7   2   25.32    1.10
   3   7   2   21.89    1.17
   4   7   2    0.42    0.34
   4   7   2   -0.38    0.30
   5   7   2    0.99    0.42
   5   7   2    1.41    0.44
   4  -8  -2    0.54    0.34
  -4   8   2    0.45    0.42
   3  -8  -2    1.42    0.37
  -3   8   2    1.06    0.41
  -3   8   2    1.28    0.41
   2  -8  -2    0.53    0.32
  -2   8   2    0.37    0.31
  -2   8   2    0.95    0.31
  -2   8   2    0.58    0.30
   1  -8  -2    7.75    0.63
  -1   8   2    8.53    0.62
  -1   8   2    8.42    0.64
  -1   8   2    8.26    0.54
   0  -8  -2   21.87    1.13
   0   8   2   21.79    1.00
   0   8   2   23.01    0.95
   0   8   2   21.88    1.11
  -1  -8  -2   10.92    0.78
   1   8   2   12.61    0.72
   1   8   2   10.71    0.76
  -2  -8  -2    5.82    0.62
   2   8   2    5.99    0.60
   2   8   2    6.10    0.56
  -3  -8  -2    2.63    0.49
   3   8   2    1.40    0.39
   3   8   2    1.95    0.43
   4   8   2   -0.34    0.35
   4   8   2   -0.03    0.37
   3  -9  -2    2.18    0.45
  -3   9   2    3.36    0.56
   2  -9  -2    2.09    0.43
  -2   9   2    1.11    0.35
  -2   9   2    1.35    0.43
   1  -9  -2   10.95    0.78
  -1   9   2    9.48    0.63
  -1   9   2   12.35    0.74
  -1   9   2   12.00    0.80
   0  -9  -2    5.26    0.61
   0   9   2    6.98    0.67
   0   9   2    6.07    0.52
  -1  -9  -2    7.71    0.75
   1   9   2    9.43    0.75
  -2  -9  -2    1.13    0.43
   2   9   2    1.46    0.44
  -3  -9  -2    0.25    0.41
   3   9   2    0.42    0.36
   4   9   2    1.75    0.50
   3 -10  -2    0.55    0.39
  -3  10   2   -0.20    0.40
   2 -10  -2    0.55    0.39
  -2  10   2    1.07    0.45
   1 -10  -2    1.77    0.45
  -1  10   2    1.37    0.42
  -1  10   2    2.64    0.49
   0 -10  -2   10.49    0.91
   0  10   2   11.88    0.89
   0  10   2   11.15    0.75
  -1 -10  -2    2.15    0.53
   1  10   2    2.78    0.40
   1  10   2    1.99    0.50
  -2 -10  -2    0.45    0.45
   2  10   2    0.80    0.45
   3  10   2    0.82    0.44
   2 -11  -2    1.10    0.48
  -2  11   2    1.60    0.51
   1 -11  -2   -0.04    0.39
  -1  11   2    0.03    0.39
   0 -11  -2    1.20    0.51
   0  11   2    0.93    0.39
   0  11   2    1.36    0.52
  -1 -11  -2    1.20    0.50
   1  11   2    2.32    0.58
   1  11   2    2.42    0.41
  -2 -11  -2    2.03    0.62
   2  11   2    0.22    0.46
   3  11   2    0.42    0.47
   0 -12  -2    0.19    0.48
   0  12   2    0.18    0.50
  -1 -12  -2    1.64    0.64
   1  12   2    1.67    0.58
   0  11  -3    0.72    0.52
   2  10  -3    3.20    0.61
  -2 -10   3    3.34    0.68
   1  10  -3    0.55    0.49
  -1 -10   3    0.19    0.43
   0  10  -3    0.02    0.46
   0 -10   3   -0.15    0.44
   1 -10   3    1.50    0.51
   2 -10   3    0.84    0.48
   3   9  -3    2.89    0.57
   2   9  -3    4.38    0.63
  -2  -9   3    3.89    0.65
   1   9  -3    0.40    0.40
  -1  -9   3    0.07    0.36
   0   9  -3    8.79    0.80
   0  -9   3    8.82    0.80
  -1   9  -3    0.90    0.43
  -1   9  -3    0.55    0.34
   1  -9   3    1.00    0.43
  -2   9  -3    0.63    0.43
   2  -9   3    1.27    0.43
  -3   9  -3   -0.01    0.44
   3  -9   3    0.46    0.40
   4   8  -3    0.37    0.40
   3   8  -3    1.96    0.48
  -3  -8   3    2.48    0.53
   2   8  -3    3.02    0.51
  -2  -8   3    1.52    0.46
   1   8  -3    2.43    0.46
  -1  -8   3    2.81    0.48
   0   8  -3    3.97    0.55
   0  -8   3    5.27    0.60
  -1   8  -3   11.59    0.66
  -1   8  -3   11.61    0.81
  -1   8  -3   11.97    0.71
   1  -8   3   10.14    0.80
  -2   8  -3    4.74    0.58
  -2   8  -3    5.02    0.55
  -2   8  -3    4.10    0.47
   2  -8   3    3.74    0.54
  -3   8  -3    0.50    0.41
  -3   8  -3    0.61    0.45
  -3   8  -3    0.61    0.36
   3  -8   3   -0.34    0.33
   4   7  -3    1.08    0.42
   4   7  -3    1.54    0.41
   3   7  -3    1.21    0.39
   3   7  -3    1.07    0.36
  -3  -7   3    1.85    0.44
   2   7  -3    0.39    0.28
   2   7  -3    0.13    0.30
  -2  -7   3   -0.15    0.30
   1   7  -3   17.66    0.99
   1   7  -3   18.96    0.73
  -1  -7   3   17.97    1.00
   0   7  -3   20.86    0.86
   0   7  -3   19.73    1.04
   0  -7   3   21.10    1.07
  -1   7  -3   12.30    0.77
  -1   7  -3   12.30    0.77
  -1   7  -3   11.76    0.62
  -1   7  -3   12.18    0.68
   1  -7   3   11.51    0.78
  -2   7  -3    1.60    0.37
  -2   7  -3    1.72    0.32
  -2   7  -3    1.92    0.43
   2  -7   3    1.97    0.39
  -3   7  -3    0.19    0.33
  -3   7  -3    0.02    0.30
  -3   7  -3   -0.13    0.38
   3  -7   3    0.02    0.30
  -4   7  -3   -0.52    0.37
   4  -7   3    0.25    0.32
   5   6  -3    0.55    0.36
   5   6  -3    0.96    0.41
   4   6  -3   -0.18    0.29
   4   6  -3    0.48    0.35
   3   6  -3    0.40    0.32
   3   6  -3   -0.03    0.27
  -3  -6   3   -0.11    0.30
   2   6  -3    1.92    0.37
   2   6  -3    2.12    0.33
  -2  -6   3    2.59    0.42
   1   6  -3    0.90    0.14
   1   6  -3    0.71    0.28
   1   6  -3    0.81    0.24
  -1  -6   3    0.61    0.29
   0   6  -3   43.78    1.85
   0   6  -3   48.78    1.68
   0   6  -3   46.65    1.65
   0  -6   3   43.38    1.84
   0  -6   3   47.37    1.69
  -1   6  -3    5.21    0.48
  -1   6  -3    5.17    0.42
  -1   6  -3    5.13    0.37
  -1   6  -3    4.66    0.47
   1  -6   3    4.02    0.45
   1  -6   3    5.63    0.43
  -2   6  -3    3.46    0.41
  -2   6  -3    3.60    0.41
  -2   6  -3    3.44    0.37
  -2   6  -3    3.56    0.49
   2  -6   3    3.81    0.37
   2  -6   3    3.02    0.40
  -3   6  -3    0.14    0.37
  -3   6  -3    0.47    0.34
  -3   6  -3    0.52    0.29
   3  -6   3    0.32    0.25
   3  -6   3    0.18    0.26
  -4   6  -3    0.58    0.38
   4  -6   3    0.50    0.30
   5   5  -3    0.37    0.36
   5   5  -3    0.09    0.29
   4   5  -3    0.52    0.31
   4   5  -3    0.06    0.25
   3   5  -3    6.34    0.48
   3   5  -3    5.23    0.51
  -3  -5   3    6.21    0.55
   2   5  -3    7.70    0.49
   2   5  -3    7.34    0.54
   2   5  -3    7.85    0.37
  -2  -5   3    7.47    0.60
   1   5  -3   67.36    2.27
   1   5  -3   68.41    2.32
   1   5  -3   67.51    2.54
  -1  -5   3   68.30    2.54
   0   5  -3   14.96    0.67
   0   5  -3   15.19    0.79
   0   5  -3   15.87    0.62
   0  -5   3   14.59    0.77
   0  -5   3   14.71    0.68
  -1   5  -3    3.58    0.35
  -1   5  -3    3.83    0.38
  -1   5  -3    3.39    0.33
  -1   5  -3    4.16    0.29
   1  -5   3    3.93    0.33
   1  -5   3    3.87    0.39
  -2   5  -3    3.47    0.36
  -2   5  -3    3.05    0.38
  -2   5  -3    3.20    0.33
  -2   5  -3    3.25    0.43
   2  -5   3    3.48    0.32
   2  -5   3    2.76    0.36
  -3   5  -3    1.96    0.39
  -3   5  -3    1.34    0.42
  -3   5  -3    1.73    0.33
   3  -5   3    1.88    0.28
   3  -5   3    2.03    0.32
  -4   5  -3    0.24    0.45
  -4   5  -3    0.57    0.34
   4  -5   3    0.24    0.25
   4  -5   3    0.24    0.24
   5  -5   3    0.10    0.23
   5   4  -3    0.04    0.26
   5   4  -3   -0.26    0.27
   4   4  -3    2.71    0.34
   4   4  -3    3.14    0.41
   3   4  -3    0.74    0.27
   3   4  -3    0.55    0.22
  -3  -4   3    1.52    0.31
   2   4  -3   39.25    1.42
   2   4  -3   38.98    1.57
   2   4  -3   39.25    1.38
  -2  -4   3   40.50    1.58
   1   4  -3   35.69    1.17
   1   4  -3   36.79    1.30
   1   4  -3   35.61    1.43
  -1  -4   3   35.74    1.44
   0   4  -3   10.35    0.57
   0   4  -3   10.17    0.43
   0   4  -3    9.27    0.47
   0  -4   3   10.51    0.57
   0  -4   3   10.53    0.51
  -1   4  -3   13.84    0.62
  -1   4  -3   13.21    0.57
  -1   4  -3   15.01    0.60
  -1   4  -3   14.77    0.64
  -1   4  -3   13.55    0.69
   1  -4   3   14.15    0.60
   1  -4   3   14.27    0.70
   1  -4   3   12.77    0.60
  -2   4  -3   11.59    0.63
  -2   4  -3   12.60    0.79
  -2   4  -3   11.28    0.64
  -2   4  -3   11.90    0.59
  -2   4  -3   12.00    0.61
   2  -4   3   11.78    0.64
   2  -4   3   11.71    0.56
   2  -4   3   12.52    0.62
  -3   4  -3   11.68    0.86
  -3   4  -3   12.61    0.70
  -3   4  -3   12.12    0.68
  -3   4  -3   11.62    0.72
   3  -4   3   11.32    0.55
   3  -4   3   11.56    0.63
  -4   4  -3    1.67    0.53
  -4   4  -3    0.95    0.34
   4  -4   3    0.65    0.23
   4  -4   3    0.65    0.21
   5  -4   3    0.31    0.21
   5   3  -3   -0.17    0.22
   5   3  -3    0.31    0.27
   4   3  -3    2.50    0.30
   4   3  -3    2.18    0.33
   3   3  -3    9.93    0.50
   3   3  -3    9.12    0.58
   3   3  -3    9.59    0.55
   3   3  -3    9.52    0.56
  -3  -3   3   10.25    0.58
   2   3  -3   44.95    1.74
   2   3  -3   45.37    1.58
   2   3  -3   46.96    1.59
  -2  -3   3   46.11    1.74
   1   3  -3   16.46    0.77
   1   3  -3   17.59    0.69
   1   3  -3   17.20    0.60
  -1  -3   3   17.23    0.60
  -1  -3   3   16.98    0.77
  -1  -3   3   17.55    0.68
   0   3  -3   78.72    2.46
   0   3  -3   78.56    2.64
   0   3  -3   80.40    2.82
   0  -3   3   77.02    2.80
   0  -3   3   79.13    2.58
   0  -3   3   80.71    2.63
  -1   3  -3   46.01    1.64
  -1   3  -3   43.11    1.52
  -1   3  -3   44.13    1.59
  -1   3  -3   46.29    1.53
  -1   3  -3   46.05    1.70
   1  -3   3   44.60    1.69
   1  -3   3   49.07    1.72
   1  -3   3   47.23    1.63
   1  -3   3   46.86    1.55
  -2   3  -3   76.38    2.49
  -2   3  -3   75.91    2.69
  -2   3  -3   75.48    2.66
  -2   3  -3   75.54    3.12
  -2   3  -3   74.75    2.71
   2  -3   3   82.59    2.74
   2  -3   3   76.03    2.71
   2  -3   3   77.35    2.62
   2  -3   3   74.69    2.49
  -3   3  -3    9.36    0.59
  -3   3  -3    8.39    0.53
  -3   3  -3    8.38    0.72
   3  -3   3    8.03    0.48
   3  -3   3    8.57    0.42
  -4   3  -3   -0.09    0.34
   4  -3   3    0.26    0.17
   4  -3   3   -0.07    0.15
   5  -3   3    0.44    0.19
   5   2  -3    0.55    0.25
   5   2  -3    0.34    0.22
   4   2  -3    3.31    0.30
   4   2  -3    3.62    0.35
   3   2  -3   19.30    0.85
   3   2  -3   19.76    0.86
   3   2  -3   20.15    0.84
   3   2  -3   17.90    0.75
  -3  -2   3   19.32    0.83
   2   2  -3    4.74    0.33
   2   2  -3    4.63    0.30
   2   2  -3    4.32    0.33
   2   2  -3    4.70    0.35
   2   2  -3    4.87    0.29
  -2  -2   3    4.82    0.35
   1   2  -3   23.13    0.84
   1   2  -3   22.91    0.76
   1   2  -3   24.08    0.93
   1   2  -3   22.58    0.93
  -1  -2   3   23.04    0.76
  -1  -2   3   23.88    0.85
  -1  -2   3   23.46    0.93
   0   2  -3    5.47    0.33
   0   2  -3    5.17    0.28
   0  -2   3    4.78    0.32
   0  -2   3    5.22    0.28
   0  -2   3    5.23    0.22
   0  -2   3    5.37    0.34
  -1   2  -3   41.85    1.50
  -1   2  -3   43.53    1.59
  -1   2  -3   44.64    1.43
   1  -2   3   44.43    1.54
   1  -2   3   42.37    1.47
   1  -2   3   42.83    1.58
   1  -2   3   45.69    1.60
   1  -2   3   42.82    1.44
  -2   2  -3  135.45    4.21
  -2   2  -3  134.56    4.58
  -2   2  -3  138.99    4.64
  -2   2  -3  137.34    5.28
   2  -2   3  133.24    4.65
   2  -2   3  132.03    4.29
   2  -2   3  141.91    4.67
   2  -2   3  134.50    4.55
  -3   2  -3    0.18    0.29
  -3   2  -3    0.52    0.23
   3  -2   3    0.22    0.19
   3  -2   3    0.19    0.13
   3  -2   3    0.37    0.15
   3  -2   3    0.36    0.15
  -4   2  -3    0.27    0.37
  -4   2  -3    0.80    0.30
   4  -2   3    0.36    0.14
   4  -2   3    0.55    0.16
   5  -2   3    0.35    0.15
   6   1  -3    1.13    0.27
   5   1  -3    0.59    0.21
   5   1  -3    0.99    0.23
   4   1  -3   20.29    0.83
   4   1  -3   18.40    0.75
   3   1  -3    1.93    0.20
   3   1  -3    2.29    0.18
   3   1  -3    2.01    0.24
   3   1  -3    1.82    0.26
  -3  -1   3    2.20    0.23
  -3  -1   3    2.41    0.28
   2   1  -3   65.65    2.23
   2   1  -3   65.35    2.25
   2   1  -3   64.11    2.30
   2   1  -3   64.27    2.10
  -2  -1   3   65.18    2.24
  -2  -1   3   64.54    2.29
   1   1  -3   43.07    1.47
   1   1  -3   42.45    1.42
   1   1  -3   42.13    1.33
   1   1  -3   43.02    1.56
  -1  -1   3   42.19    1.55
  -1  -1   3   43.51    1.45
  -1  -1   3   43.15    1.42
  -1  -1   3   45.08    1.56
   0   1  -3  283.31    9.65
   0   1  -3  287.44    8.54
   0  -1   3  279.09    9.64
   0  -1   3  286.22    8.94
   0  -1   3  289.32    8.54
   0  -1   3  294.56    9.66
  -1   1  -3  243.06    7.40
  -1   1  -3  241.51    7.68
  -1   1  -3  247.79    8.31
   1  -1   3  250.98    8.32
   1  -1   3  244.02    7.69
   1  -1   3  251.75    8.17
   1  -1   3  247.06    8.09
  -2   1  -3   64.71    2.09
  -2   1  -3   65.24    2.64
  -2   1  -3   65.42    2.25
   2  -1   3   62.81    2.07
   2  -1   3   64.84    2.27
   2  -1   3   65.51    2.25
  -3   1  -3    1.77    0.36
  -3   1  -3    1.57    0.26
   3  -1   3    1.98    0.19
   3  -1   3    1.80    0.16
   3  -1   3    1.77    0.25
   3  -1   3    1.96    0.20
  -4   1  -3    2.04    0.46
  -4   1  -3    2.53    0.35
   4  -1   3    2.54    0.20
   4  -1   3    2.26    0.19
  -5   1  -3    1.13    0.49
   5  -1   3    1.04    0.17
   5  -1   3    1.06    0.17
   6   0  -3    0.43    0.21
   5   0  -3    7.40    0.40
   4   0  -3    0.33    0.15
   4   0  -3    0.15    0.15
  -4   0   3    0.36    0.28
   3   0  -3   11.35    0.62
   3   0  -3   11.64    0.48
   3   0  -3   11.99    0.54
  -3   0   3   12.59    0.50
  -3   0   3   11.41    0.61
   2   0  -3   12.04    0.52
   2   0  -3   12.00    0.47
   2   0  -3   12.46    0.54
   2   0  -3   12.04    0.54
  -2   0   3   11.71    0.53
  -2   0   3   11.54    0.55
  -2   0   3   13.40    0.52
   1   0  -3  114.46    3.94
   1   0  -3  116.03    3.63
   1   0  -3  114.70    3.81
  -1   0   3  114.20    3.93
  -1   0   3  121.14    3.63
  -1   0   3  110.93    3.63
  -1   0   3  114.88    3.83
  -1   0   3  115.68    3.82
   0   0  -3  138.23    4.62
   0   0  -3  144.17    4.43
   0   0  -3  147.17    5.00
   0   0   3  150.05    4.43
   0   0   3  151.59    4.62
   0   0   3  151.42    5.00
  -1   0  -3  444.42   14.57
  -1   0  -3  393.20   16.11
  -1   0  -3  447.44   14.67
  -1   0  -3  433.96   12.95
   1   0   3  429.69   13.59
   1   0   3  463.86   14.59
  -2   0  -3  125.65    4.42
  -2   0  -3  128.18    5.03
  -2   0  -3  129.62    4.42
  -2   0  -3  131.30    4.00
   2   0   3  135.14    4.99
   2   0   3  134.42    4.45
   2   0   3  131.26    4.44
   2   0   3  128.62    4.39
  -3   0  -3    9.51    0.68
  -3   0  -3    9.26    0.51
   3   0   3    9.06    0.44
   3   0   3   10.13    0.55
  -4   0  -3    1.72    0.29
  -4   0  -3    2.18    0.44
   4   0   3    2.38    0.20
  -5   0  -3    2.79    0.58
   5   0   3    2.21    0.20
   5   0   3    2.10    0.21
   6   0   3    0.32    0.16
   5  -1  -3    0.71    0.17
   4  -1  -3    0.97    0.17
   4  -1  -3    1.01    0.16
  -4   1   3    1.03    0.32
   3  -1  -3    0.40    0.13
   3  -1  -3    0.56    0.14
   3  -1  -3    0.48    0.11
   3  -1  -3    0.56    0.18
  -3   1   3    0.45    0.20
  -3   1   3    0.73    0.23
   2  -1  -3   54.04    1.93
   2  -1  -3   54.66    1.78
   2  -1  -3   56.55    1.93
   2  -1  -3   55.56    1.92
   2  -1  -3   53.98    1.77
  -2   1   3   53.28    1.94
  -2   1   3   53.37    1.93
  -2   1   3   55.03    1.92
  -2   1   3   57.11    1.91
   1  -1  -3  318.11   10.98
   1  -1  -3  342.47   10.98
   1  -1  -3  323.76   10.18
   1  -1  -3  310.28   10.70
   1  -1  -3  327.38   10.17
  -1   1   3  344.04   10.78
  -1   1   3  318.27   10.71
  -1   1   3  332.12   10.98
  -1   1   3  339.38   10.17
  -1   1   3  316.12   10.17
   0  -1  -3   67.22    2.11
   0  -1  -3   71.66    2.37
   0  -1  -3   68.42    2.18
   0  -1  -3   67.42    2.37
   0   1   3   66.53    2.18
   0   1   3   66.61    2.36
   0   1   3   67.53    2.17
   0   1   3   69.75    2.37
  -1  -1  -3  237.14    7.92
  -1  -1  -3  239.04    7.93
  -1  -1  -3  223.89    8.75
  -1  -1  -3  238.75    7.04
   1   1   3  243.21    7.93
   1   1   3  235.39    7.34
   1   1   3  229.32    7.92
  -2  -1  -3    4.16    0.31
  -2  -1  -3    5.37    0.30
  -2  -1  -3    4.82    0.28
  -2  -1  -3    5.05    0.40
   2   1   3    5.19    0.26
   2   1   3    4.98    0.29
   2   1   3    4.81    0.38
   2   1   3    4.68    0.28
  -3  -1  -3   12.88    0.59
  -3  -1  -3   12.93    0.48
  -3  -1  -3   13.03    0.81
   3   1   3   13.79    0.59
   3   1   3   13.25    0.51
   3   1   3   12.76    0.66
   3   1   3   12.82    0.56
  -4  -1  -3    7.32    0.71
  -4  -1  -3    7.52    0.49
   4   1   3    7.91    0.38
   4   1   3    7.99    0.42
  -5  -1  -3    0.42    0.28
   5   1   3    0.63    0.20
   6   1   3    0.34    0.19
  -5   2   3    0.98    0.40
   4  -2  -3    0.04    0.13
   4  -2  -3    0.05    0.13
  -4   2   3    0.13    0.24
  -4   2   3    0.05    0.27
   3  -2  -3    4.85    0.26
   3  -2  -3    4.56    0.30
   3  -2  -3    5.38    0.33
   3  -2  -3    5.06    0.28
  -3   2   3    4.90    0.43
  -3   2   3    5.12    0.40
   2  -2  -3  144.35    5.49
   2  -2  -3  145.22    4.87
   2  -2  -3  147.86    4.79
   2  -2  -3  142.78    4.52
   2  -2  -3  138.40    4.88
  -2   2   3  137.97    4.81
  -2   2   3  146.30    4.86
   1  -2  -3   16.07    0.59
   1  -2  -3   15.83    0.64
   1  -2  -3   14.95    0.65
  -1   2   3   16.81    0.65
  -1   2   3   16.23    0.58
  -1   2   3   15.98    0.66
  -1   2   3   15.51    0.61
  -1   2   3   16.06    0.64
   0  -2  -3   97.80    3.29
   0  -2  -3   93.58    3.27
   0  -2  -3   97.29    3.03
   0   2   3   97.93    3.28
   0   2   3   81.76    3.02
   0   2   3  102.55    3.30
  -1  -2  -3   19.57    0.77
  -1  -2  -3   19.03    0.77
  -1  -2  -3   19.66    0.68
  -1  -2  -3   19.57    0.68
  -1  -2  -3   18.93    0.81
   1   2   3   19.37    0.78
   1   2   3   18.79    0.69
   1   2   3   19.64    0.77
  -2  -2  -3   46.34    1.95
  -2  -2  -3   47.27    1.70
  -2  -2  -3   46.78    1.53
   2   2   3   50.58    1.75
   2   2   3   47.39    1.57
   2   2   3   48.66    1.93
   2   2   3   46.08    1.72
  -3  -2  -3   24.02    0.94
  -3  -2  -3   25.37    1.26
   3   2   3   26.53    1.03
   3   2   3   27.84    1.07
   3   2   3   27.06    0.94
  -4  -2  -3    4.87    0.58
  -4  -2  -3    5.05    0.39
   4   2   3    5.26    0.35
   4   2   3    5.22    0.37
   5   2   3    0.25    0.21
   6   2   3    0.55    0.24
  -5   3   3    0.99    0.39
   4  -3  -3    9.43    0.46
   4  -3  -3    9.58    0.45
  -4   3   3   11.10    0.68
  -4   3   3    9.09    0.66
   3  -3  -3    6.37    0.38
   3  -3  -3    5.48    0.35
   3  -3  -3    6.13    0.34
  -3   3   3    5.25    0.47
  -3   3   3    5.39    0.43
   2  -3  -3   47.33    1.63
   2  -3  -3   47.11    1.92
   2  -3  -3   45.47    1.54
   2  -3  -3   47.32    1.68
   2  -3  -3   44.77    1.68
  -2   3   3   45.50    1.63
  -2   3   3   43.51    1.66
  -2   3   3   46.30    1.71
   1  -3  -3   34.10    1.31
   1  -3  -3   34.73    1.30
   1  -3  -3   34.87    1.40
   1  -3  -3   34.16    1.19
  -1   3   3   34.45    1.18
  -1   3   3   34.95    1.28
  -1   3   3   35.21    1.24
  -1   3   3   34.06    1.29
   0  -3  -3  127.56    4.39
   0  -3  -3  123.58    4.05
   0  -3  -3  127.49    4.38
   0   3   3  133.49    4.40
   0   3   3  123.33    4.38
  -1  -3  -3   30.56    1.09
  -1  -3  -3   30.56    1.22
  -1  -3  -3   31.62    1.25
   1   3   3   31.98    1.23
   1   3   3   33.43    1.25
   1   3   3   30.92    1.11
   1   3   3   31.92    1.22
  -2  -3  -3   83.40    2.95
  -2  -3  -3   79.93    3.25
  -2  -3  -3   82.46    2.59
   2   3   3   86.56    3.25
   2   3   3   86.00    2.73
   2   3   3   88.23    2.99
   2   3   3   78.65    2.95
  -3  -3  -3    9.20    0.47
  -3  -3  -3   10.78    0.52
  -3  -3  -3    9.63    0.66
   3   3   3    9.55    0.57
   3   3   3    9.89    0.49
   3   3   3   10.04    0.54
  -4  -3  -3    8.12    0.48
   4   3   3    8.42    0.48
   4   3   3    8.56    0.52
   5   3   3    0.19    0.24
   5   3   3    0.15    0.23
   6   3   3    0.28    0.26
   5  -4  -3    0.99    0.21
  -5   4   3    0.42    0.40
   4  -4  -3    5.34    0.36
   4  -4  -3    5.24    0.37
  -4   4   3    4.29    0.52
  -4   4   3    4.73    0.51
   3  -4  -3   26.66    1.09
   3  -4  -3   28.30    1.10
   3  -4  -3   26.33    0.99
  -3   4   3   26.41    1.19
  -3   4   3   27.49    1.17
   2  -4  -3    4.45    0.36
   2  -4  -3    5.12    0.38
   2  -4  -3    4.97    0.44
   2  -4  -3    4.83    0.32
  -2   4   3    4.30    0.39
  -2   4   3    4.89    0.36
  -2   4   3    4.55    0.35
   1  -4  -3   26.99    1.12
   1  -4  -3   26.16    0.99
   1  -4  -3   26.74    1.10
   1  -4  -3   27.61    1.11
  -1   4   3   27.63    0.98
  -1   4   3   27.73    1.10
  -1   4   3   26.63    1.06
   0  -4  -3   30.74    1.12
   0  -4  -3   30.78    1.24
   0   4   3   31.77    1.23
  -1  -4  -3   94.41    3.36
  -1  -4  -3   89.27    3.07
   1   4   3   96.81    3.09
   1   4   3   96.21    3.35
   1   4   3   95.60    3.52
  -2  -4  -3   55.06    2.07
  -2  -4  -3   55.00    1.77
   2   4   3   55.95    2.20
   2   4   3   57.24    2.10
   2   4   3   54.46    1.89
   2   4   3   54.35    2.06
  -3  -4  -3    2.27    0.30
  -3  -4  -3    2.15    0.22
   3   4   3    2.13    0.33
   3   4   3    1.89    0.28
   3   4   3    1.84    0.30
   3   4   3    2.50    0.33
  -4  -4  -3    3.00    0.28
   4   4   3    3.42    0.39
   4   4   3    2.95    0.35
   5   4   3    1.47    0.32
   5   4   3    1.19    0.31
   5  -5  -3    0.06    0.21
  -5   5   3    0.23    0.37
   4  -5  -3    0.96    0.25
   4  -5  -3    0.84    0.23
  -4   5   3    1.18    0.36
  -4   5   3    1.07    0.36
   3  -5  -3    8.74    0.56
   3  -5  -3    9.65    0.51
  -3   5   3    8.92    0.60
  -3   5   3    9.41    0.66
   2  -5  -3   14.36    0.75
   2  -5  -3   13.80    0.63
   2  -5  -3   14.02    0.71
   2  -5  -3   13.69    0.70
  -2   5   3   12.96    0.67
  -2   5   3   13.51    0.72
  -2   5   3   13.44    0.67
   1  -5  -3   15.51    0.76
   1  -5  -3   16.52    0.69
   1  -5  -3   14.43    0.67
  -1   5   3   13.67    0.70
  -1   5   3   15.35    0.65
  -1   5   3   16.46    0.76
   0  -5  -3  161.64    5.14
   0  -5  -3  157.54    5.58
   0   5   3  161.29    5.56
  -1  -5  -3   23.26    1.04
   1   5   3   22.55    1.01
   1   5   3   24.23    0.90
   1   5   3   22.10    0.92
  -2  -5  -3    0.15    0.15
  -2  -5  -3    0.43    0.21
   2   5   3   -0.05    0.19
   2   5   3    0.28    0.20
   2   5   3    0.35    0.16
  -3  -5  -3    3.68    0.41
  -3  -5  -3    3.55    0.28
   3   5   3    3.69    0.37
   3   5   3    3.11    0.39
   3   5   3    3.90    0.43
   4   5   3    1.06    0.31
   4   5   3    0.95    0.30
   5   5   3    1.23    0.34
   5   5   3    1.11    0.35
   5  -6  -3    0.39    0.25
  -5   6   3    0.63    0.45
   4  -6  -3    0.33    0.24
   4  -6  -3   -0.07    0.24
  -4   6   3    0.15    0.34
   3  -6  -3    0.85    0.28
   3  -6  -3    0.91    0.24
  -3   6   3    0.97    0.35
  -3   6   3    0.35    0.26
   2  -6  -3    0.97    0.27
   2  -6  -3    1.20    0.24
   2  -6  -3    0.87    0.23
  -2   6   3    1.42    0.27
  -2   6   3    0.84    0.28
  -2   6   3    1.30    0.29
   1  -6  -3   18.93    0.92
   1  -6  -3   19.56    0.83
  -1   6   3   18.57    0.87
  -1   6   3   20.01    0.81
  -1   6   3   19.40    0.91
   0  -6  -3    8.56    0.51
   0  -6  -3    8.11    0.56
   0   6   3    8.14    0.55
   0   6   3    6.66    0.45
  -1  -6  -3   19.95    0.96
   1   6   3   18.06    0.92
   1   6   3   19.36    0.84
  -2  -6  -3    1.96    0.36
   2   6   3    2.13    0.36
   2   6   3    2.63    0.27
   2   6   3    2.48    0.32
  -3  -6  -3    8.60    0.67
  -3  -6  -3    9.24    0.50
   3   6   3    9.28    0.66
   3   6   3    9.77    0.62
   3   6   3    9.44    0.68
   4   6   3    6.87    0.57
   4   6   3    6.28    0.60
   5   6   3    0.44    0.35
   5   6   3    0.46    0.35
   4  -7  -3    1.05    0.33
   4  -7  -3    0.74    0.28
  -4   7   3    0.36    0.38
   3  -7  -3    1.08    0.32
   3  -7  -3    1.17    0.29
  -3   7   3    1.29    0.36
  -3   7   3    0.96    0.39
   2  -7  -3   13.99    0.79
   2  -7  -3   13.91    0.72
  -2   7   3   14.64    0.77
  -2   7   3   14.76    0.83
  -2   7   3   14.95    0.82
   1  -7  -3   33.38    1.25
   1  -7  -3   29.25    1.35
  -1   7   3   28.82    1.29
  -1   7   3   32.54    1.31
  -1   7   3   31.06    1.36
   0  -7  -3    0.66    0.22
   0  -7  -3    0.64    0.28
   0   7   3    0.97    0.29
   0   7   3    0.77    0.26
  -1  -7  -3    9.60    0.67
   1   7   3   10.33    0.64
   1   7   3    8.82    0.64
  -2  -7  -3    0.84    0.32
   2   7   3    0.39    0.28
   2   7   3    0.70    0.19
   2   7   3    0.72    0.29
  -3  -7  -3    0.59    0.21
  -3  -7  -3    0.05    0.29
   3   7   3    0.15    0.32
   3   7   3   -0.13    0.30
   4   7   3    2.19    0.44
   4   7   3    1.20    0.39
   5   7   3    0.73    0.39
   5   7   3    0.95    0.43
   4  -8  -3    0.37    0.34
  -4   8   3    0.20    0.44
   3  -8  -3    1.17    0.36
  -3   8   3    0.63    0.39
   2  -8  -3   20.84    1.12
  -2   8   3   26.03    1.17
  -2   8   3   21.11    1.06
  -2   8   3   22.81    1.14
   1  -8  -3   24.06    1.16
  -1   8   3   21.86    1.05
  -1   8   3   21.63    1.09
  -1   8   3   22.33    1.00
   0  -8  -3    0.36    0.30
   0   8   3    0.85    0.26
   0   8   3    0.59    0.31
  -1  -8  -3    0.78    0.34
   1   8   3    0.73    0.32
   1   8   3    0.64    0.28
  -2  -8  -3   12.87    0.90
   2   8   3   12.78    0.84
   2   8   3   14.75    0.81
  -3  -8  -3    6.98    0.69
   3   8   3    8.15    0.67
   3   8   3    6.81    0.66
   4   8   3    0.42    0.36
   4   8   3   -0.12    0.37
   3  -9  -3    0.91    0.37
  -3   9   3    0.12    0.43
   2  -9  -3    3.81    0.53
  -2   9   3    4.70    0.60
   1  -9  -3    7.17    0.68
  -1   9   3   10.03    0.78
  -1   9   3    8.77    0.65
   0  -9  -3    3.67    0.53
   0   9   3    4.80    0.48
   0   9   3    4.68    0.55
  -1  -9  -3   14.48    0.98
   1   9   3   14.66    0.93
  -2  -9  -3   14.17    0.95
   2   9   3   11.89    0.86
  -3  -9  -3    2.08    0.51
   3   9   3    1.95    0.46
   4   9   3    0.12    0.37
   3 -10  -3   -0.14    0.36
  -3  10   3    0.06    0.44
   2 -10  -3    0.72    0.41
  -2  10   3    0.64    0.42
   1 -10  -3    0.84    0.42
  -1  10   3    1.32    0.41
  -1  10   3    0.95    0.42
   0 -10  -3    0.96    0.42
   0  10   3    0.92    0.34
   0  10   3    0.81    0.39
  -1 -10  -3    2.59    0.53
   1  10   3    1.69    0.47
  -2 -10  -3    2.21    0.53
   2  10   3    2.46    0.54
   3  10   3   -0.06    0.38
   2 -11  -3    0.58    0.44
  -2  11   3    0.54    0.44
   1 -11  -3    1.19    0.50
  -1  11   3    1.80    0.48
   0 -11  -3    3.46    0.61
   0  11   3    4.35    0.55
   0  11   3    5.15    0.68
  -1 -11  -3    0.58    0.48
   1  11   3    0.20    0.43
   1  11   3    0.37    0.33
  -2 -11  -3    0.28    0.48
   2  11   3    0.20    0.44
   3  11   3    0.85    0.51
   1 -12  -3    0.58    0.50
  -1  12   3    0.20    0.45
   0 -12  -3    2.25    0.62
   0  12   3    2.38    0.50
   0  12   3    2.02    0.58
  -1 -12  -3    1.72    0.61
   1  12   3    2.40    0.65
   2  10  -4    0.34    0.49
  -2 -10   4    0.95    0.54
   1  10  -4    1.29    0.57
  -1 -10   4    2.18    0.58
   0  10  -4    2.72    0.60
   0 -10   4    0.96    0.52
   1 -10   4    1.01    0.49
   3   9  -4    0.91    0.48
   2   9  -4    0.09    0.44
  -2  -9   4    0.55    0.46
   1   9  -4    1.03    0.50
  -1  -9   4    0.50    0.43
   0   9  -4    0.13    0.39
   0  -9   4    0.37    0.40
  -1   9  -4    0.50    0.38
   1  -9   4    0.62    0.40
  -2   9  -4    0.67    0.44
   2  -9   4   -0.08    0.40
   4   8  -4    0.63    0.43
   3   8  -4    1.12    0.46
   2   8  -4    0.45    0.40
  -2  -8   4    0.75    0.41
   1   8  -4    6.47    0.69
  -1  -8   4    6.92    0.70
   0   8  -4    0.73    0.38
   0  -8   4    0.83    0.38
  -1   8  -4    2.59    0.49
  -1   8  -4    2.77    0.45
   1  -8   4    2.26    0.45
  -2   8  -4    1.00    0.39
  -2   8  -4    0.83    0.42
   2  -8   4    0.99    0.39
  -3   8  -4    0.11    0.40
   3  -8   4    1.05    0.42
   4   7  -4    0.36    0.37
   4   7  -4   -0.05    0.36
   3   7  -4    0.26    0.37
  -3  -7   4    0.24    0.39
   2   7  -4    8.75    0.72
  -2  -7   4   10.44    0.77
   1   7  -4    5.13    0.57
  -1  -7   4    5.45    0.59
   0   7  -4    1.95    0.25
   0   7  -4    2.62    0.44
   0  -7   4    2.05    0.41
  -1   7  -4    8.75    0.58
  -1   7  -4    8.49    0.53
  -1   7  -4    9.95    0.71
  -1   7  -4    8.69    0.69
   1  -7   4    9.25    0.71
  -2   7  -4    1.25    0.37
  -2   7  -4    1.80    0.33
  -2   7  -4    1.59    0.43
   2  -7   4    1.57    0.39
  -3   7  -4   -0.05    0.42
  -3   7  -4   -0.13    0.35
   3  -7   4   -0.15    0.32
   4  -7   4    0.29    0.35
   4   6  -4    0.34    0.35
   4   6  -4   -0.05    0.31
   3   6  -4    3.06    0.46
   3   6  -4    3.16    0.43
  -3  -6   4    4.08    0.52
   2   6  -4   11.66    0.71
   2   6  -4   10.39    0.74
  -2  -6   4   11.21    0.80
   1   6  -4    0.57    0.29
   1   6  -4    0.28    0.23
  -1  -6   4    0.60    0.30
   0   6  -4   33.16    1.20
   0   6  -4   33.20    1.45
   0  -6   4   31.15    1.42
  -1   6  -4    7.20    0.44
  -1   6  -4    6.47    0.57
  -1   6  -4    8.06    0.50
   1  -6   4    6.97    0.57
  -2   6  -4    2.71    0.34
  -2   6  -4    3.53    0.43
  -2   6  -4    3.16    0.41
  -2   6  -4    2.83    0.46
   2  -6   4    3.27    0.43
  -3   6  -4    0.89    0.37
  -3   6  -4    0.35    0.41
  -3   6  -4    0.16    0.29
   3  -6   4    0.40    0.32
   4  -6   4    0.11    0.30
   5   5  -4    0.53    0.36
   5   5  -4    0.77    0.32
   4   5  -4    3.01    0.40
   4   5  -4    2.41    0.42
   3   5  -4    7.17    0.58
   3   5  -4    7.31    0.56
  -3  -5   4    7.67    0.61
   2   5  -4    0.21    0.23
   2   5  -4    0.03    0.25
  -2  -5   4    0.29    0.26
   1   5  -4   30.11    1.16
   1   5  -4   28.99    1.30
  -1  -5   4   30.14    1.30
   0   5  -4   20.32    0.75
   0   5  -4   20.74    0.84
   0   5  -4   18.88    0.80
   0   5  -4   19.70    0.96
   0  -5   4   18.98    0.96
   0  -5   4   19.47    0.85
  -1   5  -4   21.17    0.88
  -1   5  -4   19.88    0.87
  -1   5  -4   21.90    0.98
  -1   5  -4   20.28    0.82
   1  -5   4   21.36    0.89
   1  -5   4   20.05    0.98
  -2   5  -4    7.21    0.55
  -2   5  -4    7.40    0.50
  -2   5  -4    8.33    0.67
  -2   5  -4    8.37    0.56
  -2   5  -4    7.32    0.56
   2  -5   4    8.14    0.51
   2  -5   4    7.87    0.55
  -3   5  -4   -0.06    0.36
  -3   5  -4    0.25    0.26
   3  -5   4    0.37    0.24
   3  -5   4    0.21    0.27
  -4   5  -4    1.21    0.54
   4  -5   4    1.32    0.32
   4  -5   4    0.91    0.27
   5   4  -4    0.94    0.31
   5   4  -4    1.96    0.41
   4   4  -4    0.97    0.29
   4   4  -4    0.69    0.30
   3   4  -4    1.63    0.29
   3   4  -4    2.94    0.33
   3   4  -4    1.55    0.33
  -3  -4   4    1.86    0.34
   2   4  -4    9.14    0.52
   2   4  -4    9.00    0.57
  -2  -4   4    7.72    0.56
   1   4  -4   13.68    0.63
   1   4  -4   13.69    0.72
   1   4  -4   14.01    0.55
  -1  -4   4   12.60    0.71
   0   4  -4   32.72    1.14
   0   4  -4   32.03    1.33
   0  -4   4   34.37    1.21
   0  -4   4   30.84    1.32
  -1   4  -4   18.92    0.79
  -1   4  -4   18.65    0.87
  -1   4  -4   17.47    0.73
  -1   4  -4   18.47    0.76
  -1   4  -4   19.21    0.79
   1  -4   4   19.24    0.88
   1  -4   4   19.27    0.78
   1  -4   4   19.48    0.77
  -2   4  -4    1.27    0.33
  -2   4  -4    1.72    0.24
  -2   4  -4    0.66    0.25
  -2   4  -4    1.74    0.27
  -2   4  -4    1.06    0.29
   2  -4   4    1.42    0.23
   2  -4   4    1.14    0.25
  -3   4  -4    6.47    0.52
  -3   4  -4    6.19    0.53
  -3   4  -4    6.45    0.72
   3  -4   4    6.59    0.49
   3  -4   4    6.86    0.44
  -4   4  -4    1.69    0.54
   4  -4   4    2.02    0.28
   4  -4   4    1.56    0.29
   5  -4   4   -0.24    0.21
   5   3  -4    0.82    0.27
   5   3  -4    1.27    0.33
   4   3  -4    0.75    0.24
   4   3  -4    0.74    0.28
   3   3  -4    4.49    0.43
   3   3  -4    5.01    0.41
   3   3  -4    4.70    0.37
  -3  -3   4    5.22    0.44
   2   3  -4   16.24    0.59
   2   3  -4   14.93    0.75
   2   3  -4   15.82    0.52
   2   3  -4   15.10    0.68
   2   3  -4   14.86    0.68
  -2  -3   4   16.86    0.78
   1   3  -4   42.58    1.50
   1   3  -4   44.98    1.39
   1   3  -4   42.77    1.66
  -1  -3   4   41.92    1.65
   0   3  -4   71.57    2.19
   0   3  -4   68.68    2.51
   0  -3   4   69.62    2.31
   0  -3   4   66.14    2.50
   0  -3   4   69.29    2.29
  -1   3  -4   16.58    0.69
  -1   3  -4   15.26    0.62
  -1   3  -4   17.19    0.65
  -1   3  -4   15.55    0.74
   1  -3   4   14.60    0.73
   1  -3   4   15.88    0.67
   1  -3   4   15.82    0.64
  -2   3  -4    6.97    0.58
  -2   3  -4    7.40    0.43
  -2   3  -4    7.81    0.51
  -2   3  -4    7.36    0.46
   2  -3   4    7.46    0.39
   2  -3   4    8.34    0.51
   2  -3   4    7.31    0.40
   2  -3   4    7.12    0.46
  -3   3  -4   20.90    0.93
  -3   3  -4   20.07    1.18
   3  -3   4   19.97    0.88
   3  -3   4   19.63    0.79
  -4   3  -4    0.44    0.44
  -4   3  -4    0.28    0.32
   4  -3   4    0.21    0.21
   4  -3   4    0.69    0.20
   5  -3   4    0.27    0.21
   5   2  -4    0.63    0.27
   5   2  -4    0.68    0.24
   4   2  -4    0.39    0.24
   4   2  -4    0.68    0.22
   3   2  -4    7.79    0.45
   3   2  -4    9.30    0.55
   3   2  -4    8.51    0.52
  -3  -2   4    8.78    0.53
   2   2  -4   17.68    0.76
   2   2  -4   14.67    0.72
   2   2  -4   16.24    0.61
   2   2  -4   15.98    0.54
   2   2  -4   15.59    0.64
   2   2  -4   15.20    0.67
  -2  -2   4   15.06    0.73
   1   2  -4  292.94    9.43
   1   2  -4  273.59    9.02
   1   2  -4  286.51    9.76
   1   2  -4  287.05    8.57
  -1  -2   4  287.90    9.76
  -1  -2   4  298.90    8.59
   0   2  -4   29.66    0.97
   0   2  -4   29.12    1.00
   0   2  -4   28.78    1.15
   0  -2   4   28.61    1.14
   0  -2   4   29.51    1.01
   0  -2   4   29.83    1.04
  -1   2  -4   45.42    1.60
  -1   2  -4   45.32    1.71
  -1   2  -4   48.49    1.56
  -1   2  -4   43.87    1.54
   1  -2   4   47.62    1.57
   1  -2   4   45.27    1.57
   1  -2   4   46.72    1.65
   1  -2   4   48.69    1.72
   1  -2   4   49.03    1.74
  -2   2  -4   16.31    0.74
  -2   2  -4   17.81    0.96
  -2   2  -4   17.28    0.76
   2  -2   4   17.52    0.76
   2  -2   4   18.59    0.72
   2  -2   4   18.07    0.68
   2  -2   4   18.17    0.78
  -3   2  -4   10.29    0.61
  -3   2  -4   11.40    0.50
  -3   2  -4   10.88    0.80
   3  -2   4   11.28    0.55
   3  -2   4   11.62    0.58
   3  -2   4   11.10    0.59
   3  -2   4   11.06    0.50
  -4   2  -4   -0.05    0.27
  -4   2  -4    0.45    0.40
   4  -2   4    0.40    0.17
   4  -2   4    0.40    0.18
   5  -2   4    0.19    0.17
   5   1  -4    1.01    0.25
   5   1  -4    0.71    0.24
   4   1  -4    4.17    0.33
   4   1  -4    4.96    0.40
   3   1  -4   12.60    0.57
   3   1  -4   13.36    0.50
   3   1  -4   13.77    0.66
   3   1  -4   12.83    0.64
  -3  -1   4   13.98    0.64
  -3  -1   4   12.75    0.63
   2   1  -4   46.74    1.61
   2   1  -4   45.86    1.57
   2   1  -4   45.27    1.52
   2   1  -4   43.03    1.67
   2   1  -4   44.03    1.42
  -2  -1   4   45.49    1.66
  -2  -1   4   44.88    1.59
   1   1  -4   14.55    0.53
   1   1  -4   14.67    0.54
   1   1  -4   14.23    0.65
   1   1  -4   15.01    0.57
  -1  -1   4   14.03    0.52
  -1  -1   4   14.28    0.64
   0   1  -4   36.64    1.21
   0   1  -4   37.09    1.39
   0  -1   4   36.98    1.26
   0  -1   4   38.12    1.39
   0  -1   4   37.56    1.39
  -1   1  -4   76.47    2.46
  -1   1  -4   76.94    2.51
  -1   1  -4   77.95    2.74
   1  -1   4   78.63    2.61
   1  -1   4   79.69    2.75
   1  -1   4   76.40    2.52
   1  -1   4   81.60    2.68
  -2   1  -4  140.62    4.37
  -2   1  -4  148.01    4.85
  -2   1  -4  134.85    5.48
   2  -1   4  141.68    4.75
   2  -1   4  146.57    4.87
   2  -1   4  137.97    4.48
  -3   1  -4   14.85    0.57
  -3   1  -4   14.96    0.70
  -3   1  -4   13.28    0.90
   3  -1   4   15.18    0.71
   3  -1   4   12.90    0.56
   3  -1   4   15.00    0.66
  -4   1  -4    0.39    0.27
  -4   1  -4   -0.05    0.34
   4  -1   4    0.12    0.15
   4  -1   4    0.22    0.16
  -5   1  -4    1.61    0.38
   5  -1   4    0.94    0.20
   5  -1   4    0.68    0.19
   5   0  -4    0.22    0.20
   5   0  -4    0.46    0.21
   4   0  -4    7.52    0.42
   4   0  -4    7.55    0.46
  -4   0   4    8.06    0.58
   3   0  -4   12.81    0.54
   3   0  -4   13.75    0.66
   3   0  -4   12.75    0.61
  -3   0   4   11.54    0.63
  -3   0   4   13.36    0.58
   2   0  -4   12.84    0.57
   2   0  -4   13.70    0.62
   2   0  -4   14.32    0.58
   2   0  -4   13.55    0.54
  -2   0   4   13.74    0.59
  -2   0   4   13.76    0.60
  -2   0   4   13.25    0.60
   1   0  -4   51.62    1.62
   1   0  -4   51.67    1.73
   1   0  -4   50.18    1.68
   1   0  -4   49.03    1.84
  -1   0   4   51.35    1.75
  -1   0   4   53.09    1.74
   0   0  -4  110.33    3.63
   0   0  -4  100.78    3.62
   0   0  -4  102.83    3.20
   0   0  -4  103.34    3.33
   0   0   4  106.16    3.62
   0   0   4  105.89    3.33
  -1   0  -4   47.53    1.74
  -1   0  -4   47.09    1.57
   1   0   4   50.77    1.76
   1   0   4   48.60    1.59
  -2   0  -4   55.27    1.78
  -2   0  -4   53.69    1.91
  -2   0  -4   52.48    2.24
   2   0   4   55.22    1.94
   2   0   4   53.61    1.76
   2   0   4   53.17    1.90
  -3   0  -4    1.24    0.33
  -3   0  -4    1.55    0.15
  -3   0  -4    0.97    0.25
   3   0   4    1.30    0.25
   3   0   4    1.31    0.20
  -4   0  -4    1.36    0.42
  -4   0  -4    1.34    0.29
   4   0   4    1.40    0.20
   4   0   4    1.45    0.19
  -5   0  -4    0.66    0.33
  -5   0  -4    0.96    0.48
   5   0   4    0.90    0.19
   5   0   4    0.95    0.19
   5  -1  -4    0.60    0.19
  -5   1   4    0.64    0.37
   4  -1  -4   11.79    0.57
   4  -1  -4   11.87    0.51
  -4   1   4   10.65    0.68
   3  -1  -4    2.43    0.20
   3  -1  -4    2.15    0.25
   3  -1  -4    2.66    0.28
   3  -1  -4    3.38    0.28
  -3   1   4    2.43    0.30
  -3   1   4    2.59    0.31
  -3   1   4    2.98    0.22
   2  -1  -4    9.51    0.44
   2  -1  -4    8.98    0.40
   2  -1  -4    9.30    0.46
   2  -1  -4    9.23    0.47
  -2   1   4    9.04    0.47
  -2   1   4    9.60    0.44
  -2   1   4    9.10    0.47
   1  -1  -4   49.97    1.77
   1  -1  -4   47.73    1.61
   1  -1  -4   48.27    1.77
  -1   1   4   49.80    1.69
  -1   1   4   51.06    1.71
  -1   1   4   48.62    1.61
   0  -1  -4   24.79    0.92
   0  -1  -4   23.24    0.92
   0   1   4   23.43    0.83
   0   1   4   23.00    0.91
   0   1   4   24.27    0.93
   0   1   4   23.27    0.82
  -1  -1  -4   68.49    2.46
  -1  -1  -4   68.70    2.20
   1   1   4   74.18    2.48
   1   1   4   70.16    2.27
   1   1   4   70.35    2.47
  -2  -1  -4   11.26    0.51
  -2  -1  -4   11.29    0.50
   2   1   4   10.62    0.51
   2   1   4   10.52    0.45
   2   1   4   11.14    0.52
  -3  -1  -4    6.87    0.35
  -3  -1  -4    6.66    0.44
  -3  -1  -4    7.03    0.60
   3   1   4    6.98    0.44
   3   1   4    6.76    0.36
   3   1   4    7.46    0.42
   3   1   4    6.75    0.50
  -4  -1  -4    2.89    0.34
  -4  -1  -4    2.23    0.45
   4   1   4    2.82    0.25
   4   1   4    3.02    0.28
  -5  -1  -4    1.34    0.35
  -5  -1  -4    0.87    0.47
   5   1   4    1.40    0.23
  -5   2   4    4.11    0.56
   4  -2  -4    6.21    0.35
   4  -2  -4    6.74    0.40
  -4   2   4    5.70    0.54
  -4   2   4    6.82    0.56
   3  -2  -4    4.21    0.28
   3  -2  -4    4.00    0.31
   3  -2  -4    4.83    0.34
   3  -2  -4    3.89    0.28
  -3   2   4    3.77    0.38
  -3   2   4    4.63    0.28
  -3   2   4    4.10    0.40
   2  -2  -4    7.72    0.43
   2  -2  -4    9.14    0.44
   2  -2  -4    9.09    0.40
   2  -2  -4    8.67    0.43
   2  -2  -4    8.45    0.38
  -2   2   4    7.90    0.45
  -2   2   4    8.55    0.46
   1  -2  -4   81.07    2.77
   1  -2  -4   78.42    2.55
   1  -2  -4   76.49    2.77
  -1   2   4   76.83    2.55
  -1   2   4   84.02    2.73
  -1   2   4   78.19    2.76
  -1   2   4   79.31    2.67
   0  -2  -4  177.60    5.99
   0  -2  -4  173.93    5.53
   0   2   4  179.16    6.00
   0   2   4  174.87    5.98
   0   2   4  173.62    5.53
  -1  -2  -4   78.42    2.89
  -1  -2  -4   75.40    2.36
  -1  -2  -4   75.34    2.65
   1   2   4   76.78    2.66
   1   2   4   73.91    2.44
   1   2   4   71.60    2.64
  -2  -2  -4   18.69    0.77
  -2  -2  -4   17.79    0.71
  -2  -2  -4   17.86    0.88
   2   2   4   18.07    0.70
   2   2   4   18.90    0.79
   2   2   4   18.62    0.86
   2   2   4   17.96    0.77
  -3  -2  -4   11.05    0.72
  -3  -2  -4   11.04    0.51
  -3  -2  -4   11.52    0.55
   3   2   4   10.72    0.50
   3   2   4   11.42    0.60
   3   2   4   11.39    0.55
  -4  -2  -4    2.10    0.44
  -4  -2  -4    1.11    0.26
   4   2   4    2.02    0.26
   4   2   4    1.92    0.24
  -5  -2  -4    0.73    0.29
   5   2   4    0.64    0.24
  -5   3   4    3.49    0.55
   4  -3  -4    1.33    0.21
   4  -3  -4    1.40    0.21
  -4   3   4    1.51    0.35
  -4   3   4    0.97    0.31
   3  -3  -4    0.49    0.17
   3  -3  -4    0.56    0.17
   3  -3  -4    0.53    0.18
  -3   3   4    0.67    0.23
  -3   3   4    0.63    0.26
   2  -3  -4   35.50    1.25
   2  -3  -4   37.19    1.57
   2  -3  -4   35.15    1.37
   2  -3  -4   38.34    1.37
  -2   3   4   33.58    1.34
  -2   3   4   36.84    1.34
  -2   3   4   35.48    1.39
   1  -3  -4  131.41    4.47
   1  -3  -4  127.55    4.11
   1  -3  -4  132.73    4.45
  -1   3   4  131.07    4.44
  -1   3   4  126.88    4.30
  -1   3   4  125.85    4.37
  -1   3   4  126.92    4.10
   0  -3  -4   54.78    1.90
   0  -3  -4   56.59    1.75
   0   3   4   52.10    1.90
   0   3   4   44.92    1.72
  -1  -3  -4    3.66    0.26
  -1  -3  -4    3.92    0.29
  -1  -3  -4    3.98    0.33
   1   3   4    4.53    0.30
   1   3   4    4.24    0.34
   1   3   4    4.16    0.33
  -2  -3  -4   19.08    0.87
  -2  -3  -4   18.77    0.94
  -2  -3  -4   20.74    0.78
   2   3   4   22.21    0.91
   2   3   4   20.87    0.79
   2   3   4   20.09    0.88
   2   3   4   21.17    0.93
  -3  -3  -4   15.32    0.86
  -3  -3  -4   14.75    0.65
  -3  -3  -4   15.34    0.69
   3   3   4   16.30    0.77
   3   3   4   13.96    0.71
   3   3   4   14.74    0.65
  -4  -3  -4    1.63    0.27
  -4  -3  -4    1.82    0.41
   4   3   4    2.31    0.30
   4   3   4    1.90    0.28
   5   3   4    0.41    0.26
   5   3   4    0.20    0.23
   5  -4  -4    0.17    0.20
  -5   4   4    0.68    0.41
   4  -4  -4    1.07    0.24
   4  -4  -4    1.18    0.23
  -4   4   4    1.94    0.39
  -4   4   4    1.55    0.36
   3  -4  -4    2.09    0.28
   3  -4  -4    2.05    0.25
  -3   4   4    2.48    0.38
  -3   4   4    1.57    0.29
   2  -4  -4   66.05    2.18
   2  -4  -4   68.36    2.63
   2  -4  -4   61.48    2.36
   2  -4  -4   65.76    2.36
  -2   4   4   65.26    2.32
  -2   4   4   62.46    2.35
  -2   4   4   63.79    2.31
   1  -4  -4  178.36    5.51
   1  -4  -4  176.69    5.95
   1  -4  -4  166.34    5.96
   1  -4  -4  178.07    6.48
  -1   4   4  169.66    5.93
  -1   4   4  172.15    5.49
  -1   4   4  168.55    5.83
   0  -4  -4    7.64    0.48
   0  -4  -4    8.14    0.42
   0   4   4    7.41    0.47
  -1  -4  -4  115.27    4.06
  -1  -4  -4  116.52    4.30
   1   4   4  112.32    4.05
   1   4   4  116.36    3.73
  -2  -4  -4   12.55    0.69
  -2  -4  -4   13.39    0.67
  -2  -4  -4   13.45    0.59
   2   4   4   13.21    0.66
   2   4   4   13.64    0.62
   2   4   4   13.56    0.68
  -3  -4  -4    5.85    0.45
  -3  -4  -4    6.14    0.41
   3   4   4    5.47    0.47
   3   4   4    6.54    0.49
   3   4   4    5.25    0.41
  -4  -4  -4    2.46    0.30
   4   4   4    2.18    0.32
   4   4   4    2.00    0.34
   5   4   4    0.01    0.27
   5   4   4    0.57    0.28
   5  -5  -4   -0.19    0.22
  -5   5   4   -0.23    0.35
   4  -5  -4    0.44    0.23
   4  -5  -4    0.13    0.22
  -4   5   4    0.59    0.33
   3  -5  -4    1.58    0.26
   3  -5  -4    1.89    0.31
  -3   5   4    2.33    0.35
  -3   5   4    1.56    0.37
   2  -5  -4    4.63    0.36
   2  -5  -4    4.77    0.43
   2  -5  -4    4.56    0.41
   2  -5  -4    4.52    0.41
  -2   5   4    4.41    0.43
  -2   5   4    4.70    0.39
  -2   5   4    4.66    0.39
   1  -5  -4    2.49    0.26
   1  -5  -4    2.36    0.31
   1  -5  -4    2.46    0.23
  -1   5   4    2.35    0.25
  -1   5   4    1.93    0.27
  -1   5   4    2.39    0.31
   0  -5  -4   11.37    0.55
   0  -5  -4   11.08    0.64
   0   5   4   11.41    0.62
  -1  -5  -4   29.60    1.25
   1   5   4   28.45    1.11
   1   5   4   29.31    1.23
  -2  -5  -4   13.88    0.74
  -2  -5  -4   14.53    0.65
   2   5   4   14.11    0.67
   2   5   4   12.73    0.74
   2   5   4   14.47    0.68
  -3  -5  -4    3.99    0.34
  -3  -5  -4    4.82    0.46
   3   5   4    3.67    0.38
   3   5   4    4.31    0.45
   3   5   4    5.17    0.46
  -4  -5  -4    3.79    0.34
   4   5   4    3.75    0.45
   4   5   4    3.83    0.42
   5   5   4    0.14    0.31
   5   5   4   -0.35    0.28
   5  -6  -4    0.26    0.26
  -5   6   4   -0.49    0.36
   4  -6  -4    1.74    0.33
   4  -6  -4    2.34    0.32
  -4   6   4    1.63    0.43
   3  -6  -4    6.95    0.56
   3  -6  -4    8.72    0.53
  -3   6   4    7.53    0.59
  -3   6   4    9.10    0.67
   2  -6  -4   10.80    0.64
   2  -6  -4   10.90    0.59
   2  -6  -4   10.28    0.65
  -2   6   4   10.38    0.66
  -2   6   4    9.79    0.60
  -2   6   4   11.41    0.66
   1  -6  -4    9.89    0.57
   1  -6  -4    9.83    0.48
   1  -6  -4    9.47    0.61
  -1   6   4   10.30    0.65
  -1   6   4    9.02    0.59
  -1   6   4   10.51    0.55
   0  -6  -4   52.63    2.14
   0  -6  -4   57.14    1.95
   0   6   4   56.06    2.13
  -1  -6  -4   19.25    0.95
   1   6   4   19.59    0.95
   1   6   4   18.53    0.86
  -2  -6  -4   11.78    0.73
  -2  -6  -4   12.34    0.64
   2   6   4   12.84    0.69
   2   6   4   12.09    0.60
   2   6   4   11.96    0.73
  -3  -6  -4    5.52    0.40
  -3  -6  -4    5.25    0.53
   3   6   4    5.59    0.50
   3   6   4    5.36    0.52
   3   6   4    6.58    0.52
   4   6   4    1.16    0.36
   4   6   4    1.66    0.36
   5   6   4    0.46    0.37
   5   6   4    0.06    0.32
   4  -7  -4    0.86    0.34
  -4   7   4    0.77    0.40
   3  -7  -4    5.55    0.53
   3  -7  -4    5.17    0.46
  -3   7   4    6.25    0.64
  -3   7   4    4.02    0.51
   2  -7  -4    7.60    0.52
   2  -7  -4    6.78    0.59
   2  -7  -4    7.59    0.53
  -2   7   4    6.26    0.59
  -2   7   4    5.94    0.52
  -2   7   4    7.92    0.62
   1  -7  -4   20.12    0.91
   1  -7  -4   18.64    0.99
  -1   7   4   18.91    0.96
  -1   7   4   22.15    1.03
   0  -7  -4   39.86    1.45
   0  -7  -4   33.79    1.56
   0   7   4   37.00    1.40
   0   7   4   36.10    1.55
  -1  -7  -4   16.93    0.91
   1   7   4   15.97    0.81
   1   7   4   14.28    0.85
  -2  -7  -4    3.47    0.47
   2   7   4    3.67    0.30
   2   7   4    3.00    0.43
   2   7   4    4.40    0.44
  -3  -7  -4   10.25    0.60
  -3  -7  -4   10.29    0.77
   3   7   4   10.49    0.71
   3   7   4    9.19    0.68
   4   7   4    1.93    0.41
   4   7   4    2.04    0.43
   5   7   4    0.54    0.38
   5   7   4    0.75    0.40
   4  -8  -4   -0.24    0.32
  -4   8   4    0.14    0.43
   3  -8  -4    2.82    0.45
  -3   8   4    2.36    0.49
   2  -8  -4    2.84    0.45
  -2   8   4    3.71    0.49
  -2   8   4    3.21    0.42
  -2   8   4    4.50    0.52
   1  -8  -4    4.52    0.53
  -1   8   4    6.31    0.55
  -1   8   4    6.88    0.59
   0  -8  -4   39.24    1.75
   0   8   4   42.14    1.74
  -1  -8  -4    9.71    0.75
   1   8   4    9.86    0.71
   1   8   4   10.97    0.72
  -2  -8  -4    7.52    0.70
   2   8   4    8.34    0.64
   2   8   4    7.79    0.68
  -3  -8  -4   10.99    0.86
   3   8   4   10.46    0.76
   3   8   4   10.93    0.78
   4   8   4    4.20    0.56
   4   8   4    3.89    0.56
   3  -9  -4   -0.16    0.32
  -3   9   4    0.57    0.43
   2  -9  -4    0.28    0.34
  -2   9   4    0.91    0.39
   1  -9  -4    4.20    0.54
  -1   9   4    5.61    0.60
  -1   9   4    4.18    0.51
   0  -9  -4    0.36    0.34
   0   9   4    0.73    0.28
   0   9   4    0.51    0.33
  -1  -9  -4    0.00    0.34
   1   9   4   -0.19    0.31
  -2  -9  -4    0.21    0.37
   2   9   4    0.80    0.39
  -3  -9  -4    2.45    0.53
   3   9   4    1.51    0.44
   4   9   4   -0.61    0.31
   3 -10  -4    0.44    0.40
  -3  10   4    0.44    0.48
   2 -10  -4    1.00    0.42
  -2  10   4    1.45    0.48
   1 -10  -4    4.62    0.61
  -1  10   4    5.71    0.61
  -1  10   4    5.30    0.62
   0 -10  -4    3.72    0.57
   0  10   4    2.93    0.44
   0  10   4    3.07    0.53
  -1 -10  -4    0.97    0.45
   1  10   4    1.67    0.47
  -2 -10  -4    0.13    0.43
   2  10   4    0.18    0.38
   3  10   4    0.68    0.43
   2 -11  -4    0.63    0.45
  -2  11   4    0.75    0.46
   1 -11  -4    0.86    0.48
  -1  11   4    0.38    0.42
   0 -11  -4    0.47    0.47
   0  11   4    0.11    0.40
   0  11   4    0.58    0.37
  -1 -11  -4    1.00    0.49
   1  11   4    0.56    0.44
  -2 -11  -4    1.28    0.54
   2  11   4    1.11    0.49
   3  11   4    0.76    0.50
   1 -12  -4    0.59    0.50
  -1  12   4    0.47    0.47
   0 -12  -4    0.33    0.48
   0  12   4    0.00    0.49
   0  12   4    0.31    0.40
  -1 -12  -4    0.37    0.49
   1  12   4    0.82    0.41
   1  12   4    0.90    0.54
  -2 -12  -4    1.09    0.58
   2  12   4    0.91    0.54
   1  10  -5    1.41    0.56
  -1 -10   5    0.75    0.54
   0  10  -5    1.23    0.57
   0 -10   5    0.70    0.50
   2   9  -5    2.32    0.57
  -2  -9   5    3.28    0.65
   1   9  -5    1.29    0.50
  -1  -9   5    1.81    0.52
   0   9  -5    2.96    0.61
   0  -9   5    2.81    0.57
  -1   9  -5    0.32    0.38
   1  -9   5    0.03    0.39
   2  -9   5   -0.01    0.43
   3   8  -5    0.24    0.43
   2   8  -5    3.03    0.56
  -2  -8   5    3.17    0.58
   1   8  -5    7.85    0.76
  -1  -8   5    6.86    0.73
   0   8  -5    5.80    0.68
   0  -8   5    4.67    0.61
  -1   8  -5    1.50    0.44
  -1   8  -5    1.30    0.38
   1  -8   5    1.38    0.43
  -2   8  -5    0.39    0.40
   2  -8   5    0.05    0.37
   3  -8   5   -0.04    0.39
   4   7  -5    0.83    0.45
   3   7  -5    2.76    0.51
  -3  -7   5    3.11    0.57
   2   7  -5    6.72    0.68
  -2  -7   5    5.50    0.64
   1   7  -5    4.95    0.58
  -1  -7   5    5.19    0.61
   0   7  -5    3.16    0.49
   0  -7   5    2.68    0.46
  -1   7  -5    6.01    0.63
   1  -7   5    4.97    0.57
  -2   7  -5    0.58    0.40
   2  -7   5    0.82    0.37
   3  -7   5    1.22    0.42
   4   6  -5    1.56    0.46
   4   6  -5    2.48    0.44
   3   6  -5    4.19    0.47
   3   6  -5    5.05    0.56
  -3  -6   5    4.76    0.57
   2   6  -5    5.30    0.49
   2   6  -5    7.02    0.63
  -2  -6   5    4.96    0.57
   1   6  -5   16.07    0.91
  -1  -6   5   14.10    0.88
   0   6  -5   12.40    0.80
   0   6  -5   14.00    0.68
   0   6  -5   12.63    0.56
   0  -6   5   13.78    0.82
  -1   6  -5    7.75    0.45
  -1   6  -5    6.47    0.60
  -1   6  -5    7.42    0.57
   1  -6   5    6.34    0.60
  -2   6  -5    7.87    0.61
  -2   6  -5    7.02    0.70
  -2   6  -5    7.35    0.52
   2  -6   5    6.03    0.59
  -3   6  -5    0.69    0.43
   3  -6   5    1.44    0.37
   4  -6   5    0.07    0.32
   5   5  -5    1.31    0.39
   5   5  -5    1.38    0.43
   4   5  -5    2.11    0.43
   4   5  -5    2.13    0.38
   3   5  -5    0.33    0.27
   3   5  -5    0.31    0.31
  -3  -5   5    0.44    0.30
   2   5  -5    3.22    0.37
   2   5  -5    2.52    0.40
  -2  -5   5    2.98    0.43
   1   5  -5   17.19    0.69
   1   5  -5   14.66    0.86
   1   5  -5   17.40    0.80
  -1  -5   5   16.33    0.89
   0   5  -5    4.46    0.27
   0   5  -5    4.43    0.47
   0   5  -5    4.55    0.40
   0   5  -5    4.48    0.38
   0  -5   5    4.50    0.47
  -1   5  -5   29.50    1.18
  -1   5  -5   30.61    1.13
  -1   5  -5   31.23    1.35
   1  -5   5   29.38    1.31
  -2   5  -5    9.96    0.65
  -2   5  -5    9.06    0.63
  -2   5  -5    9.33    0.73
  -2   5  -5    8.27    0.53
   2  -5   5    8.32    0.60
  -3   5  -5    0.97    0.41
  -3   5  -5    0.64    0.30
  -3   5  -5    0.86    0.37
   3  -5   5    1.48    0.34
   4  -5   5    0.25    0.30
   5   4  -5    0.64    0.36
   5   4  -5    0.59    0.33
   4   4  -5    1.69    0.33
   4   4  -5    1.67    0.38
   3   4  -5    0.86    0.27
   3   4  -5    1.04    0.26
   3   4  -5    0.71    0.31
  -3  -4   5    1.15    0.34
   2   4  -5   11.28    0.44
   2   4  -5   11.20    0.55
   2   4  -5   11.40    0.60
   2   4  -5    9.45    0.66
  -2  -4   5   10.70    0.68
   1   4  -5    6.61    0.38
   1   4  -5    6.27    0.43
   1   4  -5    6.41    0.51
  -1  -4   5    6.56    0.51
   0   4  -5   54.18    1.80
   0   4  -5   52.60    2.08
   0   4  -5   55.19    1.83
   0  -4   5   56.56    1.91
   0  -4   5   52.51    2.07
  -1   4  -5   32.60    1.23
  -1   4  -5   35.98    1.24
  -1   4  -5   33.78    1.39
  -1   4  -5   32.29    1.20
   1  -4   5   31.98    1.37
   1  -4   5   34.00    1.26
  -2   4  -5    6.55    0.51
  -2   4  -5    6.54    0.63
  -2   4  -5    6.37    0.43
  -2   4  -5    6.79    0.51
   2  -4   5    5.73    0.44
   2  -4   5    6.06    0.47
  -3   4  -5   -0.19    0.29
  -3   4  -5    0.09    0.35
   3  -4   5    0.04    0.24
   3  -4   5    0.10    0.21
  -4   4  -5    1.32    0.41
  -4   4  -5    1.29    0.54
   4  -4   5    1.52    0.28
   4  -4   5    1.13    0.30
   5   3  -5    0.22    0.31
   5   3  -5    0.38    0.28
   4   3  -5   -0.17    0.22
   4   3  -5    0.09    0.26
   3   3  -5    3.81    0.42
   3   3  -5    3.85    0.37
   3   3  -5    4.10    0.37
  -3  -3   5    4.64    0.45
   2   3  -5    3.96    0.25
   2   3  -5    4.17    0.31
   2   3  -5    3.66    0.34
   2   3  -5    3.46    0.40
  -2  -3   5    3.85    0.39
   1   3  -5   35.70    1.18
   1   3  -5   35.12    1.28
   1   3  -5   33.83    1.42
  -1  -3   5   36.28    1.42
   0   3  -5  206.54    6.22
   0   3  -5  205.85    6.71
   0   3  -5  203.73    7.07
   0  -3   5  200.69    7.06
   0  -3   5  206.07    6.52
   0  -3   5  208.06    6.76
  -1   3  -5    9.86    0.59
  -1   3  -5    9.83    0.49
  -1   3  -5    9.41    0.52
  -1   3  -5   10.46    0.43
   1  -3   5   10.83    0.51
   1  -3   5    9.78    0.51
   1  -3   5    8.94    0.54
  -2   3  -5    5.87    0.46
  -2   3  -5    7.30    0.60
  -2   3  -5    7.33    0.43
  -2   3  -5    7.07    0.51
   2  -3   5    6.90    0.37
   2  -3   5    7.38    0.43
   2  -3   5    6.23    0.46
  -3   3  -5    1.20    0.32
  -3   3  -5    1.34    0.39
   3  -3   5    0.75    0.25
   3  -3   5    1.37    0.23
  -4   3  -5    2.34    0.60
  -4   3  -5    1.44    0.39
   4  -3   5    1.87    0.27
   4  -3   5    1.96    0.31
   5  -3   5   -0.10    0.22
   5   2  -5   -0.01    0.26
   5   2  -5    0.74    0.30
   4   2  -5    2.95    0.38
   4   2  -5    2.51    0.31
   3   2  -5    6.16    0.50
   3   2  -5    6.51    0.42
   3   2  -5    6.45    0.46
  -3  -2   5    6.33    0.49
   2   2  -5   15.41    0.57
   2   2  -5   15.68    0.66
   2   2  -5   15.69    0.77
   2   2  -5   15.38    0.67
  -2  -2   5   15.62    0.74
   1   2  -5   76.87    2.42
   1   2  -5   77.52    2.60
   1   2  -5   78.35    2.82
   1   2  -5   79.53    2.57
  -1  -2   5   77.53    2.80
   0   2  -5   18.10    0.70
   0   2  -5   17.04    0.80
   0  -2   5   17.74    0.65
   0  -2   5   17.86    0.80
   0  -2   5   17.87    0.71
  -1   2  -5   43.52    1.67
  -1   2  -5   47.18    1.52
  -1   2  -5   42.58    1.50
   1  -2   5   45.64    1.53
   1  -2   5   44.26    1.50
   1  -2   5   42.51    1.66
   1  -2   5   45.13    1.60
  -2   2  -5   17.00    0.78
  -2   2  -5   16.94    0.97
  -2   2  -5   16.49    0.77
   2  -2   5   17.93    0.72
   2  -2   5   17.15    0.78
   2  -2   5   19.32    0.83
   2  -2   5   17.94    0.71
  -3   2  -5   25.82    1.05
  -3   2  -5   24.27    1.35
   3  -2   5   24.94    0.94
   3  -2   5   23.24    1.01
   3  -2   5   24.34    1.02
  -4   2  -5    2.03    0.52
  -4   2  -5    1.94    0.39
   4  -2   5    1.90    0.25
   4  -2   5    2.03    0.28
  -5   2  -5    0.30    0.37
   5  -2   5   -0.02    0.20
   5   1  -5    2.04    0.33
   5   1  -5    1.78    0.30
   4   1  -5    1.84    0.30
   4   1  -5    1.45    0.26
   3   1  -5   29.56    1.16
   3   1  -5   28.77    1.06
   3   1  -5   28.83    0.98
   3   1  -5   25.58    1.17
  -3  -1   5   28.38    1.16
  -3  -1   5   29.23    1.13
   2   1  -5   17.36    0.63
   2   1  -5   17.96    0.70
   2   1  -5   17.26    0.80
   2   1  -5   17.15    0.69
  -2  -1   5   17.40    0.78
  -2  -1   5   16.08    0.68
   1   1  -5    7.82    0.37
   1   1  -5    7.53    0.46
   1   1  -5    7.16    0.40
   1   1  -5    7.29    0.31
  -1  -1   5    7.52    0.44
  -1  -1   5    7.58    0.31
   0   1  -5  118.08    4.06
   0   1  -5  115.53    3.57
   0   1  -5  111.59    3.72
   0  -1   5  118.14    3.73
   0  -1   5  119.15    4.06
  -1   1  -5   38.62    1.32
  -1   1  -5   38.49    1.32
  -1   1  -5   38.46    1.47
   1  -1   5   40.10    1.41
   1  -1   5   38.40    1.32
   1  -1   5   38.06    1.47
   1  -1   5   38.37    1.33
  -2   1  -5    2.25    0.28
  -2   1  -5    1.61    0.22
  -2   1  -5    2.16    0.33
   2  -1   5    1.82    0.21
   2  -1   5    2.26    0.26
   2  -1   5    1.69    0.21
  -3   1  -5   24.83    1.37
  -3   1  -5   25.71    1.05
   3  -1   5   24.79    0.94
   3  -1   5   27.58    1.09
  -4   1  -5    1.79    0.49
  -4   1  -5    2.56    0.38
   4  -1   5    2.69    0.28
   4  -1   5    2.22    0.25
  -5   1  -5    0.21    0.34
   5  -1   5   -0.02    0.20
   5  -1   5    0.25    0.20
   5   0  -5    0.52    0.24
   5   0  -5    0.45    0.24
   4   0  -5    9.72    0.56
   4   0  -5   10.00    0.51
  -4   0   5    9.62    0.63
   3   0  -5   38.63    1.40
   3   0  -5   34.57    1.41
   3   0  -5   34.64    1.27
  -3   0   5   37.79    1.38
  -3   0   5   34.65    1.39
   2   0  -5    6.11    0.42
   2   0  -5    5.98    0.35
   2   0  -5    7.04    0.36
  -2   0   5    5.91    0.35
  -2   0   5    6.31    0.38
  -2   0   5    6.24    0.40
   1   0  -5   45.22    1.50
   1   0  -5   44.25    1.44
   1   0  -5   43.57    1.65
   1   0  -5   43.65    1.49
  -1   0   5   44.24    1.52
  -1   0   5   44.90    1.53
   0   0  -5   44.08    1.47
   0   0  -5   45.44    1.68
   0   0  -5   45.47    1.51
   0   0   5   45.82    1.52
  -1   0  -5  102.06    3.23
  -1   0  -5  102.04    3.62
   1   0   5  103.60    3.32
   1   0   5  108.22    3.64
  -2   0  -5   35.92    1.36
  -2   0  -5   32.61    1.59
  -2   0  -5   36.20    1.28
   2   0   5   39.47    1.39
   2   0   5   34.98    1.23
   2   0   5   36.20    1.33
  -3   0  -5    3.28    0.47
  -3   0  -5    2.99    0.35
   3   0   5    2.91    0.30
   3   0   5    2.65    0.23
   3   0   5    2.89    0.32
  -4   0  -5    0.16    0.26
  -4   0  -5    0.09    0.32
   4   0   5    0.16    0.17
   4   0   5    0.02    0.18
  -5   0  -5    0.75    0.36
   5   0   5    0.59    0.20
   5   0   5    0.29    0.20
   5  -1  -5    0.13    0.21
  -5   1   5    0.14    0.34
   4  -1  -5   14.89    0.62
   4  -1  -5   14.21    0.70
  -4   1   5   14.07    0.79
   3  -1  -5    4.31    0.36
   3  -1  -5    4.10    0.34
   3  -1  -5    3.51    0.28
   3  -1  -5    4.27    0.35
  -3   1   5    3.68    0.36
  -3   1   5    4.15    0.32
  -3   1   5    4.11    0.38
   2  -1  -5    3.03    0.29
   2  -1  -5    2.65    0.28
   2  -1  -5    1.96    0.20
   2  -1  -5    1.90    0.20
  -2   1   5    1.94    0.23
  -2   1   5    2.17    0.23
   1  -1  -5   42.37    1.50
   1  -1  -5   37.78    1.49
   1  -1  -5   39.53    1.35
  -1   1   5   41.68    1.42
  -1   1   5   39.43    1.39
  -1   1   5   38.93    1.35
   0  -1  -5   61.50    1.99
   0  -1  -5   62.00    2.24
   0   1   5   63.75    2.04
   0   1   5   62.69    2.05
  -1  -1  -5  179.12    6.27
  -1  -1  -5  183.62    5.58
   1   1   5  182.15    5.80
   1   1   5  191.49    6.30
   1   1   5  188.55    6.28
   1   1   5  178.88    5.79
  -2  -1  -5  166.07    5.84
  -2  -1  -5  168.97    6.54
  -2  -1  -5  170.48    5.24
   2   1   5  178.48    5.88
   2   1   5  172.19    5.41
   2   1   5  170.04    5.86
  -3  -1  -5    9.16    0.72
  -3  -1  -5   10.83    0.51
  -3  -1  -5   10.39    0.57
   3   1   5    9.75    0.53
   3   1   5   10.21    0.61
   3   1   5    9.46    0.48
   3   1   5    9.90    0.56
  -4  -1  -5    0.63    0.27
  -4  -1  -5    0.63    0.38
   4   1   5    0.40    0.19
  -5  -1  -5    0.59    0.32
  -5  -1  -5    0.87    0.49
   5   1   5    0.14    0.21
  -5   2   5    0.61    0.39
   4  -2  -5    3.31    0.28
   4  -2  -5    3.81    0.34
  -4   2   5    3.97    0.47
  -4   2   5    3.81    0.46
   3  -2  -5   10.36    0.53
   3  -2  -5    9.12    0.44
   3  -2  -5    8.92    0.51
  -3   2   5    9.41    0.47
  -3   2   5    8.85    0.54
  -3   2   5    9.34    0.56
   2  -2  -5   11.14    0.57
   2  -2  -5   12.07    0.58
   2  -2  -5   11.47    0.49
   2  -2  -5   12.29    0.52
   2  -2  -5   11.00    0.50
  -2   2   5   10.62    0.54
  -2   2   5   10.92    0.56
   1  -2  -5    4.04    0.31
   1  -2  -5    3.94    0.29
   1  -2  -5    4.12    0.32
  -1   2   5    4.62    0.27
  -1   2   5    4.52    0.32
  -1   2   5    4.30    0.29
  -1   2   5    4.19    0.25
   0  -2  -5  211.99    7.20
   0  -2  -5  207.09    6.65
   0  -2  -5  212.24    6.40
   0   2   5  206.54    6.63
   0   2   5  216.42    6.65
   0   2   5  212.92    7.18
  -1  -2  -5  182.32    5.64
  -1  -2  -5  184.91    6.36
   1   2   5  194.82    6.37
   1   2   5  183.15    6.35
   1   2   5  184.26    5.87
  -2  -2  -5   38.72    1.47
  -2  -2  -5   37.49    1.66
  -2  -2  -5   39.34    1.35
   2   2   5   38.78    1.35
   2   2   5   38.34    1.48
   2   2   5   41.14    1.51
  -3  -2  -5    5.42    0.36
  -3  -2  -5    4.67    0.51
  -3  -2  -5    5.01    0.40
   3   2   5    5.35    0.37
   3   2   5    5.32    0.39
   3   2   5    5.46    0.42
  -4  -2  -5    0.80    0.37
  -4  -2  -5    0.32    0.25
   4   2   5    0.65    0.23
   4   2   5    0.45    0.20
  -5  -2  -5    0.99    0.47
   5   2   5    1.55    0.29
  -5   3   5    1.10    0.41
   4  -3  -5    0.22    0.19
   4  -3  -5    0.29    0.19
  -4   3   5    0.03    0.28
  -4   3   5    0.68    0.32
   3  -3  -5    4.43    0.36
   3  -3  -5    4.90    0.38
   3  -3  -5    4.01    0.32
  -3   3   5    4.85    0.45
  -3   3   5    3.92    0.39
   2  -3  -5    3.51    0.28
   2  -3  -5    3.67    0.33
   2  -3  -5    3.62    0.39
   2  -3  -5    3.64    0.32
  -2   3   5    3.03    0.32
  -2   3   5    2.99    0.29
   1  -3  -5  183.03    5.72
   1  -3  -5  187.46    6.18
   1  -3  -5  173.32    6.18
  -1   3   5  185.58    5.71
  -1   3   5  181.61    5.98
  -1   3   5  170.75    6.05
  -1   3   5  179.75    6.17
   0  -3  -5  168.06    5.34
   0  -3  -5  167.14    5.80
   0   3   5  171.01    5.35
   0   3   5  166.76    5.78
  -1  -3  -5   37.71    1.48
  -1  -3  -5   39.61    1.33
  -1  -3  -5   39.43    1.55
   1   3   5   38.83    1.49
   1   3   5   37.53    1.34
  -2  -3  -5   42.64    1.69
  -2  -3  -5   44.75    1.86
  -2  -3  -5   45.23    1.52
   2   3   5   44.64    1.70
   2   3   5   47.03    1.73
   2   3   5   44.53    1.55
  -3  -3  -5    1.53    0.24
  -3  -3  -5    1.70    0.32
  -3  -3  -5    1.85    0.26
   3   3   5    0.99    0.25
   3   3   5    1.52    0.24
   3   3   5    1.64    0.29
  -4  -3  -5    3.15    0.35
  -4  -3  -5    3.44    0.50
   4   3   5    3.63    0.38
   4   3   5    3.43    0.35
   5   3   5    3.89    0.40
   5   3   5    3.88    0.41
  -5   4   5    0.20    0.36
   4  -4  -5    1.31    0.25
   4  -4  -5    1.21    0.25
  -4   4   5    1.70    0.36
  -4   4   5    1.17    0.39
   3  -4  -5    0.47    0.21
   3  -4  -5    0.32    0.20
  -3   4   5    0.42    0.23
  -3   4   5    0.72    0.28
   2  -4  -5    6.12    0.50
   2  -4  -5    6.25    0.46
   2  -4  -5    6.31    0.46
   2  -4  -5    6.01    0.39
  -2   4   5    5.99    0.41
  -2   4   5    6.35    0.46
  -2   4   5    5.83    0.42
   1  -4  -5    6.56    0.49
   1  -4  -5    7.79    0.42
  -1   4   5    6.78    0.44
  -1   4   5    8.68    0.44
  -1   4   5    7.61    0.47
   0  -4  -5   44.41    1.69
   0  -4  -5   43.03    1.51
   0   4   5   42.88    1.66
  -1  -4  -5   33.12    1.37
  -1  -4  -5   33.37    1.22
  -1  -4  -5   34.36    1.35
   1   4   5   33.12    1.36
   1   4   5   34.37    1.23
  -2  -4  -5   25.85    1.16
  -2  -4  -5   26.82    1.14
  -2  -4  -5   26.48    1.00
   2   4   5   25.29    1.12
   2   4   5   27.12    1.03
  -3  -4  -5    9.24    0.58
  -3  -4  -5    9.11    0.53
  -3  -4  -5    7.92    0.59
   3   4   5    9.38    0.59
   3   4   5    9.37    0.52
  -4  -4  -5    4.41    0.40
   4   4   5    3.73    0.42
   4   4   5    3.71    0.39
   5   4   5    1.64    0.36
   5   4   5    0.84    0.32
   5  -5  -5   -0.25    0.23
  -5   5   5    0.01    0.39
   4  -5  -5    0.25    0.24
   4  -5  -5    0.14    0.24
  -4   5   5    0.09    0.31
   3  -5  -5    4.15    0.42
   3  -5  -5    3.67    0.35
  -3   5   5    4.12    0.45
  -3   5   5    4.54    0.50
   2  -5  -5   18.82    0.96
   2  -5  -5   20.00    0.82
   2  -5  -5   18.03    0.90
  -2   5   5   18.13    0.90
  -2   5   5   20.03    0.89
   1  -5  -5    5.09    0.38
   1  -5  -5    5.97    0.37
   1  -5  -5    5.81    0.46
  -1   5   5    6.06    0.41
  -1   5   5    3.65    0.38
  -1   5   5    5.43    0.45
   0  -5  -5   14.40    0.74
   0  -5  -5   13.36    0.65
   0   5   5   13.35    0.72
  -1  -5  -5   12.31    0.72
  -1  -5  -5   13.37    0.55
   1   5   5   12.43    0.70
   1   5   5   13.74    0.64
  -2  -5  -5   34.91    1.40
  -2  -5  -5   33.43    1.22
  -2  -5  -5   31.61    1.39
   2   5   5   32.47    1.39
   2   5   5   33.66    1.27
  -3  -5  -5   22.93    1.06
  -3  -5  -5   22.11    0.92
   3   5   5   21.35    0.96
   3   5   5   22.94    1.07
   3   5   5   23.98    1.10
  -4  -5  -5   10.14    0.59
   4   5   5    8.54    0.64
   4   5   5    8.48    0.61
   5   5   5    0.70    0.34
   5   5   5    0.22    0.33
   5  -6  -5    0.26    0.29
  -5   6   5    0.43    0.45
   4  -6  -5    1.57    0.33
   4  -6  -5    1.29    0.30
  -4   6   5    1.29    0.44
   3  -6  -5    2.56    0.34
   3  -6  -5    2.18    0.37
  -3   6   5    2.79    0.44
  -3   6   5    2.43    0.38
   2  -6  -5   10.33    0.63
   2  -6  -5    9.68    0.57
   2  -6  -5    8.94    0.64
  -2   6   5    8.49    0.62
  -2   6   5    9.40    0.58
  -2   6   5   10.32    0.64
   1  -6  -5   38.28    1.40
   1  -6  -5   37.61    1.47
   1  -6  -5   33.49    1.51
  -1   6   5   39.75    1.38
  -1   6   5   38.04    1.54
  -1   6   5   32.40    1.44
   0  -6  -5    3.14    0.40
   0  -6  -5    4.32    0.38
   0   6   5    4.30    0.44
  -1  -6  -5   48.81    2.03
   1   6   5   53.11    1.87
   1   6   5   52.81    2.03
  -2  -6  -5   34.12    1.28
  -2  -6  -5   33.70    1.47
   2   6   5   36.60    1.35
   2   6   5   31.46    1.44
  -3  -6  -5    8.77    0.70
  -3  -6  -5   10.80    0.61
   3   6   5    9.69    0.69
   3   6   5   10.97    0.65
   3   6   5   10.41    0.63
   4   6   5    0.72    0.34
   4   6   5    0.83    0.33
   5   6   5    0.37    0.36
   5   6   5    0.85    0.36
   4  -7  -5    1.07    0.35
  -4   7   5    0.59    0.40
   3  -7  -5    1.31    0.35
  -3   7   5    1.21    0.36
  -3   7   5    1.53    0.42
   2  -7  -5    3.61    0.45
   2  -7  -5    5.64    0.47
  -2   7   5    4.40    0.45
  -2   7   5    4.91    0.55
  -2   7   5    5.81    0.54
   1  -7  -5    5.09    0.52
   1  -7  -5    7.17    0.52
  -1   7   5    5.36    0.49
  -1   7   5    5.04    0.51
   0  -7  -5   17.33    0.94
   0  -7  -5   18.42    0.85
   0   7   5   17.82    0.85
   0   7   5   17.42    0.93
  -1  -7  -5   38.48    1.68
   1   7   5   42.47    1.55
   1   7   5   37.30    1.65
  -2  -7  -5    5.17    0.47
  -2  -7  -5    4.61    0.53
   2   7   5    6.17    0.53
   2   7   5    5.00    0.53
  -3  -7  -5    0.39    0.35
  -3  -7  -5    0.17    0.24
   3   7   5    0.02    0.28
   3   7   5    0.06    0.30
   4   7   5    3.90    0.49
   4   7   5    3.59    0.51
   5   7   5    1.73    0.46
   5   7   5    1.80    0.48
   4  -8  -5    0.24    0.34
  -4   8   5    0.43    0.44
   3  -8  -5    1.60    0.40
  -3   8   5    0.86    0.41
   2  -8  -5    0.25    0.30
  -2   8   5    0.43    0.25
  -2   8   5   -0.27    0.27
   1  -8  -5    1.98    0.39
  -1   8   5    2.36    0.41
  -1   8   5    2.45    0.40
   0  -8  -5   12.97    0.85
   0   8   5   14.47    0.86
  -1  -8  -5    5.42    0.60
   1   8   5    6.17    0.60
   1   8   5    6.18    0.55
  -2  -8  -5    4.16    0.54
   2   8   5    4.20    0.49
   2   8   5    3.49    0.50
  -3  -8  -5    0.36    0.35
  -3  -8  -5    0.25    0.26
   3   8   5   -0.15    0.31
   3   8   5    0.63    0.36
   4   8   5    3.44    0.54
   4   8   5    4.08    0.54
   3  -9  -5    0.75    0.37
  -3   9   5    0.88    0.48
   2  -9  -5    1.07    0.36
  -2   9   5    0.54    0.40
   1  -9  -5    0.83    0.36
  -1   9   5    0.18    0.32
  -1   9   5    0.69    0.35
   0  -9  -5    5.76    0.63
   0   9   5    7.22    0.67
  -1  -9  -5    0.67    0.39
   1   9   5    2.19    0.45
  -2  -9  -5    0.34    0.38
   2   9   5    0.22    0.34
  -3  -9  -5    0.95    0.43
   3   9   5    0.22    0.36
   4   9   5    0.84    0.43
   3 -10  -5   -0.30    0.34
  -3  10   5    0.00    0.45
   2 -10  -5    0.50    0.37
  -2  10   5    1.17    0.44
   1 -10  -5    4.45    0.60
  -1  10   5    3.24    0.53
  -1  10   5    3.10    0.50
   0 -10  -5    1.72    0.47
   0  10   5    2.82    0.54
   0  10   5    2.85    0.44
  -1 -10  -5    3.54    0.59
   1  10   5    4.08    0.59
  -2 -10  -5    0.79    0.45
   2  10   5    1.07    0.43
   3  10   5    1.51    0.51
   2 -11  -5    0.20    0.40
  -2  11   5    0.08    0.46
   1 -11  -5    1.05    0.47
  -1  11   5    0.78    0.44
   0 -11  -5    0.41    0.41
   0  11   5    0.16    0.42
   0  11   5    0.66    0.34
  -1 -11  -5    1.06    0.48
   1  11   5    0.55    0.43
  -2 -11  -5    0.88    0.53
   2  11   5    0.13    0.45
   3  11   5    0.66    0.49
   1 -12  -5    0.48    0.47
  -1  12   5    0.40    0.45
   0 -12  -5   -0.75    0.44
   0  12   5   -0.06    0.38
   0  12   5    0.26    0.47
  -1 -12  -5    1.22    0.54
   1  12   5    0.81    0.40
   1  12   5    1.74    0.58
  -2 -12  -5    0.09    0.53
   2  12   5    0.00    0.48
   2   9  -6    0.71    0.50
  -2  -9   6    0.14    0.49
   1   9  -6    0.36    0.48
  -1  -9   6   -0.25    0.44
   0   9  -6    0.25    0.45
   0  -9   6    0.53    0.45
   1  -9   6    2.28    0.55
   3   8  -6    3.55    0.64
   2   8  -6    0.80    0.48
  -2  -8   6    0.36    0.46
   1   8  -6    1.69    0.51
  -1  -8   6    2.35    0.55
   0   8  -6    2.31    0.52
   0  -8   6    3.20    0.56
  -1   8  -6    2.37    0.50
  -1   8  -6    2.59    0.52
   1  -8   6    1.82    0.49
   2  -8   6    2.11    0.52
   3   7  -6    0.17    0.38
   2   7  -6    0.89    0.41
  -2  -7   6    1.37    0.44
   1   7  -6    0.36    0.36
  -1  -7   6    1.26    0.42
   0   7  -6   16.45    0.99
   0  -7   6   15.01    0.97
  -1   7  -6    5.56    0.64
   1  -7   6    3.43    0.52
  -2   7  -6   -0.16    0.38
   2  -7   6    0.36    0.34
   3  -7   6    0.48    0.40
   4   6  -6    0.36    0.41
   3   6  -6    1.17    0.44
  -3  -6   6    1.10    0.41
   2   6  -6    1.18    0.40
  -2  -6   6    2.51    0.48
   1   6  -6    7.11    0.67
   1   6  -6    7.34    0.49
  -1  -6   6    6.71    0.65
   0   6  -6   15.92    0.77
   0   6  -6   15.19    0.93
   0  -6   6   15.26    0.92
  -1   6  -6   12.15    0.83
  -1   6  -6   12.19    0.71
   1  -6   6   11.33    0.79
  -2   6  -6    0.81    0.37
  -2   6  -6    1.23    0.41
   2  -6   6    1.32    0.40
   3  -6   6    0.71    0.38
   4   5  -6   -0.29    0.34
   4   5  -6    0.00    0.29
   3   5  -6    0.25    0.34
   3   5  -6   -0.01    0.26
  -3  -5   6    0.15    0.33
   2   5  -6    1.33    0.37
   2   5  -6    1.98    0.36
  -2  -5   6    2.03    0.41
   1   5  -6    5.80    0.57
   1   5  -6    7.18    0.45
   1   5  -6    8.28    0.57
  -1  -5   6    7.49    0.64
   0   5  -6    6.76    0.33
   0   5  -6    7.27    0.50
   0   5  -6    6.23    0.58
   0  -5   6    6.35    0.58
  -1   5  -6    9.36    0.60
  -1   5  -6    9.50    0.71
  -1   5  -6    9.47    0.47
   1  -5   6    9.25    0.68
  -2   5  -6    4.14    0.36
  -2   5  -6    4.25    0.48
  -2   5  -6    4.44    0.57
  -2   5  -6    3.34    0.46
   2  -5   6    2.51    0.41
  -3   5  -6    1.13    0.46
  -3   5  -6    1.03    0.39
   3  -5   6    0.64    0.34
   4  -5   6    0.75    0.35
   5   4  -6   -0.36    0.32
   5   4  -6    0.40    0.33
   4   4  -6    1.61    0.35
   4   4  -6    0.67    0.36
   3   4  -6    4.78    0.53
   3   4  -6    3.86    0.41
  -3  -4   6    4.32    0.51
   2   4  -6   43.01    1.50
   2   4  -6   39.72    1.70
   2   4  -6   39.68    1.53
   2   4  -6   42.35    1.34
  -2  -4   6   38.46    1.69
   1   4  -6   22.33    0.96
   1   4  -6   23.18    0.86
   1   4  -6   22.04    1.07
  -1  -4   6   21.46    1.05
   0   4  -6   15.07    0.84
   0   4  -6   14.95    0.69
   0   4  -6   16.51    0.56
   0   4  -6   13.82    0.69
   0  -4   6   14.34    0.80
   0  -4   6   16.56    0.77
  -1   4  -6   36.83    1.51
  -1   4  -6   37.72    1.29
  -1   4  -6   34.65    1.33
   1  -4   6   34.37    1.50
   1  -4   6   36.28    1.37
  -2   4  -6    5.40    0.59
  -2   4  -6    5.55    0.50
  -2   4  -6    5.01    0.48
   2  -4   6    5.55    0.49
   2  -4   6    4.76    0.41
  -3   4  -6    2.40    0.52
  -3   4  -6    1.92    0.41
   3  -4   6    1.93    0.36
  -4   4  -6    1.99    0.45
   4  -4   6    2.47    0.40
   5   3  -6    0.74    0.34
   5   3  -6    0.58    0.37
   4   3  -6    1.90    0.39
   4   3  -6    2.55    0.35
   3   3  -6   11.87    0.63
   3   3  -6    9.34    0.65
   3   3  -6    9.55    0.58
  -3  -3   6   10.92    0.71
   2   3  -6    7.12    0.47
   2   3  -6    7.87    0.39
   2   3  -6    8.13    0.42
   2   3  -6    7.10    0.55
  -2  -3   6    6.57    0.54
   1   3  -6   11.03    0.52
   1   3  -6   11.61    0.61
   1   3  -6    9.91    0.64
   1   3  -6   11.63    0.44
  -1  -3   6   10.74    0.65
   0   3  -6    3.98    0.33
   0   3  -6    2.86    0.36
   0  -3   6    3.76    0.23
   0  -3   6    4.15    0.40
   0  -3   6    4.15    0.36
  -1   3  -6   18.81    0.92
  -1   3  -6   19.37    0.84
  -1   3  -6   21.63    0.82
   1  -3   6   18.71    0.91
   1  -3   6   20.19    0.84
  -2   3  -6   31.06    1.22
  -2   3  -6   32.07    1.30
  -2   3  -6   29.20    1.51
   2  -3   6   31.76    1.12
   2  -3   6   31.78    1.17
   2  -3   6   28.53    1.28
  -3   3  -6    6.78    0.75
  -3   3  -6    8.58    0.63
   3  -3   6    8.42    0.51
   3  -3   6    7.42    0.54
  -4   3  -6    1.98    0.58
  -4   3  -6    1.33    0.41
   4  -3   6    1.30    0.31
   4  -3   6    0.58    0.26
  -5   3  -6    0.09    0.40
   5   2  -6    0.98    0.31
   5   2  -6    0.90    0.35
   4   2  -6    4.22    0.46
   4   2  -6    3.55    0.38
   3   2  -6    1.85    0.33
   3   2  -6    2.02    0.28
   3   2  -6    2.52    0.30
  -3  -2   6    2.81    0.37
   2   2  -6    3.47    0.25
   2   2  -6    2.56    0.29
   2   2  -6    2.66    0.35
   2   2  -6    2.96    0.25
  -2  -2   6    3.14    0.35
   1   2  -6   66.75    2.21
   1   2  -6   67.22    2.25
   1   2  -6   64.72    2.11
   1   2  -6   65.76    2.47
  -1  -2   6   68.12    2.46
   0   2  -6    6.10    0.47
   0   2  -6    6.32    0.40
   0  -2   6    5.49    0.44
   0  -2   6    6.19    0.42
   0  -2   6    6.38    0.31
  -1   2  -6   70.72    2.60
  -1   2  -6   68.14    2.32
  -1   2  -6   74.43    2.37
   1  -2   6   71.87    2.38
   1  -2   6   73.69    2.49
   1  -2   6   67.67    2.58
  -2   2  -6   30.07    1.51
  -2   2  -6   32.36    1.22
  -2   2  -6   31.84    1.28
   2  -2   6   32.43    1.16
   2  -2   6   30.10    1.28
   2  -2   6   32.20    1.17
  -3   2  -6    7.03    0.76
  -3   2  -6    8.15    0.61
   3  -2   6    8.67    0.52
   3  -2   6    8.26    0.48
   3  -2   6    8.23    0.53
  -4   2  -6    0.87    0.35
  -4   2  -6    1.15    0.49
   4  -2   6    1.34    0.25
   4  -2   6    1.11    0.27
  -5   2  -6    0.28    0.40
   5  -2   6   -0.01    0.23
   5   1  -6    0.48    0.29
   5   1  -6    0.71    0.28
   4   1  -6    0.85    0.29
   4   1  -6    0.79    0.26
   3   1  -6   10.40    0.56
   3   1  -6    9.81    0.56
   3   1  -6    9.61    0.61
   3   1  -6    9.69    0.48
  -3  -1   6    9.77    0.59
  -3  -1   6   10.05    0.54
   2   1  -6   31.02    1.19
   2   1  -6   32.96    1.19
   2   1  -6   31.51    1.10
   2   1  -6   32.32    1.33
  -2  -1   6   33.38    1.31
  -2  -1   6   33.25    1.18
   1   1  -6   19.53    0.73
   1   1  -6   20.00    0.67
   1   1  -6   16.73    0.86
   1   1  -6   18.83    0.76
  -1  -1   6   19.63    0.86
  -1  -1   6   19.60    0.70
   0   1  -6  143.21    4.35
   0   1  -6  137.27    4.53
   0   1  -6  144.30    4.94
   0  -1   6  143.98    4.54
   0  -1   6  140.14    4.93
  -1   1  -6   39.51    1.38
  -1   1  -6   38.47    1.53
  -1   1  -6   40.63    1.38
   1  -1   6   40.40    1.39
   1  -1   6   39.41    1.35
  -2   1  -6   23.26    1.02
  -2   1  -6   21.91    1.21
  -2   1  -6   23.52    0.97
   2  -1   6   26.41    1.07
   2  -1   6   25.85    0.95
   2  -1   6   24.63    0.93
  -3   1  -6    1.11    0.37
  -3   1  -6    1.23    0.30
   3  -1   6    1.09    0.22
   3  -1   6    1.16    0.25
  -4   1  -6    1.25    0.47
  -4   1  -6    0.83    0.33
   4  -1   6    1.24    0.27
   4  -1   6    0.52    0.22
  -5   1  -6   -0.12    0.36
   5  -1   6    0.01    0.23
   5  -1   6    0.38    0.24
   5   0  -6   -0.04    0.23
   5   0  -6    0.18    0.26
   4   0  -6    0.83    0.24
   4   0  -6    0.77    0.27
  -4   0   6    0.73    0.28
   3   0  -6    5.66    0.47
   3   0  -6    4.88    0.37
   3   0  -6    5.31    0.41
  -3   0   6    5.81    0.45
  -3   0   6    5.86    0.43
   2   0  -6   12.59    0.57
   2   0  -6   12.70    0.66
   2   0  -6   13.51    0.56
   2   0  -6   12.09    0.57
  -2   0   6   13.41    0.65
  -2   0   6   12.00    0.57
  -2   0   6   12.91    0.59
   1   0  -6  101.35    3.25
   1   0  -6   99.47    3.12
   1   0  -6   98.22    3.55
  -1   0   6   99.28    3.34
  -1   0   6  103.30    3.38
   0   0  -6  190.42    5.82
   0   0  -6  189.65    6.06
   0   0  -6  197.28    6.59
   0   0   6  196.77    6.07
   0   0   6  185.35    6.26
  -1   0  -6    6.37    0.42
   1   0   6    6.62    0.37
   1   0   6    6.51    0.31
  -2   0  -6   37.86    1.38
  -2   0  -6   34.77    1.70
  -2   0  -6   37.43    1.47
   2   0   6   39.93    1.41
   2   0   6   38.87    1.35
   2   0   6   41.09    1.52
  -3   0  -6   43.61    1.61
  -3   0  -6   42.56    2.07
  -3   0  -6   47.14    1.68
   3   0   6   45.84    1.71
   3   0   6   44.91    1.55
  -4   0  -6    2.58    0.57
  -4   0  -6    3.22    0.42
   4   0   6    2.74    0.29
   4   0   6    2.58    0.31
  -5   0  -6    0.65    0.37
   5   0   6    0.39    0.22
   5   0   6    0.70    0.25
   5  -1  -6   -0.04    0.23
   5  -1  -6   -0.08    0.24
  -5   1   6    0.27    0.35
   4  -1  -6    1.11    0.27
   4  -1  -6    0.87    0.23
  -4   1   6    1.31    0.32
   3  -1  -6   15.87    0.69
   3  -1  -6   16.47    0.79
  -3   1   6   15.46    0.77
  -3   1   6   16.13    0.77
  -3   1   6   16.31    0.75
   2  -1  -6   76.37    2.86
   2  -1  -6   82.23    2.72
   2  -1  -6   84.16    2.88
   2  -1  -6   79.52    2.62
  -2   1   6   75.89    2.75
  -2   1   6   80.99    2.78
   1  -1  -6   68.69    2.55
   1  -1  -6   71.14    2.33
   1  -1  -6   71.43    2.27
  -1   1   6   69.99    2.39
  -1   1   6   71.96    2.33
   0  -1  -6   43.07    1.64
   0  -1  -6   44.43    1.47
   0   1   6   44.26    1.48
   0   1   6   42.18    1.49
  -1  -1  -6   28.04    1.12
  -1  -1  -6   25.67    1.00
   1   1   6   28.36    1.01
   1   1   6   27.64    1.11
   1   1   6   27.82    0.99
  -2  -1  -6   44.95    1.97
  -2  -1  -6   44.65    1.72
  -2  -1  -6   48.34    1.60
   2   1   6   48.16    1.76
   2   1   6   45.50    1.56
   2   1   6   45.98    1.58
   2   1   6   43.57    1.72
  -3  -1  -6   21.20    1.19
  -3  -1  -6   21.78    0.93
  -3  -1  -6   21.49    0.92
   3   1   6   22.85    0.99
   3   1   6   22.15    0.86
  -4  -1  -6    7.41    0.58
  -4  -1  -6    7.54    0.78
   4   1   6    7.40    0.43
   4   1   6    6.85    0.46
  -5  -1  -6    0.99    0.35
   5   1   6    0.71    0.24
   5   1   6    0.59    0.24
  -5   2   6   -0.05    0.33
   4  -2  -6    8.39    0.55
   4  -2  -6    9.04    0.50
  -4   2   6    9.12    0.64
  -4   2   6   10.02    0.65
   3  -2  -6    8.05    0.45
   3  -2  -6    8.02    0.50
  -3   2   6    8.49    0.48
  -3   2   6    7.15    0.53
  -3   2   6    8.69    0.54
   2  -2  -6   15.66    0.73
   2  -2  -6   15.34    0.62
   2  -2  -6   14.20    0.71
  -2   2   6   14.01    0.66
  -2   2   6   14.87    0.68
   1  -2  -6   38.52    1.48
  -1   2   6   38.29    1.35
  -1   2   6   37.38    1.32
   0  -2  -6   85.15    3.11
   0  -2  -6   89.21    2.78
   0   2   6   89.99    3.11
   0   2   6   86.75    2.85
   0   2   6   85.81    2.83
  -1  -2  -6   63.96    1.99
  -1  -2  -6   60.26    2.21
   1   2   6   60.15    2.02
   1   2   6   57.36    2.20
  -2  -2  -6   15.76    0.71
  -2  -2  -6   15.59    0.84
  -2  -2  -6   15.79    0.74
   2   2   6   15.71    0.75
   2   2   6   16.29    0.78
   2   2   6   16.27    0.68
  -3  -2  -6    9.78    0.71
  -3  -2  -6   10.32    0.59
  -3  -2  -6   10.49    0.56
   3   2   6    9.34    0.51
   3   2   6   10.29    0.58
  -4  -2  -6    4.86    0.63
  -4  -2  -6    3.67    0.42
   4   2   6    5.14    0.44
   4   2   6    4.28    0.36
  -5  -2  -6   -0.26    0.39
  -5  -2  -6   -0.10    0.30
   5   2   6    0.41    0.26
  -5   3   6    0.03    0.35
   4  -3  -6    4.16    0.39
  -4   3   6    3.18    0.45
  -4   3   6    3.62    0.47
   3  -3  -6    9.93    0.58
   3  -3  -6   11.73    0.56
  -3   3   6   10.22    0.65
  -3   3   6   10.48    0.61
   2  -3  -6    5.49    0.37
   2  -3  -6    4.65    0.39
   2  -3  -6    5.63    0.43
  -2   3   6    4.78    0.37
  -2   3   6    5.65    0.43
   1  -3  -6    0.31    0.15
   1  -3  -6    0.47    0.19
  -1   3   6    0.72    0.14
  -1   3   6    0.53    0.19
  -1   3   6    0.90    0.18
   0  -3  -6    1.90    0.27
   0  -3  -6    3.23    0.28
   0   3   6    2.79    0.30
   0   3   6    2.61    0.25
  -1  -3  -6  113.75    3.54
  -1  -3  -6  112.40    3.98
   1   3   6  113.53    3.65
   1   3   6  111.20    3.97
  -2  -3  -6   44.57    1.89
  -2  -3  -6   44.55    1.56
  -2  -3  -6   45.75    1.73
   2   3   6   43.95    1.72
   2   3   6   45.97    1.58
  -3  -3  -6    2.03    0.30
  -3  -3  -6    2.11    0.36
  -3  -3  -6    2.94    0.33
   3   3   6    2.46    0.28
   3   3   6    2.21    0.32
  -4  -3  -6    0.16    0.32
  -4  -3  -6    0.04    0.24
   4   3   6    0.03    0.23
   4   3   6   -0.21    0.21
  -5  -3  -6    0.14    0.30
  -5  -3  -6    0.54    0.44
   5   3   6    0.01    0.27
   5   3   6   -0.12    0.27
  -5   4   6   -0.10    0.35
   4  -4  -6    1.27    0.27
   4  -4  -6    0.92    0.26
  -4   4   6    1.14    0.38
  -4   4   6    0.80    0.33
   3  -4  -6    0.95    0.26
   3  -4  -6    1.17    0.24
  -3   4   6    0.98    0.31
  -3   4   6    1.23    0.28
   2  -4  -6    3.28    0.32
   2  -4  -6    3.44    0.37
   2  -4  -6    2.69    0.36
  -2   4   6    3.04    0.35
  -2   4   6    3.46    0.34
  -2   4   6    2.76    0.31
   1  -4  -6    3.59    0.37
   1  -4  -6    3.80    0.32
  -1   4   6    4.10    0.37
  -1   4   6    4.09    0.30
  -1   4   6    4.32    0.34
   0  -4  -6   56.38    2.14
   0  -4  -6   56.98    1.94
   0   4   6   56.40    1.94
   0   4   6   55.62    2.11
  -1  -4  -6   60.54    2.01
  -1  -4  -6   59.73    2.31
  -1  -4  -6   61.16    2.25
   1   4   6   55.60    2.03
   1   4   6   60.74    2.24
  -2  -4  -6    7.74    0.56
  -2  -4  -6    8.70    0.53
  -2  -4  -6    8.12    0.51
   2   4   6    7.17    0.51
   2   4   6    7.85    0.47
  -3  -4  -6    1.39    0.28
  -3  -4  -6    1.26    0.31
  -3  -4  -6    1.48    0.30
   3   4   6    1.20    0.26
   3   4   6    1.68    0.32
  -4  -4  -6    3.50    0.51
  -4  -4  -6    2.94    0.38
   4   4   6    3.20    0.41
   4   4   6    2.89    0.37
   5   4   6    2.19    0.38
   5   4   6    2.28    0.39
   5  -5  -6    0.56    0.27
  -5   5   6    0.80    0.45
   4  -5  -6    0.16    0.25
   4  -5  -6    0.32    0.26
  -4   5   6   -0.11    0.30
   3  -5  -6    0.31    0.24
   3  -5  -6    0.45    0.25
  -3   5   6    0.17    0.26
  -3   5   6    0.62    0.29
   2  -5  -6    0.10    0.20
   2  -5  -6    0.50    0.23
   2  -5  -6    0.58    0.26
  -2   5   6    1.05    0.27
  -2   5   6    0.42    0.24
  -2   5   6    0.42    0.20
   1  -5  -6   34.54    1.40
   1  -5  -6   32.39    1.40
   1  -5  -6   32.67    1.26
  -1   5   6   35.16    1.40
  -1   5   6   33.22    1.25
   0  -5  -6   88.29    2.96
   0  -5  -6   87.95    3.25
   0   5   6   89.37    3.23
  -1  -5  -6   28.93    1.28
  -1  -5  -6   30.64    1.19
   1   5   6   28.27    1.27
   1   5   6   29.84    1.17
  -2  -5  -6   17.47    0.79
  -2  -5  -6   18.73    0.91
  -2  -5  -6   17.02    0.84
   2   5   6   16.43    0.89
   2   5   6   18.61    0.81
  -3  -5  -6    3.30    0.37
  -3  -5  -6    2.64    0.38
  -3  -5  -6    3.18    0.40
   3   5   6    2.84    0.36
   3   5   6    2.93    0.42
  -4  -5  -6    2.46    0.37
   4   5   6    1.86    0.38
   4   5   6    2.25    0.38
   5   5   6    1.09    0.36
   5   5   6    0.79    0.36
   4  -6  -6    1.10    0.32
  -4   6   6    0.43    0.40
   3  -6  -6    1.51    0.32
   3  -6  -6    1.31    0.34
  -3   6   6    1.74    0.36
  -3   6   6    1.55    0.38
   2  -6  -6    8.87    0.59
   2  -6  -6    6.98    0.51
   2  -6  -6    7.89    0.61
  -2   6   6    6.44    0.51
  -2   6   6    8.71    0.61
  -2   6   6    7.23    0.57
   1  -6  -6   15.26    0.71
   1  -6  -6   15.72    0.75
   1  -6  -6   14.57    0.82
  -1   6   6   16.70    0.75
  -1   6   6   11.57    0.72
  -1   6   6   15.99    0.83
   0  -6  -6   13.92    0.81
   0  -6  -6   16.16    0.74
   0   6   6   12.89    0.79
  -1  -6  -6    2.11    0.37
   1   6   6    1.75    0.35
   1   6   6    2.79    0.34
  -2  -6  -6    0.68    0.26
  -2  -6  -6    0.63    0.30
   2   6   6    0.92    0.29
   2   6   6    0.78    0.31
  -3  -6  -6    0.10    0.30
  -3  -6  -6    0.34    0.25
   3   6   6    0.55    0.30
   3   6   6    0.34    0.29
  -4  -6  -6    3.11    0.38
   4   6   6    1.83    0.41
   4   6   6    2.66    0.42
   5   6   6    0.41    0.38
   5   6   6   -0.16    0.34
   4  -7  -6   -0.27    0.30
  -4   7   6    0.00    0.40
   3  -7  -6    0.76    0.34
  -3   7   6    0.69    0.36
   2  -7  -6    9.84    0.72
  -2   7   6    9.15    0.68
  -2   7   6   12.08    0.76
  -2   7   6    9.58    0.64
   1  -7  -6    1.37    0.35
   1  -7  -6    1.68    0.19
  -1   7   6    1.41    0.31
  -1   7   6    1.26    0.33
   0  -7  -6    8.78    0.65
   0   7   6    7.89    0.63
   0   7   6    6.76    0.52
  -1  -7  -6    0.46    0.31
   1   7   6    0.29    0.25
   1   7   6    0.71    0.30
  -2  -7  -6    9.21    0.71
  -2  -7  -6    9.97    0.67
   2   7   6   10.55    0.69
   2   7   6    8.14    0.66
  -3  -7  -6    7.46    0.55
  -3  -7  -6    7.31    0.68
   3   7   6    6.28    0.64
   3   7   6    7.53    0.62
   4   7   6    1.63    0.43
   4   7   6    1.63    0.45
   5   7   6    1.23    0.44
   5   7   6    0.66    0.42
   4  -8  -6   -0.15    0.34
  -4   8   6   -0.18    0.38
   3  -8  -6    2.30    0.46
  -3   8   6    2.35    0.49
   2  -8  -6    5.84    0.59
  -2   8   6    4.92    0.57
  -2   8   6    3.62    0.45
   1  -8  -6   17.35    0.97
  -1   8   6   16.78    0.90
  -1   8   6   16.88    0.97
   0  -8  -6    2.79    0.46
   0   8   6    2.05    0.40
  -1  -8  -6    6.22    0.65
   1   8   6    5.68    0.60
  -2  -8  -6    3.09    0.44
  -2  -8  -6    3.46    0.54
   2   8   6    2.57    0.45
   2   8   6    4.11    0.49
  -3  -8  -6    5.70    0.66
  -3  -8  -6    6.07    0.54
   3   8   6    4.49    0.57
   3   8   6    5.90    0.59
   4   8   6    2.35    0.48
   4   8   6    2.16    0.47
   3  -9  -6    1.31    0.42
  -3   9   6    1.79    0.49
   2  -9  -6    1.01    0.39
  -2   9   6    0.49    0.37
   1  -9  -6    0.87    0.39
  -1   9   6    0.57    0.33
  -1   9   6    0.31    0.34
   0  -9  -6    0.02    0.33
   0   9   6    0.89    0.37
  -1  -9  -6    9.24    0.81
   1   9   6    8.85    0.78
  -2  -9  -6    9.78    0.87
   2   9   6    9.34    0.82
  -3  -9  -6    0.97    0.44
   3   9   6   -0.20    0.33
   4   9   6    0.06    0.38
   3 -10  -6   -0.29    0.38
  -3  10   6    0.31    0.50
   2 -10  -6    0.75    0.39
  -2  10   6    0.80    0.45
   1 -10  -6    0.19    0.37
  -1  10   6    0.04    0.33
  -1  10   6    0.26    0.40
   0 -10  -6    6.52    0.72
   0  10   6    7.66    0.64
   0  10   6    7.12    0.73
  -1 -10  -6    5.82    0.70
   1  10   6    5.01    0.64
  -2 -10  -6    0.04    0.42
   2  10   6    0.28    0.40
   3  10   6    0.39    0.41
   2 -11  -6    0.00    0.38
  -2  11   6   -0.38    0.44
   1 -11  -6    0.73    0.43
  -1  11   6    0.30    0.38
   0 -11  -6    1.65    0.53
   0  11   6    1.39    0.50
   0  11   6    1.93    0.46
  -1 -11  -6   -0.28    0.40
   1  11   6    0.33    0.42
  -2 -11  -6    0.13    0.51
   2  11   6    0.40    0.45
   3  11   6    0.46    0.48
   1 -12  -6    1.71    0.52
  -1  12   6    3.45    0.62
   0 -12  -6    0.49    0.48
   0  12   6    0.36    0.40
   0  12   6    0.47    0.50
  -1 -12  -6    0.39    0.49
   1  12   6    0.62    0.51
   1   9  -7   -0.61    0.47
   0   9  -7    0.23    0.48
   0  -9   7    0.07    0.46
   2   8  -7    0.19    0.45
  -2  -8   7    0.37    0.52
   1   8  -7    4.69    0.68
  -1  -8   7    4.25    0.66
   0   8  -7    2.29    0.57
   0  -8   7    1.91    0.55
   1  -8   7    1.58    0.49
   2  -8   7    0.32    0.42
   3   7  -7    0.65    0.42
   2   7  -7    2.88    0.55
  -2  -7   7    2.98    0.58
   1   7  -7    1.66    0.47
  -1  -7   7    2.22    0.50
   0   7  -7    0.17    0.40
   0  -7   7   -0.02    0.36
  -1   7  -7    0.46    0.38
  -1   7  -7    0.40    0.35
   1  -7   7    0.41    0.39
   2  -7   7    2.14    0.51
   4   6  -7    0.56    0.44
   3   6  -7    3.47    0.56
   2   6  -7    1.23    0.42
  -2  -6   7    0.85    0.44
   1   6  -7    2.40    0.35
   1   6  -7    2.49    0.48
  -1  -6   7    2.37    0.48
   0   6  -7    4.65    0.60
   0   6  -7    5.38    0.49
   0  -6   7    3.56    0.53
  -1   6  -7    5.34    0.61
  -1   6  -7    5.54    0.54
   1  -6   7    5.64    0.62
  -2   6  -7    3.97    0.54
  -2   6  -7    4.55    0.64
   2  -6   7    4.20    0.55
  -3   6  -7    0.67    0.42
   3  -6   7    0.52    0.38
   4   5  -7    2.13    0.49
   4   5  -7    1.90    0.42
   3   5  -7    3.68    0.46
   3   5  -7    2.91    0.49
  -3  -5   7    3.71    0.54
   2   5  -7    3.47    0.49
  -2  -5   7    3.77    0.53
   1   5  -7   25.02    0.94
   1   5  -7   22.11    1.19
  -1  -5   7   22.87    1.18
   0   5  -7   17.46    1.00
   0   5  -7   17.90    0.82
   0  -5   7   17.48    0.97
  -1   5  -7    4.44    0.45
  -1   5  -7    5.11    0.55
   1  -5   7    4.17    0.49
  -2   5  -7    0.27    0.34
  -2   5  -7   -0.06    0.31
   2  -5   7   -0.05    0.30
  -3   5  -7    0.46    0.38
   3  -5   7    0.16    0.33
  -4   5  -7    0.01    0.42
   4  -5   7    0.36    0.36
   4   4  -7    2.78    0.43
   4   4  -7    2.04    0.46
   3   4  -7    1.92    0.37
   3   4  -7    2.43    0.45
  -3  -4   7    3.01    0.47
   2   4  -7    5.95    0.38
   2   4  -7    4.69    0.46
   2   4  -7    4.31    0.53
  -2  -4   7    5.49    0.55
   1   4  -7    2.79    0.31
   1   4  -7    2.64    0.34
   1   4  -7    3.36    0.44
  -1  -4   7    2.62    0.40
   0   4  -7   24.95    1.17
   0   4  -7   23.27    0.97
   0  -4   7   24.48    1.15
  -1   4  -7   29.33    1.29
  -1   4  -7   30.47    1.15
   1  -4   7   24.85    1.25
  -2   4  -7    0.69    0.35
  -2   4  -7    0.27    0.31
  -2   4  -7    0.73    0.32
   2  -4   7    1.01    0.32
  -3   4  -7    2.43    0.45
  -3   4  -7    2.81    0.57
   3  -4   7    2.75    0.42
  -4   4  -7    0.42    0.41
   4  -4   7    0.78    0.35
   5   3  -7    2.49    0.44
   5   3  -7    2.40    0.47
   4   3  -7    0.48    0.33
   4   3  -7    0.47    0.34
   3   3  -7    1.87    0.39
   3   3  -7    1.13    0.30
  -3  -3   7    1.53    0.38
   2   3  -7    2.42    0.25
   2   3  -7    2.08    0.32
   2   3  -7    1.66    0.35
   2   3  -7    1.68    0.21
  -2  -3   7    2.08    0.36
   1   3  -7   24.41    1.14
   1   3  -7   24.45    1.00
   1   3  -7   24.46    0.93
  -1  -3   7   23.68    1.12
   0   3  -7   38.10    1.59
   0   3  -7   37.67    1.36
   0  -3   7   39.35    1.33
   0  -3   7   36.45    1.57
   0  -3   7   39.45    1.45
  -1   3  -7    0.99    0.30
  -1   3  -7    1.80    0.31
   1  -3   7    0.94    0.28
   1  -3   7    1.19    0.26
  -2   3  -7    1.70    0.38
  -2   3  -7    2.49    0.37
  -2   3  -7    1.39    0.33
   2  -3   7    2.40    0.31
   2  -3   7    1.87    0.33
  -3   3  -7    0.80    0.40
  -3   3  -7    1.15    0.37
   3  -3   7    0.77    0.29
  -4   3  -7    1.68    0.44
   4  -3   7    1.90    0.36
   5   2  -7    1.35    0.39
   5   2  -7    0.86    0.35
   4   2  -7    0.64    0.30
   4   2  -7    0.49    0.32
   3   2  -7    1.00    0.28
   3   2  -7    0.98    0.30
   3   2  -7    0.81    0.24
  -3  -2   7    0.97    0.31
   2   2  -7   25.41    1.20
   2   2  -7   27.25    1.09
   2   2  -7   27.12    0.97
   2   2  -7   27.65    1.00
  -2  -2   7   26.74    1.19
   1   2  -7   11.65    0.68
   1   2  -7   11.42    0.58
   1   2  -7   11.37    0.54
  -1  -2   7   11.01    0.68
   0   2  -7    8.74    0.48
   0   2  -7    7.99    0.55
   0  -2   7    8.63    0.51
   0  -2   7    7.86    0.39
   0  -2   7    8.30    0.55
  -1   2  -7   69.12    2.21
  -1   2  -7   66.26    2.45
  -1   2  -7   64.24    2.17
   1  -2   7   66.01    2.22
   1  -2   7   59.62    2.41
  -2   2  -7    9.31    0.60
  -2   2  -7   10.94    0.63
  -2   2  -7    8.67    0.70
   2  -2   7    9.55    0.54
   2  -2   7    9.92    0.46
   2  -2   7    9.20    0.58
  -3   2  -7    0.28    0.32
  -3   2  -7    0.43    0.30
   3  -2   7    0.72    0.27
   3  -2   7    0.61    0.22
   3  -2   7    0.49    0.24
  -4   2  -7    1.75    0.42
  -4   2  -7    0.90    0.52
   4  -2   7    1.25    0.28
   4  -2   7    1.55    0.33
  -5   2  -7    0.17    0.41
   5   1  -7    0.82    0.31
   5   1  -7   -0.10    0.29
   4   1  -7    2.50    0.35
   4   1  -7    2.03    0.38
   3   1  -7    8.18    0.60
   3   1  -7    8.70    0.51
   3   1  -7    9.44    0.48
   3   1  -7    9.03    0.54
  -3  -1   7    8.18    0.49
  -3  -1   7    8.84    0.59
   2   1  -7   18.34    0.92
   2   1  -7   18.69    0.78
   2   1  -7   17.93    0.73
   2   1  -7   17.84    0.72
  -2  -1   7   19.19    0.73
  -2  -1   7   17.62    0.89
   1   1  -7    3.62    0.32
   1   1  -7    3.22    0.37
   1   1  -7    2.97    0.28
  -1  -1   7    3.39    0.23
  -1  -1   7    3.57    0.36
   0   1  -7   78.60    2.49
   0   1  -7   77.40    2.84
   0   1  -7   76.85    2.57
   0  -1   7   79.53    2.58
   0  -1   7   74.75    2.82
  -1   1  -7   35.36    1.25
  -1   1  -7   34.02    1.27
  -1   1  -7   34.19    1.41
   1  -1   7   34.54    1.26
   1  -1   7   35.23    1.18
  -2   1  -7    6.00    0.60
  -2   1  -7    7.24    0.51
  -2   1  -7    6.94    0.50
   2  -1   7    6.55    0.44
   2  -1   7    6.93    0.39
  -3   1  -7    2.50    0.40
  -3   1  -7    2.87    0.51
   3  -1   7    3.04    0.31
   3  -1   7    2.62    0.31
   3  -1   7    2.73    0.36
  -4   1  -7    0.27    0.43
  -4   1  -7    0.49    0.33
   4  -1   7    0.35    0.25
   4  -1   7    0.68    0.26
  -5   1  -7   -0.01    0.38
   5  -1   7    0.18    0.27
   5   0  -7   -0.15    0.28
   5   0  -7    0.10    0.28
   4   0  -7    1.19    0.31
   4   0  -7    1.02    0.28
  -4   0   7    1.40    0.32
   3   0  -7   16.24    0.72
   3   0  -7   14.33    0.69
   3   0  -7   13.84    0.78
   3   0  -7   16.02    0.71
  -3   0   7   14.81    0.73
  -3   0   7   16.25    0.80
   2   0  -7   29.16    1.10
   2   0  -7   29.15    1.06
   2   0  -7   27.09    1.22
   2   0  -7   28.97    1.06
  -2   0   7   31.30    1.23
  -2   0   7   28.27    1.10
  -2   0   7   28.50    1.10
   1   0  -7   56.14    2.16
   1   0  -7   59.09    1.95
   1   0  -7   55.62    1.87
  -1   0   7   55.51    1.94
  -1   0   7   59.45    1.98
  -1   0   7   56.26    1.94
   0   0  -7   13.75    0.61
   0   0  -7   14.01    0.62
   0   0  -7   12.60    0.69
   0   0   7   13.55    0.61
  -1   0  -7   46.04    1.63
  -1   0  -7   47.05    1.82
   1   0   7   48.29    1.63
   1   0   7   48.37    1.65
  -2   0  -7   13.16    0.70
  -2   0  -7   14.15    0.69
  -2   0  -7   12.15    0.82
   2   0   7   13.85    0.62
   2   0   7   13.91    0.62
  -3   0  -7    0.14    0.31
  -3   0  -7    0.51    0.28
   3   0   7    0.38    0.22
   3   0   7    0.31    0.20
  -4   0  -7    4.19    0.67
  -4   0  -7    3.57    0.46
   4   0   7    3.85    0.35
   4   0   7    2.98    0.35
  -5   0  -7    0.99    0.39
   5   0   7    0.76    0.27
   5   0   7    0.19    0.27
   5  -1  -7    0.26    0.27
   5  -1  -7    0.30    0.27
  -5   1   7    0.26    0.35
   4  -1  -7    0.67    0.28
   4  -1  -7    0.86    0.25
  -4   1   7    0.53    0.28
   3  -1  -7   35.05    1.25
   3  -1  -7   32.81    1.40
  -3   1   7   35.78    1.36
  -3   1   7   32.87    1.35
  -3   1   7   32.16    1.34
   2  -1  -7    1.70    0.24
   2  -1  -7    2.16    0.31
  -2   1   7    2.53    0.27
  -2   1   7    2.82    0.27
   1  -1  -7   28.17    1.04
   1  -1  -7   28.06    1.19
   1  -1  -7   28.12    1.04
  -1   1   7   27.82    1.04
  -1   1   7   27.82    1.01
   0  -1  -7   81.50    2.93
   0  -1  -7   80.91    2.60
   0   1   7   82.22    2.66
   0   1   7   79.16    2.67
  -1  -1  -7   23.08    0.92
  -1  -1  -7   23.66    1.01
   1   1   7   23.19    0.90
   1   1   7   22.59    0.89
  -2  -1  -7    2.34    0.31
  -2  -1  -7    2.23    0.35
  -2  -1  -7    1.78    0.30
   2   1   7    1.90    0.26
   2   1   7    1.82    0.23
  -3  -1  -7    8.76    0.72
  -3  -1  -7    8.63    0.54
  -3  -1  -7    8.39    0.59
   3   1   7    8.18    0.48
   3   1   7    8.23    0.51
  -4  -1  -7    1.05    0.34
  -4  -1  -7    0.21    0.37
   4   1   7    0.47    0.23
   4   1   7    1.15    0.27
  -5  -1  -7   -0.15    0.35
   5   1   7    0.33    0.25
   5   1   7    0.25    0.26
   5  -2  -7    0.34    0.28
  -5   2   7    0.56    0.39
   4  -2  -7    1.86    0.28
   4  -2  -7    1.97    0.33
  -4   2   7    1.51    0.35
  -4   2   7    2.10    0.38
   3  -2  -7    3.34    0.39
   3  -2  -7    3.00    0.32
  -3   2   7    3.36    0.39
  -3   2   7    3.54    0.37
  -3   2   7    3.81    0.36
   2  -2  -7    9.55    0.49
   2  -2  -7    8.79    0.57
  -2   2   7    9.32    0.50
  -2   2   7    9.22    0.53
   1  -2  -7   19.30    0.89
  -1   2   7   19.22    0.76
  -1   2   7   20.34    0.80
   0  -2  -7   53.43    1.82
   0  -2  -7   53.34    2.03
   0   2   7   54.03    2.02
   0   2   7   54.47    1.83
   0   2   7   54.30    1.85
  -1  -2  -7   24.08    0.95
  -1  -2  -7   23.16    1.03
   1   2   7   24.22    0.94
   1   2   7   24.36    0.93
   1   2   7   24.88    1.05
  -2  -2  -7    8.28    0.60
  -2  -2  -7    8.56    0.53
  -2  -2  -7    7.52    0.52
   2   2   7    7.19    0.50
   2   2   7    8.33    0.47
  -3  -2  -7   23.08    1.24
  -3  -2  -7   23.61    0.99
  -3  -2  -7   24.01    1.01
   3   2   7   21.49    1.02
   3   2   7   21.60    0.92
  -4  -2  -7    0.39    0.38
  -4  -2  -7   -0.02    0.26
   4   2   7    0.29    0.27
   4   2   7    0.26    0.24
  -5  -2  -7    0.27    0.35
   5   2   7    0.33    0.27
   5   2   7   -0.11    0.24
  -5   3   7   -0.21    0.36
   4  -3  -7    1.28    0.31
  -4   3   7    1.51    0.37
  -4   3   7    0.91    0.34
   3  -3  -7    0.23    0.23
  -3   3   7    0.24    0.25
  -3   3   7    0.63    0.26
   2  -3  -7   11.55    0.59
   2  -3  -7   12.04    0.65
  -2   3   7   11.05    0.63
  -2   3   7   11.93    0.59
   1  -3  -7   58.06    2.33
   1  -3  -7   67.13    2.16
  -1   3   7   63.27    2.19
  -1   3   7   62.81    2.33
  -1   3   7   63.42    2.13
   0  -3  -7   45.45    1.82
   0  -3  -7   44.58    1.64
   0  -3  -7   50.95    1.67
   0   3   7   48.59    1.64
   0   3   7   45.16    1.80
   0   3   7   48.49    1.66
  -1  -3  -7   15.67    0.72
  -1  -3  -7   14.67    0.76
   1   3   7   14.53    0.66
   1   3   7   15.32    0.75
  -2  -3  -7   27.45    1.18
  -2  -3  -7   28.20    1.28
  -2  -3  -7   27.39    1.07
   2   3   7   25.21    1.15
   2   3   7   27.77    1.06
  -3  -3  -7    1.75    0.37
  -3  -3  -7    1.51    0.30
  -3  -3  -7    2.25    0.32
   3   3   7    1.65    0.28
   3   3   7    1.84    0.31
  -4  -3  -7    0.30    0.34
  -4  -3  -7    0.15    0.28
   4   3   7    0.06    0.24
   4   3   7    0.24    0.26
  -5  -3  -7    0.53    0.36
  -5  -3  -7    0.45    0.42
   5   3   7    0.44    0.30
   5   3   7    0.70    0.33
  -5   4   7    0.54    0.41
   4  -4  -7    0.04    0.25
   4  -4  -7    0.07    0.25
  -4   4   7    0.03    0.32
   3  -4  -7    2.10    0.34
   3  -4  -7    2.09    0.31
  -3   4   7    1.71    0.35
  -3   4   7    2.15    0.33
   2  -4  -7   12.18    0.60
   2  -4  -7   10.56    0.64
  -2   4   7   10.37    0.58
  -2   4   7   10.95    0.65
  -2   4   7   11.22    0.64
   1  -4  -7   15.28    0.70
   1  -4  -7   15.31    0.80
  -1   4   7   15.37    0.80
  -1   4   7   16.67    0.69
  -1   4   7   15.51    0.71
   0  -4  -7   24.61    1.11
   0  -4  -7   24.34    0.98
   0   4   7   24.04    1.09
   0   4   7   26.05    0.99
  -1  -4  -7   33.03    1.33
  -1  -4  -7   31.99    1.36
  -1  -4  -7   31.43    1.22
   1   4   7   33.40    1.22
   1   4   7   29.64    1.33
  -2  -4  -7   20.99    0.97
  -2  -4  -7   20.48    0.89
  -2  -4  -7   20.76    0.99
   2   4   7   19.15    0.84
   2   4   7   18.18    0.94
  -3  -4  -7    3.01    0.42
  -3  -4  -7    3.21    0.38
   3   4   7    3.33    0.37
   3   4   7    3.32    0.41
  -4  -4  -7    1.17    0.33
  -4  -4  -7    0.68    0.36
   4   4   7    0.95    0.30
   4   4   7    1.45    0.35
  -5  -4  -7    0.49    0.45
   5   4   7    0.69    0.33
   5   4   7    1.24    0.38
  -5   5   7    0.09    0.43
   4  -5  -7    0.13    0.27
  -4   5   7    0.15    0.33
   3  -5  -7    3.48    0.38
   3  -5  -7    3.58    0.42
  -3   5   7    3.58    0.47
  -3   5   7    3.11    0.41
   2  -5  -7    8.46    0.54
   2  -5  -7    8.46    0.60
   2  -5  -7    6.75    0.54
  -2   5   7    8.12    0.59
  -2   5   7    6.92    0.49
  -2   5   7    6.90    0.54
   1  -5  -7    2.43    0.32
   1  -5  -7    2.37    0.36
  -1   5   7    2.59    0.31
  -1   5   7    2.65    0.35
   0  -5  -7   23.49    1.11
   0  -5  -7   25.74    1.00
   0   5   7   24.17    1.08
   0   5   7   20.84    0.94
  -1  -5  -7   36.07    1.41
  -1  -5  -7   34.93    1.55
  -1  -5  -7   39.13    1.49
   1   5   7   35.24    1.53
   1   5   7   37.99    1.40
  -2  -5  -7    5.74    0.44
  -2  -5  -7    5.15    0.50
  -2  -5  -7    5.20    0.45
   2   5   7    4.95    0.42
   2   5   7    4.66    0.48
  -3  -5  -7    4.15    0.47
  -3  -5  -7    4.06    0.43
  -3  -5  -7    3.29    0.42
   3   5   7    3.38    0.40
   3   5   7    2.90    0.42
  -4  -5  -7    0.91    0.37
  -4  -5  -7    0.79    0.31
   4   5   7    0.81    0.31
   4   5   7    0.61    0.31
   5   5   7    2.35    0.44
   5   5   7    2.03    0.42
   4  -6  -7    0.47    0.30
  -4   6   7    0.97    0.43
   3  -6  -7    2.45    0.42
  -3   6   7    2.75    0.47
  -3   6   7    2.64    0.42
   2  -6  -7    0.00    0.22
   2  -6  -7   -0.09    0.25
   2  -6  -7    0.13    0.24
  -2   6   7   -0.10    0.25
  -2   6   7    0.31    0.28
  -2   6   7    0.06    0.22
   1  -6  -7   23.13    1.13
   1  -6  -7   22.91    1.04
   1  -6  -7   23.95    1.01
  -1   6   7   25.92    1.16
  -1   6   7   23.02    1.06
   0  -6  -7    3.16    0.36
   0  -6  -7    2.98    0.42
   0   6   7    2.15    0.38
  -1  -6  -7   38.90    1.46
  -1  -6  -7   35.23    1.60
   1   6   7   36.52    1.59
   1   6   7   38.25    1.45
  -2  -6  -7   16.92    0.86
  -2  -6  -7   17.32    0.97
  -2  -6  -7   17.14    0.82
   2   6   7   16.69    0.93
   2   6   7   17.70    0.85
  -3  -6  -7    0.31    0.26
  -3  -6  -7    0.51    0.29
  -3  -6  -7    0.52    0.31
   3   6   7    0.08    0.28
   3   6   7   -0.03    0.27
  -4  -6  -7    1.15    0.34
   4   6   7    1.55    0.38
   4   6   7    0.96    0.36
   5   6   7    0.87    0.42
   5   6   7    0.80    0.40
   4  -7  -7    0.56    0.37
  -4   7   7   -0.28    0.37
   3  -7  -7    1.00    0.37
  -3   7   7    1.18    0.38
   2  -7  -7    2.41    0.44
  -2   7   7    1.81    0.36
  -2   7   7    3.97    0.50
  -2   7   7    2.24    0.41
   1  -7  -7   14.86    0.90
  -1   7   7   15.04    0.81
  -1   7   7   14.79    0.88
   0  -7  -7   61.90    2.46
   0   7   7   61.64    2.44
  -1  -7  -7   26.99    1.34
   1   7   7   30.15    1.24
   1   7   7   27.35    1.33
  -2  -7  -7    0.40    0.33
  -2  -7  -7    0.99    0.32
   2   7   7    1.41    0.38
   2   7   7    1.09    0.35
  -3  -7  -7    1.49    0.42
  -3  -7  -7    1.93    0.37
   3   7   7    1.71    0.39
   3   7   7    2.24    0.44
   4   7   7    2.79    0.49
   4   7   7    3.05    0.49
   4  -8  -7    0.78    0.40
  -4   8   7    1.10    0.48
   3  -8  -7    0.33    0.36
  -3   8   7    0.07    0.35
   2  -8  -7    5.51    0.60
  -2   8   7    5.18    0.59
   1  -8  -7   11.29    0.80
  -1   8   7   10.83    0.72
  -1   8   7   13.26    0.84
   0  -8  -7    6.47    0.65
   0   8   7    5.54    0.61
  -1  -8  -7    4.55    0.57
   1   8   7    3.75    0.52
  -2  -8  -7    3.93    0.57
  -2  -8  -7    5.00    0.54
   2   8   7    4.90    0.54
   2   8   7    4.98    0.58
  -3  -8  -7    3.36    0.46
  -3  -8  -7    2.68    0.51
   3   8   7    2.91    0.48
   3   8   7    2.09    0.46
   4   8   7    0.08    0.39
   4   8   7    0.36    0.39
   3  -9  -7    0.87    0.41
  -3   9   7    0.52    0.46
   2  -9  -7    0.24    0.37
  -2   9   7    0.12    0.35
   1  -9  -7    0.72    0.40
  -1   9   7    0.65    0.34
  -1   9   7    1.60    0.45
   0  -9  -7    0.74    0.39
   0   9   7    2.12    0.47
  -1  -9  -7    7.78    0.77
   1   9   7    7.22    0.72
  -2  -9  -7    4.34    0.63
  -2  -9  -7    4.60    0.57
   2   9   7    4.54    0.59
  -3  -9  -7    0.44    0.34
   3   9   7    0.11    0.39
   4   9   7    0.60    0.42
   3 -10  -7    0.46    0.42
   2 -10  -7   -0.51    0.33
  -2  10   7    0.17    0.42
   1 -10  -7    0.41    0.37
  -1  10   7    0.76    0.44
  -1  10   7    0.63    0.38
   0 -10  -7    0.30    0.38
   0  10   7    0.20    0.40
  -1 -10  -7    4.81    0.67
   1  10   7    5.34    0.66
  -2 -10  -7    2.31    0.58
  -2 -10  -7    3.17    0.55
   2  10   7    1.66    0.49
   3  10   7   -0.08    0.38
   2 -11  -7    1.14    0.49
  -2  11   7    1.54    0.55
   1 -11  -7    1.73    0.48
  -1  11   7    0.66    0.41
   0 -11  -7    1.90    0.53
   0  11   7    2.79    0.58
   0  11   7    3.38    0.52
  -1 -11  -7    0.47    0.48
   1  11   7    1.32    0.50
  -2 -11  -7    2.08    0.59
   2  11   7    1.72    0.53
   0 -12  -7    0.40    0.48
   0  12   7    0.37    0.53
   0  12   7    1.00    0.41
  -1 -12  -7    1.12    0.56
   1  12   7    1.47    0.56
   1   8  -8    2.19    0.59
  -1  -8   8    0.70    0.50
   0   8  -8    1.36    0.53
   0  -8   8   -0.18    0.42
   1  -8   8    0.39    0.43
   3   7  -8    2.09    0.57
   2   7  -8    4.04    0.64
  -2  -7   8    3.37    0.64
   1   7  -8    0.31    0.43
  -1  -7   8    0.44    0.48
   0   7  -8    1.40    0.52
   0   7  -8    2.19    0.42
   0  -7   8    1.30    0.48
  -1   7  -8    0.10    0.37
   1  -7   8    0.09    0.39
  -2   7  -8    0.21    0.42
   2  -7   8    0.06    0.42
   3   6  -8    2.40    0.54
   2   6  -8    1.72    0.49
  -2  -6   8    1.41    0.49
   1   6  -8    0.50    0.43
   1   6  -8    0.59    0.30
  -1  -6   8    1.68    0.47
   0   6  -8    1.80    0.46
   0   6  -8    1.65    0.37
   0  -6   8    0.63    0.41
  -1   6  -8    3.53    0.49
  -1   6  -8    4.32    0.59
   1  -6   8    3.78    0.55
  -2   6  -8    5.00    0.59
   2  -6   8    4.78    0.61
  -3   6  -8    0.16    0.43
   3  -6   8    0.00    0.38
   4   5  -8    1.45    0.49
   3   5  -8    0.51    0.38
   2   5  -8    0.19    0.35
  -2  -5   8    0.97    0.40
   1   5  -8    0.76    0.37
   1   5  -8    0.88    0.28
  -1  -5   8    0.80    0.38
   0   5  -8    1.07    0.38
   0   5  -8    1.87    0.35
   0  -5   8    1.05    0.39
  -1   5  -8    5.35    0.59
  -1   5  -8    4.93    0.52
   1  -5   8    5.68    0.58
  -2   5  -8    5.98    0.72
  -2   5  -8    4.14    0.53
   2  -5   8    4.41    0.53
  -3   5  -8   -0.12    0.39
   3  -5   8   -0.18    0.33
   4   4  -8    1.33    0.40
   4   4  -8    0.36    0.38
   3   4  -8    0.66    0.37
   3   4  -8    0.60    0.35
   2   4  -8    0.87    0.37
  -2  -4   8    0.92    0.38
   1   4  -8    1.79    0.30
   1   4  -8    1.96    0.41
  -1  -4   8    1.86    0.40
   0   4  -8   10.93    0.75
   0   4  -8   10.46    0.62
   0  -4   8    9.89    0.71
  -1   4  -8    5.39    0.50
  -1   4  -8    6.35    0.60
   1  -4   8    6.37    0.58
  -2   4  -8    0.59    0.35
  -2   4  -8    0.94    0.39
   2  -4   8    0.65    0.31
  -3   4  -8    0.16    0.36
   3  -4   8   -0.13    0.31
  -4   4  -8   -0.23    0.41
   4  -4   8    0.23    0.34
   4   3  -8    0.11    0.34
   4   3  -8    0.05    0.32
   3   3  -8    0.99    0.36
   3   3  -8    2.05    0.39
  -3  -3   8    2.40    0.43
   2   3  -8    0.40    0.20
   2   3  -8    0.32    0.27
   2   3  -8    0.63    0.32
  -2  -3   8    0.24    0.28
   1   3  -8   30.12    1.12
   1   3  -8   30.34    1.21
   1   3  -8   30.19    1.37
  -1  -3   8   29.80    1.36
   0   3  -8   13.45    0.79
   0   3  -8   13.45    0.66
   0  -3   8   11.52    0.76
  -1   3  -8    4.81    0.52
  -1   3  -8    4.21    0.43
   1  -3   8    4.97    0.49
  -2   3  -8    9.90    0.65
  -2   3  -8    7.59    0.76
  -2   3  -8    9.57    0.66
   2  -3   8    9.48    0.64
  -3   3  -8    0.42    0.35
  -3   3  -8   -0.19    0.37
   3  -3   8    0.43    0.30
  -4   3  -8    0.27    0.40
   4  -3   8    0.56    0.33
   5   2  -8    0.15    0.35
   4   2  -8    0.65    0.32
   4   2  -8    0.67    0.36
   3   2  -8    4.12    0.51
   3   2  -8    4.18    0.44
  -3  -2   8    4.82    0.52
   2   2  -8   17.58    0.71
   2   2  -8   15.07    0.90
   2   2  -8   15.21    0.79
  -2  -2   8   16.94    0.89
   1   2  -8   28.27    1.12
   1   2  -8   27.51    1.27
   1   2  -8   29.65    1.07
  -1  -2   8   27.43    1.26
   0   2  -8    2.30    0.36
   0   2  -8    2.31    0.31
   0   2  -8    1.48    0.24
   0  -2   8    2.62    0.36
   0  -2   8    2.56    0.22
  -1   2  -8    9.06    0.65
  -1   2  -8    8.42    0.56
   1  -2   8    9.77    0.61
  -2   2  -8    2.39    0.36
  -2   2  -8    2.53    0.38
  -2   2  -8    1.49    0.37
   2  -2   8    2.35    0.37
  -3   2  -8    2.93    0.56
  -3   2  -8    3.01    0.45
   3  -2   8    3.18    0.41
  -4   2  -8    1.77    0.45
   4  -2   8    2.03    0.39
   5   1  -8    0.82    0.36
   5   1  -8    0.42    0.35
   4   1  -8    1.46    0.33
   4   1  -8    0.66    0.33
   3   1  -8    1.24    0.30
   3   1  -8    0.99    0.32
   3   1  -8    1.09    0.23
  -3  -1   8    1.76    0.35
  -3  -1   8    1.06    0.24
   2   1  -8   34.54    1.30
   2   1  -8   30.95    1.43
   2   1  -8   34.05    1.19
   2   1  -8   32.79    1.19
  -2  -1   8   33.54    1.22
  -2  -1   8   33.10    1.41
   1   1  -8    1.16    0.24
   1   1  -8    1.07    0.30
   1   1  -8    1.05    0.23
  -1  -1   8    0.81    0.26
  -1  -1   8    1.19    0.15
   0   1  -8   17.84    0.91
   0   1  -8   18.44    0.80
   0   1  -8   18.27    0.79
   0  -1   8   18.21    0.89
   0  -1   8   18.72    0.79
  -1   1  -8    3.44    0.40
  -1   1  -8    3.32    0.37
   1  -1   8    3.23    0.16
   1  -1   8    3.21    0.33
  -2   1  -8   15.10    0.80
  -2   1  -8   15.65    0.79
   2  -1   8   16.42    0.67
   2  -1   8   16.12    0.75
  -3   1  -8    2.63    0.41
  -3   1  -8    2.26    0.48
   3  -1   8    3.15    0.35
   3  -1   8    2.63    0.38
  -4   1  -8    0.12    0.43
  -4   1  -8   -0.13    0.34
   4  -1   8    0.12    0.28
   5  -1   8    0.17    0.30
   5   0  -8    0.74    0.33
   5   0  -8    0.32    0.32
   4   0  -8    1.55    0.32
   4   0  -8    1.84    0.37
  -4   0   8    1.70    0.34
   3   0  -8    0.53    0.29
   3   0  -8    0.30    0.24
   3   0  -8    0.66    0.22
   3   0  -8    1.01    0.25
  -3   0   8    1.21    0.31
  -3   0   8    0.96    0.25
   2   0  -8   26.96    1.05
   2   0  -8   26.32    1.00
   2   0  -8   24.13    1.17
  -2   0   8   25.28    1.14
  -2   0   8   25.18    1.00
   1   0  -8   21.75    0.89
   1   0  -8   23.51    0.93
   1   0  -8   23.44    1.06
  -1   0   8   22.70    0.82
  -1   0   8   21.38    0.92
   0   0  -8    5.66    0.43
   0   0  -8    5.43    0.48
   0   0  -8    6.15    0.43
   0   0   8    5.59    0.39
  -1   0  -8   33.32    1.40
  -1   0  -8   33.32    1.26
   1   0   8   32.90    1.24
   1   0   8   34.68    1.18
  -2   0  -8   15.33    1.01
  -2   0  -8   19.15    0.88
  -2   0  -8   19.82    0.93
   2   0   8   19.24    0.79
   2   0   8   20.72    0.83
  -3   0  -8    0.89    0.33
  -3   0  -8    0.98    0.36
   3   0   8    1.09    0.25
   3   0   8    0.35    0.24
  -4   0  -8    0.77    0.37
  -4   0  -8    0.64    0.45
   4   0   8    1.21    0.30
  -5   0  -8    0.45    0.40
   5   0   8    0.36    0.30
   5  -1  -8    0.19    0.30
   5  -1  -8    0.55    0.31
   4  -1  -8    1.01    0.33
   4  -1  -8    0.43    0.27
  -4   1   8    1.12    0.34
   3  -1  -8    7.71    0.60
   3  -1  -8    9.03    0.54
  -3   1   8    8.68    0.56
  -3   1   8    8.84    0.61
  -3   1   8    8.51    0.57
   2  -1  -8   18.54    0.80
   2  -1  -8   16.55    0.75
   2  -1  -8   15.89    0.86
  -2   1   8   17.44    0.77
  -2   1   8   17.95    0.86
  -2   1   8   17.95    0.76
   1  -1  -8    1.65    0.30
   1  -1  -8    2.18    0.26
   1  -1  -8    1.63    0.26
  -1   1   8    1.53    0.18
  -1   1   8    2.02    0.25
   0  -1  -8    9.67    0.56
   0  -1  -8   10.14    0.62
   0   1   8   10.73    0.52
   0   1   8   10.19    0.54
  -1  -1  -8   81.17    2.62
  -1  -1  -8   77.44    2.93
   1   1   8   81.45    2.67
   1   1   8   80.01    2.68
  -2  -1  -8   19.64    0.88
  -2  -1  -8   18.27    1.04
  -2  -1  -8   21.11    0.95
   2   1   8   19.39    0.82
   2   1   8   18.61    0.82
  -3  -1  -8   -0.08    0.29
  -3  -1  -8    0.45    0.29
   3   1   8    0.26    0.21
   3   1   8    0.43    0.24
  -4  -1  -8    4.36    0.69
  -4  -1  -8    3.33    0.48
   4   1   8    3.80    0.40
  -5  -1  -8   -0.28    0.35
   5   1   8   -0.05    0.27
   5  -2  -8    0.67    0.32
  -5   2   8    1.04    0.42
   4  -2  -8    0.54    0.31
   4  -2  -8    0.71    0.27
  -4   2   8    0.80    0.31
  -4   2   8    1.12    0.33
   3  -2  -8   11.67    0.61
   3  -2  -8   12.42    0.72
  -3   2   8   11.36    0.67
  -3   2   8   11.51    0.67
   2  -2  -8    4.14    0.34
   2  -2  -8    3.65    0.42
  -2   2   8    3.61    0.33
  -2   2   8    4.08    0.38
   1  -2  -8   33.46    1.38
   1  -2  -8   33.04    1.25
  -1   2   8   34.24    1.23
  -1   2   8   32.13    1.20
   0  -2  -8   79.97    3.00
   0  -2  -8   82.37    2.67
   0   2   8   83.52    2.72
   0   2   8   81.69    2.74
  -1  -2  -8   40.87    1.65
   1   2   8   40.01    1.65
   1   2   8   42.60    1.48
   1   2   8   42.62    1.50
  -2  -2  -8    2.60    0.35
  -2  -2  -8    2.77    0.39
  -2  -2  -8    2.31    0.33
   2   2   8    2.23    0.29
   2   2   8    2.61    0.30
   2   2   8    2.10    0.32
  -3  -2  -8    6.58    0.67
  -3  -2  -8    5.07    0.49
   3   2   8    4.75    0.42
   3   2   8    5.38    0.49
   3   2   8    4.87    0.40
  -4  -2  -8    1.07    0.46
  -4  -2  -8    1.28    0.36
   4   2   8    1.25    0.32
  -5  -2  -8    0.07    0.37
   5   2   8    0.46    0.29
   5  -3  -8    0.24    0.31
  -5   3   8    0.34    0.35
   4  -3  -8    0.90    0.30
  -4   3   8    0.80    0.35
  -4   3   8    0.55    0.32
   3  -3  -8    0.21    0.26
  -3   3   8    0.26    0.25
  -3   3   8    0.55    0.28
   2  -3  -8    1.59    0.30
  -2   3   8    1.42    0.25
  -2   3   8    2.05    0.32
   1  -3  -8   23.98    1.13
  -1   3   8   26.72    1.01
  -1   3   8   25.02    0.98
   0  -3  -8  100.39    3.61
   0  -3  -8   98.21    3.21
   0   3   8  100.86    3.27
   0   3   8  102.64    3.29
   0   3   8   94.90    3.57
  -1  -3  -8   34.45    1.26
  -1  -3  -8   32.87    1.38
   1   3   8   33.33    1.22
   1   3   8   30.09    1.34
   1   3   8   32.32    1.23
  -2  -3  -8    8.29    0.63
  -2  -3  -8    9.87    0.63
  -2  -3  -8    8.70    0.59
   2   3   8    9.56    0.58
   2   3   8    9.38    0.62
  -3  -3  -8    6.86    0.56
  -3  -3  -8    6.69    0.54
  -3  -3  -8    6.32    0.63
   3   3   8    6.00    0.54
   3   3   8    5.86    0.47
  -4  -3  -8    1.59    0.39
  -4  -3  -8    1.85    0.46
   4   3   8    1.86    0.32
   4   3   8    2.43    0.40
  -5  -3  -8    0.54    0.38
   5   3   8    0.89    0.35
  -5   4   8    0.24    0.41
   4  -4  -8    0.14    0.28
  -4   4   8   -0.11    0.31
   3  -4  -8    2.68    0.36
   3  -4  -8    1.76    0.35
  -3   4   8    2.49    0.40
  -3   4   8    2.29    0.37
   2  -4  -8   12.60    0.74
   2  -4  -8   15.28    0.72
  -2   4   8   12.19    0.71
  -2   4   8   13.25    0.68
   1  -4  -8   21.82    0.93
   1  -4  -8   19.64    1.02
  -1   4   8   22.99    1.02
  -1   4   8   20.35    0.87
  -1   4   8   21.75    0.91
   0  -4  -8   12.26    0.64
   0  -4  -8   11.58    0.72
   0  -4  -8   11.30    0.70
   0   4   8   10.43    0.68
   0   4   8   11.95    0.62
  -1  -4  -8   21.16    0.95
  -1  -4  -8   20.76    1.03
   1   4   8   21.08    1.02
   1   4   8   23.50    0.94
  -2  -4  -8    6.68    0.54
  -2  -4  -8    6.32    0.51
  -2  -4  -8    7.46    0.55
   2   4   8    5.37    0.51
   2   4   8    7.04    0.50
  -3  -4  -8    6.90    0.56
  -3  -4  -8    7.07    0.59
  -3  -4  -8    7.70    0.63
   3   4   8    7.10    0.58
   3   4   8    7.06    0.53
  -4  -4  -8    1.60    0.38
  -4  -4  -8    1.32    0.42
   4   4   8    0.94    0.35
   4   4   8    1.42    0.34
  -5  -4  -8    0.18    0.36
   5   4   8    0.27    0.34
   5   4   8    0.31    0.35
   4  -5  -8    1.28    0.36
  -4   5   8    1.49    0.44
   3  -5  -8    2.96    0.42
  -3   5   8    3.53    0.45
  -3   5   8    3.02    0.45
   2  -5  -8   16.05    0.79
   2  -5  -8   14.46    0.84
  -2   5   8   15.45    0.78
  -2   5   8   13.42    0.80
  -2   5   8   17.82    0.86
   1  -5  -8   18.39    0.81
   1  -5  -8   17.03    0.92
  -1   5   8   15.82    0.75
  -1   5   8   16.55    0.89
   0  -5  -8    4.68    0.52
   0  -5  -8    6.34    0.47
   0   5   8    6.21    0.45
   0   5   8    4.99    0.50
  -1  -5  -8    1.83    0.24
  -1  -5  -8    1.77    0.32
  -1  -5  -8    2.08    0.38
   1   5   8    2.07    0.31
   1   5   8    2.47    0.38
  -2  -5  -8   29.62    1.23
  -2  -5  -8   29.09    1.35
  -2  -5  -8   30.10    1.36
   2   5   8   29.53    1.35
   2   5   8   32.55    1.24
  -3  -5  -8   15.47    0.83
  -3  -5  -8   15.59    0.90
  -3  -5  -8   14.83    0.88
   3   5   8   14.79    0.80
   3   5   8   14.04    0.86
  -4  -5  -8    0.54    0.32
  -4  -5  -8    0.76    0.37
   4   5   8    0.56    0.33
   4   5   8    0.53    0.33
   5   5   8    0.15    0.36
   5   5   8   -0.05    0.36
   4  -6  -8    0.93    0.38
  -4   6   8    1.90    0.50
   3  -6  -8    1.78    0.39
  -3   6   8    1.84    0.39
  -3   6   8    2.08    0.44
   2  -6  -8    6.44    0.60
  -2   6   8    7.05    0.55
  -2   6   8    8.37    0.67
  -2   6   8    6.08    0.60
   1  -6  -8    7.08    0.50
   1  -6  -8    6.63    0.61
  -1   6   8    6.52    0.59
   0  -6  -8   14.57    0.89
   0   6   8   15.68    0.88
  -1  -6  -8   45.78    1.76
  -1  -6  -8   43.28    1.87
  -1  -6  -8   44.91    1.70
   1   6   8   42.73    1.68
   1   6   8   45.30    1.86
  -2  -6  -8   31.26    1.27
  -2  -6  -8   30.31    1.29
  -2  -6  -8   27.76    1.38
   2   6   8   25.45    1.32
   2   6   8   31.87    1.28
  -3  -6  -8    1.52    0.34
  -3  -6  -8    1.31    0.35
  -3  -6  -8    1.27    0.40
   3   6   8    1.60    0.35
   3   6   8    1.20    0.37
  -4  -6  -8    0.07    0.32
   4   6   8   -0.02    0.33
   4  -7  -8    0.29    0.36
  -4   7   8    0.72    0.47
   3  -7  -8    1.01    0.38
  -3   7   8    1.13    0.39
   2  -7  -8    1.18    0.37
  -2   7   8    1.08    0.35
  -2   7   8    1.14    0.31
  -2   7   8    2.03    0.42
   1  -7  -8    3.99    0.52
  -1   7   8    3.97    0.45
  -1   7   8    4.42    0.53
   0  -7  -8    9.00    0.72
   0   7   8    8.54    0.72
  -1  -7  -8   14.90    0.94
   1   7   8   12.37    0.83
   1   7   8   13.77    0.81
  -2  -7  -8   19.22    0.95
  -2  -7  -8   16.74    1.04
   2   7   8   17.12    0.92
   2   7   8   15.09    0.94
  -3  -7  -8    0.35    0.32
  -3  -7  -8    0.17    0.35
   3   7   8    0.07    0.31
   3   7   8    0.48    0.35
  -4  -7  -8    0.69    0.37
   4   7   8    0.49    0.37
   4   7   8    0.36    0.37
   3  -8  -8   -0.28    0.33
  -3   8   8    0.16    0.36
   2  -8  -8    0.93    0.40
  -2   8   8    0.85    0.37
   1  -8  -8    7.33    0.73
  -1   8   8    9.38    0.67
  -1   8   8    7.87    0.71
   0  -8  -8    1.56    0.43
   0   8   8    1.00    0.38
  -1  -8  -8    7.13    0.71
   1   8   8    7.68    0.72
  -2  -8  -8    0.68    0.40
  -2  -8  -8    0.45    0.35
   2   8   8    0.28    0.37
  -3  -8  -8    0.46    0.37
   3   8   8    0.82    0.40
   3   8   8    0.21    0.39
   4   8   8    0.26    0.38
   4   8   8    0.29    0.42
   3  -9  -8    0.65    0.43
  -3   9   8    0.59    0.46
   2  -9  -8    2.46    0.49
  -2   9   8    2.21    0.49
   1  -9  -8    2.42    0.48
  -1   9   8    2.40    0.44
  -1   9   8    3.20    0.55
   0  -9  -8    4.69    0.62
   0   9   8    3.96    0.58
  -1  -9  -8    1.75    0.49
   1   9   8    2.29    0.51
  -2  -9  -8    1.74    0.45
  -2  -9  -8    1.56    0.49
   2   9   8    0.93    0.44
  -3  -9  -8    1.66    0.44
   3   9   8    1.45    0.47
   4   9   8    0.41    0.42
   2 -10  -8    1.26    0.45
  -2  10   8    1.22    0.48
   1 -10  -8    2.27    0.51
  -1  10   8    2.12    0.52
  -1  10   8    2.75    0.49
   0 -10  -8    2.92    0.57
   0  10   8    3.96    0.60
  -1 -10  -8    0.09    0.41
   1  10   8    0.00    0.41
  -2 -10  -8    0.58    0.48
  -2 -10  -8    0.90    0.43
   2  10   8    0.35    0.41
   3  10   8    2.18    0.53
   2 -11  -8    1.23    0.49
   1 -11  -8    0.36    0.48
  -1  11   8    1.86    0.52
   0 -11  -8    0.65    0.48
   0  11   8    0.80    0.39
   0  11   8   -0.29    0.41
  -1 -11  -8    0.34    0.47
   1  11   8    0.46    0.47
  -2 -11  -8    1.07    0.55
  -2 -11  -8    1.25    0.51
   2  11   8    1.65    0.54
   0 -12  -8    0.34    0.48
   0  12   8    0.18    0.47
   0  12   8    0.21    0.40
  -1 -12  -8    0.24    0.56
   1  12   8    0.74    0.53
   2   7  -9    0.28    0.47
  -2  -7   9    0.16    0.48
   1   7  -9    0.39    0.46
  -1  -7   9    0.01    0.48
   0   7  -9    2.23    0.59
   0   7  -9    1.55    0.43
   0  -7   9    1.32    0.52
  -1   7  -9    1.36    0.45
   1  -7   9    0.39    0.45
   3   6  -9    0.31    0.44
   2   6  -9   -0.09    0.42
  -2  -6   9    0.27    0.45
   1   6  -9    2.76    0.55
  -1  -6   9    2.98    0.57
   0   6  -9    1.64    0.49
   0   6  -9    0.84    0.36
   0  -6   9    0.49    0.42
  -1   6  -9    0.15    0.40
  -1   6  -9    0.52    0.38
   1  -6   9    0.49    0.40
  -2   6  -9    0.12    0.41
   2  -6   9    0.20    0.42
   3   5  -9    0.84    0.44
   2   5  -9    3.34    0.59
  -2  -5   9    3.60    0.62
   1   5  -9    5.08    0.47
   1   5  -9    4.18    0.60
  -1  -5   9    4.18    0.59
   0   5  -9    0.33    0.36
   0   5  -9    0.20    0.30
   0  -5   9   -0.19    0.34
  -1   5  -9    1.41    0.45
  -1   5  -9    1.83    0.42
   1  -5   9    1.98    0.47
  -2   5  -9    1.18    0.41
   2  -5   9    1.32    0.42
  -3   5  -9    0.88    0.47
   3  -5   9    0.63    0.42
   4   4  -9    0.74    0.45
   3   4  -9    3.32    0.55
   2   4  -9    5.99    0.66
  -2  -4   9    6.76    0.68
   1   4  -9    3.57    0.54
   1   4  -9    2.90    0.38
  -1  -4   9    5.31    0.58
   0   4  -9    6.90    0.55
   0   4  -9    6.74    0.66
   0  -4   9    7.15    0.67
  -1   4  -9    7.63    0.60
  -1   4  -9    6.53    0.64
   1  -4   9    5.32    0.60
  -2   4  -9    4.43    0.63
  -2   4  -9    5.27    0.57
   2  -4   9    3.69    0.51
  -3   4  -9    1.41    0.43
   3  -4   9    0.38    0.33
   4   3  -9    2.69    0.51
   4   3  -9    3.02    0.48
   3   3  -9    5.12    0.60
   3   3  -9    4.44    0.51
   2   3  -9    1.33    0.40
   2   3  -9    1.91    0.30
  -2  -3   9    1.19    0.39
   1   3  -9    2.16    0.32
   1   3  -9    2.21    0.44
  -1  -3   9    2.02    0.42
   0   3  -9   13.15    0.83
   0   3  -9   13.52    0.71
   0  -3   9   12.67    0.82
  -1   3  -9    4.28    0.52
  -1   3  -9    3.92    0.45
   1  -3   9    3.91    0.49
  -2   3  -9    6.63    0.59
  -2   3  -9    6.07    0.68
   2  -3   9    5.35    0.56
  -3   3  -9    0.24    0.37
   3  -3   9    0.47    0.34
  -4   3  -9    0.69    0.46
   4  -3   9    0.92    0.38
   4   2  -9    3.48    0.53
   4   2  -9    2.61    0.45
   3   2  -9    1.63    0.41
   3   2  -9    1.65    0.37
   2   2  -9    4.39    0.54
   2   2  -9    4.00    0.38
   2   2  -9    3.96    0.42
  -2  -2   9    3.89    0.50
   1   2  -9    8.31    0.53
   1   2  -9    8.82    0.61
   1   2  -9    7.04    0.64
  -1  -2   9    7.90    0.64
   0   2  -9   22.97    1.11
   0   2  -9   21.80    0.94
   0  -2   9   20.94    1.07
  -1   2  -9   16.54    0.92
  -1   2  -9   16.13    0.79
   1  -2   9   14.25    0.85
  -2   2  -9    1.97    0.43
  -2   2  -9    3.04    0.43
  -2   2  -9    2.80    0.42
   2  -2   9    1.88    0.38
  -3   2  -9    0.53    0.39
  -3   2  -9    0.16    0.34
   3  -2   9    1.48    0.37
  -4   2  -9   -0.04    0.40
   4  -2   9    0.27    0.33
   4   1  -9    0.55    0.34
   4   1  -9    0.48    0.35
   3   1  -9    2.95    0.39
   3   1  -9    3.16    0.48
   2   1  -9    4.37    0.39
   2   1  -9    4.45    0.41
   2   1  -9    3.61    0.47
  -2  -1   9    3.98    0.49
  -2  -1   9    4.48    0.32
   1   1  -9   17.04    0.80
   1   1  -9   15.27    0.88
   1   1  -9   15.47    0.74
  -1  -1   9   15.93    0.64
  -1  -1   9   15.99    0.87
   0   1  -9   46.55    1.61
   0   1  -9   44.62    1.63
   0   1  -9   45.15    1.85
   0  -1   9   43.51    1.81
  -1   1  -9   20.92    1.04
  -1   1  -9   20.81    0.91
   1  -1   9   18.22    0.97
  -2   1  -9    2.12    0.43
  -2   1  -9    2.96    0.42
  -2   1  -9    4.16    0.46
   2  -1   9    3.25    0.43
  -3   1  -9    5.64    0.56
  -3   1  -9    4.66    0.68
   3  -1   9    5.07    0.50
  -4   1  -9    0.10    0.38
   4  -1   9    0.21    0.31
   4   0  -9    0.41    0.33
   4   0  -9    0.02    0.29
   3   0  -9    0.12    0.30
   3   0  -9    0.33    0.27
   3   0  -9    0.39    0.25
  -3   0   9    0.20    0.23
   2   0  -9   16.46    0.91
   2   0  -9   17.91    0.82
   2   0  -9   15.46    0.75
  -2   0   9   17.04    0.88
  -2   0   9   16.63    0.73
   1   0  -9   69.48    2.30
   1   0  -9   70.15    2.38
   1   0  -9   69.37    2.65
  -1   0   9   67.85    2.61
   0   0  -9   22.46    1.09
   0   0  -9   22.78    0.96
   0   0  -9   22.73    0.95
  -1   0  -9   15.80    0.85
  -1   0  -9   15.78    0.77
   1   0   9   15.40    0.59
  -2   0  -9    9.25    0.76
  -2   0  -9   12.83    0.73
  -2   0  -9   13.16    0.74
   2   0   9   12.57    0.58
  -3   0  -9    5.63    0.71
  -3   0  -9    7.12    0.60
  -4   0  -9    1.82    0.44
   4   0   9    0.96    0.34
   5  -1  -9    0.25    0.34
   4  -1  -9   -0.25    0.29
   4  -1  -9    0.12    0.29
  -4   1   9   -0.12    0.28
   3  -1  -9    1.75    0.34
   3  -1  -9    1.69    0.33
   3  -1  -9    2.07    0.40
  -3   1   9    2.04    0.33
  -3   1   9    2.14    0.33
   2  -1  -9   60.48    2.43
   2  -1  -9   68.87    2.22
   2  -1  -9   62.46    2.14
  -2   1   9   61.39    2.23
  -2   1   9   64.37    2.27
  -2   1   9   61.04    2.40
   1  -1  -9   32.33    1.19
   1  -1  -9   28.97    1.33
   1  -1  -9   29.70    1.17
  -1   1   9   31.40    1.20
  -1   1   9   30.02    1.11
   0  -1  -9   12.40    0.66
   0  -1  -9   13.22    0.75
   0   1   9   13.84    0.68
   0   1   9   12.92    0.66
   0   1   9   12.77    0.49
  -1  -1  -9   13.44    0.79
  -1  -1  -9   13.33    0.71
   1   1   9   14.10    0.69
   1   1   9   14.01    0.69
  -2  -1  -9   13.96    0.80
  -2  -1  -9   13.75    0.75
  -2  -1  -9   13.04    0.86
   2   1   9   14.71    0.66
   2   1   9   12.86    0.69
  -3  -1  -9    6.58    0.59
  -3  -1  -9    7.89    0.78
   3   1   9    7.54    0.55
  -4  -1  -9    1.88    0.43
  -4  -1  -9    1.71    0.53
   4   1   9    1.61    0.36
   5  -2  -9    0.16    0.33
   4  -2  -9    0.20    0.31
  -4   2   9    0.83    0.35
  -4   2   9    0.57    0.32
   3  -2  -9    2.50    0.40
   3  -2  -9    2.48    0.34
  -3   2   9    2.61    0.37
  -3   2   9    2.66    0.36
   2  -2  -9    3.29    0.43
   2  -2  -9    5.24    0.48
  -2   2   9    4.80    0.42
  -2   2   9    4.43    0.37
   1  -2  -9   14.50    0.73
   1  -2  -9   14.73    0.80
  -1   2   9   13.96    0.60
  -1   2   9   13.63    0.67
   0  -2  -9   11.37    0.71
   0  -2  -9   12.38    0.66
   0   2   9   12.99    0.63
   0   2   9   12.06    0.61
  -1  -2  -9   43.75    1.78
  -1  -2  -9   43.82    1.61
   1   2   9   45.01    1.61
   1   2   9   44.45    1.61
  -2  -2  -9   31.23    1.35
  -2  -2  -9   31.76    1.50
  -2  -2  -9   29.20    1.23
   2   2   9   30.42    1.22
  -3  -2  -9    4.66    0.60
  -3  -2  -9    4.15    0.48
   3   2   9    4.13    0.43
  -4  -2  -9    1.75    0.56
  -4  -2  -9    2.32    0.45
   4   2   9    2.81    0.41
  -5  -2  -9   -0.17    0.39
   5   2   9   -0.06    0.33
   4  -3  -9    2.53    0.44
  -4   3   9    3.11    0.47
  -4   3   9    3.09    0.47
   3  -3  -9    1.07    0.31
  -3   3   9    0.71    0.26
  -3   3   9    0.88    0.31
   2  -3  -9    3.37    0.45
  -2   3   9    3.54    0.35
  -2   3   9    3.56    0.40
   1  -3  -9   21.21    0.96
   1  -3  -9   20.44    1.02
  -1   3   9   21.01    0.85
   0  -3  -9    5.05    0.45
   0  -3  -9    4.68    0.48
   0   3   9    5.54    0.43
   0   3   9    5.41    0.50
  -1  -3  -9   13.57    0.78
  -1  -3  -9   13.58    0.74
   1   3   9   14.01    0.70
   1   3   9   13.98    0.71
   1   3   9   12.76    0.76
  -2  -3  -9   26.03    1.09
  -2  -3  -9   23.86    1.14
  -2  -3  -9   25.56    1.24
   2   3   9   23.47    1.13
   2   3   9   23.74    1.03
  -3  -3  -9    1.29    0.35
  -3  -3  -9    1.91    0.44
   3   3   9    2.10    0.40
   3   3   9    1.47    0.33
  -4  -3  -9    1.12    0.38
  -4  -3  -9    1.49    0.48
   4   3   9    1.27    0.37
   4   3   9    0.75    0.34
  -5  -3  -9    0.08    0.41
   5   3   9    0.37    0.34
   4  -4  -9    1.07    0.35
  -4   4   9    0.95    0.37
   3  -4  -9    3.53    0.47
  -3   4   9    2.85    0.39
  -3   4   9    3.40    0.46
   2  -4  -9    1.50    0.35
  -2   4   9    1.47    0.28
  -2   4   9    1.53    0.31
   1  -4  -9   15.01    0.88
  -1   4   9   16.61    0.74
  -1   4   9   17.77    0.90
   0  -4  -9   41.71    1.60
   0  -4  -9   42.86    1.77
   0   4   9   44.42    1.59
   0   4   9   41.34    1.74
  -1  -4  -9   20.89    0.97
  -1  -4  -9   21.45    1.07
   1   4   9   20.62    0.91
   1   4   9   20.59    1.03
  -2  -4  -9    2.45    0.40
  -2  -4  -9    2.32    0.36
  -2  -4  -9    1.82    0.35
   2   4   9    1.99    0.32
   2   4   9    1.83    0.36
  -3  -4  -9    3.62    0.47
  -3  -4  -9    3.17    0.48
   3   4   9    3.72    0.48
   3   4   9    4.06    0.42
  -4  -4  -9    1.08    0.39
  -4  -4  -9    1.40    0.46
   4   4   9    1.44    0.39
   4   4   9    1.43    0.37
  -5  -4  -9    1.03    0.44
   5   4   9    0.63    0.40
   5   4   9    0.01    0.34
   4  -5  -9   -0.14    0.30
  -4   5   9    0.66    0.37
   3  -5  -9    0.38    0.30
  -3   5   9   -0.04    0.29
  -3   5   9    0.94    0.34
   2  -5  -9    4.54    0.50
  -2   5   9    2.70    0.41
  -2   5   9    4.45    0.43
   1  -5  -9   27.24    1.26
  -1   5   9   25.71    1.08
  -1   5   9   26.47    1.24
   0  -5  -9   72.68    2.84
   0   5   9   75.98    2.57
   0   5   9   73.03    2.81
  -1  -5  -9    8.14    0.62
  -1  -5  -9    9.44    0.69
  -1  -5  -9    9.46    0.55
   1   5   9   10.39    0.65
   1   5   9    8.29    0.66
  -2  -5  -9    0.46    0.25
  -2  -5  -9   -0.09    0.27
  -2  -5  -9    0.24    0.32
   2   5   9    0.57    0.28
   2   5   9    0.40    0.29
  -3  -5  -9    4.36    0.50
  -3  -5  -9    3.05    0.46
   3   5   9    3.13    0.46
   3   5   9    4.38    0.46
  -4  -5  -9    1.25    0.40
  -4  -5  -9    1.21    0.42
   4   5   9    1.68    0.40
   4   5   9    1.98    0.42
   4  -6  -9    0.08    0.33
  -4   6   9    1.14    0.47
   3  -6  -9    0.16    0.32
  -3   6   9    0.42    0.35
   2  -6  -9    1.08    0.38
  -2   6   9    0.86    0.31
  -2   6   9    1.43    0.39
  -2   6   9    1.26    0.33
   1  -6  -9    8.55    0.66
  -1   6   9    6.36    0.51
  -1   6   9    7.85    0.67
   0  -6  -9    4.04    0.52
   0   6   9    3.37    0.47
  -1  -6  -9    8.60    0.66
  -1  -6  -9    7.83    0.69
  -1  -6  -9    8.35    0.49
   1   6   9    8.71    0.64
   1   6   9    7.31    0.67
  -2  -6  -9    0.11    0.30
  -2  -6  -9    0.27    0.23
  -2  -6  -9    0.38    0.35
   2   6   9    0.82    0.32
   2   6   9    0.79    0.33
  -3  -6  -9    8.81    0.69
   3   6   9    7.98    0.64
   3   6   9    6.36    0.66
  -4  -6  -9    0.20    0.36
   4   6   9   -0.16    0.33
   4   6   9    0.29    0.34
   4  -7  -9    0.13    0.36
  -4   7   9    0.08    0.40
   3  -7  -9    0.72    0.36
  -3   7   9    0.62    0.37
   2  -7  -9    4.95    0.59
  -2   7   9    6.68    0.64
  -2   7   9    3.45    0.52
  -2   7   9    5.15    0.54
   1  -7  -9    6.07    0.63
  -1   7   9    7.04    0.67
   0  -7  -9    8.11    0.76
   0   7   9   12.13    0.80
  -1  -7  -9    6.71    0.67
  -1  -7  -9    6.59    0.64
   1   7   9    5.40    0.60
  -2  -7  -9    1.12    0.38
  -2  -7  -9    0.81    0.40
   2   7   9    0.89    0.38
   2   7   9    0.92    0.34
  -3  -7  -9    2.74    0.48
   3   7   9    1.88    0.43
   3   7   9    3.08    0.46
  -4  -7  -9    0.07    0.38
   4   7   9    1.04    0.43
   4   7   9    1.43    0.42
   3  -8  -9    0.29    0.39
  -3   8   9   -0.31    0.38
   2  -8  -9    1.89    0.47
  -2   8   9    2.32    0.46
   1  -8  -9    2.79    0.52
  -1   8   9    2.68    0.50
  -1   8   9    2.54    0.43
   0  -8  -9    6.19    0.69
   0   8   9    6.27    0.66
  -1  -8  -9   11.04    0.86
   1   8   9   11.25    0.83
  -2  -8  -9    7.23    0.67
  -2  -8  -9    7.74    0.79
   2   8   9    5.56    0.64
  -3  -8  -9    0.87    0.41
   3   8   9    1.07    0.43
   4   8   9    0.85    0.41
   3  -9  -9    1.07    0.46
  -3   9   9    0.60    0.45
   2  -9  -9    0.09    0.40
  -2   9   9   -0.27    0.36
   1  -9  -9    0.51    0.39
  -1   9   9    1.25    0.44
  -1   9   9    0.96    0.37
   0  -9  -9    4.11    0.61
   0   9   9    5.28    0.65
  -1  -9  -9    8.01    0.81
   1   9   9    8.23    0.79
  -2  -9  -9    8.76    0.86
  -2  -9  -9    8.17    0.75
   2   9   9    8.33    0.78
  -3  -9  -9    2.59    0.54
   3   9   9    2.37    0.52
   2 -10  -9    0.45    0.42
  -2  10   9    0.26    0.39
   1 -10  -9    1.14    0.49
  -1  10   9    1.02    0.45
  -1  10   9    0.82    0.39
   0 -10  -9    3.16    0.60
   0  10   9    2.94    0.57
  -1 -10  -9    2.38    0.58
   1  10   9    2.43    0.55
  -2 -10  -9    1.53    0.56
  -2 -10  -9    1.03    0.48
   2  10   9    0.37    0.45
   3  10   9   -0.11    0.41
   1 -11  -9    3.43    0.65
  -1  11   9    3.06    0.56
   0 -11  -9    3.46    0.64
   0  11   9    4.12    0.69
  -1 -11  -9    0.06    0.48
   1  11   9    0.29    0.48
  -2 -11  -9    1.07    0.51
  -2 -11  -9    0.62    0.53
   2  11   9    1.13    0.55
   2   6 -10    0.43    0.47
  -2  -6  10    0.23    0.48
  -1  -6  10    3.18    0.65
   0   6 -10    2.05    0.43
   0   6 -10    2.52    0.56
   0  -6  10    1.81    0.52
  -1   6 -10    0.34    0.40
   1  -6  10    0.92    0.45
   3   5 -10    2.50    0.56
   2   5 -10    1.51    0.49
  -2  -5  10    1.86    0.55
   1   5 -10    2.41    0.53
  -1  -5  10    2.23    0.54
   0   5 -10    5.13    0.66
   0   5 -10    5.13    0.53
   0  -5  10    5.28    0.65
  -1   5 -10    2.75    0.49
  -1   5 -10    3.98    0.58
   1  -5  10    2.25    0.51
  -2   5 -10    2.76    0.51
   2  -5  10    2.89    0.55
   3   4 -10    1.53    0.50
   2   4 -10    1.57    0.50
  -2  -4  10    1.95    0.50
   1   4 -10    3.51    0.56
   1   4 -10    4.06    0.44
  -1  -4  10    3.35    0.54
   0   4 -10    6.49    0.68
   0   4 -10    6.15    0.56
   0  -4  10    5.86    0.65
  -1   4 -10    2.65    0.44
  -1   4 -10    2.29    0.50
   1  -4  10    2.00    0.45
  -2   4 -10    0.09    0.37
   2  -4  10    0.43    0.36
  -3   4 -10    1.70    0.48
   3  -4  10    1.15    0.45
   4   3 -10    0.61    0.44
   3   3 -10    1.39    0.47
   2   3 -10    1.62    0.44
  -2  -3  10    1.20    0.44
   1   3 -10    6.94    0.52
   1   3 -10    5.14    0.61
  -1  -3  10    6.11    0.65
   0   3 -10    1.45    0.43
   0   3 -10    0.70    0.32
   0  -3  10    0.65    0.37
  -1   3 -10   10.65    0.81
  -1   3 -10    9.79    0.67
   1  -3  10    8.49    0.70
  -2   3 -10    7.09    0.65
  -2   3 -10    4.71    0.67
   2  -3  10    6.78    0.66
  -3   3 -10    1.11    0.44
   3  -3  10    0.95    0.40
   4   2 -10    1.15    0.44
   4   2 -10    1.07    0.42
   3   2 -10    0.44    0.34
   3   2 -10    0.48    0.36
   2   2 -10    4.79    0.59
   2   2 -10    4.75    0.43
  -2  -2  10    5.01    0.59
   1   2 -10   17.43    0.84
   1   2 -10   19.69    1.08
  -1  -2  10   18.44    1.02
   0   2 -10    7.45    0.68
   0   2 -10    8.72    0.59
   0  -2  10    8.80    0.68
  -1   2 -10   17.22    0.87
  -1   2 -10   18.06    0.99
   1  -2  10   16.40    0.94
  -2   2 -10    4.69    0.64
  -2   2 -10    7.64    0.63
   2  -2  10    6.82    0.62
  -3   2 -10    1.42    0.43
   3  -2  10    1.92    0.42
  -4   2 -10   -0.25    0.41
   4  -2  10    0.49    0.37
   4   1 -10    0.36    0.37
   4   1 -10    0.58    0.39
   3   1 -10    2.21    0.39
   3   1 -10    2.57    0.48
   2   1 -10    1.45    0.34
   2   1 -10    1.18    0.29
   2   1 -10    0.84    0.35
  -2  -1  10    1.00    0.36
   1   1 -10    3.79    0.52
   1   1 -10    4.04    0.40
  -1  -1  10    3.51    0.47
   0   1 -10   24.93    1.09
   0   1 -10   28.74    1.31
   0  -1  10   26.85    1.25
  -1   1 -10   15.93    0.82
  -1   1 -10   16.35    0.95
   1  -1  10   15.25    0.89
  -2   1 -10   12.32    0.82
  -2   1 -10   13.42    0.79
   2  -1  10   10.97    0.76
  -3   1 -10    0.31    0.37
  -3   1 -10    0.07    0.35
   3  -1  10   -0.21    0.30
  -4   1 -10    0.11    0.41
   4  -1  10    0.48    0.36
   4  -1  10    0.16    0.33
   4   0 -10    2.09    0.45
   4   0 -10    1.70    0.41
   3   0 -10    6.28    0.55
   3   0 -10    6.29    0.64
   3   0 -10    8.02    0.55
   2   0 -10    3.61    0.39
   2   0 -10    3.97    0.43
   2   0 -10    3.07    0.47
  -2   0  10    3.54    0.45
  -2   0  10    3.61    0.32
   1   0 -10   38.67    1.42
   1   0 -10   38.56    1.46
   1   0 -10   36.85    1.65
  -1   0  10   39.17    1.42
  -1   0  10   36.33    1.60
   0   0 -10   17.26    0.98
   0   0 -10   17.66    0.85
   0   0  10   19.74    0.87
  -1   0 -10   13.94    0.76
  -1   0 -10   14.04    0.85
  -2   0 -10    6.64    0.61
  -2   0 -10    5.57    0.64
  -2   0 -10    6.30    0.58
  -3   0 -10   -0.04    0.36
  -3   0 -10    0.97    0.38
   3   0  10    0.78    0.33
  -4   0 -10    1.10    0.45
   4   0  10    1.22    0.39
   4   0  10    1.57    0.38
   4  -1 -10    0.55    0.35
   4  -1 -10    0.35    0.35
   3  -1 -10   -0.05    0.32
   3  -1 -10    0.22    0.28
   3  -1 -10   -0.04    0.28
  -3   1  10   -0.03    0.23
   2  -1 -10    1.16    0.36
   2  -1 -10    2.06    0.35
   2  -1 -10    1.99    0.33
  -2   1  10    1.73    0.26
  -2   1  10    2.15    0.29
  -2   1  10    2.18    0.38
   1  -1 -10    2.95    0.36
   1  -1 -10    3.13    0.38
   1  -1 -10    2.55    0.42
  -1   1  10    2.57    0.23
   0  -1 -10   21.07    0.94
   0  -1 -10   21.36    1.07
   0   1  10   21.06    0.75
   0   1  10   20.92    0.94
  -1  -1 -10   18.77    0.97
  -1  -1 -10   18.69    0.88
   1   1  10   17.19    0.84
  -2  -1 -10    1.82    0.37
  -2  -1 -10    1.72    0.36
  -2  -1 -10    1.05    0.34
   2   1  10    1.69    0.35
  -3  -1 -10    3.80    0.62
  -3  -1 -10    3.70    0.50
   3   1  10    3.45    0.44
  -4  -1 -10    1.43    0.44
   4   1  10    1.57    0.39
   4  -2 -10    1.73    0.44
  -4   2  10    2.16    0.42
   3  -2 -10    1.18    0.36
   3  -2 -10    1.46    0.39
  -3   2  10    0.50    0.28
  -3   2  10    0.94    0.30
   2  -2 -10    7.24    0.56
   2  -2 -10    5.04    0.54
  -2   2  10    6.73    0.46
  -2   2  10    5.95    0.47
   1  -2 -10    3.39    0.45
   1  -2 -10    3.72    0.41
  -1   2  10    3.91    0.29
   0  -2 -10   15.48    0.86
   0  -2 -10   14.69    0.78
   0   2  10   14.93    0.74
  -1  -2 -10    1.72    0.36
  -1  -2 -10    1.52    0.32
   1   2  10    1.68    0.30
  -2  -2 -10    4.84    0.54
  -2  -2 -10    5.19    0.53
  -2  -2 -10    4.86    0.50
   2   2  10    4.39    0.46
  -3  -2 -10    5.55    0.57
  -3  -2 -10    5.43    0.67
   3   2  10    5.02    0.50
  -4  -2 -10    2.62    0.61
  -4  -2 -10    1.78    0.46
   4   2  10    2.28    0.43
   4  -3 -10   -0.05    0.32
  -4   3  10    0.24    0.34
   3  -3 -10   -0.18    0.28
  -3   3  10    0.44    0.27
  -3   3  10    0.46    0.30
   2  -3 -10    5.82    0.58
   2  -3 -10    6.96    0.59
  -2   3  10    5.37    0.44
  -2   3  10    6.06    0.52
   1  -3 -10   10.32    0.70
   1  -3 -10   10.29    0.66
  -1   3  10    9.50    0.51
   0  -3 -10    0.41    0.29
   0  -3 -10    0.72    0.28
   0   3  10    0.42    0.23
  -1  -3 -10   10.40    0.66
  -1  -3 -10    9.91    0.69
   1   3  10    8.54    0.65
   1   3  10    9.28    0.63
  -2  -3 -10    7.94    0.63
  -2  -3 -10    9.00    0.70
  -2  -3 -10   11.01    0.74
   2   3  10    8.78    0.60
   2   3  10    8.43    0.64
  -3  -3 -10    2.24    0.47
  -3  -3 -10    1.44    0.40
   3   3  10    1.61    0.37
   3   3  10    1.62    0.40
  -4  -3 -10    0.37    0.44
  -4  -3 -10    0.19    0.38
   4   3  10    0.47    0.33
   4  -4 -10    0.90    0.38
  -4   4  10    1.01    0.40
   3  -4 -10    0.43    0.33
  -3   4  10    1.23    0.36
  -3   4  10    1.64    0.35
   2  -4 -10    3.11    0.46
  -2   4  10    3.48    0.42
   1  -4 -10   11.19    0.75
   1  -4 -10   11.84    0.75
  -1   4  10   12.18    0.60
   0  -4 -10    4.14    0.51
   0  -4 -10    4.94    0.50
   0   4  10    4.91    0.52
  -1  -4 -10   48.64    2.00
  -1  -4 -10   49.46    1.81
   1   4  10   45.90    1.97
   1   4  10   49.93    1.82
  -2  -4 -10    6.92    0.60
  -2  -4 -10    7.02    0.60
  -2  -4 -10    6.66    0.61
   2   4  10    6.62    0.62
   2   4  10    7.13    0.57
  -3  -4 -10    4.20    0.56
  -3  -4 -10    3.86    0.50
   3   4  10    3.45    0.50
   3   4  10    3.02    0.41
  -4  -4 -10    0.41    0.40
  -4  -4 -10    0.30    0.38
   4   4  10   -0.27    0.33
   4   4  10    0.66    0.36
   4  -5 -10    0.22    0.36
  -4   5  10    0.72    0.42
   3  -5 -10    2.09    0.43
  -3   5  10    2.39    0.41
  -3   5  10    1.99    0.43
   2  -5 -10    0.56    0.34
  -2   5  10   -0.07    0.24
  -2   5  10    0.05    0.24
   1  -5 -10    0.63    0.33
  -1   5  10    0.71    0.33
  -1   5  10    0.62    0.22
   0  -5 -10    1.47    0.38
   0  -5 -10    1.40    0.38
   0   5  10    1.83    0.38
  -1  -5 -10    1.64    0.38
  -1  -5 -10    1.40    0.39
   1   5  10    1.01    0.35
   1   5  10    1.58    0.35
  -2  -5 -10   16.02    0.88
  -2  -5 -10   16.44    0.90
  -2  -5 -10   15.65    0.94
   2   5  10   15.56    0.84
   2   5  10   14.57    0.92
  -3  -5 -10    2.49    0.45
  -3  -5 -10    1.91    0.44
   3   5  10    2.38    0.43
   3   5  10    2.42    0.46
  -4  -5 -10    2.38    0.48
   4   5  10    2.20    0.45
   4   5  10    1.61    0.44
   4  -6 -10    1.48    0.46
  -4   6  10    1.54    0.48
   3  -6 -10    1.44    0.44
  -3   6  10    1.83    0.45
   2  -6 -10   -0.02    0.33
  -2   6  10    0.00    0.28
  -2   6  10    0.36    0.36
  -2   6  10   -0.31    0.25
   1  -6 -10    5.88    0.62
  -1   6  10    5.06    0.46
  -1   6  10    5.59    0.62
   0  -6 -10   12.30    0.86
   0   6  10   13.69    0.85
  -1  -6 -10    2.82    0.46
  -1  -6 -10    3.91    0.35
  -1  -6 -10    3.04    0.49
   1   6  10    2.99    0.47
  -2  -6 -10    3.59    0.51
  -2  -6 -10    3.43    0.55
   2   6  10    3.45    0.47
   2   6  10    3.28    0.50
  -3  -6 -10    0.52    0.38
   3   6  10    0.82    0.36
   3   6  10    0.24    0.33
  -4  -6 -10    1.16    0.44
   4   6  10    1.04    0.43
   4   6  10    0.43    0.38
   3  -7 -10    0.17    0.38
  -3   7  10    0.11    0.34
   2  -7 -10    0.52    0.37
  -2   7  10    0.73    0.33
  -2   7  10    0.78    0.34
   1  -7 -10    8.40    0.77
  -1   7  10    7.10    0.57
  -1   7  10    9.56    0.81
   0  -7 -10    9.67    0.79
   0   7  10   10.34    0.80
  -1  -7 -10    7.31    0.67
  -1  -7 -10    6.88    0.72
   1   7  10    7.51    0.71
  -2  -7 -10    3.01    0.51
  -2  -7 -10    2.40    0.53
   2   7  10    2.48    0.47
  -3  -7 -10    2.39    0.50
   3   7  10    1.89    0.48
  -4  -7 -10    0.14    0.42
   4   7  10   -0.46    0.38
   4   7  10    0.41    0.40
   3  -8 -10    0.88    0.44
  -3   8  10   -0.52    0.37
   2  -8 -10    0.71    0.43
  -2   8  10    0.77    0.39
   1  -8 -10    2.64    0.52
  -1   8  10    3.75    0.46
  -1   8  10    4.16    0.59
  -1   8  10    4.63    0.52
   0  -8 -10    2.32    0.51
   0   8  10    1.98    0.49
  -1  -8 -10    3.17    0.57
  -1  -8 -10    3.29    0.55
   1   8  10    4.16    0.60
  -2  -8 -10    2.85    0.53
  -2  -8 -10    3.78    0.63
   2   8  10    2.66    0.51
  -3  -8 -10    4.39    0.60
   3   8  10    3.64    0.58
   2  -9 -10    2.18    0.50
  -2   9  10    1.92    0.50
   1  -9 -10    0.63    0.43
  -1   9  10    1.37    0.50
  -1   9  10    2.26    0.46
   0  -9 -10    1.09    0.48
   0   9  10    0.62    0.42
  -1  -9 -10    1.31    0.51
  -1  -9 -10    1.24    0.49
   1   9  10    1.13    0.45
  -2  -9 -10    2.38    0.54
  -2  -9 -10    2.81    0.58
   2   9  10    1.61    0.50
  -3  -9 -10    0.89    0.48
   3   9  10    0.62    0.42
   2 -10 -10    0.51    0.44
  -2  10  10    0.65    0.43
   1 -10 -10    0.48    0.45
  -1  10  10    1.15    0.48
  -1  10  10    0.44    0.37
   0 -10 -10    2.16    0.58
   0  10  10    2.62    0.57
  -1 -10 -10    0.90    0.50
   1  10  10    1.51    0.50
  -2 -10 -10    0.09    0.46
  -2 -10 -10   -0.04    0.48
   2  10  10   -0.18    0.42
   1 -11 -10    1.08    0.54
  -1  11  10    1.03    0.46
   0 -11 -10    1.58    0.57
   0  11  10    2.04    0.58
  -1 -11 -10    2.18    0.64
   1  11  10    3.95    0.69
   0   6 -11    0.94    0.53
   2   5 -11    0.22    0.48
  -2  -5  11    0.05    0.49
   1   5 -11    0.07    0.44
  -1  -5  11   -0.10    0.44
   0   5 -11    2.40    0.47
   0   5 -11    1.69    0.53
   0  -5  11    2.81    0.56
  -1   5 -11    5.24    0.60
   1  -5  11    3.34    0.59
   3   4 -11   -0.16    0.41
   2   4 -11    0.62    0.47
  -2  -4  11    0.53    0.46
   1   4 -11    1.72    0.50
   1   4 -11    1.53    0.39
  -1  -4  11    2.14    0.51
   0   4 -11    4.75    0.55
   0   4 -11    4.91    0.67
   0  -4  11    4.75    0.63
  -1   4 -11    2.46    0.56
  -1   4 -11    1.78    0.45
   1  -4  11    1.22    0.45
  -2   4 -11    0.17    0.42
   2  -4  11    1.61    0.49
   3   3 -11    0.50    0.43
   2   3 -11    1.23    0.45
  -2  -3  11    1.83    0.48
   1   3 -11    5.01    0.65
   1   3 -11    5.00    0.51
  -1  -3  11    4.56    0.62
   0   3 -11   10.60    0.86
   0   3 -11   12.95    0.75
   0  -3  11   11.83    0.87
  -1   3 -11    0.82    0.41
  -1   3 -11    0.16    0.35
   1  -3  11    0.26    0.37
  -2   3 -11    3.12    0.53
   2  -3  11    3.10    0.52
  -3   3 -11    0.70    0.44
   3  -3  11    0.35    0.41
   3   2 -11    2.59    0.53
   2   2 -11    3.73    0.58
  -2  -2  11    3.82    0.56
   1   2 -11    1.96    0.37
   1   2 -11    1.92    0.47
  -1  -2  11    1.47    0.43
   0   2 -11    1.57    0.42
   0   2 -11    1.41    0.36
   0  -2  11    1.35    0.40
  -1   2 -11    3.50    0.47
  -1   2 -11    4.42    0.58
   1  -2  11    3.46    0.50
  -2   2 -11    3.43    0.50
   2  -2  11    2.82    0.50
  -3   2 -11    2.87    0.54
   3  -2  11    2.93    0.50
   4   1 -11    1.77    0.50
   3   1 -11    1.31    0.42
   2   1 -11    1.72    0.45
   2   1 -11    2.95    0.39
  -2  -1  11    1.99    0.47
   1   1 -11    6.77    0.69
   1   1 -11    9.24    0.60
  -1  -1  11    7.69    0.69
   0   1 -11    2.38    0.39
   0   1 -11    2.80    0.48
   0  -1  11    2.71    0.44
  -1   1 -11    4.53    0.56
  -1   1 -11    4.88    0.52
   1  -1  11    3.85    0.51
  -2   1 -11    5.60    0.59
   2  -1  11    4.66    0.57
  -3   1 -11    3.03    0.53
   3  -1  11    4.09    0.54
   4   0 -11    0.29    0.38
   4   0 -11    0.62    0.40
   3   0 -11    0.17    0.34
   3   0 -11   -0.04    0.36
   2   0 -11    2.46    0.37
   2   0 -11    1.80    0.43
  -2   0  11    1.68    0.41
   1   0 -11    2.91    0.39
   1   0 -11    4.25    0.56
  -1   0  11    3.60    0.33
  -1   0  11    2.70    0.45
   0   0 -11    3.61    0.51
   0   0 -11    3.61    0.43
  -1   0 -11   10.11    0.81
  -1   0 -11   10.66    0.70
   1   0  11   11.49    0.73
  -2   0 -11    9.36    0.73
  -2   0 -11   12.37    0.84
  -2   0 -11    9.49    0.81
   2   0  11   11.09    0.72
  -3   0 -11    1.31    0.44
  -3   0 -11    1.51    0.52
   3   0  11    1.11    0.39
  -4   0 -11    0.39    0.44
   4   0  11    0.37    0.37
   4   0  11   -0.10    0.34
   4  -1 -11    0.22    0.38
   4  -1 -11   -0.46    0.34
   3  -1 -11    0.90    0.33
   3  -1 -11   -0.13    0.32
   3  -1 -11    0.48    0.33
   2  -1 -11    0.36    0.29
   2  -1 -11    0.24    0.32
   2  -1 -11    0.23    0.30
  -2   1  11    0.73    0.33
  -2   1  11    0.32    0.22
   1  -1 -11    6.11    0.52
   1  -1 -11    5.17    0.58
   0  -1 -11   14.80    0.81
   0  -1 -11   16.93    0.98
  -1  -1 -11   13.90    0.88
  -1  -1 -11   13.96    0.80
   1   1  11   14.81    0.82
  -2  -1 -11    4.40    0.56
  -2  -1 -11    4.31    0.56
  -2  -1 -11    3.35    0.46
   2   1  11    3.88    0.47
  -3  -1 -11    0.98    0.44
  -3  -1 -11    0.41    0.39
   3   1  11    0.62    0.36
  -4  -1 -11    0.44    0.42
   4   1  11   -0.46    0.33
   4  -2 -11    1.53    0.45
   3  -2 -11    0.93    0.38
   3  -2 -11    0.52    0.37
  -3   2  11    0.58    0.29
   2  -2 -11    0.05    0.32
   2  -2 -11    0.26    0.30
  -2   2  11   -0.03    0.23
   1  -2 -11   18.55    1.03
   1  -2 -11   19.15    0.92
  -1   2  11   18.80    0.78
   0  -2 -11   19.69    1.10
   0  -2 -11   20.24    0.98
   0   2  11   22.39    0.81
  -1  -2 -11    9.44    0.67
  -1  -2 -11   10.07    0.74
   1   2  11    9.35    0.63
  -2  -2 -11    2.19    0.44
  -2  -2 -11    1.86    0.40
  -2  -2 -11    2.37    0.46
   2   2  11    2.45    0.40
  -3  -2 -11    1.10    0.46
  -3  -2 -11    1.03    0.41
   3   2  11    0.62    0.36
  -4  -2 -11    0.70    0.44
   4   2  11    1.02    0.42
   4  -3 -11    0.04    0.36
   3  -3 -11    1.54    0.43
   3  -3 -11    1.50    0.41
  -3   3  11    1.65    0.36
  -3   3  11    1.17    0.35
   2  -3 -11    4.61    0.54
   2  -3 -11    3.77    0.49
  -2   3  11    4.27    0.41
  -2   3  11    4.89    0.48
   1  -3 -11    5.58    0.60
   1  -3 -11    7.57    0.61
  -1   3  11    6.92    0.44
   0  -3 -11   13.59    0.85
   0  -3 -11   13.66    0.79
  -1  -3 -11    4.87    0.51
  -1  -3 -11    5.54    0.59
   1   3  11    6.25    0.52
  -2  -3 -11   10.92    0.82
  -2  -3 -11   11.71    0.79
  -2  -3 -11   11.07    0.83
   2   3  11   10.93    0.74
  -3  -3 -11    2.17    0.46
   3   3  11    2.64    0.44
  -4  -3 -11    3.54    0.57
   4   3  11    3.12    0.48
   4  -4 -11    0.82    0.41
  -4   4  11    0.88    0.41
   3  -4 -11    4.25    0.55
  -3   4  11    3.41    0.46
  -3   4  11    3.61    0.51
   2  -4 -11    6.24    0.64
  -2   4  11    7.31    0.58
  -2   4  11    8.43    0.56
   1  -4 -11    2.05    0.40
   1  -4 -11    1.89    0.43
  -1   4  11    1.45    0.27
   0  -4 -11    9.20    0.72
   0  -4 -11    9.68    0.69
  -1  -4 -11    0.28    0.33
  -1  -4 -11    0.68    0.34
   1   4  11    1.11    0.36
  -2  -4 -11    1.92    0.40
  -2  -4 -11    2.75    0.46
  -2  -4 -11    2.39    0.44
   2   4  11    2.16    0.43
   2   4  11    2.02    0.39
  -3  -4 -11    7.29    0.74
  -3  -4 -11    6.54    0.65
   3   4  11    6.54    0.66
   3   4  11    7.32    0.62
  -4  -4 -11    1.77    0.51
  -4  -4 -11    1.31    0.47
   4   4  11    1.61    0.43
   4  -5 -11    0.65    0.40
  -4   5  11    0.19    0.38
   3  -5 -11    0.79    0.39
  -3   5  11    1.86    0.43
  -3   5  11    0.85    0.39
   2  -5 -11    1.19    0.39
  -2   5  11    1.04    0.34
  -2   5  11    1.38    0.33
   1  -5 -11    6.44    0.63
   1  -5 -11    6.51    0.66
  -1   5  11    7.62    0.51
  -1   5  11    7.23    0.69
   0  -5 -11    3.82    0.51
   0  -5 -11    3.24    0.52
   0   5  11    2.74    0.48
  -1  -5 -11   10.19    0.77
  -1  -5 -11   11.89    0.85
   1   5  11   11.35    0.80
  -2  -5 -11    1.86    0.38
  -2  -5 -11    1.55    0.43
  -2  -5 -11    2.30    0.46
   2   5  11    2.34    0.40
   2   5  11    1.40    0.39
  -3  -5 -11    2.78    0.49
  -3  -5 -11    3.19    0.52
   3   5  11    3.47    0.49
   3   5  11    2.78    0.49
  -4  -5 -11    0.82    0.44
   4   5  11    0.62    0.41
   4   5  11   -0.02    0.39
   3  -6 -11    1.34    0.46
  -3   6  11    2.38    0.48
   2  -6 -11    1.60    0.44
  -2   6  11    0.47    0.33
  -2   6  11    1.17    0.35
   1  -6 -11   -0.03    0.34
  -1   6  11    0.32    0.37
  -1   6  11   -0.28    0.22
   0  -6 -11    7.69    0.70
   0  -6 -11    7.79    0.75
   0   6  11    9.76    0.76
  -1  -6 -11   19.35    1.06
  -1  -6 -11   19.39    1.13
   1   6  11   19.55    1.13
  -2  -6 -11    6.14    0.69
  -2  -6 -11    6.32    0.65
   2   6  11    5.93    0.64
  -3  -6 -11    1.51    0.47
   3   6  11    0.71    0.39
  -4  -6 -11    0.23    0.44
   4   6  11    0.18    0.41
   4   6  11   -0.16    0.39
   3  -7 -11    0.83    0.42
  -3   7  11   -0.15    0.34
   2  -7 -11    0.09    0.40
  -2   7  11    0.36    0.32
   1  -7 -11    0.59    0.39
  -1   7  11    1.18    0.45
  -1   7  11    0.99    0.31
   0  -7 -11   10.71    0.87
   0  -7 -11   11.35    0.92
   0   7  11   12.66    0.91
  -1  -7 -11    6.06    0.66
  -1  -7 -11    6.88    0.73
   1   7  11    5.10    0.63
  -2  -7 -11    1.91    0.50
  -2  -7 -11    1.77    0.49
   2   7  11    1.41    0.43
  -3  -7 -11    0.19    0.41
   3   7  11   -0.24    0.36
   3  -8 -11    1.04    0.46
  -3   8  11   -0.46    0.39
   2  -8 -11    2.19    0.53
  -2   8  11    1.02    0.42
   1  -8 -11    5.47    0.70
  -1   8  11    6.98    0.77
  -1   8  11    5.59    0.60
   0  -8 -11    6.26    0.73
   0   8  11    5.45    0.68
  -1  -8 -11    0.38    0.43
  -1  -8 -11    0.47    0.45
   1   8  11    1.06    0.45
  -2  -8 -11   -0.05    0.42
  -2  -8 -11    0.33    0.43
   2   8  11    0.28    0.40
  -3  -8 -11    1.84    0.54
   3   8  11    1.55    0.47
   2  -9 -11    0.75    0.46
  -2   9  11    0.82    0.46
   1  -9 -11    2.26    0.56
  -1   9  11    2.12    0.44
  -1   9  11    1.98    0.55
   0  -9 -11    1.02    0.47
   0   9  11    1.94    0.54
  -1  -9 -11    1.36    0.52
  -1  -9 -11    1.71    0.54
   1   9  11    1.43    0.50
  -2  -9 -11    0.65    0.50
  -2  -9 -11    0.65    0.49
   2   9  11    0.82    0.47
  -3  -9 -11    0.39    0.48
   3   9  11    0.46    0.44
   1 -10 -11    0.79    0.49
  -1  10  11    1.56    0.45
   0 -10 -11    1.39    0.51
   0  10  11    1.05    0.52
  -1 -10 -11    0.52    0.53
  -1 -10 -11    0.18    0.48
   1  10  11    0.93    0.49
  -2 -10 -11    1.65    0.59
  -2 -10 -11    1.84    0.61
   2  10  11    2.97    0.60
   2   4 -12    1.25    0.52
  -2  -4  12    1.58    0.58
   1   4 -12   -0.01    0.44
  -1  -4  12    0.97    0.50
   0   4 -12    2.09    0.55
   0   4 -12    1.74    0.45
   0  -4  12    2.74    0.61
  -1   4 -12    4.50    0.58
   1  -4  12    3.30    0.60
   2   3 -12   -0.24    0.45
  -2  -3  12    0.62    0.45
   1   3 -12    2.52    0.43
   1   3 -12    1.97    0.53
  -1  -3  12    1.62    0.50
   0   3 -12    3.43    0.61
   0   3 -12    3.03    0.48
   0  -3  12    2.73    0.55
  -1   3 -12    8.06    0.70
  -1   3 -12    6.89    0.77
   1  -3  12    7.85    0.78
  -2   3 -12    1.79    0.48
   2  -3  12    1.70    0.50
   3   2 -12    1.15    0.49
   2   2 -12    0.89    0.45
  -2  -2  12    0.50    0.44
   1   2 -12    0.65    0.35
   1   2 -12    1.35    0.47
  -1  -2  12    0.97    0.43
   0   2 -12   10.55    0.73
   0   2 -12   10.61    0.86
   0  -2  12    9.88    0.84
  -1   2 -12    7.34    0.67
  -1   2 -12    8.59    0.81
   1  -2  12    7.53    0.75
  -2   2 -12    1.38    0.45
   2  -2  12    1.39    0.45
   3   1 -12    0.49    0.45
   2   1 -12    0.27    0.41
   2   1 -12   -0.18    0.29
  -2  -1  12    0.19    0.37
   1   1 -12    4.14    0.61
   1   1 -12    5.08    0.52
  -1  -1  12    5.41    0.63
   0   1 -12   13.35    0.81
   0   1 -12   17.18    1.03
   0  -1  12   15.34    0.95
  -1   1 -12    4.52    0.54
  -1   1 -12    3.71    0.58
   1  -1  12    3.63    0.53
  -2   1 -12    1.53    0.44
   2  -1  12    1.68    0.42
  -3   1 -12    0.15    0.43
   3  -1  12    0.42    0.40
   3  -1  12    0.53    0.42
   3   0 -12   -0.33    0.35
   2   0 -12    4.42    0.49
   2   0 -12    3.61    0.56
  -2   0  12    4.75    0.60
   1   0 -12    7.01    0.71
   1   0 -12    7.92    0.62
  -1   0  12    6.44    0.65
   0   0 -12    9.05    0.79
   0   0 -12    9.07    0.67
   0   0  12    6.93    0.70
  -1   0 -12    6.65    0.61
  -1   0 -12    6.20    0.68
  -2   0 -12    4.04    0.61
  -2   0 -12    5.92    0.63
  -3   0 -12    2.62    0.54
   3   0  12    2.00    0.46
   3   0  12    2.63    0.49
   3  -1 -12    2.80    0.53
   2  -1 -12    4.87    0.50
   2  -1 -12    3.34    0.54
  -2   1  12    4.13    0.55
   1  -1 -12    7.33    0.60
   1  -1 -12    6.61    0.69
   0  -1 -12   18.71    1.06
   0  -1 -12   16.84    0.90
  -1  -1 -12   11.12    0.88
  -1  -1 -12   11.09    0.75
  -2  -1 -12    7.11    0.71
  -2  -1 -12    7.28    0.66
  -2  -1 -12    6.49    0.74
  -3  -1 -12    3.31    0.56
   3   1  12    3.56    0.51
   3  -2 -12    2.42    0.45
   3  -2 -12    1.44    0.46
   2  -2 -12    0.10    0.33
   2  -2 -12    0.42    0.35
  -2   2  12    0.39    0.27
   1  -2 -12    4.86    0.61
   1  -2 -12    5.63    0.56
   0  -2 -12    3.96    0.55
   0  -2 -12    3.55    0.47
  -1  -2 -12   10.65    0.82
  -1  -2 -12   10.47    0.77
  -2  -2 -12   14.70    0.94
  -2  -2 -12   13.40    0.99
  -2  -2 -12   13.87    0.89
  -3  -2 -12    2.22    0.51
  -3  -2 -12    1.58    0.52
   3   2  12    1.92    0.43
   3  -3 -12    1.14    0.42
   3  -3 -12    2.44    0.50
  -3   3  12    1.57    0.39
   2  -3 -12    0.36    0.36
   2  -3 -12    0.38    0.37
  -2   3  12    0.37    0.29
   1  -3 -12    5.36    0.56
   1  -3 -12    4.75    0.59
   0  -3 -12    7.83    0.72
   0  -3 -12    7.75    0.66
  -1  -3 -12   19.22    1.02
  -1  -3 -12   21.11    1.14
  -2  -3 -12    2.33    0.51
  -2  -3 -12    3.15    0.51
  -2  -3 -12    3.48    0.52
  -3  -3 -12    0.67    0.43
  -3  -3 -12    0.90    0.41
   3   3  12    0.69    0.39
   3  -4 -12    0.44    0.43
   3  -4 -12   -0.23    0.36
   2  -4 -12    0.38    0.36
   2  -4 -12   -0.03    0.36
  -2   4  12    0.62    0.30
   1  -4 -12    3.02    0.49
   1  -4 -12    3.10    0.52
  -1   4  12    3.83    0.36
   0  -4 -12   23.60    1.24
   0  -4 -12   22.55    1.12
  -1  -4 -12   10.19    0.79
  -1  -4 -12    8.19    0.70
  -2  -4 -12    0.01    0.29
  -2  -4 -12    0.28    0.39
  -2  -4 -12    0.10    0.37
  -3  -4 -12    1.13    0.44
  -3  -4 -12    1.25    0.46
   3   4  12    1.52    0.43
   3  -5 -12    0.52    0.37
  -3   5  12    0.66    0.37
   2  -5 -12    2.04    0.50
   2  -5 -12    2.60    0.50
  -2   5  12    0.77    0.35
  -2   5  12    2.05    0.38
   1  -5 -12    4.57    0.60
   1  -5 -12    6.00    0.63
  -1   5  12    5.38    0.46
   0  -5 -12    3.98    0.58
   0  -5 -12    4.67    0.56
   0   5  12    5.90    0.65
  -1  -5 -12    1.53    0.44
  -1  -5 -12    1.62    0.44
   1   5  12    1.31    0.42
  -2  -5 -12   13.27    0.97
  -2  -5 -12   13.32    0.86
  -2  -5 -12   12.62    0.90
   2   5  12    8.51    0.81
  -3  -5 -12    0.48    0.42
   3   5  12    0.66    0.40
   3  -6 -12    1.20    0.45
  -3   6  12    1.41    0.44
   2  -6 -12    3.10    0.55
  -2   6  12    5.15    0.55
  -2   6  12    3.17    0.50
   1  -6 -12    3.10    0.57
   1  -6 -12    3.81    0.57
  -1   6  12    3.63    0.43
  -1   6  12    4.47    0.62
   0  -6 -12    0.05    0.36
   0  -6 -12    0.73    0.42
   0   6  12    0.56    0.40
  -1  -6 -12    4.32    0.63
  -1  -6 -12    4.69    0.60
   1   6  12    4.26    0.61
  -2  -6 -12    2.86    0.53
  -2  -6 -12    2.40    0.56
   2   6  12    1.47    0.47
  -3  -6 -12    0.79    0.47
   3   6  12    0.80    0.41
   3  -7 -12   -0.05    0.43
  -3   7  12    0.14    0.38
   2  -7 -12    1.57    0.49
  -2   7  12    1.39    0.41
   1  -7 -12    1.25    0.47
  -1   7  12    1.08    0.45
  -1   7  12    0.92    0.31
   0  -7 -12    0.01    0.38
   0  -7 -12   -0.17    0.40
   0   7  12    0.08    0.38
  -1  -7 -12    6.70    0.77
  -1  -7 -12    7.06    0.73
   1   7  12    6.57    0.74
  -2  -7 -12    1.25    0.50
  -2  -7 -12    1.57    0.52
   2   7  12    1.29    0.46
  -3  -7 -12    0.66    0.48
   3   7  12    0.16    0.41
   2  -8 -12    2.08    0.58
  -2   8  12    1.88    0.50
   1  -8 -12    0.14    0.45
  -1   8  12    0.36    0.31
  -1   8  12    0.13    0.46
   0  -8 -12    1.09    0.49
   0  -8 -12    0.47    0.45
   0   8  12    1.20    0.49
  -1  -8 -12    1.52    0.54
  -1  -8 -12    0.04    0.43
   1   8  12    1.26    0.48
  -2  -8 -12    8.22    0.88
  -2  -8 -12    7.19    0.78
   2   8  12    6.73    0.76
  -3  -8 -12    0.52    0.50
   3   8  12    0.19    0.44
   2  -9 -12    1.34    0.53
  -2   9  12    1.46    0.48
   1  -9 -12    0.64    0.49
  -1   9  12   -0.46    0.46
  -1   9  12    0.36    0.37
   0  -9 -12    1.65    0.54
   0   9  12    2.13    0.57
  -1  -9 -12    6.53    0.77
  -1  -9 -12    7.80    0.88
   1   9  12    7.35    0.82
  -2  -9 -12    0.92    0.53
  -2  -9 -12    0.29    0.51
   2   9  12    0.16    0.46
   0 -10 -12    3.62    0.72
   0  10  12    4.17    0.71
  -1 -10 -12    2.16    0.62
  -1 -10 -12    2.30    0.61
   1  10  12    2.39    0.62
   1   3 -13    3.06    0.67
  -1  -3  13    3.83    0.66
   0   3 -13    0.58    0.40
   0   3 -13    0.47    0.47
   0  -3  13    0.72    0.48
  -1   3 -13    1.67    0.49
   1  -3  13    1.50    0.53
   2   2 -13    1.80    0.55
  -2  -2  13    2.51    0.58
   1   2 -13   -0.11    0.35
   1   2 -13   -0.22    0.42
  -1  -2  13   -0.08    0.42
   0   2 -13    1.33    0.43
   0   2 -13    0.91    0.47
   0  -2  13    1.37    0.49
  -1   2 -13    5.91    0.64
  -1   2 -13    6.48    0.76
   1  -2  13    4.82    0.67
  -2   2 -13    1.11    0.47
   2  -2  13    0.80    0.46
   2   1 -13    0.29    0.44
  -2  -1  13    0.75    0.44
   1   1 -13    3.78    0.62
   1   1 -13    2.75    0.46
  -1  -1  13    3.79    0.62
   0   1 -13    6.17    0.61
   0   1 -13    6.38    0.74
   0  -1  13    4.59    0.63
  -1   1 -13    5.39    0.61
  -1   1 -13    5.13    0.67
   1  -1  13    4.98    0.64
  -2   1 -13    2.44    0.53
   2  -1  13    2.34    0.52
   3   0 -13   -0.28    0.39
   2   0 -13    2.07    0.43
   2   0 -13    0.80    0.45
  -2   0  13    1.15    0.48
   1   0 -13    3.02    0.47
   1   0 -13    3.20    0.59
  -1   0  13    4.00    0.59
   0   0 -13    8.53    0.70
   0   0 -13    8.63    0.86
   0   0  13    8.71    0.79
  -1   0 -13    6.54    0.75
  -1   0 -13    7.23    0.68
   1   0  13    7.67    0.74
  -2   0 -13    1.01    0.45
   2   0  13    1.03    0.44
   3  -1 -13    0.99    0.47
   2  -1 -13    1.55    0.47
   2  -1 -13    3.05    0.49
  -2   1  13    1.62    0.45
   1  -1 -13    2.30    0.53
   1  -1 -13    2.99    0.48
  -1   1  13    3.01    0.54
   0  -1 -13    0.95    0.39
   0  -1 -13    0.48    0.43
  -1  -1 -13    4.90    0.65
  -1  -1 -13    4.41    0.55
  -2  -1 -13    0.37    0.41
  -3  -1 -13    1.62    0.52
   3  -2 -13    0.31    0.40
   2  -2 -13    1.95    0.45
   2  -2 -13    2.57    0.52
  -2   2  13    2.19    0.51
   1  -2 -13    2.17    0.44
   1  -2 -13    1.32    0.47
   0  -2 -13    5.47    0.57
   0  -2 -13    4.11    0.62
  -1  -2 -13    1.84    0.50
  -1  -2 -13    2.49    0.47
  -2  -2 -13    4.35    0.63
  -2  -2 -13    3.42    0.55
  -3  -2 -13    0.89    0.47
   3  -3 -13    1.08    0.44
   3  -3 -13    0.50    0.41
   2  -3 -13    3.24    0.52
   2  -3 -13    2.77    0.55
  -2   3  13    3.10    0.44
   1  -3 -13    3.16    0.50
   1  -3 -13    2.95    0.56
   0  -3 -13    2.07    0.44
   0  -3 -13    1.60    0.47
  -1  -3 -13    7.11    0.67
  -1  -3 -13    7.62    0.76
  -2  -3 -13    5.53    0.64
  -2  -3 -13    6.05    0.69
  -2  -3 -13    5.89    0.70
  -3  -3 -13    0.93    0.48
   3  -4 -13    1.50    0.49
   3  -4 -13    1.41    0.50
   2  -4 -13    2.28    0.52
   2  -4 -13    1.58    0.48
  -2   4  13    1.77    0.40
   1  -4 -13    0.07    0.37
   1  -4 -13    0.56    0.39
   0  -4 -13    3.03    0.50
   0  -4 -13    4.56    0.65
  -1  -4 -13    5.37    0.68
  -1  -4 -13    5.85    0.63
  -2  -4 -13    5.33    0.67
  -2  -4 -13    7.91    0.82
  -2  -4 -13    7.38    0.73
  -3  -4 -13    1.86    0.51
  -3  -4 -13    1.30    0.52
   3  -5 -13    0.33    0.47
   3  -5 -13    0.84    0.46
  -3   5  13    0.50    0.36
   2  -5 -13    1.68    0.49
   2  -5 -13    0.40    0.42
  -2   5  13   -0.05    0.30
   1  -5 -13    3.27    0.58
   1  -5 -13    3.20    0.53
   0  -5 -13    3.71    0.60
   0  -5 -13    3.73    0.55
  -1  -5 -13    3.94    0.63
  -1  -5 -13    4.91    0.61
   1   5  13    3.51    0.58
  -2  -5 -13    0.14    0.41
  -2  -5 -13    0.07    0.40
   2   5  13    0.39    0.37
  -3  -5 -13    1.13    0.51
   3   5  13    0.77    0.42
   2  -6 -13    0.34    0.45
   2  -6 -13    0.31    0.42
  -2   6  13    0.03    0.30
   1  -6 -13    0.88    0.46
   1  -6 -13    1.20    0.47
   0  -6 -13    6.68    0.72
   0  -6 -13    7.38    0.80
   0   6  13    9.47    0.87
  -1  -6 -13    5.84    0.68
  -1  -6 -13    5.15    0.71
   1   6  13    3.86    0.62
  -2  -6 -13    1.30    0.51
  -2  -6 -13    0.84    0.47
   2   6  13    1.46    0.48
  -3  -6 -13    0.56    0.49
   3   6  13    0.73    0.45
   2  -7 -13    1.03    0.52
  -2   7  13    0.96    0.42
   1  -7 -13    1.73    0.54
   1  -7 -13    3.03    0.58
  -1   7  13    2.49    0.42
  -1   7  13    2.78    0.59
   0  -7 -13    1.93    0.58
   0  -7 -13    1.31    0.49
   0   7  13    2.33    0.61
  -1  -7 -13    0.14    0.46
  -1  -7 -13    0.21    0.44
   1   7  13   -0.07    0.41
  -2  -7 -13    0.49    0.51
  -2  -7 -13   -0.08    0.45
   2   7  13    0.40    0.42
   2  -8 -13    3.51    0.65
  -2   8  13    4.22    0.64
   1  -8 -13    1.39    0.54
  -1   8  13    3.42    0.53
  -1   8  13    2.62    0.61
   0  -8 -13    1.03    0.50
   0  -8 -13    0.33    0.49
   0   8  13    0.25    0.49
  -1  -8 -13    0.80    0.52
  -1  -8 -13    1.05    0.54
   1   8  13    0.99    0.52
  -2  -8 -13    7.49    0.91
  -2  -8 -13    7.66    0.84
   2   8  13    5.04    0.72
   1  -9 -13    0.96    0.53
  -1   9  13    0.99    0.40
   0  -9 -13   -0.02    0.48
   0  -9 -13   -0.37    0.51
   0   9  13    0.31    0.50
  -1  -9 -13    2.33    0.69
  -1  -9 -13    2.57    0.62
   1   9  13    2.06    0.60
   0   2 -14    1.05    0.54
   0   2 -14    1.10    0.47
   0  -2  14    1.86    0.55
   1   1 -14    0.14    0.45
   1   1 -14    0.25    0.39
  -1  -1  14    0.73    0.49
   0   1 -14    1.27    0.52
   0   1 -14    2.21    0.49
   0  -1  14    1.60    0.52
  -1   1 -14    2.48    0.62
  -1   1 -14    1.64    0.50
   1  -1  14    1.83    0.51
   2   0 -14    0.56    0.47
   1   0 -14    1.26    0.44
   1   0 -14    1.62    0.53
  -1   0  14    1.17    0.49
   0   0 -14    1.65    0.56
   0   0 -14    1.63    0.45
   0   0  14    1.56    0.49
  -1   0 -14    1.59    0.53
  -1   0 -14    1.83    0.49
   1   0  14    1.12    0.49
  -2   0 -14    1.25    0.50
   2   0  14    1.61    0.51
   2  -1 -14    0.50    0.48
   2  -1 -14   -0.01    0.37
   1  -1 -14    2.35    0.59
   1  -1 -14    3.23    0.51
  -1   1  14    2.43    0.56
   0  -1 -14    5.44    0.72
   0  -1 -14    4.72    0.60
  -1  -1 -14    6.47    0.77
  -1  -1 -14    5.86    0.66
  -2  -1 -14    0.86    0.47
   2  -2 -14    0.20    0.40
   2  -2 -14    0.50    0.45
   1  -2 -14    7.95    0.71
   1  -2 -14    6.72    0.77
   0  -2 -14   13.73    0.91
   0  -2 -14   15.86    1.12
  -1  -2 -14    3.32    0.54
  -1  -2 -14    2.89    0.61
  -2  -2 -14    2.26    0.53
   2  -3 -14    4.12    0.67
   2  -3 -14    5.50    0.64
   1  -3 -14    5.71    0.73
   1  -3 -14    4.76    0.62
   0  -3 -14    1.07    0.47
   0  -3 -14    1.15    0.44
  -1  -3 -14    3.51    0.57
  -1  -3 -14    3.96    0.67
  -2  -3 -14    0.94    0.47
  -2  -3 -14    0.56    0.42
   2  -4 -14    1.36    0.50
   2  -4 -14    1.94    0.51
   1  -4 -14    2.87    0.54
   1  -4 -14    2.68    0.57
   0  -4 -14    3.31    0.56
   0  -4 -14    3.11    0.61
  -1  -4 -14    2.65    0.53
  -1  -4 -14    1.89    0.56
  -2  -4 -14    2.80    0.58
   2  -5 -14    1.10    0.47
   2  -5 -14    0.56    0.45
  -2   5  14    0.03    0.34
   1  -5 -14   -0.20    0.42
   1  -5 -14    0.09    0.43
   0  -5 -14    1.38    0.54
   0  -5 -14    0.89    0.45
  -1  -5 -14    7.68    0.77
  -1  -5 -14    7.43    0.83
  -2  -5 -14    4.92    0.69
   2  -6 -14   -0.27    0.44
   2  -6 -14   -0.71    0.44
  -2   6  14    0.54    0.38
   1  -6 -14    0.14    0.45
   1  -6 -14    0.52    0.45
   0  -6 -14    7.00    0.75
   0  -6 -14    5.63    0.76
  -1  -6 -14    7.76    0.79
  -1  -6 -14    7.25    0.86
   1   6  14    5.33    0.73
  -2  -6 -14    2.82    0.60
   2   6  14    2.87    0.59
   1  -7 -14    4.48    0.71
   1  -7 -14    4.67    0.69
  -1   7  14    6.64    0.66
   0  -7 -14    3.58    0.68
   0  -7 -14    3.02    0.60
   0   7  14    4.17    0.72
  -1  -7 -14    4.16    0.68
  -1  -7 -14    2.76    0.66
   1   7  14    3.46    0.65
  -2  -7 -14    0.83    0.54
   2   7  14    0.45    0.48
   1  -8 -14    3.26    0.67
   1  -8 -14    2.76    0.69
  -1   8  14    3.33    0.54
   0  -8 -14    3.21    0.65
   0  -8 -14    3.58    0.72
   0   8  14    3.05    0.71
  -1  -8 -14    1.26    0.57
  -1  -8 -14    1.29    0.63
   1   8  14    1.24    0.55
   0   0 -15    1.35    0.58
   0   0 -15    0.51    0.44
   1  -1 -15    0.49    0.43
   1  -1 -15   -0.03    0.48
  -1   1  15    0.77    0.46
   0  -1 -15    1.58    0.49
   0  -1 -15    1.29    0.58
   0   1  15    2.40    0.58
  -1  -1 -15    7.86    0.77
  -1  -1 -15   10.03    1.01
   1  -2 -15    0.08    0.41
   1  -2 -15   -0.33    0.48
  -1   2  15    0.03    0.45
   0  -2 -15    3.16    0.57
   0  -2 -15    2.17    0.61
  -1  -2 -15    1.80    0.58
  -1  -2 -15    1.71    0.51
   1  -3 -15    0.64    0.49
   1  -3 -15    0.62    0.44
   0  -3 -15    2.32    0.54
   0  -3 -15    2.64    0.64
  -1  -3 -15    3.33    0.70
  -1  -3 -15    2.51    0.55
   1  -4 -15    1.24    0.51
   1  -4 -15    1.38    0.56
   0  -4 -15    3.66    0.68
   0  -4 -15    3.45    0.60
  -1  -4 -15    0.47    0.45
  -1  -4 -15    0.58    0.52
   1  -5 -15    3.84    0.62
   1  -5 -15    2.77    0.63
  -1   5  15    3.90    0.54
   0  -5 -15    2.24    0.55
   0  -5 -15    1.82    0.61
  -1  -5 -15    1.60    0.52
  -1  -5 -15    0.98    0.54
   1  -6 -15    1.69    0.55
   1  -6 -15    0.88    0.55
  -1   6  15    1.69    0.43
   0  -6 -15    0.26    0.46
   0  -6 -15    0.21    0.50
  -1  -6 -15    0.34    0.48
  -1  -6 -15   -0.18    0.49
   0   0   0    0.00    0.00
;
_shelx_hkl_checksum              40128
loop_
_space_group_symop_operation_xyz
'x, y, z'
loop_
_atom_site_label
_atom_site_type_symbol
_atom_site_fract_x
_atom_site_fract_y
_atom_site_fract_z
_atom_site_U_iso_or_equiv
_atom_site_adp_type
_atom_site_occupancy
_atom_site_site_symmetry_order
_atom_site_calc_flag
_atom_site_refinement_flags_posn
_atom_site_refinement_flags_adp
_atom_site_refinement_flags_occupancy
_atom_site_disorder_assembly
_atom_site_disorder_group
Br1 Br 1.13588(10) 0.09484(6) 1.34405(5) 0.1044(3) Uani 1 1 d . . . . .
Cl1 Cl 1.7672(3) 0.73600(16) 0.30733(12) 0.0823(4) Uani 1 1 d . . . . .
S1 S 0.9174(2) -0.07729(11) 0.64916(9) 0.0512(3) Uani 1 1 d . . . . .
O1 O 0.2707(6) -0.2551(3) 0.9610(3) 0.0590(8) Uani 1 1 d . . . . .
O2 O 0.3531(7) -0.4162(3) 0.8595(3) 0.0681(8) Uani 1 1 d . . . . .
N1 N 0.6521(6) -0.0734(3) 0.8378(3) 0.0418(7) Uani 1 1 d . . . . .
N2 N 0.9447(7) 0.1207(4) 0.7666(3) 0.0482(8) Uani 1 1 d . . . . .
N3 N 1.1105(6) 0.1878(3) 0.6741(3) 0.0443(8) Uani 1 1 d . . . . .
C1 C 0.2394(12) -0.4489(6) 1.1378(5) 0.0855(16) Uani 1 1 d . . . . .
H1A H 0.374510 -0.511579 1.111864 0.128 Uiso 1 1 calc R U . . .
H1B H 0.111659 -0.507048 1.190679 0.128 Uiso 1 1 calc R U . . .
H1C H 0.336275 -0.390790 1.176112 0.128 Uiso 1 1 calc R U . . .
C2 C 0.0785(10) -0.3523(6) 1.0375(4) 0.0698(13) Uani 1 1 d . . . . .
H2A H -0.009518 -0.410532 0.995551 0.084 Uiso 1 1 calc R U . . .
H2B H -0.069275 -0.294715 1.063904 0.084 Uiso 1 1 calc R U . . .
C3 C 0.3937(8) -0.3011(5) 0.8774(3) 0.0468(10) Uani 1 1 d . . . . .
C4 C 0.5839(8) -0.1957(4) 0.8070(3) 0.0397(8) Uani 1 1 d . . . . .
C5 C 0.7066(8) -0.2158(4) 0.7117(4) 0.0466(9) Uani 1 1 d . . . . .
H5 H 0.680520 -0.294587 0.683336 0.056 Uiso 1 1 calc R U . . .
C6 C 0.8274(7) -0.0038(4) 0.7617(3) 0.0396(8) Uani 1 1 d . . . . .
C7 C 1.1153(8) 0.3248(4) 0.6690(3) 0.0427(9) Uani 1 1 d . . . . .
C8 C 0.9363(8) 0.3671(4) 0.7589(4) 0.0474(9) Uani 1 1 d . . . . .
H8A H 0.784855 0.438744 0.723440 0.057 Uiso 1 1 calc R U . . .
H8B H 1.048881 0.406664 0.807915 0.057 Uiso 1 1 calc R U . . .
C9 C 0.8189(8) 0.2230(4) 0.8280(3) 0.0431(9) Uani 1 1 d . . . . .
H9 H 0.612786 0.230376 0.819126 0.052 Uiso 1 1 calc R U . . .
C10 C 0.8961(8) 0.1798(4) 0.9550(3) 0.0426(8) Uani 1 1 d . . . . .
C11 C 1.1072(9) 0.0763(4) 1.0051(4) 0.0551(11) Uani 1 1 d . . . . .
H11 H 1.204599 0.024362 0.960765 0.066 Uiso 1 1 calc R U . . .
C12 C 1.1770(11) 0.0483(5) 1.1208(4) 0.0676(13) Uani 1 1 d . . . . .
H12 H 1.320010 -0.022244 1.153956 0.081 Uiso 1 1 calc R U . . .
C13 C 1.0347(10) 0.1249(5) 1.1861(4) 0.0606(12) Uani 1 1 d . . . . .
C14 C 0.8200(11) 0.2272(6) 1.1400(4) 0.0690(13) Uani 1 1 d . . . . .
H14 H 0.721787 0.277711 1.185171 0.083 Uiso 1 1 calc R U . . .
C15 C 0.7524(11) 0.2538(6) 1.0231(4) 0.0633(12) Uani 1 1 d . . . . .
H15 H 0.606936 0.323027 0.990411 0.076 Uiso 1 1 calc R U . . .
C16 C 1.2826(8) 0.4226(4) 0.5817(3) 0.0435(9) Uani 1 1 d . . . . .
C17 C 1.4642(9) 0.3713(5) 0.5079(4) 0.0543(11) Uani 1 1 d . . . . .
H17 H 1.482647 0.272063 0.514625 0.065 Uiso 1 1 calc R U . . .
C18 C 1.6162(10) 0.4661(6) 0.4254(4) 0.0604(12) Uani 1 1 d . . . . .
H18 H 1.740340 0.430714 0.378072 0.072 Uiso 1 1 calc R U . . .
C19 C 1.5829(9) 0.6134(5) 0.4135(4) 0.0546(11) Uani 1 1 d . . . . .
C20 C 1.4087(9) 0.6676(5) 0.4850(4) 0.0582(11) Uani 1 1 d . . . . .
H20 H 1.389714 0.767232 0.476615 0.070 Uiso 1 1 calc R U . . .
C21 C 1.2603(9) 0.5711(5) 0.5704(4) 0.0530(10) Uani 1 1 d . . . . .
H21 H 1.145224 0.606692 0.620372 0.064 Uiso 1 1 calc R U . . .
loop_
_atom_site_aniso_label
_atom_site_aniso_U_11
_atom_site_aniso_U_22
_atom_site_aniso_U_33
_atom_site_aniso_U_23
_atom_site_aniso_U_13
_atom_site_aniso_U_12
Br1 0.1758(7) 0.0885(4) 0.0457(3) -0.0137(3) -0.0218(3) -0.0083(4)
Cl1 0.0908(9) 0.0835(9) 0.0639(8) -0.0010(7) 0.0154(6) -0.0334(7)
S1 0.0643(6) 0.0499(6) 0.0471(6) -0.0243(5) 0.0095(5) -0.0122(5)
O1 0.0662(18) 0.0480(18) 0.064(2) -0.0162(16) 0.0175(15) -0.0113(14)
O2 0.084(2) 0.0482(18) 0.080(2) -0.0262(17) 0.0048(16) -0.0272(15)
N1 0.0510(18) 0.0363(17) 0.0405(18) -0.0137(14) 0.0015(15) -0.0093(14)
N2 0.066(2) 0.0404(18) 0.0449(19) -0.0203(15) 0.0122(16) -0.0167(16)
N3 0.0507(18) 0.042(2) 0.0422(18) -0.0134(15) 0.0034(14) -0.0086(14)
C1 0.095(4) 0.083(4) 0.069(3) -0.006(3) 0.001(3) -0.009(3)
C2 0.065(3) 0.071(3) 0.068(3) -0.008(3) 0.013(2) -0.018(2)
C3 0.048(2) 0.042(2) 0.050(2) -0.0108(19) -0.0086(19) -0.0041(18)
C4 0.0426(19) 0.032(2) 0.047(2) -0.0153(17) -0.0030(16) -0.0027(16)
C5 0.053(2) 0.040(2) 0.055(2) -0.0255(19) 0.0037(18) -0.0090(18)
C6 0.048(2) 0.035(2) 0.038(2) -0.0146(16) -0.0034(16) -0.0022(16)
C7 0.047(2) 0.039(2) 0.043(2) -0.0129(17) -0.0082(16) -0.0037(17)
C8 0.059(2) 0.039(2) 0.047(2) -0.0165(18) 0.0001(18) -0.0066(18)
C9 0.048(2) 0.040(2) 0.046(2) -0.0199(18) 0.0005(17) -0.0071(17)
C10 0.054(2) 0.036(2) 0.042(2) -0.0163(17) 0.0048(17) -0.0111(17)
C11 0.070(3) 0.043(2) 0.054(3) -0.019(2) 0.003(2) 0.004(2)
C12 0.089(3) 0.051(3) 0.059(3) -0.012(2) -0.011(2) 0.010(2)
C13 0.096(3) 0.049(3) 0.037(2) -0.008(2) -0.005(2) -0.015(2)
C14 0.091(3) 0.069(3) 0.054(3) -0.030(2) 0.006(2) 0.003(3)
C15 0.077(3) 0.060(3) 0.056(3) -0.025(2) -0.004(2) 0.014(2)
C16 0.049(2) 0.044(2) 0.040(2) -0.0133(18) -0.0048(17) -0.0094(17)
C17 0.069(3) 0.046(3) 0.049(2) -0.015(2) 0.003(2) -0.010(2)
C18 0.068(3) 0.064(3) 0.052(3) -0.019(2) 0.014(2) -0.015(2)
C19 0.057(3) 0.057(3) 0.043(2) -0.001(2) -0.003(2) -0.020(2)
C20 0.070(3) 0.043(2) 0.060(3) -0.008(2) -0.002(2) -0.015(2)
C21 0.058(2) 0.047(3) 0.053(2) -0.011(2) 0.0058(19) -0.0058(19)
loop_
_atom_type_symbol
_atom_type_description
_atom_type_scat_dispersion_real
_atom_type_scat_dispersion_imag
_atom_type_scat_source
C C 0.0033 0.0016 'International Tables Vol C Tables 4.2.6.8 and 6.1.1.4'
H H 0.0000 0.0000 'International Tables Vol C Tables 4.2.6.8 and 6.1.1.4'
N N 0.0061 0.0033 'International Tables Vol C Tables 4.2.6.8 and 6.1.1.4'
O O 0.0106 0.0060 'International Tables Vol C Tables 4.2.6.8 and 6.1.1.4'
S S 0.1246 0.1234 'International Tables Vol C Tables 4.2.6.8 and 6.1.1.4'
Cl Cl 0.1484 0.1585 'International Tables Vol C Tables 4.2.6.8 and 6.1.1.4'
Br Br -0.2901 2.4595 'International Tables Vol C Tables 4.2.6.8 and 6.1.1.4'
loop_
_geom_angle_atom_site_label_1
_geom_angle_atom_site_label_2
_geom_angle_atom_site_label_3
_geom_angle
_geom_angle_site_symmetry_1
_geom_angle_site_symmetry_3
_geom_angle_publ_flag
C5 S1 C6 87.50(19) . . ?
C3 O1 C2 117.4(4) . . ?
C6 N1 C4 107.9(3) . . ?
C6 N2 N3 116.8(3) . . ?
C6 N2 C9 124.3(3) . . ?
N3 N2 C9 113.1(3) . . ?
C7 N3 N2 108.6(3) . . ?
C2 C1 H1A 109.5 . . ?
C2 C1 H1B 109.5 . . ?
H1A C1 H1B 109.5 . . ?
C2 C1 H1C 109.5 . . ?
H1A C1 H1C 109.5 . . ?
H1B C1 H1C 109.5 . . ?
O1 C2 C1 109.5(4) . . ?
O1 C2 H2A 109.8 . . ?
C1 C2 H2A 109.8 . . ?
O1 C2 H2B 109.8 . . ?
C1 C2 H2B 109.8 . . ?
H2A C2 H2B 108.2 . . ?
O2 C3 O1 124.0(4) . . ?
O2 C3 C4 123.3(4) . . ?
O1 C3 C4 112.7(4) . . ?
C5 C4 N1 116.5(3) . . ?
C5 C4 C3 121.6(4) . . ?
N1 C4 C3 121.9(3) . . ?
C4 C5 S1 111.1(3) . . ?
C4 C5 H5 124.5 . . ?
S1 C5 H5 124.5 . . ?
N1 C6 N2 123.9(3) . . ?
N1 C6 S1 116.9(3) . . ?
N2 C6 S1 119.1(3) . . ?
N3 C7 C16 120.9(4) . . ?
N3 C7 C8 113.3(4) . . ?
C16 C7 C8 125.8(3) . . ?
C7 C8 C9 103.6(3) . . ?
C7 C8 H8A 111.0 . . ?
C9 C8 H8A 111.0 . . ?
C7 C8 H8B 111.0 . . ?
C9 C8 H8B 111.0 . . ?
H8A C8 H8B 109.0 . . ?
N2 C9 C10 113.4(3) . . ?
N2 C9 C8 101.5(3) . . ?
C10 C9 C8 113.4(3) . . ?
N2 C9 H9 109.4 . . ?
C10 C9 H9 109.4 . . ?
C8 C9 H9 109.4 . . ?
C11 C10 C15 118.4(4) . . ?
C11 C10 C9 124.1(3) . . ?
C15 C10 C9 117.5(4) . . ?
C10 C11 C12 120.9(4) . . ?
C10 C11 H11 119.6 . . ?
C12 C11 H11 119.6 . . ?
C13 C12 C11 119.6(4) . . ?
C13 C12 H12 120.2 . . ?
C11 C12 H12 120.2 . . ?
C12 C13 C14 121.3(4) . . ?
C12 C13 Br1 120.7(3) . . ?
C14 C13 Br1 117.9(4) . . ?
C13 C14 C15 118.2(4) . . ?
C13 C14 H14 120.9 . . ?
C15 C14 H14 120.9 . . ?
C10 C15 C14 121.6(4) . . ?
C10 C15 H15 119.2 . . ?
C14 C15 H15 119.2 . . ?
C21 C16 C17 118.4(4) . . ?
C21 C16 C7 119.5(4) . . ?
C17 C16 C7 122.0(4) . . ?
C18 C17 C16 120.8(4) . . ?
C18 C17 H17 119.6 . . ?
C16 C17 H17 119.6 . . ?
C19 C18 C17 119.5(4) . . ?
C19 C18 H18 120.3 . . ?
C17 C18 H18 120.3 . . ?
C20 C19 C18 121.3(4) . . ?
C20 C19 Cl1 118.4(4) . . ?
C18 C19 Cl1 120.3(4) . . ?
C19 C20 C21 119.1(4) . . ?
C19 C20 H20 120.4 . . ?
C21 C20 H20 120.4 . . ?
C16 C21 C20 120.8(4) . . ?
C16 C21 H21 119.6 . . ?
C20 C21 H21 119.6 . . ?
loop_
_geom_bond_atom_site_label_1
_geom_bond_atom_site_label_2
_geom_bond_distance
_geom_bond_site_symmetry_2
_geom_bond_publ_flag
Br1 C13 1.907(4) . ?
Cl1 C19 1.747(4) . ?
S1 C5 1.712(4) . ?
S1 C6 1.738(4) . ?
O1 C3 1.327(5) . ?
O1 C2 1.471(6) . ?
O2 C3 1.212(5) . ?
N1 C6 1.302(5) . ?
N1 C4 1.386(5) . ?
N2 C6 1.367(5) . ?
N2 N3 1.387(5) . ?
N2 C9 1.482(5) . ?
N3 C7 1.299(5) . ?
C1 C2 1.479(7) . ?
C1 H1A 0.9600 . ?
C1 H1B 0.9600 . ?
C1 H1C 0.9600 . ?
C2 H2A 0.9700 . ?
C2 H2B 0.9700 . ?
C3 C4 1.476(6) . ?
C4 C5 1.342(5) . ?
C5 H5 0.9300 . ?
C7 C16 1.464(5) . ?
C7 C8 1.501(6) . ?
C8 C9 1.535(6) . ?
C8 H8A 0.9700 . ?
C8 H8B 0.9700 . ?
C9 C10 1.512(5) . ?
C9 H9 0.9800 . ?
C10 C11 1.373(5) . ?
C10 C15 1.378(6) . ?
C11 C12 1.384(6) . ?
C11 H11 0.9300 . ?
C12 C13 1.367(6) . ?
C12 H12 0.9300 . ?
C13 C14 1.368(7) . ?
C14 C15 1.397(7) . ?
C14 H14 0.9300 . ?
C15 H15 0.9300 . ?
C16 C21 1.388(6) . ?
C16 C17 1.398(5) . ?
C17 C18 1.378(6) . ?
C17 H17 0.9300 . ?
C18 C19 1.377(6) . ?
C18 H18 0.9300 . ?
C19 C20 1.372(6) . ?
C20 C21 1.396(6) . ?
C20 H20 0.9300 . ?
C21 H21 0.9300 . ?
loop_
_geom_hbond_atom_site_label_D
_geom_hbond_atom_site_label_H
_geom_hbond_atom_site_label_A
_geom_hbond_distance_DH
_geom_hbond_distance_HA
_geom_hbond_distance_DA
_geom_hbond_angle_DHA
_geom_hbond_site_symmetry_A
_geom_hbond_publ_flag
C8 H8B O2 0.97 2.51 3.428(5) 157.3 1_665 yes
loop_
_geom_torsion_atom_site_label_1
_geom_torsion_atom_site_label_2
_geom_torsion_atom_site_label_3
_geom_torsion_atom_site_label_4
_geom_torsion
_geom_torsion_site_symmetry_1
_geom_torsion_site_symmetry_2
_geom_torsion_site_symmetry_3
_geom_torsion_site_symmetry_4
_geom_torsion_publ_flag
C6 N2 N3 C7 156.1(3) . . . . ?
C9 N2 N3 C7 1.8(4) . . . . ?
C3 O1 C2 C1 90.5(5) . . . . ?
C2 O1 C3 O2 1.3(6) . . . . ?
C2 O1 C3 C4 -179.3(3) . . . . ?
C6 N1 C4 C5 0.4(4) . . . . ?
C6 N1 C4 C3 178.5(3) . . . . ?
O2 C3 C4 C5 5.8(6) . . . . ?
O1 C3 C4 C5 -173.5(3) . . . . ?
O2 C3 C4 N1 -172.1(3) . . . . ?
O1 C3 C4 N1 8.5(5) . . . . ?
N1 C4 C5 S1 -1.4(4) . . . . ?
C3 C4 C5 S1 -179.4(3) . . . . ?
C6 S1 C5 C4 1.4(3) . . . . ?
C4 N1 C6 N2 -178.3(3) . . . . ?
C4 N1 C6 S1 0.8(4) . . . . ?
N3 N2 C6 N1 -175.2(3) . . . . ?
C9 N2 C6 N1 -24.0(6) . . . . ?
N3 N2 C6 S1 5.7(4) . . . . ?
C9 N2 C6 S1 156.9(3) . . . . ?
C5 S1 C6 N1 -1.3(3) . . . . ?
C5 S1 C6 N2 177.8(3) . . . . ?
N2 N3 C7 C16 177.9(3) . . . . ?
N2 N3 C7 C8 -2.3(4) . . . . ?
N3 C7 C8 C9 1.9(4) . . . . ?
C16 C7 C8 C9 -178.3(3) . . . . ?
C6 N2 C9 C10 85.4(4) . . . . ?
N3 N2 C9 C10 -122.5(3) . . . . ?
C6 N2 C9 C8 -152.7(3) . . . . ?
N3 N2 C9 C8 -0.5(4) . . . . ?
C7 C8 C9 N2 -0.7(4) . . . . ?
C7 C8 C9 C10 121.3(3) . . . . ?
N2 C9 C10 C11 13.5(5) . . . . ?
C8 C9 C10 C11 -101.6(4) . . . . ?
N2 C9 C10 C15 -169.4(4) . . . . ?
C8 C9 C10 C15 75.6(5) . . . . ?
C15 C10 C11 C12 -0.9(7) . . . . ?
C9 C10 C11 C12 176.2(4) . . . . ?
C10 C11 C12 C13 -0.2(7) . . . . ?
C11 C12 C13 C14 1.3(8) . . . . ?
C11 C12 C13 Br1 -177.4(4) . . . . ?
C12 C13 C14 C15 -1.1(8) . . . . ?
Br1 C13 C14 C15 177.5(4) . . . . ?
C11 C10 C15 C14 1.0(7) . . . . ?
C9 C10 C15 C14 -176.3(4) . . . . ?
C13 C14 C15 C10 0.0(8) . . . . ?
N3 C7 C16 C21 173.2(3) . . . . ?
C8 C7 C16 C21 -6.6(6) . . . . ?
N3 C7 C16 C17 -6.3(5) . . . . ?
C8 C7 C16 C17 173.9(4) . . . . ?
C21 C16 C17 C18 -0.4(6) . . . . ?
C7 C16 C17 C18 179.1(4) . . . . ?
C16 C17 C18 C19 -1.7(7) . . . . ?
C17 C18 C19 C20 2.4(7) . . . . ?
C17 C18 C19 Cl1 -178.6(4) . . . . ?
C18 C19 C20 C21 -0.8(7) . . . . ?
Cl1 C19 C20 C21 -179.9(3) . . . . ?
C17 C16 C21 C20 2.1(6) . . . . ?
C7 C16 C21 C20 -177.5(4) . . . . ?
C19 C20 C21 C16 -1.5(6) . . . . ?
