#------------------------------------------------------------------------------
#$Date: 2021-03-05 03:48:26 +0200 (Fri, 05 Mar 2021) $
#$Revision: 262585 $
#$URL: file:///home/coder/svn-repositories/cod/cif/7/24/21/7242113.cif $
#------------------------------------------------------------------------------
#
# This file is available in the Crystallography Open Database (COD),
# http://www.crystallography.net/
#
# All data on this site have been placed in the public domain by the
# contributors.
#
data_7242113
loop_
_publ_author_name
'Zhang, Mei-Li'
'Bai, Ye'
'Ren, Yi-Xia'
'Wang, Ji-Jiang'
'Yang, Xiao-Gang'
'Ma, Lu-Fang'
_publ_section_title
;
 Structural diversity and photocatalytic activity of six Co(ii)/Ni(ii)
 complexes with three flexible phenylenediacetate isomers
;
_journal_issue                   7
_journal_name_full               CrystEngComm
_journal_page_first              1616
_journal_page_last               1627
_journal_paper_doi               10.1039/D0CE01702G
_journal_volume                  23
_journal_year                    2021
_chemical_formula_sum            'C22 H26 Co N4 O8'
_chemical_formula_weight         533.40
_space_group_crystal_system      triclinic
_space_group_IT_number           2
_space_group_name_Hall           '-P 1'
_space_group_name_H-M_alt        'P -1'
_atom_sites_solution_hydrogens   mixed
_audit_creation_method           SHELXL-2018/3
_audit_update_record
;
2019-11-16 deposited with the CCDC.	2021-01-18 downloaded from the CCDC.
;
_cell_angle_alpha                66.111(4)
_cell_angle_beta                 87.833(5)
_cell_angle_gamma                80.289(5)
_cell_formula_units_Z            1
_cell_length_a                   5.5521(17)
_cell_length_b                   10.630(3)
_cell_length_c                   10.978(3)
_cell_measurement_temperature    296(2)
_cell_volume                     583.6(3)
_computing_structure_refinement  'SHELXL-2018/3 (Sheldrick, 2018)'
_computing_structure_solution    'SHELXT 2014/5 (Sheldrick, 2014)'
_diffrn_ambient_temperature      296(2)
_diffrn_measured_fraction_theta_full 0.988
_diffrn_measured_fraction_theta_max 0.987
_diffrn_radiation_type           MoK\a
_diffrn_radiation_wavelength     0.71073
_diffrn_reflns_av_R_equivalents  0.0104
_diffrn_reflns_av_unetI/netI     0.0208
_diffrn_reflns_Laue_measured_fraction_full 0.988
_diffrn_reflns_Laue_measured_fraction_max 0.987
_diffrn_reflns_limit_h_max       6
_diffrn_reflns_limit_h_min       -6
_diffrn_reflns_limit_k_max       13
_diffrn_reflns_limit_k_min       -10
_diffrn_reflns_limit_l_max       13
_diffrn_reflns_limit_l_min       -13
_diffrn_reflns_number            3189
_diffrn_reflns_point_group_measured_fraction_full 0.988
_diffrn_reflns_point_group_measured_fraction_max 0.987
_diffrn_reflns_theta_full        25.242
_diffrn_reflns_theta_max         26.021
_diffrn_reflns_theta_min         2.030
_exptl_absorpt_coefficient_mu    0.791
_exptl_absorpt_process_details   sadabs
_exptl_crystal_density_diffrn    1.518
_exptl_crystal_F_000             277
_exptl_crystal_size_max          0.230
_exptl_crystal_size_mid          0.130
_exptl_crystal_size_min          0.120
_exptl_transmission_factor_max   0.7461
_exptl_transmission_factor_min   0.7011
_refine_diff_density_max         0.493
_refine_diff_density_min         -0.476
_refine_diff_density_rms         0.139
_refine_ls_extinction_method     none
_refine_ls_goodness_of_fit_ref   1.209
_refine_ls_hydrogen_treatment    mixed
_refine_ls_matrix_type           full
_refine_ls_number_parameters     168
_refine_ls_number_reflns         2271
_refine_ls_number_restraints     3
_refine_ls_restrained_S_all      1.209
_refine_ls_R_factor_all          0.0438
_refine_ls_R_factor_gt           0.0381
_refine_ls_shift/su_max          0.000
_refine_ls_shift/su_mean         0.000
_refine_ls_structure_factor_coef Fsqd
_refine_ls_weighting_details
'w=1/[\s^2^(Fo^2^)+(0.1000P)^2^] where P=(Fo^2^+2Fc^2^)/3'
_refine_ls_weighting_scheme      calc
_refine_ls_wR_factor_gt          0.1226
_refine_ls_wR_factor_ref         0.1391
_reflns_Friedel_coverage         0.000
_reflns_number_gt                2104
_reflns_number_total             2271
_reflns_threshold_expression     'I > 2\s(I)'
_cod_data_source_file            d0ce01702g2.cif
_cod_data_source_block           yd0933_0m_a
_cod_depositor_comments
'Adding full bibliography for 7242112--7242117.cif.'
_cod_database_code               7242113
_shelx_shelxl_version_number     2018/3
_shelx_space_group_comment
;
The symmetry employed for this shelxl refinement is uniquely defined
by the following loop, which should always be used as a source of
symmetry information in preference to the above space-group names.
They are only intended as comments.
;
_shelx_estimated_absorpt_t_min   0.839
_shelx_estimated_absorpt_t_max   0.911
_shelx_res_file
;
TITL yd0933_0m_a.res in P-1
    yd0933_0m_a.res
    created by SHELXL-2018/3 at 15:28:33 on 19-May-2019
REM Old TITL yd0933_0m in P-1
REM SHELXT solution in P-1
REM R1 0.098,  Rweak 0.014,  Alpha 0.071,  Orientation as input
REM Formula found by SHELXT:  C22 Co N6 O6
CELL  0.71073   5.5521  10.6303  10.9781   66.111   87.833   80.289
ZERR    1.000   0.0017   0.0032   0.0034    0.004    0.005    0.005
LATT  1
SFAC C H CO N O
UNIT 22 26 1 4 8
TEMP 23.000
L.S. 10
BOND $H
LIST 4
ACTA
shel 999 0.81
FMAP 2
size 0.12 0.13 0.23
conf
dfix 0.85 0.01 o1 h1a o1 h1b
dfix 1.38 0.01 h1a h1b
PLAN 20
WGHT    0.100000
FVAR       1.10154
CO1   3    1.000000    0.500000    0.500000    10.50000    0.01991    0.02081 =
         0.02322   -0.00678    0.00669   -0.00780
O1    5    0.711252    0.502628    0.377913    11.00000    0.02267    0.03862 =
         0.03735   -0.01761    0.00389   -0.00881
H1B   2    0.789176    0.477525    0.321391    11.00000    0.05054
H1A   2    0.594266    0.458532    0.404295    11.00000    0.05131
O2    5    0.734622    0.592800    0.598989    11.00000    0.02433    0.03080 =
         0.03121   -0.01538    0.00795   -0.00711
O3    5    0.966163    0.596490    0.756488    11.00000    0.03436    0.10755 =
         0.06121   -0.05889   -0.00138   -0.00206
O4    5    1.096768    0.661183    0.973416    11.00000    0.15218    0.12876 =
         0.11567   -0.06789   -0.00362   -0.00925
AFIX   3
H4B   2    1.160218    0.686453    0.897286    11.00000   -1.20000
H4C   2    1.021207    0.595623    0.979996    11.00000   -1.20000
AFIX   0
N1    4    0.966635    0.299176    0.641337    11.00000    0.02635    0.02399 =
         0.03097   -0.00571    0.00702   -0.00805
N2    4    0.823080    0.131595    0.805987    11.00000    0.02763    0.02330 =
         0.02573   -0.00467    0.00592   -0.00815
C1    1    0.770909    0.629845    0.691446    11.00000    0.02841    0.03463 =
         0.03183   -0.01584    0.00912   -0.01068
C2    1    0.561599    0.725441    0.719954    11.00000    0.03759    0.04826 =
         0.04483   -0.02990    0.01721   -0.01284
AFIX  23
H2A   2    0.412789    0.686030    0.730997    11.00000   -1.20000
H2AB  2    0.597813    0.733072    0.802205    11.00000   -1.20000
AFIX   0
C3    1    0.524420    0.868221    0.607152    11.00000    0.02807    0.03959 =
         0.04783   -0.03177    0.01079   -0.00545
C4    1    0.334102    0.913348    0.513974    11.00000    0.02820    0.04440 =
         0.06182   -0.03604    0.00915   -0.01430
AFIX  43
H4    2    0.220466    0.855466    0.522595    11.00000   -1.20000
AFIX   0
C5    1    0.308884    1.040976    0.409480    11.00000    0.02868    0.04644 =
         0.05321   -0.03341    0.00363   -0.00745
AFIX  43
H5    2    0.178913    1.068190    0.348258    11.00000   -1.20000
AFIX   0
C6    1    0.784036    0.267132    0.720815    11.00000    0.02795    0.02591 =
         0.03324   -0.00343    0.01091   -0.00595
AFIX  43
H6    2    0.644399    0.330217    0.718746    11.00000   -1.20000
AFIX   0
C7    1    1.132289    0.177153    0.676095    11.00000    0.02374    0.03128 =
         0.03208   -0.01159    0.00485   -0.00585
AFIX  43
H7    2    1.280931    0.167714    0.636037    11.00000   -1.20000
AFIX   0
C8    1    1.046229    0.073318    0.777119    11.00000    0.02765    0.02483 =
         0.02883   -0.00647   -0.00003   -0.00232
AFIX  43
H8    2    1.122629   -0.019125    0.818824    11.00000   -1.20000
AFIX   0
C9    1    0.659501    0.064522    0.905385    11.00000    0.02887    0.02766 =
         0.02288   -0.00515    0.00557   -0.01321
C10   1    0.494699    0.141877    0.955612    11.00000    0.04061    0.02261 =
         0.03309   -0.00712    0.01090   -0.01201
AFIX  43
H10   2    0.491902    0.237413    0.925961    11.00000   -1.20000
AFIX   0
C11   1    0.667370   -0.077222    0.949431    11.00000    0.03725    0.02493 =
         0.03410   -0.01039    0.01147   -0.00973
AFIX  43
H11   2    0.780301   -0.129193    0.915848    11.00000   -1.20000

AFIX   0
HKLF 4




REM  yd0933_0m_a.res in P-1
REM wR2 = 0.139115, GooF = S = 1.20898, Restrained GooF = 1.20852 for all data
REM R1 = 0.038063 for 2104 Fo > 4sig(Fo) and 0.043817 for all 2271 data
REM 168 parameters refined using 3 restraints

END

WGHT      0.0817      0.3509

REM Highest difference peak  0.493,  deepest hole -0.476,  1-sigma level  0.139
Q1    1   0.5820 -0.0990  0.9883  11.00000  0.05    0.49
Q2    1   0.7181  0.0795  0.8779  11.00000  0.05    0.47
Q3    1   0.7011 -0.0184  0.9603  11.00000  0.05    0.44
Q4    1   0.6480  0.0048  0.9207  11.00000  0.05    0.44
Q5    1   0.5045  0.1757  0.9616  11.00000  0.05    0.39
Q6    1   0.6175  0.0958  0.9447  11.00000  0.05    0.39
Q7    1   0.9941  0.5912  0.7917  11.00000  0.05    0.38
Q8    1   0.4867  0.4458  0.9464  11.00000  0.05    0.38
Q9    1   0.7483 -0.1132  0.9542  11.00000  0.05    0.32
Q10   1   0.8218  0.1655  0.8201  11.00000  0.05    0.31
Q11   1   0.9030 -0.1374  0.9453  11.00000  0.05    0.31
Q12   1   0.8961  0.0980  0.7827  11.00000  0.05    0.31
Q13   1   1.2867  0.4611  0.9940  11.00000  0.05    0.29
Q14   1   0.8500  0.6022  1.0085  11.00000  0.05    0.29
Q15   1   1.1383  0.0163  0.9421  11.00000  0.05    0.28
Q16   1   0.8517 -0.2246  1.0397  11.00000  0.05    0.28
Q17   1   0.7311 -0.1138  0.8620  11.00000  0.05    0.27
Q18   1   1.1495 -0.1363  0.9656  11.00000  0.05    0.27
Q19   1   0.7469 -0.0990  1.0735  11.00000  0.05    0.26
Q20   1   1.0000  0.0000  1.0000  10.50000  0.05    0.26
;
_shelx_res_checksum              71733
_shelx_hkl_file
;
   1   0   0 1060.19    9.90
  -2   0   0  100.99    2.40
   2   0   0  101.29    2.00
  -3   0   0 1063.79   12.60
   3   0   0 1071.29   11.20
  -4   0   0  890.21   11.90
  -5   0   0   22.10    2.40
  -6   0   0  206.88    7.50
  -7   0   0   39.70    4.40
  -7   1   0  126.79    6.60
  -6   1   0   20.30    2.80
  -5   1   0   71.09    3.60
  -4   1   0  760.32   11.10
  -3   1   0  405.06    6.60
  -3   1   0  389.36    5.10
  -2   1   0  806.82    8.30
  -2   1   0  804.42    9.70
  -1   1   0 2617.44   25.20
  -1   1   0 2651.43   24.10
   0   1   0   -2.50    0.10
   1   1   0 3928.81   37.20
  -2  -1   0   11.20    1.30
  -2  -1   0   16.70    1.10
   2   1   0   15.20    1.00
  -3  -1   0  721.53   10.90
  -3  -1   0  695.13    8.80
   3   1   0  715.53    8.40
  -4  -1   0  871.61   11.10
  -4  -1   0  859.41   13.80
   4   1   0  852.11   10.20
  -5  -1   0  500.35    8.60
  -5  -1   0  513.95   10.80
  -6  -1   0  106.49    5.50
  -7  -1   0   88.59    5.70
  -6   2   0   41.80    3.70
  -5   2   0    2.70    1.60
  -4   2   0  244.28    5.90
  -3   2   0 3247.48   30.70
  -3   2   0 3343.07   34.00
  -2   2   0   11.20    1.30
  -2   2   0   12.50    0.90
  -1   2   0    2.40    0.60
  -1   2   0    2.60    0.70
   0   2   0 1690.83   16.10
  -1  -2   0 1214.88   14.10
   1   2   0 1254.87   12.50
  -2  -2   0  167.58    4.00
   2   2   0  167.68    3.10
  -3  -2   0  729.93    8.50
  -3  -2   0  731.43   11.20
   3   2   0  743.13    8.90
  -4  -2   0  178.98    5.50
  -4  -2   0  176.68    3.90
   4   2   0  167.18    3.70
  -5  -2   0   -0.30    1.50
  -6  -2   0  237.38    8.00
  -7  -2   0   36.40    4.40
  -7   3   0   40.80    4.40
  -6   3   0   37.00    3.60
  -5   3   0   81.19    4.20
  -4   3   0    8.30    1.80
  -3   3   0   49.30    2.00
  -3   3   0   50.09    2.80
  -2   3   0   19.80    1.70
  -2   3   0   17.10    1.20
  -1   3   0  256.77    3.90
  -1   3   0  254.07    4.40
   0   3   0  557.94    6.50
   0   3   0  556.44    6.80
  -1  -3   0  603.74    8.70
   1   3   0  599.84    7.40
  -2  -3   0  713.33   10.30
   2   3   0  729.33    8.90
  -3  -3   0  145.69    4.50
   3   3   0  149.99    3.50
  -4  -3   0  628.64   11.40
   4   3   0  654.73    9.00
  -5  -3   0  402.96    9.50
  -6  -3   0  267.97    8.50
  -7  -3   0   86.89    5.80
  -7   4   0   56.99    5.10
  -6   4   0    8.80    2.70
  -5   4   0   68.29    4.10
  -4   4   0   21.10    2.50
  -3   4   0  375.26    7.50
  -2   4   0   20.60    2.00
  -2   4   0   20.80    1.60
  -1   4   0    2.90    0.90
  -1   4   0    0.80    0.80
   0   4   0   79.49    2.10
   0   4   0   79.19    2.50
  -1  -4   0 1039.40   13.90
   1   4   0 1074.09   12.20
  -2  -4   0  500.35    8.50
   2   4   0  497.55    7.20
  -3  -4   0  915.81   13.70
   3   4   0  917.51   11.50
  -4  -4   0  261.57    6.90
   4   4   0  244.28    5.30
  -5  -4   0  132.29    5.60
  -6  -4   0   16.50    3.10
  -7  -4   0   94.69    6.10
  -6   5   0   89.59    5.40
  -5   5   0   30.40    3.40
  -4   5   0   21.70    2.70
  -3   5   0  188.18    5.50
  -2   5   0  310.77    6.30
  -2   5   0  306.37    5.40
  -1   5   0   43.20    2.10
  -1   5   0   44.70    2.30
   0   5   0 2088.09   21.30
   0   5   0 2077.99   21.60
   1   5   0  130.69    3.50
  -2  -5   0  627.84   10.70
   2   5   0  648.04    9.20
  -3  -5   0  828.92   13.20
   3   5   0  818.32   11.20
  -4  -5   0  285.97    7.60
   4   5   0  278.27    6.00
  -5  -5   0  110.89    5.40
   5   5   0  101.49    3.80
  -6  -5   0  191.98    7.50
  -7  -5   0   46.10    4.90
  -6   6   0   71.19    4.90
  -5   6   0   21.50    3.10
  -4   6   0   68.99    4.00
  -3   6   0   15.20    2.40
  -2   6   0  604.84    8.80
  -2   6   0  606.04    9.90
  -1   6   0 1066.99   13.10
  -1   6   0 1056.79   13.40
   0   6   0   47.20    2.20
   0   6   0   39.90    2.40
   1   6   0    7.40    1.40
   1   6   0    9.10    1.10
  -2  -6   0   57.19    4.10
   2   6   0   55.59    2.70
  -3  -6   0   58.59    4.20
   3   6   0   57.09    2.90
  -4  -6   0   70.99    4.60
   4   6   0   64.99    3.20
  -5  -6   0   18.90    3.20
   5   6   0   19.90    2.30
  -6  -6   0    2.50    2.60
  -7  -6   0   67.59    6.00
  -5   7   0   53.29    4.50
  -4   7   0   16.40    2.80
  -3   7   0  547.95   10.60
  -2   7   0    1.30    1.50
  -2   7   0   -0.80    1.10
  -1   7   0  166.38    4.50
  -1   7   0  172.08    4.70
   0   7   0  148.59    3.90
   0   7   0  138.99    4.20
   1   7   0  253.57    5.70
   2   7   0   23.00    2.30
  -3  -7   0  851.21   14.90
   3   7   0  836.32   12.40
  -4  -7   0    3.20    2.30
   4   7   0    2.50    1.40
  -5  -7   0    9.50    3.00
   5   7   0   13.70    2.20
  -6  -7   0   44.50    4.70
  -7  -7   0   34.80    4.80
  -5   8   0   32.00    4.00
  -4   8   0  152.88    6.20
  -3   8   0    1.20    2.00
  -2   8   0   -0.50    1.30
  -2   8   0    1.90    1.90
  -1   8   0   82.79    3.40
  -1   8   0   76.79    3.60
   0   8   0  191.98    4.70
   0   8   0  188.58    5.10
   1   8   0    2.20    1.40
   2   8   0  170.18    5.20
  -3  -8   0   20.70    3.30
   3   8   0   22.00    2.40
  -4  -8   0  324.17    9.40
   4   8   0  327.37    7.60
  -5  -8   0   98.59    6.20
   5   8   0  105.59    4.60
  -6  -8   0  145.79    7.40
  -7  -8   0   28.20    4.90
  -4   9   0   35.30    3.90
  -3   9   0   70.69    4.30
  -2   9   0   75.19    4.20
  -1   9   0  164.58    5.10
  -1   9   0  156.68    5.10
   0   9   0  570.64   10.10
   1   9   0   47.70    3.10
   2   9   0    1.70    1.50
   3   9   0  300.27    7.50
  -4  -9   0  227.08    8.40
   4   9   0  215.78    6.60
  -5  -9   0   60.99    5.70
   5   9   0   51.89    3.60
  -6  -9   0   25.00    4.50
  -4  10   0   26.40    3.80
  -3  10   0   47.00    4.30
  -2  10   0   -0.50    2.00
  -1  10   0   92.09    4.20
   0  10   0   95.89    4.30
   1  10   0  249.38    6.90
   2  10   0  153.78    5.40
   3  10   0  393.56    9.10
   4  10   0   51.19    3.60
  -5 -10   0   32.90    4.80
   5  10   0   34.60    3.40
  -6 -10   0   16.00    4.30
  -3  11   0   43.30    4.50
  -2  11   0   72.99    4.70
  -1  11   0   11.90    2.40
   0  11   0   85.69    4.40
   1  11   0   35.40    3.50
   2  11   0   25.90    3.00
   3  11   0    9.60    2.30
   4  11   0   94.09    5.00
  -6 -11   0   28.90    5.20
   0  12   0   59.49    4.00
   1  12   0   37.50    3.70
   2  12   0    5.80    2.20
   1  12  -1  120.99    5.70
   0  12  -1    6.40    2.30
   3  11  -1   52.99    4.30
   2  11  -1    4.80    2.10
   1  11  -1   40.40    3.60
   0  11  -1   83.19    4.50
  -1  11  -1   30.00    3.20
  -3  11  -1   96.69    5.70
  -6 -10   1   32.10    5.40
   5  10  -1   23.10    3.10
  -5 -10   1   13.40    4.10
   4  10  -1   46.60    3.90
   3  10  -1   27.60    3.20
   2  10  -1   55.49    3.70
   1  10  -1   28.60    3.00
   0  10  -1  131.79    5.10
  -1  10  -1   18.90    2.50
  -2  10  -1   20.20    3.00
  -3  10  -1   28.70    3.70
  -4  10  -1   37.40    4.40
  -6  -9   1    2.00    3.40
   5   9  -1    7.90    2.20
  -5  -9   1   11.40    3.60
   4   9  -1  236.18    6.90
  -4  -9   1  246.78    9.00
   3   9  -1  224.08    6.50
   2   9  -1  199.68    6.10
   1   9  -1  260.37    6.80
   0   9  -1  227.88    6.30
  -1   9  -1  176.88    5.50
  -1   9  -1  180.48    5.60
  -2   9  -1   61.29    4.00
  -3   9  -1   24.70    3.30
  -4   9  -1   13.50    3.00
  -7  -8   1   -1.90    3.30
  -6  -8   1  104.19    6.90
   5   8  -1   88.39    4.30
  -5  -8   1   91.59    6.20
   4   8  -1  182.88    5.70
  -4  -8   1  181.88    7.50
   3   8  -1  205.08    5.90
  -3  -8   1  198.68    7.60
   2   8  -1    5.10    1.60
   1   8  -1   -0.60    1.40
   0   8  -1  162.08    5.00
  -1   8  -1  334.77    7.20
  -1   8  -1  335.17    7.10
  -2   8  -1   40.80    2.90
  -2   8  -1   36.10    3.30
  -3   8  -1   27.00    3.20
  -4   8  -1    2.20    2.30
  -5   8  -1   16.60    3.50
  -7  -7   1   82.29    6.60
  -6  -7   1   55.59    5.50
   5   7  -1  104.29    4.30
  -5  -7   1  103.49    6.00
   4   7  -1  204.88    5.70
  -4  -7   1  198.88    7.50
   3   7  -1   74.89    3.50
  -3  -7   1   75.19    5.10
   2   7  -1  136.29    4.40
   1   7  -1  417.66    7.90
   0   7  -1   12.50    1.70
   0   7  -1   13.10    1.80
  -1   7  -1    2.30    1.30
  -1   7  -1    2.50    1.40
  -2   7  -1   11.90    2.00
  -2   7  -1   10.80    1.80
  -3   7  -1    1.50    1.70
  -4   7  -1   20.00    3.10
  -5   7  -1   21.10    3.30
  -7  -6   1   46.30    5.30
  -6  -6   1    9.00    3.10
   5   6  -1   19.60    2.30
  -5  -6   1   16.10    3.10
   4   6  -1    4.80    1.50
  -4  -6   1    7.60    2.50
   3   6  -1  316.57    6.60
  -3  -6   1  307.17    8.30
   2   6  -1  480.35    8.30
  -2  -6   1  483.95   10.10
   1   6  -1  147.39    4.20
   0   6  -1   34.90    2.30
   0   6  -1   33.50    2.20
  -1   6  -1    1.50    1.30
  -1   6  -1    0.60    1.20
  -2   6  -1  364.46    7.40
  -2   6  -1  365.46    6.80
  -3   6  -1  248.28    6.80
  -4   6  -1   33.40    3.40
  -5   6  -1   10.80    2.70
  -6   6  -1   59.89    5.10
  -7  -5   1   89.39    6.40
  -6  -5   1  115.49    6.30
  -5  -5   1  217.28    7.50
   4   5  -1  388.46    7.20
  -4  -5   1  401.16    9.40
   3   5  -1   10.80    1.50
  -3  -5   1   10.20    2.30
   2   5  -1  208.28    4.80
  -2  -5   1  209.38    6.10
   1   5  -1  243.18    5.10
   1   5  -1  238.98    3.70
   0   5  -1  310.17    5.70
   0   5  -1  318.87    5.20
  -1   5  -1  259.87    5.20
  -1   5  -1  275.07    5.40
  -2   5  -1  786.92   11.60
  -2   5  -1  781.72   10.40
  -3   5  -1  351.46    7.70
  -4   5  -1    6.50    2.00
  -5   5  -1    3.50    1.90
  -6   5  -1   59.49    5.00
  -7  -4   1   36.90    4.70
  -6  -4   1   90.09    5.50
  -5  -4   1  258.27    7.90
   4   4  -1  748.73   10.40
  -4  -4   1  768.82   13.30
   3   4  -1  366.96    6.30
  -3  -4   1  359.06    8.00
   2   4  -1 1009.80   12.10
  -2  -4   1  966.40   14.10
   1   4  -1 3909.71   37.20
  -1  -4   1 3824.12   42.50
   0   4  -1 1720.13   17.80
   0   4  -1 1721.83   18.20
  -1   4  -1  256.07    4.70
  -1   4  -1  243.58    4.80
  -2   4  -1  459.25    7.80
  -2   4  -1  474.55    6.90
  -3   4  -1  982.80   11.90
  -3   4  -1  964.80   13.90
  -4   4  -1  208.08    6.10
  -5   4  -1   44.60    3.80
  -6   4  -1   54.19    4.70
  -7  -3   1   27.80    4.10
  -6  -3   1   19.40    3.30
  -5  -3   1  299.37    8.30
   4   3  -1  712.23    9.50
  -4  -3   1  699.23   12.30
   3   3  -1  165.28    3.70
  -3  -3   1  161.48    5.00
   2   3  -1   17.60    1.50
  -2  -3   1   16.30    1.90
   1   3  -1 5276.97   48.20
  -1  -3   1 5145.58   54.89
   0   3  -1 2528.15   24.70
   0   3  -1 2548.65   24.60
  -1   3  -1   18.30    1.50
  -1   3  -1   18.60    1.40
  -2   3  -1   34.70    2.10
  -2   3  -1   33.80    1.80
  -3   3  -1  780.92   11.50
  -3   3  -1  761.82    9.60
  -4   3  -1  103.89    4.20
  -5   3  -1    0.70    1.70
  -6   3  -1   46.00    4.00
  -7   3  -1   43.70    4.40
  -7  -2   1   89.09    5.90
  -6  -2   1  100.89    5.50
  -5  -2   1  359.86    9.10
   4   2  -1  560.44    7.70
  -4  -2   1  574.24   10.70
   3   2  -1   83.09    2.40
  -3  -2   1   78.09    2.20
  -3  -2   1   78.99    3.40
   2   2  -1    3.40    0.80
  -2  -2   1    4.10    1.10
   1   2  -1 4566.34   41.70
  -1  -2   1 4547.54   47.50
   0   2  -1 6523.75   58.59
  -1   2  -1  128.89    2.90
  -1   2  -1  136.39    2.80
  -2   2  -1   45.90    1.80
  -2   2  -1   44.10    2.30
  -3   2  -1  432.86    6.20
  -3   2  -1  451.95    7.60
  -4   2  -1  265.87    6.50
  -5   2  -1   -1.00    1.40
  -6   2  -1   14.00    2.70
  -7   2  -1   62.29    5.00
  -7  -1   1   68.59    5.40
  -6  -1   1   33.10    3.80
  -5  -1   1   -0.20    1.60
  -4  -1   1  381.56    6.30
  -4  -1   1  370.76    8.30
   3   1  -1  430.46    5.60
  -3  -1   1  415.26    6.00
  -3  -1   1  429.16    7.90
   2   1  -1   17.90    1.10
  -2  -1   1   13.90    1.40
  -2  -1   1   19.50    1.20
   1   1  -1  119.19    2.10
   0   1  -1 2393.56   22.10
  -1   1  -1  800.92    8.50
  -2   1  -1  540.75    7.40
  -2   1  -1  536.75    6.50
  -3   1  -1 1370.06   16.20
  -3   1  -1 1355.36   14.40
  -4   1  -1  893.91   12.80
  -5   1  -1  232.88    6.30
  -6   1  -1  131.39    5.30
  -7   1  -1   43.00    4.50
  -7   0   1   33.50    4.10
  -6   0   1    0.90    1.70
  -5   0   1    1.50    1.60
  -5   0   1   -0.40    1.40
  -4   0   1 1099.19   13.70
   3   0  -1 1209.78   12.10
  -3   0   1 1215.38   13.80
   2   0  -1   26.00    1.00
  -2   0   1   24.60    1.40
   1   0  -1  366.56    3.80
  -1   0   1  359.76    5.10
   0   0  -1   -0.20    0.10
   1   0   1 3938.51   37.70
   2   0   1   41.20    1.50
  -3   0  -1  564.84    8.20
   3   0   1  570.34    7.20
  -4   0  -1  309.37    5.20
  -4   0  -1  314.77    6.30
  -5   0  -1  180.38    5.30
  -6   0  -1  120.49    4.80
  -7   0  -1  172.18    7.50
  -7   1   1   63.29    4.90
  -6   1   1   77.59    4.90
  -6   1   1   75.79    4.20
  -5   1   1    9.00    1.90
  -4   1   1  280.77    5.90
  -3   1   1  148.79    2.40
  -3   1   1  143.79    3.80
  -2   1   1  610.24    7.80
  -2   1   1  614.84    6.00
  -1   1   1 1648.94   16.30
   1   1   1 2978.40   27.20
   2   1   1  817.82    9.00
  -3  -1  -1  718.13    9.20
   3   1   1  704.73    8.60
  -4  -1  -1  266.07    5.40
   4   1   1  267.27    4.80
  -5  -1  -1  493.95    8.60
  -5  -1  -1  494.35   10.60
  -6  -1  -1  132.89    5.90
  -7  -1  -1    3.50    2.20
  -7   2   1  107.79    6.30
  -5   2   1   58.59    3.60
  -4   2   1   37.40    2.80
  -3   2   1  770.22   10.60
  -2   2   1  248.58    3.00
  -2   2   1  252.67    4.60
  -1   2   1  279.57    4.20
  -1   2   1  282.67    3.20
   0   2   1  254.67    3.20
  -2  -2  -1   68.39    2.50
   2   2   1   68.59    2.00
  -3  -2  -1  226.98    4.00
  -3  -2  -1  225.78    5.20
   3   2   1  227.78    4.20
  -4  -2  -1  605.44   10.70
  -4  -2  -1  597.64    8.50
   4   2   1  616.34    8.50
  -5  -2  -1   27.50    3.00
  -6  -2  -1   32.90    3.70
  -7  -2  -1   18.80    3.30
  -7   3   1   41.60    4.30
  -6   3   1   38.40    3.80
  -5   3   1    9.70    2.10
  -4   3   1   32.80    2.80
  -3   3   1  252.57    5.70
  -2   3   1  230.48    3.30
  -2   3   1  234.28    4.70
  -1   3   1  633.24    6.90
  -1   3   1  625.94    8.00
   0   3   1   72.99    1.90
  -1  -3  -1    2.10    1.00
   1   3   1    0.90    0.70
  -2  -3  -1 1473.35   17.50
   2   3   1 1496.05   15.60
  -3  -3  -1  127.89    4.00
  -3  -3  -1  126.99    2.70
   3   3   1  134.39    3.30
  -4  -3  -1  132.09    4.80
   4   3   1  132.89    3.60
  -5  -3  -1   87.89    4.60
  -6  -3  -1  102.09    5.40
  -7  -3  -1   74.59    5.40
  -7   4   1   63.09    5.40
  -6   4   1   51.79    4.30
  -5   4   1   12.30    2.30
  -4   4   1    8.60    2.00
  -3   4   1    1.40    1.30
  -2   4   1  220.48    3.60
  -2   4   1  214.78    4.80
  -1   4   1  273.37    4.90
  -1   4   1  279.07    4.30
   0   4   1  654.23    8.00
   0   4   1  655.73    7.90
  -1  -4  -1    0.10    1.10
   1   4   1    2.20    0.90
  -2  -4  -1   42.50    2.60
   2   4   1   46.30    2.10
  -3  -4  -1  183.38    5.00
   3   4   1  186.78    4.30
  -4  -4  -1   35.80    3.10
   4   4   1   30.50    2.20
  -5  -4  -1   28.60    3.10
   5   4   1   34.50    2.60
  -6  -4  -1  164.88    6.70
  -7  -4  -1   92.69    5.90
  -6   5   1   36.20    4.00
  -5   5   1  165.68    6.20
  -4   5   1  385.56    8.50
  -3   5   1  217.18    5.90
  -2   5   1  710.53   10.50
  -2   5   1  712.23    8.70
  -1   5   1  658.43    8.40
  -1   5   1  675.13    9.20
   0   5   1  233.18    4.20
   0   5   1  235.28    4.40
   1   5   1  372.26    6.10
  -2  -5  -1  582.04    9.60
   2   5   1  573.14    8.40
  -3  -5  -1  837.92   12.90
   3   5   1  836.62   11.30
  -4  -5  -1  251.57    6.90
   4   5   1  250.17    5.60
  -5  -5  -1   48.80    4.00
   5   5   1   57.49    3.10
  -6  -5  -1   43.90    4.30
  -7  -5  -1   17.10    3.60
  -6   6   1   21.10    3.60
  -5   6   1   87.29    4.80
  -4   6   1  211.88    6.50
  -3   6   1   97.29    4.40
  -2   6   1   -0.70    1.20
  -2   6   1    0.70    1.00
  -1   6   1 2568.84   27.10
  -1   6   1 2556.54   26.00
   0   6   1 1015.30   12.40
   0   6   1 1008.50   12.10
   1   6   1    5.20    1.30
   1   6   1    8.00    1.20
  -2  -6  -1  103.59    4.50
   2   6   1   95.19    3.30
  -3  -6  -1  834.02   13.40
   3   6   1  832.92   11.70
  -4  -6  -1   97.99    4.80
   4   6   1   97.09    3.80
  -5  -6  -1  172.68    6.60
   5   6   1  179.78    5.30
  -6  -6  -1  188.28    7.40
  -7  -6  -1   57.59    5.60
  -6   7   1   35.90    4.40
  -5   7   1  141.49    6.30
  -4   7   1   41.40    3.70
  -3   7   1   67.49    3.80
  -2   7   1  344.37    6.20
  -2   7   1  349.57    7.40
  -1   7   1  310.57    6.00
  -1   7   1  321.17    6.50
   0   7   1  389.86    6.60
   0   7   1  390.06    7.00
   1   7   1   61.39    2.30
   1   7   1   59.89    2.90
   2   7   1   74.09    3.20
  -3  -7  -1  112.69    5.20
   3   7   1  114.29    4.20
  -4  -7  -1  379.96    9.30
   4   7   1  381.96    7.90
  -5  -7  -1   44.50    4.20
   5   7   1   41.60    3.20
  -6  -7  -1   26.00    3.80
  -7  -7  -1   33.70    4.70
  -5   8   1   -1.20    2.20
  -4   8   1  237.68    7.60
  -3   8   1  116.09    4.90
  -2   8   1    9.80    2.00
  -1   8   1   58.29    2.90
  -1   8   1   57.79    3.00
   0   8   1  288.37    5.80
   0   8   1  284.27    6.20
   1   8   1    5.50    1.50
   2   8   1  771.02   11.80
  -3  -8  -1  654.03   12.80
   3   8   1  677.83   11.20
  -4  -8  -1    0.30    2.30
   4   8   1    1.00    1.40
  -5  -8  -1   58.99    5.10
   5   8   1   62.69    3.70
  -6  -8  -1   94.99    6.20
  -5   9   1   12.90    3.40
  -4   9   1   37.10    4.10
  -3   9   1   14.60    2.80
  -2   9   1   20.30    2.70
  -1   9   1   34.10    2.80
  -1   9   1   38.40    3.10
   0   9   1  177.68    5.20
   1   9   1  301.37    7.00
   2   9   1   30.50    2.70
   3   9   1   52.39    3.50
  -4  -9  -1  160.48    6.90
   4   9   1  156.78    5.40
  -5  -9  -1   75.39    5.60
   5   9   1   80.99    4.30
  -6  -9  -1   65.29    6.10
  -4  10   1   41.20    4.30
  -3  10   1   43.20    4.10
  -2  10   1   36.60    3.50
  -1  10   1  265.47    6.70
  -1  10   1  263.87    6.80
   0  10   1  413.56    8.70
   1  10   1   31.10    2.90
   2  10   1  200.58    6.10
   3  10   1  290.17    7.60
  -4 -10  -1  121.19    6.40
   4  10   1  112.69    4.90
  -5 -10  -1   25.10    4.30
   5  10   1   27.60    3.20
  -3  11   1   52.19    4.70
  -2  11   1    9.50    2.60
   0  11   1   34.90    3.30
   1  11   1  107.29    4.60
   2  11   1   58.69    3.70
   3  11   1  166.98    6.00
   4  11   1   90.89    4.80
  -3  12   1   49.60    4.90
   0  12   1   48.90    3.50
   1  12   1   19.70    2.80
   2  12   1    7.40    2.30
   3  12   1   16.60    2.80
   0  13   1   64.89    4.30
   1  13   1   -0.30    1.80
   2  11  -2   73.29    4.50
   1  11  -2   23.10    3.20
   0  11  -2   66.69    4.20
  -1  11  -2    9.90    2.60
  -5 -10   2   67.59    6.50
   4  10  -2   36.80    3.70
   3  10  -2   61.19    4.10
   2  10  -2    1.50    1.70
   1  10  -2   46.30    3.80
   0  10  -2   10.70    2.40
  -1  10  -2   95.79    4.70
  -3  10  -2   97.49    5.60
  -6  -9   2  111.49    7.70
   5   9  -2   -0.40    1.70
  -5  -9   2   -0.90    3.10
   4   9  -2   90.69    4.40
  -4  -9   2   90.89    6.30
   3   9  -2  112.59    4.80
   2   9  -2  172.18    5.80
   1   9  -2  111.69    4.70
   0   9  -2  106.99    4.60
  -1   9  -2   18.00    2.50
  -2   9  -2   66.39    3.90
  -2   9  -2   60.39    4.00
  -3   9  -2    6.00    2.40
  -4   9  -2    6.90    2.90
  -6  -8   2   16.90    4.30
   5   8  -2  139.19    5.20
  -5  -8   2  126.99    7.10
   4   8  -2   94.99    4.30
  -4  -8   2   99.49    6.30
   3   8  -2  134.39    5.10
  -3  -8   2  154.08    7.00
   2   8  -2  607.94   10.90
   1   8  -2  187.08    5.60
   0   8  -2   16.70    2.40
  -1   8  -2  391.86    8.00
  -1   8  -2  394.06    8.30
  -2   8  -2  293.47    7.10
  -2   8  -2  293.07    7.30
  -3   8  -2   29.70    3.40
  -4   8  -2    9.40    2.60
  -7  -7   2   71.59    6.60
  -6  -7   2   81.09    6.20
   5   7  -2  220.98    6.20
  -5  -7   2  216.88    8.50
   4   7  -2  134.59    4.70
  -4  -7   2  132.59    6.50
   3   7  -2  387.56    8.10
  -3  -7   2  380.76   10.10
   2   7  -2   54.29    3.10
   1   7  -2  188.18    5.40
   0   7  -2   95.19    3.90
   0   7  -2   92.89    3.40
  -1   7  -2   15.30    2.10
  -1   7  -2   10.90    2.00
  -2   7  -2  210.98    5.70
  -2   7  -2  209.78    6.10
  -3   7  -2  130.69    5.20
  -4   7  -2   16.50    2.80
  -5   7  -2   12.80    2.90
  -7  -6   2    5.00    3.50
  -6  -6   2   37.90    4.70
  -5  -6   2  270.57    8.90
   4   6  -2  130.09    4.40
  -4  -6   2  134.79    6.20
   3   6  -2  212.48    5.60
  -3  -6   2  221.18    7.40
   2   6  -2 1932.51   22.20
  -2  -6   2 1927.71   26.10
   1   6  -2  923.21   12.70
   0   6  -2  132.49    3.60
   0   6  -2  132.99    4.20
  -1   6  -2    0.40    1.20
  -1   6  -2    0.10    1.30
  -2   6  -2  198.28    5.10
  -2   6  -2  184.38    5.50
  -3   6  -2   16.30    2.60
  -4   6  -2  134.49    5.70
  -5   6  -2   14.30    2.90
  -7  -5   2   12.10    3.70
  -6  -5   2   57.69    5.40
  -5  -5   2    3.50    2.40
   4   5  -2   63.89    3.00
  -4  -5   2   64.79    4.60
   3   5  -2   47.50    2.80
  -3  -5   2   48.40    3.90
   2   5  -2   46.60    2.70
  -2  -5   2   47.20    3.80
   1   5  -2 1498.95   15.40
   1   5  -2 1453.95   17.20
   0   5  -2  391.26    6.90
   0   5  -2  391.26    6.20
  -1   5  -2    5.30    1.50
  -1   5  -2    3.40    1.40
  -2   5  -2  264.27    6.10
  -2   5  -2  257.47    5.60
  -3   5  -2 1310.87   16.00
  -3   5  -2 1284.07   17.80
  -4   5  -2    2.60    1.80
  -5   5  -2   12.80    2.60
  -6   5  -2   80.49    5.10
  -7  -4   2   33.70    4.50
  -6  -4   2   12.20    3.00
  -5  -4   2  659.33   13.50
   4   4  -2  595.94    9.10
  -4  -4   2  607.34   11.90
   3   4  -2  133.89    3.80
  -3  -4   2  134.29    5.30
   2   4  -2  121.49    3.50
  -2  -4   2  116.39    4.90
   1   4  -2 2185.98   22.80
  -1  -4   2 2146.09   26.20
   0   4  -2  198.38    3.80
   0   4  -2  199.38    4.30
  -1   4  -2  798.02   10.60
  -1   4  -2  782.82   10.30
  -2   4  -2  545.35    8.30
  -2   4  -2  543.25    9.00
  -3   4  -2  281.57    6.70
  -3   4  -2  280.17    5.70
  -4   4  -2  130.09    5.10
  -5   4  -2   19.20    3.00
  -6   4  -2   36.90    4.00
  -7  -3   2    6.00    3.00
  -6  -3   2    4.70    2.60
  -5  -3   2   97.79    5.20
   4   3  -2  896.21   11.30
  -4  -3   2  893.51   14.80
   3   3  -2  191.78    4.10
  -3  -3   2  177.68    5.50
   2   3  -2  437.16    6.60
  -2  -3   2  445.46    8.20
   1   3  -2 1378.36   15.00
  -1  -3   2 1364.66   17.60
   0   3  -2 4104.29   38.90
  -1   3  -2  204.78    4.10
  -2   3  -2  227.48    5.10
  -2   3  -2  224.28    4.60
  -3   3  -2  477.95    8.70
  -3   3  -2  476.35    7.40
  -4   3  -2  530.85   10.00
  -5   3  -2   86.69    4.60
  -6   3  -2  123.49    5.70
  -7   3  -2    9.70    3.00
  -7  -2   2  116.39    6.70
  -6  -2   2    6.90    2.50
  -5  -2   2  173.58    6.50
  -4  -2   2  516.65   10.40
   3   2  -2  454.35    6.40
  -3  -2   2  436.16    5.80
  -3  -2   2  453.25    8.60
   2   2  -2 1249.68   13.40
  -2  -2   2 1248.18   16.10
   1   2  -2  153.78    3.20
  -1  -2   2  155.48    4.20
   0   2  -2 1047.90   11.50
  -1   2  -2   22.20    1.60
  -2   2  -2    1.60    1.00
  -2   2  -2    1.10    0.90
  -3   2  -2  296.47    5.30
  -3   2  -2  294.97    6.20
  -4   2  -2    3.70    1.70
  -5   2  -2   76.89    4.20
  -6   2  -2    1.10    1.80
  -7   2  -2   43.80    4.50
  -7  -1   2   85.89    5.90
  -6  -1   2    2.50    2.20
  -5  -1   2  141.29    5.90
  -4  -1   2  240.58    6.80
  -4  -1   2  243.68    4.90
   3   1  -2  244.28    3.90
  -3  -1   2  236.58    5.90
  -3  -1   2  241.68    4.30
   2   1  -2   45.40    1.60
  -2  -1   2   46.50    2.40
  -2  -1   2   48.80    1.60
   1   1  -2    6.50    0.80
  -1  -1   2    7.40    1.20
   0   1  -2  258.27    3.90
  -1   1  -2  878.21    9.80
  -2   1  -2  413.26    5.90
  -3   1  -2   85.49    3.30
  -3   1  -2   90.89    2.70
  -4   1  -2  278.37    6.40
  -4   1  -2  284.57    5.30
  -5   1  -2   66.99    3.90
  -6   1  -2   40.30    3.70
  -7   0   2   29.90    4.00
  -6   0   2  126.49    6.10
  -5   0   2  345.37    7.00
  -5   0   2  334.07    8.90
  -4   0   2  132.69    3.80
  -4   0   2  129.59    5.00
   3   0  -2  759.72    7.90
  -3   0   2  739.73    9.50
  -3   0   2  733.83   11.50
   2   0  -2   27.60    1.00
  -2   0   2   27.50    2.00
  -2   0   2   28.60    1.70
   1   0  -2  151.58    2.30
  -1   0   2  157.88    3.20
   0   0  -2   90.49    1.80
  -1   0  -2  399.96    5.20
  -2   0  -2  275.97    4.40
  -3   0  -2  748.13    9.40
  -4   0  -2   42.40    2.30
  -4   0  -2   37.90    2.70
  -5   0  -2  128.29    4.60
  -6   0  -2  179.08    6.00
  -7   0  -2   25.80    3.60
  -7   1   2  122.49    6.70
  -6   1   2    4.10    2.10
  -5   1   2  380.96    9.60
  -5   1   2  384.46    7.80
  -4   1   2  148.09    4.30
  -3   1   2  830.92   10.70
  -2   1   2  687.53    8.60
  -1   1   2 5388.56   51.59
   0   1   2  129.49    2.00
   1   1   2 8885.01   84.29
   2   1   2 1070.19   11.60
   3   1   2   15.10    1.40
  -4  -1  -2    9.50    1.60
   4   1   2   12.00    1.50
  -5  -1  -2   88.99    3.80
  -6  -1  -2   85.69    4.90
  -7  -1  -2   44.20    4.60
  -7   2   2   47.80    4.80
  -6   2   2  296.27    7.80
  -5   2   2  213.48    6.10
  -4   2   2  108.29    4.00
  -3   2   2  372.76    6.60
  -2   2   2  885.71   10.80
  -1   2   2  366.56    3.80
  -1   2   2  368.86    5.30
   0   2   2 5603.84   50.09
   0   2   2 5363.26   53.39
   1   2   2  487.65    5.90
   1   2   2  496.75    6.10
  -2  -2  -2  933.91   11.50
   2   2   2  923.51   10.60
  -3  -2  -2  243.28    5.30
   3   2   2  230.78    4.40
  -4  -2  -2  156.78    4.10
  -4  -2  -2  156.98    5.00
   4   2   2  158.28    4.00
  -5  -2  -2   28.40    3.00
  -5  -2  -2   29.80    2.50
  -6  -2  -2  175.58    6.70
  -7  -2  -2    1.20    2.10
  -7   3   2   27.80    3.80
  -6   3   2  115.59    5.30
  -5   3   2  269.87    7.00
  -4   3   2  653.23   10.70
  -3   3   2   96.59    3.70
  -2   3   2 3510.45   35.20
  -1   3   2 2372.46   24.00
  -1   3   2 2375.26   21.90
   0   3   2  391.76    4.90
   1   3   2 1870.61   18.50
   1   3   2 1863.11   18.30
  -2  -3  -2  572.64    7.90
   2   3   2  550.54    7.40
  -3  -3  -2  450.75    7.70
   3   3   2  441.56    6.80
  -4  -3  -2    2.80    1.10
  -4  -3  -2    1.90    1.30
   4   3   2    2.30    1.10
  -5  -3  -2   83.09    4.40
   5   3   2   83.69    3.30
  -6  -3  -2    1.80    1.90
  -7  -3  -2    4.60    2.40
  -8  -3  -2    1.00    2.60
  -7   4   2    6.60    3.00
  -6   4   2   13.90    2.90
  -5   4   2  176.48    6.00
  -4   4   2   33.30    3.00
  -3   4   2   72.89    3.50
  -2   4   2   38.20    1.40
  -2   4   2   37.80    2.30
  -1   4   2 1822.62   19.70
  -1   4   2 1878.81   18.00
   0   4   2   56.69    1.90
  -1  -4  -2 1014.20   12.40
   1   4   2 1019.60   10.80
   1   4   2 1023.20   11.50
  -2  -4  -2  350.56    6.00
   2   4   2  334.77    5.60
  -3  -4  -2 1163.48   15.30
   3   4   2 1164.58   14.00
  -4  -4  -2    1.20    1.40
   4   4   2    3.10    1.10
  -5  -4  -2   36.50    3.40
   5   4   2   37.00    2.50
  -6  -4  -2  248.78    8.00
  -7  -4  -2  121.09    6.40
  -6   5   2   50.09    4.50
  -5   5   2   47.00    3.90
  -4   5   2  232.68    6.50
  -3   5   2    3.20    1.50
  -2   5   2   24.50    1.50
  -2   5   2   25.60    2.20
  -1   5   2  875.11   11.30
  -1   5   2  884.81   10.10
   0   5   2  524.05    7.20
   0   5   2  526.15    7.20
   1   5   2    2.00    0.80
   1   5   2    0.60    0.80
  -2  -5  -2 2069.29   24.20
   2   5   2 2063.79   20.20
   2   5   2 2089.49   22.00
  -3  -5  -2  505.35    8.90
   3   5   2  502.25    8.10
  -4  -5  -2  152.58    5.20
   4   5   2  150.48    4.40
  -5  -5  -2  103.49    5.00
   5   5   2  116.09    4.20
  -6  -5  -2  250.97    8.10
  -7  -5  -2   -1.60    2.30
  -6   6   2   19.10    3.50
  -5   6   2  125.19    5.70
  -4   6   2  313.87    8.00
  -3   6   2  177.78    5.40
  -2   6   2  179.28    5.10
  -2   6   2  179.58    3.70
  -1   6   2 1377.46   15.10
  -1   6   2 1352.26   16.30
   0   6   2  712.23    9.40
   0   6   2  723.13    9.40
   1   6   2 1143.49   12.50
   1   6   2 1145.79   13.80
  -2  -6  -2  905.51   13.10
   2   6   2  901.81   11.90
  -3  -6  -2 1059.89   15.30
   3   6   2 1078.09   14.00
  -4  -6  -2  454.05    9.50
   4   6   2  470.35    8.50
  -5  -6  -2  117.19    5.40
   5   6   2  117.29    4.30
  -6  -6  -2  130.99    6.30
  -6   7   2    5.70    2.80
  -5   7   2   50.59    4.50
  -4   7   2   46.10    3.80
  -3   7   2   40.70    3.30
  -2   7   2   19.20    2.40
  -1   7   2  856.71   11.90
  -1   7   2  851.21   11.10
   0   7   2 1361.46   16.10
   0   7   2 1382.76   16.00
   1   7   2   48.20    2.30
   1   7   2   45.40    2.50
   2   7   2  214.98    5.30
  -3  -7  -2  251.97    6.90
   3   7   2  257.17    6.00
  -4  -7  -2    7.30    2.40
   4   7   2    7.40    1.80
  -5  -7  -2  105.99    5.40
   5   7   2  109.79    4.40
  -6  -7  -2  189.08    7.50
  -5   8   2    6.00    2.60
  -4   8   2  167.88    6.40
  -3   8   2   13.10    2.40
  -2   8   2  353.56    7.80
  -1   8   2  168.58    4.90
  -1   8   2  158.18    4.40
   0   8   2  179.88    4.70
   0   8   2  186.88    4.80
   1   8   2    0.00    1.10
   2   8   2  177.58    5.00
  -3  -8  -2  329.17    8.40
   3   8   2  319.57    7.20
  -4  -8  -2   76.39    4.90
   4   8   2   76.79    3.80
  -5  -8  -2    7.90    2.70
   5   8   2    5.70    1.80
   6   8   2   17.70    2.60
  -5   9   2   -0.10    2.50
  -4   9   2   34.70    3.80
  -3   9   2  108.49    5.20
  -2   9   2    3.90    2.10
  -1   9   2   30.40    2.80
  -1   9   2   29.30    2.50
   0   9   2    6.80    1.60
   0   9   2    9.40    1.80
   1   9   2  111.49    4.10
   2   9   2   54.79    3.10
   3   9   2  337.37    7.80
  -4  -9  -2   17.90    3.20
   4   9   2   15.50    2.40
  -5  -9  -2   64.89    5.20
   5   9   2   67.59    4.00
   6   9   2   68.89    4.20
  -4  10   2   16.70    3.40
  -3  10   2   25.70    3.40
  -2  10   2    2.20    2.10
  -1  10   2  133.79    4.60
  -1  10   2  142.19    5.00
   0  10   2  205.88    5.70
   1  10   2   16.80    2.30
   2  10   2   19.20    2.40
   3  10   2   27.30    2.90
  -4 -10  -2  103.69    6.00
   4  10   2   89.79    4.50
   5  10   2   31.20    3.30
  -4  11   2   21.70    3.70
  -3  11   2    2.00    2.40
  -2  11   2   70.09    4.30
   0  11   2  195.88    5.90
   1  11   2   80.99    4.10
   2  11   2  185.88    6.10
   3  11   2  131.09    5.30
   4  11   2  266.47    7.70
   5  11   2   35.40    3.70
  -3  12   2   39.40    4.40
   0  12   2   23.30    2.70
   1  12   2   26.40    3.00
   2  12   2   35.60    3.50
   3  12   2  105.89    5.10
   0  13   2   32.20    3.40
   1  13   2   62.19    4.00
   2  13   2   13.60    2.80
  -5 -10   3   27.40    4.90
   3  10  -3   22.00    3.10
   2  10  -3   86.59    4.70
   1  10  -3   25.30    3.30
   0  10  -3   23.60    3.10
  -1  10  -3   50.09    4.10
  -3  10  -3   10.90    3.10
   5   9  -3   62.59    4.00
  -5  -9   3   66.49    6.30
   4   9  -3    3.50    2.00
  -4  -9   3    4.00    3.20
   3   9  -3   36.40    3.40
   2   9  -3   80.89    4.40
   1   9  -3   67.49    3.90
   0   9  -3    0.20    1.60
  -1   9  -3   81.89    4.20
  -2   9  -3  108.89    5.00
  -3   9  -3   54.69    4.50
  -4   9  -3   21.10    3.60
  -6  -8   3  110.49    7.50
  -5  -8   3   90.39    6.60
   4   8  -3    6.50    1.80
  -4  -8   3    4.00    3.10
   3   8  -3  101.69    4.50
   2   8  -3  474.75    9.70
   1   8  -3  586.14   10.90
   0   8  -3   96.59    4.30
  -1   8  -3   25.70    2.70
  -1   8  -3   23.30    2.80
  -2   8  -3  175.18    6.00
  -2   8  -3  172.78    5.80
  -3   8  -3   34.60    3.50
  -4   8  -3   -2.10    1.90
  -6  -7   3   37.00    5.10
  -5  -7   3  163.98    7.90
   4   7  -3  115.29    4.60
  -4  -7   3  125.49    6.70
   3   7  -3   61.79    3.50
  -3  -7   3   58.39    5.00
   2   7  -3  605.34   10.70
   1   7  -3   93.59    4.00
   0   7  -3   80.19    4.00
  -1   7  -3  106.09    4.10
  -1   7  -3  103.49    4.20
  -2   7  -3  355.56    8.20
  -2   7  -3  365.96    8.00
  -3   7  -3  133.19    5.40
  -4   7  -3   26.80    3.50
  -5   7  -3    0.30    2.20
  -7  -6   3   -4.00    3.00
  -6  -6   3   44.90    5.20
  -5  -6   3  333.37   10.20
   4   6  -3  503.15    9.20
  -4  -6   3  501.55   12.00
   3   6  -3   -1.10    1.20
  -3  -6   3    5.90    2.70
   2   6  -3    2.50    1.50
  -2  -6   3   22.70    3.30
   1   6  -3  578.44    9.80
   0   6  -3   23.30    2.00
   0   6  -3   20.40    2.40
  -1   6  -3    0.70    1.30
  -1   6  -3    1.40    1.40
  -2   6  -3   53.29    3.20
  -2   6  -3   54.79    3.40
  -3   6  -3   48.30    3.60
  -3   6  -3   46.00    3.10
  -4   6  -3    1.90    2.10
  -5   6  -3   54.19    4.60
  -7  -5   3    0.20    3.10
  -6  -5   3   14.50    3.50
  -5  -5   3  144.59    6.80
   4   5  -3   10.10    1.70
  -4  -5   3   13.60    2.90
   3   5  -3    0.80    1.10
  -3  -5   3    6.20    2.50
   2   5  -3  125.09    4.00
  -2  -5   3  118.29    5.50
   1   5  -3 1034.70   13.70
   0   5  -3  253.97    5.00
   0   5  -3  252.57    5.80
  -1   5  -3   23.70    2.30
  -1   5  -3   18.00    2.00
  -2   5  -3    3.20    1.50
  -2   5  -3    5.20    1.60
  -3   5  -3  260.77    6.20
  -3   5  -3  274.97    7.10
  -4   5  -3  188.78    6.50
  -5   5  -3   14.60    2.90
  -6   5  -3   25.40    3.70
  -7  -4   3   26.80    4.50
  -6  -4   3    0.00    2.50
  -5  -4   3   90.89    5.50
   4   4  -3  191.38    4.70
  -4  -4   3  188.78    6.80
   3   4  -3    1.30    1.00
  -3  -4   3    1.10    2.00
   2   4  -3   12.40    1.60
  -2  -4   3    6.60    2.20
   1   4  -3  199.58    4.70
   0   4  -3   88.59    3.30
  -1   4  -3    7.80    1.50
  -2   4  -3  975.80   13.60
  -2   4  -3 1001.10   13.10
  -3   4  -3  152.48    5.20
  -3   4  -3  147.39    4.60
  -4   4  -3   75.09    4.20
  -5   4  -3   23.60    3.10
  -6   4  -3   25.90    3.60
  -7  -3   3   56.39    5.70
  -6  -3   3   10.80    3.00
  -5  -3   3  223.28    7.60
   4   3  -3  534.05    8.10
  -4  -3   3  528.95   11.00
   3   3  -3  498.25    7.60
  -3  -3   3  508.35   10.10
   2   3  -3  144.99    3.70
  -2  -3   3  158.98    5.20
   1   3  -3  210.88    4.50
  -1  -3   3  216.38    5.70
   0   3  -3 1591.54   17.50
  -1   3  -3  996.70   12.50
  -2   3  -3  215.68    4.90
  -3   3  -3  210.18    5.70
  -3   3  -3  211.88    5.00
  -4   3  -3   46.60    3.30
  -5   3  -3   90.89    4.80
  -6   3  -3   38.20    4.00
  -7  -2   3  100.29    6.40
  -6  -2   3   17.50    3.20
  -5  -2   3   10.00    2.50
  -4  -2   3  230.28    6.80
   3   2  -3  452.15    6.60
  -3  -2   3  447.56    8.90
  -3  -2   3  461.45    6.20
   2   2  -3 1138.39   12.60
  -2  -2   3 1133.09   11.90
  -2  -2   3 1096.19   15.30
   1   2  -3  462.75    6.60
  -1  -2   3  466.35    8.00
   0   2  -3  361.56    5.80
  -1   2  -3  253.87    4.70
  -2   2  -3   54.59    2.60
  -3   2  -3    3.70    1.50
  -3   2  -3    3.00    1.30
  -4   2  -3   53.79    3.30
  -4   2  -3   53.99    2.90
  -5   2  -3  164.38    5.70
  -6   2  -3   36.80    3.80
  -7   2  -3    1.40    2.50
  -7  -1   3  105.19    6.50
  -6  -1   3  195.38    7.70
  -5  -1   3  146.19    6.00
  -4  -1   3  799.22   13.70
   3   1  -3  311.47    4.70
  -3  -1   3  312.67    5.20
  -3  -1   3  325.97    7.10
   2   1  -3   69.39    2.00
  -2  -1   3   72.69    3.10
  -2  -1   3   70.89    2.20
   1   1  -3  497.65    6.40
  -1  -1   3  506.75    7.80
  -1  -1   3  497.35    6.30
   0   1  -3    6.20    1.00
  -1   1  -3  127.39    3.10
  -2   1  -3  327.27    5.50
  -3   1  -3   26.60    2.00
  -4   1  -3   53.49    3.10
  -4   1  -3   52.29    2.70
  -5   1  -3   -1.30    1.40
  -6   1  -3    7.70    2.40
  -7   1  -3    0.30    2.20
  -7   0   3    4.40    2.60
  -6   0   3  190.68    7.60
  -5   0   3  302.37    8.50
  -4   0   3   73.79    4.10
  -4   0   3   66.99    3.00
   3   0  -3  477.65    5.70
  -3   0   3  492.65    9.00
  -3   0   3  495.85    7.20
   2   0  -3 1244.18   12.30
  -2   0   3 1248.08   13.50
  -2   0   3 1232.48   15.70
  -1   0   3  488.25    6.30
  -1   0   3  494.15    7.20
   0   0  -3  749.33    8.50
   0   0   3  745.63    8.70
   0   0   3  736.63    9.20
  -1   0  -3  715.93    8.60
  -2   0  -3   36.60    1.80
  -3   0  -3  334.17    5.80
  -4   0  -3  198.58    4.60
  -4   0  -3  193.48    5.30
  -5   0  -3  134.59    5.00
  -6   0  -3   63.79    4.10
  -7   1   3  130.59    6.90
  -6   1   3   16.20    3.10
  -5   1   3   52.79    3.40
  -5   1   3   59.19    4.20
  -4   1   3  267.07    5.90
  -4   1   3  266.67    7.20
  -3   1   3  377.66    6.50
  -3   1   3  380.06    7.80
   2  -1  -3 2230.28   20.10
  -2   1   3 2226.38   25.40
  -2   1   3 2185.68   22.70
  -1   1   3 2630.74   25.90
  -1   1   3 2651.33   28.10
   0  -1  -3  305.87    4.20
   0   1   3  317.07    4.60
   1   1   3 1299.97   13.60
   2   1   3 5395.36   49.99
   3   1   3  150.78    3.70
  -4  -1  -3   19.50    2.10
   4   1   3   17.10    1.80
  -5  -1  -3  218.68    6.00
  -6  -1  -3  153.18    5.50
  -7  -1  -3    4.00    2.10
  -7   2   3    1.50    2.10
  -6   2   3  155.98    6.80
  -5   2   3  527.75    9.80
  -4   2   3  184.38    5.10
  -3   2   3   68.99    3.00
  -2   2   3 2965.40   30.00
   1  -2  -3   87.69    1.60
  -1   2   3   91.69    2.60
   0   2   3 5464.15   53.49
   0   2   3 5490.25   51.49
   1   2   3 9999.00   91.59
   1   2   3 9700.33   97.09
   2   2   3 2909.51   28.40
   3   2   3  817.32   10.50
   4   2   3  165.98    4.30
  -5  -2  -3   68.19    4.00
  -5  -2  -3   75.39    3.50
   5   2   3   79.49    3.40
  -6  -2  -3  114.99    5.40
  -7  -2  -3   79.29    5.30
  -7   3   3   11.90    3.10
  -6   3   3   55.29    4.10
  -5   3   3  323.17    7.80
  -4   3   3  429.36    8.40
  -3   3   3    1.70    1.30
  -2   3   3   90.09    3.20
  -1   3   3 8624.24   77.29
  -1   3   3 8432.26   79.29
   0   3   3   33.60    1.40
   0   3   3   34.10    1.80
   1   3   3  182.28    3.50
   1   3   3  179.48    3.50
  -2  -3  -3 1640.74   18.30
   2   3   3 1633.14   17.50
  -3  -3  -3 1105.49   14.40
   3   3   3 1119.79   13.40
  -4  -3  -3    4.60    1.40
   4   3   3    4.30    1.30
  -5  -3  -3  763.62   13.30
   5   3   3  761.22   11.30
  -6  -3  -3   66.19    4.50
  -7  -3  -3    9.30    2.70
  -6   4   3    9.90    2.70
  -5   4   3  155.88    5.60
  -4   4   3  107.79    4.50
  -3   4   3  171.38    4.80
  -2   4   3 1366.26   12.80
  -2   4   3 1327.37   16.10
  -1   4   3 1740.93   17.00
  -1   4   3 1775.62   19.10
   0   4   3  562.04    7.50
   0   4   3  571.74    7.00
   1   4   3  158.88    3.40
   1   4   3  165.88    3.30
  -2  -4  -3  767.42   10.00
   2   4   3  774.82    9.90
  -3  -4  -3  274.07    5.60
   3   4   3  272.97    5.40
  -4  -4  -3  317.07    7.00
   4   4   3  303.97    6.20
  -5  -4  -3    7.20    2.00
   5   4   3    7.00    1.60
  -6  -4  -3  150.78    6.20
  -7   5   3   -0.50    2.90
  -6   5   3    1.90    2.40
  -5   5   3   54.79    4.00
  -4   5   3   16.70    2.40
  -3   5   3   16.80    2.20
  -2   5   3    1.70    0.70
  -2   5   3    1.60    1.40
  -1   5   3  566.44    7.10
  -1   5   3  559.04    8.40
   0   5   3  189.78    4.10
   0   5   3  194.68    3.80
   1   5   3  115.49    2.90
   1   5   3  116.19    3.20
  -2  -5  -3 1126.79   14.10
   2   5   3 1130.69   12.40
   2   5   3 1124.69   13.60
  -3  -5  -3  227.68    5.40
   3   5   3  212.98    5.00
  -4  -5  -3    6.70    1.60
   4   5   3    8.10    1.60
  -5  -5  -3  195.88    6.30
   5   5   3  200.18    5.50
  -6  -5  -3  353.06    9.40
  -6   6   3   -1.70    2.40
  -5   6   3   30.30    3.40
  -4   6   3  189.38    6.10
  -3   6   3  103.39    4.30
  -2   6   3   41.90    3.00
  -1   6   3  420.46    7.40
  -1   6   3  418.96    6.20
   0   6   3    9.50    1.50
   0   6   3    7.60    1.20
   1   6   3    3.60    1.10
   1   6   3    3.20    1.10
  -2  -6  -3  598.14    9.40
   2   6   3  595.74    9.10
   2   6   3  599.84    7.60
  -3  -6  -3  448.16    8.40
   3   6   3  463.65    8.10
  -4  -6  -3   92.39    4.30
   4   6   3   94.29    3.80
  -5  -6  -3  193.48    6.40
   5   6   3  190.08    5.50
  -6   7   3   -3.00    2.50
  -5   7   3   31.50    3.60
  -4   7   3  125.29    5.40
  -3   7   3   23.90    2.70
  -2   7   3  453.15    8.70
  -1   7   3   10.70    1.50
  -1   7   3   13.20    1.90
   0   7   3  423.06    7.10
   0   7   3  435.86    7.10
   1   7   3  236.88    5.20
   1   7   3  234.88    4.60
   2   7   3  327.87    6.60
  -3  -7  -3  441.76    8.80
   3   7   3  428.56    8.10
  -4  -7  -3  275.77    7.20
   4   7   3  264.27    6.50
   5   7   3   45.00    3.20
   6   7   3  204.98    6.40
  -5   8   3   23.40    3.50
  -4   8   3  107.29    5.40
  -3   8   3    5.30    2.00
  -2   8   3   24.60    2.70
  -1   8   3  954.10   12.30
  -1   8   3  944.81   13.40
   0   8   3  136.49    4.00
   0   8   3  131.69    4.10
   1   8   3   27.60    2.10
   1   8   3   23.40    2.20
   2   8   3   50.99    3.00
  -3  -8  -3  170.48    5.90
   3   8   3  160.68    5.00
  -4  -8  -3   14.60    2.80
   4   8   3   14.20    2.20
   5   8   3   99.09    4.50
   6   8   3    4.60    1.80
  -5   9   3   61.39    5.20
  -4   9   3   -3.80    1.90
  -3   9   3  119.89    5.40
  -2   9   3  254.47    6.90
  -1   9   3   46.00    3.40
  -1   9   3   45.00    2.60
   0   9   3   10.90    2.00
   0   9   3    8.20    1.70
   1   9   3  151.78    4.80
   2   9   3   82.59    3.70
   3   9   3  162.68    5.40
   4   9   3  308.97    7.70
   5   9   3   11.80    2.40
   6   9   3    2.80    2.00
  -4  10   3   63.79    4.70
  -3  10   3   16.50    3.10
  -2  10   3    3.60    2.20
  -1  10   3   15.90    2.60
   0  10   3  121.09    4.40
   1  10   3    4.10    1.60
   2  10   3  240.08    6.50
   3  10   3    9.10    2.00
   4  10   3    2.90    1.70
   5  10   3   97.29    4.90
  -4  11   3   14.00    3.50
  -3  11   3   12.00    3.10
  -2  11   3   60.09    4.00
  -1  11   3  139.39    5.40
   0  11   3  100.89    4.20
   1  11   3  389.16    8.60
   2  11   3    8.00    1.90
   3  11   3   17.90    2.50
   4  11   3   48.90    4.00
   5  11   3  212.28    7.20
  -3  12   3   16.30    3.60
  -2  12   3   41.70    4.20
   0  12   3   53.79    3.60
   1  12   3   44.50    3.60
   2  12   3  160.58    5.90
   3  12   3  139.69    5.70
   4  12   3   64.69    4.30
   1  13   3   21.70    2.90
   2  13   3  108.79    5.10
   2  10  -4    2.80    2.10
   1  10  -4   65.79    4.30
   0  10  -4    7.50    2.50
  -1  10  -4   28.70    3.60
  -5  -9   4   27.40    5.00
   4   9  -4   55.79    4.30
   3   9  -4    5.10    2.10
   2   9  -4  156.18    6.00
   1   9  -4   28.70    3.40
   0   9  -4   13.70    2.70
  -1   9  -4    5.10    2.30
  -2   9  -4  144.89    6.00
  -3   9  -4   25.10    3.50
  -5  -8   4  237.48    9.90
   4   8  -4    2.40    1.80
  -4  -8   4   -2.40    2.80
   3   8  -4   -0.40    1.70
   2   8  -4  175.88    6.00
   1   8  -4  128.69    5.30
   0   8  -4   11.70    2.30
  -1   8  -4   38.50    3.50
  -2   8  -4   24.00    3.00
  -2   8  -4   23.70    3.10
  -3   8  -4   70.09    4.60
  -4   8  -4   14.20    3.20
  -6  -7   4  126.99    7.90
  -5  -7   4   60.79    5.80
   4   7  -4   77.69    3.90
  -4  -7   4   78.29    6.00
   3   7  -4   59.49    3.60
  -3  -7   4   68.89    5.50
   2   7  -4  166.08    5.50
   1   7  -4  744.13   12.50
   0   7  -4  190.58    5.90
  -1   7  -4   42.80    3.30
  -1   7  -4   47.50    3.30
  -2   7  -4  159.38    5.60
  -2   7  -4  159.68    5.50
  -3   7  -4   80.09    4.70
  -4   7  -4    5.50    2.40
  -6  -6   4   10.10    3.70
  -5  -6   4  201.78    8.40
   4   6  -4  268.07    6.70
  -4  -6   4  252.97    8.90
   3   6  -4   23.00    2.50
  -3  -6   4   22.90    3.80
   2   6  -4  236.48    6.20
   1   6  -4    1.10    1.50
   0   6  -4   21.80    2.60
   0   6  -4   22.50    2.10
  -1   6  -4  171.88    5.40
  -1   6  -4  180.18    5.20
  -2   6  -4  141.09    5.00
  -2   6  -4  143.59    5.20
  -3   6  -4   48.50    3.50
  -3   6  -4   54.79    3.50
  -4   6  -4   61.09    4.40
  -5   6  -4    4.90    2.40
  -6  -5   4   13.60    3.60
  -5  -5   4  167.38    7.40
   4   5  -4  202.38    5.50
  -4  -5   4  210.78    7.70
   3   5  -4  329.77    7.00
  -3  -5   4  332.27    9.30
   2   5  -4   67.99    3.30
  -2  -5   4   76.49    5.00
   1   5  -4  529.45    9.30
   0   5  -4  339.37    7.20
  -1   5  -4   35.20    2.90
  -1   5  -4   31.20    2.60
  -2   5  -4    1.20    1.50
  -2   5  -4    1.10    1.60
  -3   5  -4    2.30    1.60
  -3   5  -4    0.70    1.80
  -4   5  -4   -1.30    1.80
  -5   5  -4   46.30    4.30
  -7  -4   4   38.20    5.10
  -6  -4   4   -0.80    2.50
  -5  -4   4   51.09    4.80
   4   4  -4   19.00    2.00
  -4  -4   4   17.90    3.20
   3   4  -4   -1.10    1.10
  -3  -4   4    2.60    2.20
   2   4  -4  558.14    9.00
  -2  -4   4  549.85   11.20
   1   4  -4  146.79    4.40
   0   4  -4  269.47    5.90
  -1   4  -4   97.29    3.90
  -2   4  -4   77.09    3.60
  -2   4  -4   82.39    3.80
  -3   4  -4    3.80    1.70
  -3   4  -4    1.50    1.70
  -4   4  -4  186.58    6.40
  -5   4  -4   61.59    4.40
  -6   4  -4   10.70    2.80
  -7  -3   4   24.00    4.40
  -6  -3   4  194.48    8.00
  -5  -3   4   31.20    3.80
  -4  -3   4  378.36    9.50
   3   3  -4  488.95    7.70
  -3  -3   4  488.95   10.20
   2   3  -4  577.94    8.70
  -2  -3   4  579.04   10.80
   1   3  -4   49.50    2.80
  -1  -3   4   50.09    3.80
   0   3  -4   27.30    2.30
  -1   3  -4  396.26    7.20
  -2   3  -4  429.96    7.80
  -3   3  -4  179.98    5.00
  -3   3  -4  180.88    5.50
  -4   3  -4   13.10    2.00
  -4   3  -4    5.30    1.90
  -5   3  -4   21.50    3.00
  -6   3  -4    5.80    2.40
  -7  -2   4   95.49    6.50
  -6  -2   4   90.99    5.80
  -5  -2   4  170.18    6.80
  -4  -2   4  169.18    6.20
   3   2  -4 1241.68   14.20
  -3  -2   4 1239.18   18.00
   2   2  -4 1086.19   12.80
  -2  -2   4 1095.49   12.20
  -2  -2   4 1082.39   15.50
   1   2  -4 2053.89   21.40
  -1  -2   4 2042.10   24.80
   0   2  -4   14.60    1.60
  -1   2  -4 1857.81   20.20
  -2   2  -4  580.14    8.80
  -3   2  -4   79.99    3.40
  -4   2  -4   54.49    3.10
  -4   2  -4   52.69    3.40
  -5   2  -4  300.17    8.00
  -6   2  -4   48.20    4.30
  -7   2  -4   -0.10    2.50
  -7  -1   4   51.49    5.40
  -6  -1   4  192.08    7.80
  -5  -1   4  170.38    6.70
  -4  -1   4   49.40    3.80
   3   1  -4  405.36    5.90
  -3  -1   4  399.76    6.30
  -3  -1   4  407.76    8.50
   2   1  -4 2031.30   20.50
  -2  -1   4 2009.30   20.80
  -2  -1   4 2051.99   24.60
   1   1  -4   18.60    1.50
  -1  -1   4   22.00    1.60
  -1  -1   4   18.00    1.90
   0   1  -4  426.66    6.40
  -1   1  -4  942.71   11.50
  -2   1  -4  658.43    9.30
  -3   1  -4    9.20    1.60
  -4   1  -4  138.69    4.30
  -4   1  -4  139.39    4.90
  -5   1  -4   27.20    3.00
  -6   1  -4   47.00    4.10
  -7   1  -4    6.00    2.60
  -7   0   4    7.60    3.00
  -6   0   4  238.08    8.50
  -5   0   4  480.85   11.20
  -4   0   4  140.49    5.40
  -4   0   4  139.09    4.30
  -3   0   4  119.59    3.60
  -3   0   4  116.29    4.40
   2   0  -4  477.65    6.10
  -2   0   4  473.25    8.10
  -2   0   4  473.35    6.80
   1   0  -4 1295.07   13.70
  -1   0   4 1310.07   14.30
  -1   0   4 1294.57   15.80
   0   0  -4  408.76    5.90
   0   0   4  407.86    6.10
  -1   0  -4 1071.59   12.30
  -2   0  -4 2354.86   24.30
  -3   0  -4  105.49    3.60
  -4   0  -4   11.50    1.80
  -5   0  -4  155.78    5.30
  -6   0  -4   -1.60    1.70
  -7   1   4    4.70    2.90
  -6   1   4    9.80    2.70
  -5   1   4  230.48    6.10
  -5   1   4  217.98    7.40
  -4   1   4   58.49    3.80
  -4   1   4   60.19    3.20
  -3   1   4   36.30    2.50
  -3   1   4   23.40    2.40
   2  -1  -4 1526.75   14.70
  -2   1   4 1531.65   18.80
  -2   1   4 1511.45   16.80
   1  -1  -4 1852.51   18.10
  -1   1   4 1856.41   19.40
  -1   1   4 1874.81   20.90
   0  -1  -4   66.79    2.10
   0   1   4   60.69    2.30
  -1  -1  -4  396.96    5.90
  -2  -1  -4  528.95    7.70
  -3  -1  -4  482.85    7.70
  -4  -1  -4  316.17    6.40
  -5  -1  -4  363.16    8.00
  -6  -1  -4  155.68    5.70
  -7   2   4    2.80    2.30
  -6   2   4   73.79    5.00
  -5   2   4    3.60    1.80
  -5   2   4    4.30    1.90
  -4   2   4  218.68    5.70
  -4   2   4  230.88    6.90
  -3   2   4   96.19    4.10
  -3   2   4  101.89    3.50
   2  -2  -4 2607.44   23.20
  -2   2   4 2571.14   29.30
  -2   2   4 2550.44   26.70
   1  -2  -4  965.20   10.00
  -1   2   4  994.80   11.90
  -1   2   4  976.90   11.60
   0   2   4   98.99    2.30
   0   2   4   96.99    2.90
   1   2   4  752.22    9.50
   1   2   4  747.93    9.10
   2   2   4 2192.18   22.60
   3   2   4  158.88    4.10
   4   2   4   37.10    2.30
  -5  -2  -4  214.88    5.50
  -5  -2  -4  212.38    5.90
   5   2   4  212.68    5.60
  -6  -2  -4   99.19    5.10
  -7   3   4    1.50    2.20
  -6   3   4    3.70    2.00
  -6   3   4    3.40    2.30
  -5   3   4  321.77    7.70
  -4   3   4  196.58    5.70
  -3   3   4   47.90    3.10
  -2   3   4    6.40    1.40
  -1   3   4 1474.45   16.50
  -1   3   4 1490.95   14.40
   0   3   4   50.39    2.20
   0   3   4   52.09    1.80
   1   3   4 2514.05   25.00
   1   3   4 2547.45   25.70
  -2  -3  -4 1421.66   15.90
   2   3   4 1429.96   15.90
  -3  -3  -4  416.86    7.00
   3   3   4  410.36    7.00
  -4  -3  -4   27.50    2.40
   4   3   4   34.40    2.50
  -5  -3  -4  327.17    7.90
  -5  -3  -4  324.07    6.90
   5   3   4  320.17    7.00
  -6   4   4   16.40    3.10
  -5   4   4  294.57    7.70
  -4   4   4   51.69    3.40
  -3   4   4  118.79    4.30
  -2   4   4  338.67    6.50
  -1   4   4  208.18    3.40
   0   4   4  114.99    2.70
   0   4   4  107.89    3.10
   1   4   4   83.59    2.70
   1   4   4   83.89    2.60
  -2  -4  -4   17.80    1.30
   2   4   4   20.10    1.60
   2   4   4   15.40    1.60
  -3  -4  -4    7.50    1.30
   3   4   4    8.70    1.50
  -4  -4  -4  303.87    6.70
   4   4   4  292.67    6.20
  -5  -4  -4   91.09    4.40
   5   4   4   87.89    3.80
  -7   5   4   12.60    3.50
  -6   5   4    9.40    2.70
  -5   5   4   10.30    2.60
  -4   5   4  147.29    5.30
  -3   5   4    1.30    1.60
  -2   5   4  236.18    5.60
  -1   5   4  111.79    3.60
  -1   5   4  118.69    2.60
   0   5   4   68.89    2.30
   0   5   4   75.19    2.90
   1   5   4  144.79    3.50
   1   5   4  143.29    3.50
  -2  -5  -4 1078.49   13.20
   2   5   4 1085.19   13.40
   2   5   4 1097.19   12.70
  -3  -5  -4  219.78    5.00
   3   5   4  226.88    5.20
  -4  -5  -4    7.60    1.70
   4   5   4    7.80    1.70
   5   5   4   35.20    2.80
  -6   6   4   32.60    4.20
  -5   6   4   69.99    4.40
  -4   6   4   -0.40    1.90
  -3   6   4    2.00    1.80
  -2   6   4   15.10    2.10
  -1   6   4   15.00    1.90
  -1   6   4   16.60    1.40
   0   6   4    5.30    1.40
   0   6   4    2.40    1.10
   1   6   4  587.54    8.60
   1   6   4  581.34    8.20
  -2  -6  -4   27.70    2.10
   2   6   4   23.90    1.80
   2   6   4   20.70    2.00
  -3  -6  -4  215.78    5.30
   3   6   4  222.88    5.40
   4   6   4   17.00    2.10
   5   6   4   20.80    2.40
   6   6   4   36.40    3.30
  -6   7   4    9.70    3.00
  -5   7   4   12.30    2.80
  -4   7   4  190.88    6.50
  -3   7   4  180.68    6.00
  -2   7   4  364.76    7.80
  -1   7   4  674.73   10.40
  -1   7   4  669.73    8.90
   0   7   4   96.99    3.70
   0   7   4  106.29    3.30
   1   7   4  104.39    3.40
   1   7   4  112.49    3.60
   2   7   4  592.24    8.20
   2   7   4  580.44    9.40
   3   7   4  213.28    5.60
   4   7   4  146.29    4.90
   5   7   4  161.78    5.40
   6   7   4   24.70    2.90
  -5   8   4   41.60    4.30
  -4   8   4   58.39    4.50
  -3   8   4  144.39    5.60
  -2   8   4  125.39    5.00
  -1   8   4  201.78    4.60
  -1   8   4  202.38    5.60
   0   8   4  726.23   10.70
   0   8   4  715.93   10.30
   1   8   4  575.94    8.70
   1   8   4  564.04    9.10
   2   8   4   49.90    3.00
   3   8   4   58.19    3.20
   4   8   4  196.88    5.90
   5   8   4   53.69    3.60
   6   8   4   76.49    4.20
  -5   9   4  183.28    7.40
  -4   9   4   33.60    3.80
  -3   9   4   29.30    3.30
  -2   9   4  134.39    5.30
  -1   9   4  385.76    8.10
   0   9   4   87.39    3.90
   0   9   4   90.69    3.50
   1   9   4  201.48    5.40
   2   9   4   94.39    3.90
   3   9   4    7.80    1.80
   4   9   4   83.79    4.10
   5   9   4  145.69    5.60
   6   9   4    1.40    1.90
  -4  10   4   28.00    4.00
  -3  10   4   66.79    4.40
  -2  10   4  168.08    6.00
  -1  10   4    1.30    1.90
   0  10   4   62.89    3.70
   0  10   4   60.99    3.30
   1  10   4   18.10    2.30
   2  10   4  166.28    5.50
   3  10   4  202.88    6.20
   4  10   4   69.39    3.90
   5  10   4   83.29    4.40
  -4  11   4   10.10    3.30
  -3  11   4    2.50    2.50
  -2  11   4   65.59    4.50
  -1  11   4    8.60    2.40
   0  11   4    6.40    1.70
   1  11   4  315.47    7.60
   2  11   4  134.09    5.00
   3  11   4   12.30    2.30
   4  11   4   -1.20    1.60
   5  11   4  175.28    6.60
  -3  12   4   27.30    3.90
  -2  12   4   20.90    3.40
   0  12   4   67.99    3.70
   1  12   4  165.18    5.80
   2  12   4  172.08    6.00
   3  12   4   90.09    4.80
   4  12   4   19.90    3.10
   1  13   4   17.20    2.70
   2  13   4  150.08    5.80
   3  13   4   40.60    3.90
   3   9  -5    6.70    2.40
   2   9  -5   33.70    3.70
   1   9  -5   64.59    4.50
   0   9  -5   13.90    2.80
  -1   9  -5   34.40    3.70
  -3   9  -5    5.00    2.80
  -5  -8   5   21.90    4.70
   4   8  -5  102.49    5.10
  -4  -8   5  103.09    7.00
   3   8  -5    9.80    2.30
   2   8  -5   44.00    3.80
   1   8  -5   82.29    4.50
   0   8  -5   30.60    3.40
  -1   8  -5   12.20    2.70
  -2   8  -5   48.10    4.10
  -2   8  -5   43.10    3.80
  -3   8  -5   64.09    4.70
  -5  -7   5  107.59    7.20
   4   7  -5   28.20    3.10
  -4  -7   5   25.00    4.30
   3   7  -5   49.10    3.80
  -3  -7   5   39.80    4.70
   2   7  -5  130.09    5.10
   1   7  -5   93.79    4.50
  -1   7  -5   82.69    4.10
  -1   7  -5   86.99    4.50
  -2   7  -5   -0.60    1.80
  -2   7  -5    1.60    2.00
  -3   7  -5   11.00    2.60
  -3   7  -5   10.20    2.70
  -4   7  -5   21.90    3.40
  -6  -6   5   13.20    4.20
  -5  -6   5   64.69    5.90
   4   6  -5  130.29    4.90
  -4  -6   5  133.09    7.10
   3   6  -5  217.38    6.10
  -3  -6   5  208.78    8.20
   2   6  -5  117.19    4.70
   1   6  -5  590.64   10.80
   0   6  -5   68.79    3.90
  -1   6  -5  210.68    5.80
  -1   6  -5  208.68    6.20
  -2   6  -5  181.48    5.90
  -2   6  -5  180.08    5.90
  -3   6  -5   51.59    3.70
  -3   6  -5   51.79    4.20
  -4   6  -5   25.80    3.30
  -6  -5   5   46.70    5.50
  -5  -5   5   78.79    5.80
   4   5  -5  144.69    4.80
  -4  -5   5  143.79    7.00
   3   5  -5  746.03   11.80
  -3  -5   5  733.33   14.90
   2   5  -5  219.68    6.00
  -2  -5   5  224.48    7.80
   1   5  -5  269.07    6.70
   0   5  -5  133.69    4.70
  -1   5  -5  142.49    5.00
  -2   5  -5   29.30    2.90
  -2   5  -5   31.10    3.00
  -3   5  -5   11.00    2.20
  -3   5  -5   13.10    2.50
  -4   5  -5   51.69    4.30
  -5   5  -5   -0.10    2.30
  -6  -4   5   57.69    5.70
  -5  -4   5   18.80    3.70
  -4  -4   5  323.07    9.40
   3   4  -5   30.80    2.60
  -3  -4   5   26.50    3.60
  -2  -4   5  201.28    7.10
   1   4  -5  313.67    6.70
   0   4  -5  270.47    6.30
  -1   4  -5  339.57    7.30
  -2   4  -5  160.38    5.20
  -3   4  -5   22.30    2.70
  -3   4  -5   18.70    2.50
  -4   4  -5   15.90    2.70
  -5   4  -5  142.89    6.20
  -7  -3   5   18.30    4.30
  -6  -3   5  163.78    7.70
  -5  -3   5   26.60    3.90
  -4  -3   5  103.79    5.50
   3   3  -5  262.77    5.60
  -3  -3   5  254.07    7.60
   2   3  -5  286.27    6.00
  -2  -3   5  292.67    7.80
   1   3  -5  111.59    3.80
  -1  -3   5  106.79    5.00
   0   3  -5   56.89    3.20
  -1   3  -5  995.70   13.70
  -2   3  -5   27.70    2.60
  -3   3  -5  352.56    7.50
  -4   3  -5  186.18    6.30
  -4   3  -5  186.38    5.60
  -5   3  -5   47.80    4.10
  -6   3  -5    8.60    2.70
  -7  -2   5   17.30    4.00
  -6  -2   5  179.58    7.80
  -5  -2   5  171.08    7.00
  -4  -2   5  116.59    5.60
   3   2  -5  433.56    7.10
  -3  -2   5  452.65    9.70
   2   2  -5 1199.48   14.20
  -2  -2   5 1157.48   13.50
  -2  -2   5 1177.78   17.10
   1   2  -5  319.17    6.00
  -1  -2   5  320.37    7.40
   0   2  -5   90.39    3.40
  -1   2  -5  639.94    9.60
  -2   2  -5 1508.25   18.10
  -3   2  -5   53.89    3.10
  -4   2  -5  125.39    4.60
  -4   2  -5  125.39    4.90
  -5   2  -5   53.69    4.20
  -6   2  -5   34.00    3.80
  -7  -1   5   33.60    4.70
  -6  -1   5   76.19    5.40
  -5  -1   5   81.49    5.10
  -4  -1   5    8.50    2.30
   3   1  -5  267.27    4.80
  -3  -1   5  265.97    5.20
  -3  -1   5  265.07    7.00
   2   1  -5 1691.83   18.10
  -2  -1   5 1680.23   18.40
  -2  -1   5 1712.03   21.70
   1   1  -5 1011.20   12.20
  -1  -1   5 1001.60   14.10
  -1  -1   5  985.50   12.10
   0   1  -5  600.34    8.60
  -1   1  -5 1142.69   14.10
  -2   1  -5  378.66    7.00
  -3   1  -5   26.10    2.40
  -4   1  -5  179.28    5.20
  -5   1  -5  275.97    7.70
  -6   1  -5   55.99    4.50
  -7   1  -5   30.70    4.00
  -7   0   5    7.20    3.10
  -6   0   5  109.59    6.10
  -5   0   5  346.77    9.60
  -4   0   5    1.60    1.80
  -4   0   5    1.40    1.50
  -3   0   5  333.77    7.70
  -3   0   5  333.67    6.20
   2   0  -5  583.24    7.60
  -2   0   5  582.74    8.30
  -2   0   5  586.34    9.80
   1   0  -5    3.40    1.00
  -1   0   5    4.30    1.10
  -1   0   5    3.80    1.40
   0   0  -5    7.90    1.20
   0   0   5    7.50    1.20
  -1   0  -5  497.85    7.60
  -2   0  -5   48.10    2.60
  -3   0  -5   36.80    2.50
  -4   0  -5   15.70    2.00
  -5   0  -5   83.59    4.40
  -6   0  -5    9.40    2.50
  -7   0  -5    2.70    2.50
  -7   1   5    0.10    2.40
  -6   1   5   39.40    4.30
  -5   1   5  112.99    5.60
  -4   1   5  566.64   11.50
  -4   1   5  575.94    9.60
  -3   1   5  161.38    4.50
  -3   1   5  161.58    5.20
   2  -1  -5   87.39    2.40
  -2   1   5   83.79    3.50
  -2   1   5   82.79    3.20
   1  -1  -5   65.99    2.20
  -1   1   5   67.29    2.80
  -1   1   5   67.69    2.70
   0  -1  -5   25.00    1.60
   0   1   5   25.30    2.00
   0   1   5   26.70    1.90
  -1  -1  -5   46.20    2.20
  -2  -1  -5 1218.18   14.60
  -3  -1  -5    1.90    1.30
  -4  -1  -5  131.09    4.20
  -5  -1  -5  204.18    6.10
  -5  -1  -5  200.48    5.60
  -6  -1  -5   40.20    3.70
  -7   2   5    4.30    2.70
  -6   2   5   92.99    5.60
  -5   2   5   77.39    4.10
  -5   2   5   72.89    4.60
  -4   2   5  211.98    6.70
  -4   2   5  205.88    5.70
  -3   2   5   85.39    3.80
  -3   2   5   88.39    4.00
   2  -2  -5  292.37    4.10
  -2   2   5  293.67    5.80
  -2   2   5  294.87    6.10
   1  -2  -5   24.00    1.40
  -1   2   5   31.60    2.10
  -1   2   5   26.10    1.90
   0  -2  -5  298.07    4.90
   0   2   5  302.37    5.50
   1   2   5  264.77    5.20
   1   2   5  266.87    5.00
   2   2   5  210.58    4.60
   3   2   5  325.87    6.40
  -4  -2  -5  146.09    4.50
  -5  -2  -5  161.08    5.10
  -6  -2  -5  100.59    4.70
  -7   3   5  105.39    6.50
  -6   3   5    0.30    1.70
  -5   3   5   85.39    4.80
  -5   3   5   85.89    4.50
  -4   3   5  197.68    6.50
  -4   3   5  196.08    5.70
  -3   3   5  276.77    6.30
  -2   3   5  101.29    3.80
   1  -3  -5 1396.56   14.20
  -1   3   5 1392.46   16.30
  -1   3   5 1407.86   16.30
   0   3   5    4.10    1.10
   0   3   5    5.40    0.90
   1   3   5  684.13    9.40
   1   3   5  700.53    9.10
   2   3   5 2990.70   30.20
   3   3   5   62.49    3.00
   4   3   5   -0.80    1.20
   5   3   5   30.40    2.70
  -6   4   5   89.79    5.10
  -6   4   5   79.79    5.30
  -5   4   5  195.58    6.40
  -4   4   5  167.18    5.40
  -3   4   5   43.60    3.30
  -2   4   5 1156.08   15.00
  -1   4   5  142.89    2.80
  -1   4   5  144.19    4.00
   0   4   5 1340.17   15.60
   0   4   5 1337.37   14.40
   1   4   5  759.92    9.80
   1   4   5  758.92   10.10
   2   4   5  413.76    6.90
   2   4   5  416.16    7.00
   3   4   5    4.50    1.50
   4   4   5  249.18    6.00
   5   4   5   16.30    2.20
  -6   5   5   79.29    5.10
  -5   5   5   85.59    4.90
  -4   5   5  216.38    6.60
  -3   5   5  366.86    7.80
  -2   5   5  485.95    8.80
  -1   5   5 2094.29   20.50
  -1   5   5 2056.19   23.10
   0   5   5  314.17    5.90
   0   5   5  311.27    5.20
   1   5   5    1.70    0.90
   1   5   5    0.00    1.00
   2   5   5  148.89    3.90
   2   5   5  144.19    4.00
   3   5   5  218.78    5.30
   4   5   5    4.60    1.50
   5   5   5  146.39    5.00
   6   5   5   -0.30    1.70
  -6   6   5   39.10    4.20
  -5   6   5   56.99    4.20
  -4   6   5   28.20    3.30
  -3   6   5   72.89    4.10
  -2   6   5  280.07    6.80
  -1   6   5  217.38    5.50
  -1   6   5  221.58    4.20
   0   6   5   90.29    2.80
   0   6   5   88.19    3.30
   1   6   5  689.13    9.50
   1   6   5  657.73    9.40
   2   6   5  187.38    4.80
   2   6   5  188.68    4.40
   3   6   5   21.90    2.20
   4   6   5  354.56    7.50
   5   6   5    4.80    1.70
   6   6   5   -0.90    1.50
  -6   7   5   97.09    5.90
  -5   7   5   49.90    4.50
  -4   7   5   25.70    3.20
  -3   7   5  136.69    5.20
  -2   7   5  133.29    4.80
  -1   7   5    4.90    1.80
  -1   7   5    3.40    1.10
   0   7   5  397.16    7.30
   0   7   5  378.86    6.50
   1   7   5  165.78    4.40
   1   7   5  159.38    4.40
   2   7   5   97.89    3.40
   2   7   5   95.89    3.60
   3   7   5  158.38    4.90
   4   7   5  245.28    6.50
   5   7   5   91.89    4.30
   6   7   5   72.79    4.20
  -5   8   5   13.30    3.10
  -4   8   5   53.19    4.30
  -3   8   5  293.07    7.80
  -2   8   5  176.58    5.80
  -1   8   5  374.76    6.50
  -1   8   5  383.16    8.00
   0   8   5   69.09    3.00
   0   8   5   67.29    3.50
   1   8   5 1027.70   13.70
   1   8   5 1013.00   13.20
   2   8   5  409.16    7.90
   3   8   5   65.79    3.50
   4   8   5  373.46    8.40
   5   8   5  556.44   11.10
   6   8   5   -0.90    1.70
  -5   9   5   40.10    4.40
  -4   9   5   18.10    3.20
  -3   9   5   24.80    3.30
  -2   9   5  186.08    6.10
  -1   9   5   27.20    2.90
   0   9   5  572.54    9.30
   0   9   5  588.14    9.90
   1   9   5  612.04   10.10
   1   9   5  586.94    9.40
   2   9   5  257.07    6.50
   3   9   5   -0.50    1.30
   4   9   5   88.29    4.30
   5   9   5   64.29    4.10
   6   9   5   96.59    5.00
  -4  10   5   46.60    4.60
  -3  10   5   28.20    3.50
  -2  10   5  122.29    5.40
  -1  10   5  156.38    5.60
   0  10   5   18.80    2.30
   0  10   5   29.00    2.90
   1  10   5  197.98    5.70
   2  10   5  125.59    4.80
   3  10   5   25.40    2.80
   4  10   5    4.70    2.00
   5  10   5  175.68    6.40
  -4  11   5   10.80    3.40
  -3  11   5   73.29    4.70
  -2  11   5   99.79    5.20
  -1  11   5   37.80    3.60
   0  11   5  113.29    4.40
   1  11   5  120.59    4.70
   2  11   5   84.59    4.10
   3  11   5   45.20    3.70
   4  11   5   11.70    2.50
   5  11   5   66.19    4.50
  -3  12   5    6.10    3.10
  -2  12   5   52.09    4.60
  -1  12   5    1.80    2.30
   1  12   5    8.20    2.20
   2  12   5  185.48    6.30
   3  12   5    1.30    1.90
   4  12   5    0.10    1.80
  -2  13   5   44.20    4.50
   1  13   5   82.69    4.40
   2  13   5  123.39    5.40
   3  13   5   70.19    4.50
   1  14   5    3.00    2.20
   4   8  -6   26.80    3.30
   3   8  -6  140.49    6.00
   2   8  -6   -0.40    2.00
   1   8  -6   30.90    3.60
   0   8  -6   50.89    4.30
  -1   8  -6   67.99    4.50
  -2   8  -6    2.30    2.30
  -3   8  -6   28.40    3.90
  -5  -7   6    3.50    3.70
   4   7  -6  111.49    5.10
  -4  -7   6  117.19    7.30
   3   7  -6   51.09    3.60
   2   7  -6   17.40    2.90
   1   7  -6   26.60    3.30
   0   7  -6   43.70    3.90
  -1   7  -6   42.20    3.80
  -2   7  -6   46.20    4.00
  -2   7  -6   52.19    4.20
  -3   7  -6   10.00    2.70
  -3   7  -6   16.10    3.00
  -4   7  -6   70.79    5.20
  -5  -6   6   58.09    5.90
  -4  -6   6   21.50    4.20
   3   6  -6  139.49    5.30
  -3  -6   6  139.39    7.20
   2   6  -6  195.28    6.20
   1   6  -6   49.70    3.80
   0   6  -6  534.65   10.70
  -1   6  -6  195.88    6.40
  -1   6  -6  218.88    6.20
  -2   6  -6   18.00    2.80
  -2   6  -6   24.00    3.10
  -3   6  -6   27.90    3.30
  -3   6  -6   23.70    3.20
  -4   6  -6   19.10    3.30
  -6  -5   6   68.19    6.30
  -5  -5   6    5.60    3.30
  -4  -5   6   40.90    4.90
   3   5  -6  316.27    7.50
  -3  -5   6  315.37    9.80
   2   5  -6  296.77    7.40
   1   5  -6  145.19    5.20
   0   5  -6   17.50    2.50
  -1   5  -6  262.07    7.00
  -2   5  -6  161.78    5.50
  -2   5  -6  166.68    5.80
  -3   5  -6   77.29    4.20
  -3   5  -6   83.89    4.60
  -4   5  -6   74.59    4.80
  -5   5  -6   32.10    3.90
  -6  -4   6  118.19    7.30
  -5  -4   6    9.50    3.30
  -4  -4   6  173.28    7.40
   3   4  -6  391.16    7.90
  -3  -4   6  402.16   10.50
   2   4  -6  261.97    6.50
  -2  -4   6  257.57    8.20
   1   4  -6   16.40    2.20
   0   4  -6   73.89    3.80
  -1   4  -6  158.98    5.30
  -2   4  -6   17.70    2.50
  -3   4  -6    7.20    2.10
  -3   4  -6    2.20    1.90
  -4   4  -6    8.10    2.30
  -4   4  -6    8.50    2.50
  -5   4  -6    4.80    2.30
  -6  -3   6  109.09    6.90
  -5  -3   6   67.09    5.20
  -4  -3   6    9.60    2.90
   3   3  -6   89.99    3.60
  -3  -3   6   93.49    5.40
   2   3  -6   84.79    3.60
  -2  -3   6   89.59    5.30
   1   3  -6  197.08    5.20
   0   3  -6  261.87    6.40
  -1   3  -6  499.55    9.30
  -2   3  -6   11.30    2.10
  -3   3  -6    0.20    1.50
  -4   3  -6  119.39    5.40
  -4   3  -6  117.59    4.90
  -5   3  -6   84.29    4.90
  -6   3  -6   16.40    3.00
  -6  -2   6   37.50    4.80
  -5  -2   6  108.59    6.00
  -4  -2   6    1.20    2.30
   3   2  -6   54.39    2.70
  -3  -2   6   53.89    4.30
   2   2  -6  110.29    3.70
  -2  -2   6  103.09    3.40
  -2  -2   6  111.19    5.20
   1   2  -6   51.19    2.90
  -1  -2   6   51.99    4.10
   0   2  -6   -0.20    1.30
  -1   2  -6   24.70    2.40
  -2   2  -6  209.78    5.70
  -3   2  -6  112.69    4.40
  -4   2  -6  164.28    5.90
  -4   2  -6  170.98    5.50
  -5   2  -6   75.69    4.40
  -6   2  -6    1.80    2.30
  -6  -1   6  163.48    7.60
  -5  -1   6   91.79    5.50
  -4  -1   6  150.98    6.10
  -3  -1   6  290.77    7.70
   2   1  -6  964.90   12.20
  -2  -1   6  974.30   14.80
  -2  -1   6  967.40   12.40
   1   1  -6   19.20    1.90
  -1  -1   6   16.00    1.80
  -1  -1   6   14.60    2.40
   0   1  -6  388.76    7.00
  -1   1  -6  569.34    9.10
  -2   1  -6  261.27    6.10
  -3   1  -6  101.19    4.10
  -4   1  -6  122.59    4.50
  -5   1  -6   55.09    4.00
  -6   1  -6   21.40    3.30
  -7   0   6   90.09    6.50
  -6   0   6   57.89    5.40
  -5   0   6   54.49    4.70
  -4   0   6   35.50    3.50
  -3   0   6   43.60    3.00
  -3   0   6   46.50    3.60
   2   0  -6  259.47    4.90
  -2   0   6  257.77    5.60
  -2   0   6  262.57    6.60
   1   0  -6  669.53    9.20
  -1   0   6  671.73    9.70
  -1   0   6  689.53   10.70
   0   0  -6   19.10    2.00
   0   0   6   16.80    1.90
  -1   0  -6  753.02   10.60
  -2   0  -6  123.99    4.10
  -3   0  -6    1.30    1.30
  -4   0  -6   11.80    2.00
  -5   0  -6  148.59    5.60
  -5   0  -6  146.09    5.20
  -6   0  -6   28.50    3.60
  -7   0  -6    2.70    2.40
  -7   1   6   21.30    4.10
  -6   1   6  134.39    6.80
  -5   1   6  165.38    6.80
  -4   1   6  176.18    6.30
  -4   1   6  177.18    5.20
  -3   1   6  646.34   10.00
  -3   1   6  639.34   11.40
   2  -1  -6  126.99    3.20
  -2   1   6  127.79    4.40
  -2   1   6  128.89    4.10
   1  -1  -6    1.50    1.10
  -1   1   6    1.60    1.30
  -1   1   6    3.90    1.40
   0  -1  -6  102.29    3.10
   0   1   6  109.49    3.50
  -1  -1  -6  370.96    6.60
  -2  -1  -6   27.60    2.30
  -3  -1  -6   55.19    3.10
  -4  -1  -6    2.00    1.40
  -5  -1  -6    2.00    1.70
  -6  -1  -6    3.00    2.20
  -6   2   6   23.50    3.80
  -5   2   6  159.18    6.60
  -5   2   6  179.18    5.90
  -4   2   6   88.79    4.60
  -4   2   6   92.79    4.20
  -3   2   6   14.00    2.10
  -3   2   6   15.70    2.40
   2  -2  -6  325.37    4.90
  -2   2   6  324.17    6.70
  -2   2   6  324.57    6.50
   1  -2  -6  352.56    5.50
  -1   2   6  357.36    6.30
  -1   2   6  357.96    6.50
   0  -2  -6   90.59    2.90
   0   2   6   88.79    3.30
   0   2   6   80.59    2.60
  -1  -2  -6  242.28    5.00
   1   2   6  232.18    5.30
  -2  -2  -6  139.19    4.00
  -3  -2  -6    1.00    1.30
  -4  -2  -6  175.28    5.20
  -5  -2  -6   83.09    4.00
  -6  -2  -6   23.60    2.80
  -6   3   6   63.29    4.90
  -5   3   6   28.70    3.50
  -5   3   6   25.30    3.20
  -4   3   6    3.40    1.90
  -4   3   6    4.80    2.10
  -3   3   6  495.25    9.70
  -3   3   6  497.35    9.00
  -2   3   6  601.04    9.80
  -2   3   6  610.14    9.70
   1  -3  -6  795.32    9.50
  -1   3   6  795.52   11.20
  -1   3   6  812.62   10.60
   0  -3  -6  872.41   10.60
   0   3   6  861.01   11.60
   1   3   6   60.69    2.50
   1   3   6   66.89    2.90
   2   3   6    4.10    1.30
   3   3   6  339.57    6.80
   4   3   6   89.49    3.80
  -5  -3  -6    8.80    1.90
  -6   4   6   64.59    5.00
  -6   4   6   64.09    4.80
  -5   4   6   79.29    4.70
  -5   4   6   84.29    5.00
  -4   4   6  297.37    8.20
  -4   4   6  320.27    7.80
  -3   4   6  252.87    6.70
  -3   4   6  248.18    6.70
  -2   4   6 1219.08   15.90
  -1   4   6  112.29    3.90
  -1   4   6  118.89    3.20
  -1   4   6  111.79    2.80
   0   4   6  400.56    6.20
   0   4   6  403.76    7.20
   1   4   6 2112.19   23.10
   1   4   6 2054.59   22.10
   2   4   6  988.50   12.90
   2   4   6  983.70   13.10
   3   4   6  455.85    8.20
   4   4   6  378.36    7.80
   5   4   6   57.89    3.30
  -6   5   6   87.79    5.40
  -6   5   6   80.99    5.40
  -5   5   6   49.10    4.10
  -5   5   6   38.20    3.80
  -4   5   6  315.97    8.00
  -3   5   6  423.26    8.80
  -2   5   6    2.90    1.80
  -1   5   6  324.37    5.10
  -1   5   6  342.37    7.00
   0   5   6 1014.10   13.40
   0   5   6 1028.20   12.20
   1   5   6  524.35    8.50
   1   5   6  524.15    8.10
   2   5   6    5.80    1.50
   2   5   6    5.50    1.50
   3   5   6  281.87    6.30
   4   5   6  240.68    6.20
   5   5   6  164.08    5.40
   6   5   6   46.20    3.70
  -6   6   6   25.70    3.70
  -6   6   6   25.20    3.90
  -5   6   6   83.39    5.10
  -4   6   6   -2.50    2.00
  -3   6   6  294.17    7.40
  -2   6   6  347.77    7.90
  -1   6   6  257.67    6.30
  -1   6   6  272.67    4.70
   0   6   6  540.45    8.00
   0   6   6  540.25    8.80
   1   6   6 1046.50   13.30
   1   6   6 1019.20   13.40
   2   6   6    3.40    1.30
   2   6   6    4.20    1.40
   3   6   6   10.10    1.70
   4   6   6  664.73   11.20
   5   6   6   71.29    3.90
   6   6   6    9.20    2.30
  -6   7   6    9.60    3.40
  -5   7   6   10.20    3.00
  -4   7   6   16.90    3.10
  -3   7   6   11.10    2.40
  -2   7   6   13.30    2.40
  -1   7   6   15.50    1.50
  -1   7   6   17.50    2.40
   0   7   6  281.57    5.60
   0   7   6  295.77    6.40
   1   7   6  562.64    9.00
   1   7   6  570.74    9.00
   2   7   6  345.17    7.10
   2   7   6  355.16    6.70
   3   7   6   25.50    2.50
   4   7   6  147.89    5.10
   5   7   6  123.99    5.00
   6   7   6   17.90    2.80
  -5   8   6    2.70    2.60
  -4   8   6   -2.20    2.00
  -3   8   6  232.98    7.30
  -2   8   6  228.68    6.60
  -1   8   6    3.90    1.90
   0   8   6  170.28    4.40
   0   8   6  170.58    5.20
   1   8   6  375.16    7.20
   1   8   6  382.86    7.30
   2   8   6   63.39    3.10
   2   8   6   63.59    3.30
   3   8   6   16.90    2.30
   4   8   6  115.59    4.70
   5   8   6  242.58    7.20
   6   8   6   28.90    3.30
  -5   9   6   -2.50    2.60
  -4   9   6   15.10    3.10
  -3   9   6   55.89    4.50
  -2   9   6  376.56    8.80
  -1   9   6   61.49    4.00
   0   9   6    1.10    1.30
   0   9   6    1.70    1.80
   1   9   6  549.25    9.50
   1   9   6  558.64    9.50
   2   9   6  260.77    6.50
   3   9   6   10.80    2.10
   4   9   6   90.29    4.30
   5   9   6  192.58    6.50
   6   9   6   46.90    4.20
  -4  10   6    7.40    2.90
  -3  10   6   98.69    5.30
  -2  10   6    7.50    2.40
  -1  10   6    7.60    2.50
   0  10   6   77.99    3.50
   0  10   6   82.19    4.20
   1  10   6  150.78    5.00
   2  10   6   67.49    3.70
   3  10   6   32.00    3.10
   4  10   6    2.80    1.80
   5  10   6   16.90    2.90
  -4  11   6   -2.20    2.90
  -3  11   6    4.60    2.80
  -2  11   6  176.38    6.70
  -1  11   6  142.29    5.60
   0  11   6    9.00    2.50
   0  11   6   10.90    2.00
   1  11   6   19.80    2.50
   2  11   6  147.39    5.40
   3  11   6   11.30    2.40
   4  11   6  134.29    5.70
  -3  12   6   10.50    3.40
  -2  12   6   36.60    4.00
  -1  12   6    3.10    2.50
   1  12   6    0.50    1.50
   2  12   6   35.50    3.30
   3  12   6  114.39    5.20
   4  12   6   12.00    2.70
  -2  13   6   22.70    3.80
   1  13   6   98.99    4.60
   2  13   6   66.69    4.10
   3  13   6   27.40    3.40
   1  14   6   39.20    3.70
  -4  -7   7   25.00    4.70
   3   7  -7  151.88    6.10
   2   7  -7   35.20    3.70
   1   7  -7    6.00    2.30
   0   7  -7   78.89    4.60
  -1   7  -7   28.20    3.60
  -2   7  -7   12.90    2.90
  -2   7  -7   13.00    2.70
  -3   7  -7   38.20    4.00
  -5  -6   7    7.90    4.00
  -4  -6   7   64.89    6.20
   3   6  -7   40.00    3.70
   2   6  -7   31.50    3.50
   1   6  -7   64.49    4.00
   0   6  -7   12.00    2.50
  -1   6  -7  106.79    4.70
  -1   6  -7  112.49    5.30
  -2   6  -7    7.50    2.50
  -2   6  -7    5.00    2.10
  -3   6  -7   15.90    3.00
  -3   6  -7    6.80    2.60
  -4   6  -7   27.40    3.90
  -5  -5   7   26.90    4.80
  -4  -5   7   21.00    4.30
   3   5  -7  133.99    5.20
  -3  -5   7  134.39    7.10
   2   5  -7  167.18    5.70
   1   5  -7   49.60    3.50
   0   5  -7  530.05   10.60
  -1   5  -7  126.49    5.30
  -2   5  -7   39.80    3.70
  -3   5  -7   54.89    4.30
  -3   5  -7   54.39    3.90
  -4   5  -7   48.40    4.40
  -6  -4   7   23.00    4.70
  -5  -4   7   24.80    4.40
  -4  -4   7   77.59    5.80
   3   4  -7  188.28    5.70
  -3  -4   7  180.18    7.70
   2   4  -7  152.98    5.20
  -2  -4   7  144.59    6.70
   1   4  -7  117.69    4.70
   0   4  -7   35.50    3.20
  -1   4  -7   83.49    4.20
  -2   4  -7   67.39    3.90
  -3   4  -7   45.40    3.80
  -3   4  -7   52.19    3.90
  -4   4  -7   72.69    4.70
  -4   4  -7   72.59    4.60
  -5   4  -7   31.80    3.90
  -6  -3   7   40.90    5.20
  -5  -3   7  107.89    6.40
  -4  -3   7   11.20    3.20
   3   3  -7  478.45    8.80
  -3  -3   7  479.75   11.60
   2   3  -7   53.39    3.20
  -2  -3   7   56.29    4.70
   1   3  -7    6.30    1.80
   0   3  -7  250.07    6.50
  -1   3  -7  202.58    6.00
  -2   3  -7    1.90    1.90
  -3   3  -7    2.90    1.90
  -4   3  -7    5.80    2.20
  -4   3  -7    6.80    2.30
  -5   3  -7    0.40    2.10
  -6  -2   7   67.39    6.20
  -5  -2   7    5.80    2.90
  -4  -2   7   91.49    5.50
  -3  -2   7   41.80    4.10
   2   2  -7   62.19    3.20
  -2  -2   7   59.89    4.60
   1   2  -7   60.09    3.20
   0   2  -7  531.15    9.50
  -1   2  -7   82.49    3.90
  -2   2  -7  132.79    4.70
  -3   2  -7   -1.20    1.60
  -4   2  -7   57.79    3.80
  -5   2  -7   78.99    4.80
  -6   2  -7   13.00    3.10
  -6  -1   7   46.90    5.10
  -5  -1   7  125.69    6.50
  -4  -1   7   76.69    5.00
  -3  -1   7  318.97    8.40
   2   1  -7  313.57    6.30
  -2  -1   7  326.87    6.50
  -2  -1   7  314.07    8.00
   1   1  -7  133.49    4.20
  -1  -1   7  130.19    5.20
  -1  -1   7  132.09    4.20
   0   1  -7    5.20    1.60
  -1   1  -7  321.77    6.90
  -2   1  -7    1.60    1.50
  -3   1  -7  218.28    6.10
  -4   1  -7   65.09    3.90
  -5   1  -7   20.10    3.00
  -6   1  -7    0.60    2.00
  -6   0   7   78.09    5.80
  -5   0   7   41.70    4.40
  -4   0   7  136.39    5.90
  -3   0   7  745.63   11.00
  -3   0   7  713.23   13.00
   2   0  -7  390.76    6.70
  -2   0   7  389.86    8.40
  -2   0   7  393.06    7.30
   1   0  -7  759.42   10.60
  -1   0   7  761.32   12.10
  -1   0   7  745.23   11.00
   0   0  -7  702.03   10.30
  -1   0  -7  224.88    5.50
  -2   0  -7  310.07    6.80
  -3   0  -7  148.39    4.90
  -4   0  -7   20.80    2.50
  -5   0  -7   20.00    2.70
  -6   0  -7   94.79    5.30
  -6   1   7   79.19    5.70
  -5   1   7   66.29    4.90
  -4   1   7  193.18    5.70
  -4   1   7  188.38    6.70
  -3   1   7  104.69    4.20
  -3   1   7  106.89    4.80
   2  -1  -7  768.42   10.00
  -2   1   7  793.02   12.40
  -2   1   7  780.42   11.30
   1  -1  -7  202.28    4.70
  -1   1   7  208.08    5.30
  -1   1   7  213.68    5.50
   0  -1  -7  165.28    4.30
   0   1   7  178.08    4.90
  -1  -1  -7  229.08    5.40
  -2  -1  -7  180.28    5.10
  -3  -1  -7    6.10    1.90
  -4  -1  -7  153.68    5.20
  -5  -1  -7    3.60    1.80
  -6  -1  -7    3.90    2.20
  -6   2   7   20.80    3.70
  -5   2   7  185.28    7.30
  -4   2   7  151.68    6.00
  -4   2   7  146.79    5.30
  -3   2   7  963.60   13.80
  -3   2   7  949.40   15.00
  -2   2   7   23.50    2.40
  -2   2   7   20.30    2.30
   1  -2  -7  122.09    3.40
  -1   2   7  122.89    4.00
  -1   2   7  118.69    4.00
   0  -2  -7  545.95    8.20
   0   2   7  546.05    9.10
  -1  -2  -7  232.68    5.20
   1   2   7  232.18    5.70
  -2  -2  -7   77.49    3.30
  -3  -2  -7  774.52   11.90
  -4  -2  -7   41.30    3.20
  -5  -2  -7    7.90    2.20
  -6  -2  -7    1.50    1.80
  -6   3   7   15.10    3.40
  -5   3   7    8.40    2.50
  -5   3   7    3.40    2.20
  -4   3   7  149.39    5.40
  -4   3   7  163.98    6.10
  -3   3   7   17.70    2.50
  -3   3   7   22.60    2.60
  -2   3   7   73.29    3.80
  -2   3   7   70.29    3.50
   1  -3  -7  208.48    4.30
  -1   3   7  201.68    5.20
  -1   3   7  205.98    4.60
   0  -3  -7 1297.07   15.00
   0   3   7 1277.77   16.20
  -1  -3  -7  124.39    3.80
   1   3   7  129.09    4.30
  -2  -3  -7   58.39    3.00
  -3  -3  -7  104.99    4.10
  -4  -3  -7  623.44   11.00
  -5  -3  -7   83.99    4.30
  -6   4   7  115.79    6.40
  -5   4   7    1.00    2.00
  -5   4   7    3.20    2.00
  -4   4   7   17.50    2.80
  -4   4   7   13.90    2.50
  -3   4   7  160.08    5.50
  -3   4   7  176.08    5.70
  -2   4   7  376.86    7.40
  -2   4   7  384.06    8.00
   1  -4  -7  304.67    5.20
  -1   4   7  302.97    6.60
   0   4   7 1187.28   14.00
   0   4   7 1152.68   15.20
   1   4   7  735.23   10.40
   1   4   7  754.22   11.20
   2   4   7    8.20    1.70
   3   4   7  504.05    9.10
   4   4   7  345.97    7.80
   5   4   7   38.90    3.40
  -6  -4  -7    2.60    2.10
  -6   5   7    1.50    2.20
  -6   5   7    2.90    2.80
  -5   5   7   20.90    3.10
  -5   5   7   21.20    3.40
  -4   5   7   73.89    4.40
  -4   5   7   68.59    4.50
  -3   5   7  819.32   13.60
  -3   5   7  794.52   13.20
  -2   5   7   54.59    3.00
  -2   5   7   50.69    3.70
  -1   5   7  138.59    3.40
  -1   5   7  140.09    4.80
   0   5   7  403.86    6.70
   0   5   7  397.46    7.60
   1   5   7 1365.06   17.00
   1   5   7 1356.46   16.30
   2   5   7  201.78    5.40
   2   5   7  201.78    5.20
   3   5   7  344.97    7.30
   4   5   7  250.07    6.50
   5   5   7   95.69    4.50
   6   5   7   26.80    3.20
  -6   6   7   20.80    3.50
  -6   6   7   20.80    3.80
  -5   6   7   30.10    3.80
  -5   6   7   29.50    3.60
  -4   6   7  109.39    5.20
  -3   6   7  108.29    5.10
  -2   6   7  406.36    8.70
  -1   6   7   43.80    2.10
  -1   6   7   37.60    3.00
   0   6   7  446.16    8.30
   0   6   7  449.66    7.30
   1   6   7  210.18    5.10
   1   6   7  202.68    5.30
   2   6   7    0.10    1.10
   2   6   7    0.30    1.30
   3   6   7  332.77    7.30
   4   6   7  381.36    8.40
   5   6   7  101.09    4.50
   6   6   7    9.20    2.50
  -6   7   7   59.69    5.60
  -6   7   7   48.40    4.80
  -5   7   7    7.50    2.90
  -4   7   7   17.70    3.10
  -3   7   7  210.58    6.90
  -2   7   7   46.00    3.70
  -1   7   7    8.60    2.10
   0   7   7  217.88    4.90
   0   7   7  226.08    5.80
   1   7   7  104.49    3.70
   1   7   7  101.79    4.10
   2   7   7    0.50    1.40
   2   7   7    2.40    1.30
   3   7   7  149.88    4.90
   4   7   7    3.30    1.70
   5   7   7   87.49    4.60
   6   7   7    9.40    2.40
  -5   8   7   42.10    4.50
  -4   8   7    1.80    2.30
  -3   8   7   19.40    3.10
  -2   8   7   48.60    4.00
  -1   8   7   13.80    2.40
   0   8   7  189.28    5.70
   0   8   7  186.58    4.80
   1   8   7  432.46    8.00
   1   8   7  424.96    8.20
   2   8   7  101.49    4.10
   2   8   7   98.39    4.00
   3   8   7    2.60    1.60
   4   8   7   53.69    3.50
   5   8   7   51.99    4.10
   6   8   7   -0.20    1.90
  -5   9   7   -2.60    2.70
  -4   9   7    7.30    2.60
  -3   9   7  133.09    6.10
  -2   9   7  282.57    8.00
  -1   9   7   62.09    4.20
   0   9   7  194.38    5.10
   0   9   7  195.38    6.00
   1   9   7    7.20    1.70
   1   9   7   11.00    2.10
   2   9   7  203.88    5.80
   3   9   7  135.59    5.00
   4   9   7   55.89    3.70
   5   9   7   17.60    2.80
  -4  10   7   -3.20    2.60
  -3  10   7   77.89    5.00
  -2  10   7   77.59    4.70
  -1  10   7  151.18    5.60
   0  10   7    6.60    2.20
   0  10   7    7.90    1.70
   1  10   7  349.47    7.70
   1  10   7  348.87    7.70
   2  10   7  128.19    4.90
   3  10   7   91.79    4.30
   4  10   7   41.40    3.70
   5  10   7   18.30    3.00
  -4  11   7   57.49    5.40
  -3  11   7    9.80    3.20
  -2  11   7   31.60    3.90
  -1  11   7  103.19    5.30
   0  11   7  222.38    6.70
   1  11   7   15.60    2.30
   2  11   7   70.39    3.80
   3  11   7   41.50    3.70
   4  11   7   27.50    3.30
  -3  12   7    1.60    3.10
  -2  12   7   89.19    5.60
  -1  12   7   28.70    3.50
   1  12   7    0.80    1.80
   2  12   7   -1.30    1.50
   3  12   7  106.59    5.10
   4  12   7  142.59    6.10
  -2  13   7    0.40    2.60
  -1  13   7   63.99    5.00
   1  13   7   96.29    4.70
   2  13   7    1.30    1.80
   3  13   7   27.40    3.50
  -2  14   7   -4.80    2.80
   1   7  -8    3.10    2.40
  -4  -6   8    8.40    3.90
   3   6  -8  143.79    5.90
   2   6  -8   13.90    2.60
   1   6  -8   18.00    2.90
   0   6  -8   78.19    4.60
  -1   6  -8    9.60    2.60
  -2   6  -8   -3.00    2.10
  -2   6  -8    4.10    2.30
  -3   6  -8   51.29    4.60
  -5  -5   8  121.89    7.80
  -4  -5   8   41.40    5.30
   3   5  -8   30.10    3.20
  -3  -5   8   28.60    4.50
   2   5  -8   30.40    3.30
   1   5  -8  112.59    5.20
   0   5  -8   56.79    4.00
  -1   5  -8  160.58    6.20
  -2   5  -8   13.20    2.80
  -3   5  -8    4.10    2.30
  -3   5  -8   -0.40    2.20
  -4   5  -8   22.90    3.50
  -5  -4   8   53.99    5.90
  -4  -4   8   73.09    6.30
   3   4  -8  127.19    5.00
  -3  -4   8  128.39    7.00
   2   4  -8   69.29    3.90
   1   4  -8  161.88    5.70
   0   4  -8  426.06    9.40
  -1   4  -8   43.00    3.80
  -2   4  -8   75.99    4.40
  -3   4  -8   88.09    5.00
  -4   4  -8   28.90    3.70
  -4   4  -8   30.40    3.80
  -6  -3   8    6.00    3.70
  -5  -3   8   49.50    5.40
  -4  -3   8   75.79    5.80
  -3  -3   8  232.58    8.50
   2   3  -8  382.66    8.20
  -2  -3   8  392.06   10.30
   1   3  -8   17.40    2.60
   0   3  -8    1.20    1.90
  -1   3  -8   40.90    3.50
  -2   3  -8   19.60    2.80
  -3   3  -8   13.30    2.50
  -4   3  -8   27.80    3.50
  -4   3  -8   30.60    3.50
  -5   3  -8    9.10    2.70
  -6  -2   8   34.00    4.90
  -5  -2   8    8.20    3.30
  -4  -2   8  222.48    8.20
  -3  -2   8  168.58    7.00
   2   2  -8   25.70    2.60
  -2  -2   8   24.10    3.50
   1   2  -8  100.59    4.30
   0   2  -8  271.57    7.00
  -1   2  -8  159.28    5.50
  -2   2  -8   62.39    3.70
  -3   2  -8   41.50    3.60
  -4   2  -8   12.00    2.60
  -5   2  -8    7.10    2.40
  -6  -1   8   58.99    5.80
  -5  -1   8   38.30    4.60
  -4  -1   8   16.60    3.30
  -3  -1   8   23.00    3.30
   2   1  -8   28.70    2.50
  -2  -1   8   33.10    3.50
  -2  -1   8   28.50    2.60
   1   1  -8  110.19    4.10
   0   1  -8  130.29    4.60
  -1   1  -8  135.49    4.70
  -2   1  -8   52.99    3.30
  -3   1  -8  120.79    4.90
  -4   1  -8  128.49    5.20
  -5   1  -8   21.70    3.00
  -5   1  -8   27.60    3.30
  -6   0   8   -1.50    2.80
  -5   0   8  118.89    6.40
  -4   0   8  177.18    7.00
  -3   0   8  315.87    8.40
   2   0  -8  196.48    5.00
  -2   0   8  194.18    5.40
  -2   0   8  191.48    6.30
   1   0  -8  574.94    9.30
  -1   0   8  559.44   10.50
  -1   0   8  566.14    9.70
   0   0  -8  197.08    5.40
  -1   0  -8   23.90    2.50
  -2   0  -8  290.27    6.90
  -3   0  -8  430.06    9.00
  -4   0  -8  121.39    5.10
  -5   0  -8    1.20    2.00
  -6   0  -8   18.20    3.20
  -6   1   8   69.19    5.60
  -5   1   8   15.40    3.20
  -4   1   8   54.79    4.60
  -3   1   8  116.19    5.20
  -3   1   8  121.79    4.50
   2  -1  -8  151.68    4.20
  -2   1   8  144.99    4.80
  -2   1   8  139.39    5.20
   1  -1  -8  479.25    7.90
  -1   1   8  468.55    8.70
  -1   1   8  473.65    8.90
   0  -1  -8 1359.06   16.70
   0   1   8 1368.56   17.60
  -1  -1  -8  203.58    5.40
  -2  -1  -8  178.28    5.30
  -3  -1  -8  309.27    7.30
  -4  -1  -8   90.99    4.40
  -5  -1  -8   23.10    3.00
  -6  -1  -8   31.60    3.70
  -6   2   8   33.10    4.40
  -5   2   8   66.19    4.90
  -4   2   8  199.98    7.00
  -4   2   8  206.28    6.30
  -3   2   8   37.00    3.50
  -3   2   8   41.50    3.30
  -2   2   8  145.99    4.90
  -2   2   8  142.59    5.00
   1  -2  -8  110.29    3.60
  -1   2   8  107.49    4.30
   0  -2  -8  349.27    6.60
   0   2   8  334.47    7.20
  -1  -2  -8  119.39    4.10
  -2  -2  -8    3.50    1.50
  -3  -2  -8  114.89    4.60
  -4  -2  -8  130.89    5.00
  -5  -2  -8    1.60    1.90
  -6  -2  -8    3.10    1.90
  -6   3   8   10.40    3.20
  -5   3   8    0.00    2.10
  -4   3   8  313.87    7.90
  -4   3   8  293.47    8.40
  -3   3   8  374.86    8.60
  -3   3   8  371.66    8.30
  -2   3   8   90.49    4.30
  -2   3   8   95.69    4.00
   1  -3  -8   16.10    1.70
  -1   3   8   12.40    2.10
   0  -3  -8  555.64    8.70
   0   3   8  545.55    9.50
  -1  -3  -8   44.80    2.90
   1   3   8   47.90    3.10
  -2  -3  -8    9.60    1.80
  -3  -3  -8  249.97    6.40
  -4  -3  -8  151.98    5.40
  -5  -3  -8   31.00    3.30
  -6   4   8    2.90    2.60
  -5   4   8   31.70    3.80
  -5   4   8   42.60    4.00
  -4   4   8    4.10    2.20
  -4   4   8    2.80    2.00
  -3   4   8    7.70    2.20
  -3   4   8    3.40    1.80
  -2   4   8    0.40    1.80
   1  -4  -8   24.50    2.00
  -1   4   8   23.90    2.60
   0  -4  -8  104.19    3.40
   0   4   8  100.19    4.10
  -1  -4  -8  275.27    6.10
   1   4   8  270.57    6.60
   2   4   8  159.08    4.90
   3   4   8   12.70    2.10
  -4  -4  -8  278.27    7.20
  -5  -4  -8   84.29    4.50
  -6  -4  -8   15.00    2.80
  -6   5   8   34.60    4.40
  -5   5   8   -2.70    2.10
  -5   5   8    0.70    1.90
  -4   5   8   40.50    3.80
  -4   5   8   37.00    3.80
  -3   5   8  493.85   10.20
  -3   5   8  518.45   10.30
  -2   5   8   22.70    2.90
   1  -5  -8    1.40    1.00
  -1   5   8    1.90    1.80
   0   5   8  541.45    8.40
   0   5   8  537.05    9.70
   1   5   8   55.59    2.90
   1   5   8   50.89    3.40
   2   5   8  208.38    5.50
   2   5   8  210.38    5.80
   3   5   8  175.28    5.50
   4   5   8  123.09    4.90
   5   5   8    2.90    1.90
  -6  -5  -8   21.90    3.20
  -6   6   8   16.20    3.70
  -6   6   8   16.70    3.40
  -5   6   8   15.50    3.20
  -5   6   8   17.00    3.00
  -4   6   8  135.19    6.00
  -4   6   8  133.49    5.70
  -3   6   8  184.48    6.30
  -2   6   8  262.87    7.10
  -1   6   8   71.69    3.90
   0   6   8   12.60    2.20
   0   6   8   16.00    1.80
   1   6   8  471.95    8.90
   1   6   8  476.15    8.30
   2   6   8  289.97    6.90
   2   6   8  298.07    6.70
   3   6   8   11.60    2.00
   4   6   8   37.50    3.20
   5   6   8   98.89    4.90
   6   6   8    6.30    2.30
  -5   7   8    8.10    3.20
  -4   7   8   42.90    4.20
  -3   7   8  234.38    7.20
  -2   7   8  177.28    6.00
  -1   7   8  174.68    5.70
   0   7   8  273.37    5.80
   0   7   8  280.37    6.90
   1   7   8  246.38    5.80
   1   7   8  238.68    6.30
   2   7   8    3.40    1.70
   2   7   8    4.20    1.50
   3   7   8   29.90    2.80
   4   7   8    1.80    1.70
   5   7   8    8.20    2.30
   6   7   8   38.30    3.90
  -5   8   8   16.10    3.70
  -4   8   8   10.40    2.90
  -3   8   8   64.59    4.40
  -2   8   8   66.89    4.50
  -1   8   8  202.18    6.40
   0   8   8   27.30    2.40
   0   8   8   28.20    2.90
   1   8   8   61.09    3.70
   1   8   8   56.29    3.00
   2   8   8  312.97    7.20
   2   8   8  302.67    7.10
   3   8   8   65.49    3.60
   4   8   8   35.70    3.30
   5   8   8    7.10    2.20
  -4   9   8   13.70    3.40
  -3   9   8   27.40    3.60
  -2   9   8  107.49    5.20
  -1   9   8   91.99    4.70
   0   9   8   46.90    3.80
   0   9   8   50.59    3.00
   1   9   8   35.30    2.90
   1   9   8   37.10    3.10
   2   9   8   22.50    2.60
   2   9   8   20.70    2.50
   3   9   8  155.28    5.50
   4   9   8   73.69    4.40
   5   9   8    2.90    2.00
  -4  10   8   15.30    3.40
  -3  10   8   55.19    4.90
  -2  10   8   76.79    4.90
  -1  10   8  314.97    8.40
   0  10   8  296.57    7.70
   1  10   8    2.80    1.60
   1  10   8    3.10    1.90
   2  10   8  118.89    4.80
   3  10   8  211.78    6.60
   4  10   8   71.39    4.30
   5  10   8   61.09    4.20
  -3  11   8   -3.40    2.60
  -2  11   8   24.30    3.60
  -1  11   8    5.70    2.60
   0  11   8  123.29    5.40
   1  11   8  104.79    4.40
   2  11   8   40.50    3.50
   3  11   8   76.39    4.30
   4  11   8   90.19    4.90
  -3  12   8   50.49    4.90
  -2  12   8    5.80    3.00
  -1  12   8   54.59    4.70
   0  12   8  159.88    6.20
   1  12   8   77.19    4.20
   2  12   8    1.70    1.70
   3  12   8   97.29    4.90
  -2  13   8    0.50    2.80
  -1  13   8   39.70    4.40
   2  13   8    9.50    2.50
   2   6  -9   47.90    4.40
  -2   6  -9    6.10    2.60
  -4  -5   9   47.90    5.70
   2   5  -9   13.60    2.70
   1   5  -9   16.60    2.90
   0   5  -9   92.39    5.00
  -1   5  -9    2.20    2.10
  -3   5  -9   19.80    3.20
  -5  -4   9  218.18    9.80
  -4  -4   9   85.19    6.80
  -3  -4   9   41.00    5.00
   2   4  -9   56.69    3.90
   1   4  -9   95.99    4.70
   0   4  -9   68.09    4.20
  -1   4  -9  287.67    8.20
  -2   4  -9   46.20    4.20
  -4   4  -9    7.40    2.70
  -5  -3   9   20.60    4.60
  -4  -3   9   67.39    6.10
  -3  -3   9   57.79    5.40
   2   3  -9  128.69    5.10
   1   3  -9  168.78    5.80
   0   3  -9  144.09    5.50
  -1   3  -9    5.90    2.30
  -2   3  -9  117.59    5.30
  -3   3  -9  146.59    6.20
  -4   3  -9   28.30    3.50
  -5  -2   9    2.10    3.30
  -4  -2   9  120.39    6.80
  -3  -2   9  107.69    6.30
   2   2  -9  195.28    5.90
  -2  -2   9  199.48    7.50
   1   2  -9  141.09    5.20
   0   2  -9    2.30    1.80
  -1   2  -9    3.00    1.80
  -2   2  -9   58.49    3.90
  -3   2  -9   52.99    3.80
  -4   2  -9    3.30    2.30
  -6  -1   9   -5.80    2.90
  -5  -1   9  122.79    7.00
  -4  -1   9    1.10    2.80
  -3  -1   9   41.70    4.30
   2   1  -9    6.60    1.80
  -2  -1   9    3.40    2.60
   1   1  -9  188.28    5.60
  -1   1  -9  200.78    6.20
  -2   1  -9   59.09    3.80
  -3   1  -9   82.59    4.50
  -4   1  -9   12.10    2.70
  -5   1  -9    2.90    2.00
  -6   0   9   15.50    4.00
  -5   0   9   -0.20    2.60
  -4   0   9  166.98    7.10
  -3   0   9   -2.00    2.10
   2   0  -9    3.70    1.60
  -2   0   9   -2.60    2.20
  -2   0   9    1.90    1.70
   1   0  -9  102.59    4.20
  -1   0   9  107.29    4.40
   0   0  -9  392.66    8.00
  -1   0  -9  163.18    5.40
  -2   0  -9   45.60    3.70
  -3   0  -9  137.49    5.30
  -4   0  -9  100.39    4.80
  -5   0  -9   10.20    2.70
  -6   1   9    5.30    3.30
  -5   1   9   56.99    5.20
  -4   1   9  207.28    7.70
  -3   1   9   57.29    4.40
  -3   1   9   57.89    3.70
  -2   1   9  258.17    6.50
  -2   1   9  275.97    7.40
   1  -1  -9  196.58    5.30
  -1   1   9  200.58    5.80
   0  -1  -9  206.28    5.60
   0   1   9  199.68    5.90
  -1  -1  -9  123.29    4.50
  -2  -1  -9   -0.90    1.50
  -3  -1  -9  208.58    6.30
  -4  -1  -9  122.49    5.30
  -5  -1  -9   10.80    2.70
  -6  -1  -9    0.70    2.00
  -6   2   9   39.40    4.80
  -5   2   9    7.90    3.00
  -4   2   9   89.99    5.30
  -3   2   9  162.38    5.50
  -3   2   9  160.48    6.10
  -2   2   9  138.39    4.90
   1  -2  -9  281.67    6.10
  -1   2   9  283.17    7.00
   0  -2  -9  377.06    7.40
   0   2   9  369.96    8.00
  -1  -2  -9   54.99    3.10
  -2  -2  -9    1.30    1.60
  -3  -2  -9  128.99    5.10
  -4  -2  -9    4.10    2.10
  -5  -2  -9   17.70    2.80
  -6   3   9   25.70    4.20
  -5   3   9   25.60    3.80
  -4   3   9  274.17    8.40
  -4   3   9  266.27    7.70
  -3   3   9  197.48    6.30
  -2   3   9  136.89    5.10
   1  -3  -9   24.60    2.20
  -1   3   9   20.90    2.70
   0  -3  -9  102.29    3.70
   0   3   9  103.39    4.50
  -1  -3  -9   98.39    3.90
   1   3   9  101.29    4.30
  -2  -3  -9    7.50    1.90
  -3  -3  -9   -1.00    1.50
  -4  -3  -9  149.79    5.60
  -5  -3  -9    2.50    2.00
  -6   4   9   -1.10    2.60
  -5   4   9    5.00    2.50
  -5   4   9    6.50    2.80
  -4   4   9   81.09    4.70
  -3   4   9  297.97    7.90
  -2   4   9   20.20    2.80
   1  -4  -9   20.40    2.00
  -1   4   9   22.80    2.70
   0  -4  -9  163.88    4.60
   0   4   9  171.78    5.60
  -1  -4  -9  147.69    4.70
   1   4   9  174.18    5.60
  -2  -4  -9   53.69    3.20
  -3  -4  -9   26.90    2.80
  -4  -4  -9    1.40    1.80
  -5  -4  -9   78.79    4.40
  -5   5   9   25.00    3.80
  -4   5   9    5.70    2.60
  -3   5   9   77.69    4.40
  -2   5   9  167.58    6.00
  -1   5   9   77.99    4.10
   0  -5  -9  447.96    7.80
   0   5   9  428.76    8.90
  -1  -5  -9  154.78    4.70
   1   5   9  145.29    5.00
   1   5   9  145.59    4.60
   2   5   9   24.50    2.50
   2   5   9   26.00    2.80
   3   5   9    4.60    2.00
  -4  -5  -9   22.20    2.80
   4   5   9   19.50    2.70
  -5  -5  -9   12.40    2.60
  -5   6   9    3.00    2.80
  -4   6   9  129.99    6.20
  -3   6   9   68.69    4.60
  -2   6   9  762.02   13.30
  -1   6   9  215.28    6.40
   0   6   9   65.19    4.00
   0   6   9   70.19    3.10
   1   6   9  155.58    5.40
   1   6   9  155.88    4.70
   2   6   9  591.94   10.80
   2   6   9  592.14   10.50
   3   6   9  290.57    7.40
   4   6   9   48.10    3.40
   5   6   9   26.90    3.30
  -5   7   9   41.30    4.60
  -4   7   9   34.50    4.10
  -3   7   9  427.86   10.30
  -2   7   9   16.70    3.00
  -1   7   9  347.57    8.30
   0   7   9   38.90    2.60
   0   7   9   32.70    3.20
   1   7   9  109.69    4.10
   1   7   9  112.79    4.60
   2   7   9   43.00    2.90
   2   7   9   48.90    3.50
   3   7   9  278.57    7.20
   4   7   9    0.60    1.70
   5   7   9   14.30    2.80
  -5   8   9  113.09    6.30
  -4   8   9   15.20    3.40
  -3   8   9   -0.60    2.40
  -2   8   9  153.38    6.00
  -1   8   9  327.37    8.30
   0   8   9  173.28    4.90
   0   8   9  163.38    5.80
   1   8   9   41.50    3.40
   1   8   9   33.20    2.80
   2   8   9  159.58    5.30
   2   8   9  163.78    5.40
   3   8   9   16.20    2.40
   4   8   9  114.59    5.10
   5   8   9    8.00    2.40
  -4   9   9   73.19    5.20
  -3   9   9    2.20    2.50
  -2   9   9    2.20    2.30
  -1   9   9   17.90    2.90
   0   9   9  193.88    6.20
   1   9   9   20.60    2.80
   1   9   9   20.40    2.50
   2   9   9   90.69    4.40
   2   9   9   94.99    4.30
   3   9   9  355.36    8.50
   4   9   9   54.09    3.80
   5   9   9    3.00    2.20
  -4  10   9   14.40    3.50
  -3  10   9    7.70    3.20
  -2  10   9   13.40    3.20
  -1  10   9  136.19    6.00
   0  10   9   62.09    4.30
   1  10   9  104.39    4.80
   1  10   9   92.79    4.00
   2  10   9   -1.30    1.70
   2  10   9    0.10    1.60
   3  10   9  116.89    5.20
   4  10   9   51.29    4.20
  -3  11   9    9.40    3.20
  -2  11   9    6.70    3.00
  -1  11   9   97.99    5.50
   0  11   9  201.78    6.90
   1  11   9   12.40    2.60
   1  11   9    8.50    2.10
   2  11   9   67.89    4.00
   3  11   9   81.99    4.50
   4  11   9   57.79    4.20
  -3  12   9   96.39    6.30
  -2  12   9    1.50    2.70
  -1  12   9   -0.80    2.30
   0  12   9   52.49    4.40
   1  12   9  122.69    5.10
   2  12   9    5.10    2.10
   3  12   9   29.90    3.50
  -2  13   9   -3.90    2.90
  -1  13   9   44.20    4.70
   2  13   9    8.80    2.30
  -4  -4  10   67.39    6.70
   2   4 -10   14.70    2.70
   1   4 -10   61.99    4.20
   0   4 -10   24.10    3.20
  -1   4 -10    0.90    2.30
  -5  -3  10  215.28    9.90
  -4  -3  10   51.19    5.80
  -3  -3  10    7.90    3.60
   2   3 -10   75.19    4.30
   1   3 -10  134.99    5.50
   0   3 -10   59.29    4.00
  -1   3 -10  129.89    5.70
  -2   3 -10   72.29    4.60
  -5  -2  10   39.00    5.40
  -4  -2  10   37.40    5.00
  -3  -2  10   41.00    4.90
   2   2 -10   29.10    3.00
   1   2 -10  337.27    8.30
   0   2 -10   29.80    3.30
  -1   2 -10   39.90    3.80
  -2   2 -10   15.70    2.80
  -3   2 -10   99.59    5.40
  -5  -1  10   56.39    5.70
  -4  -1  10   81.39    6.00
  -3  -1  10   27.90    4.20
   2   1 -10  131.69    4.90
   1   1 -10   50.39    3.60
   0   1 -10   45.90    3.70
  -1   1 -10    3.10    1.90
  -2   1 -10   27.40    3.20
  -3   1 -10   15.10    2.90
  -5   0  10   20.60    4.10
  -4   0  10  125.09    6.60
  -2   0  10   47.30    3.50
   1   0 -10   18.40    2.50
   0   0 -10  238.18    6.60
  -1   0 -10   42.60    3.50
  -2   0 -10    7.90    2.20
  -3   0 -10  102.89    5.10
  -4   0 -10    4.80    2.50
  -5   1  10   16.40    3.80
  -2   1  10    2.00    1.90
   1  -1 -10  222.48    6.00
  -1   1  10  216.28    6.30
   0  -1 -10   70.39    3.80
  -1  -1 -10   33.40    3.20
  -2  -1 -10    2.40    1.70
  -3  -1 -10   30.50    3.20
  -4  -1 -10   62.29    4.40
  -6   2  10    9.70    3.70
  -3   2  10  261.27    7.30
  -2   2  10  136.59    5.30
  -1   2  10  124.19    4.90
   0  -2 -10  490.95    9.10
   0   2  10  492.05    9.90
  -1  -2 -10  229.08    6.20
  -2  -2 -10   81.49    4.10
  -3  -2 -10   55.59    3.60
  -4  -2 -10   50.49    4.20
  -5  -2 -10    2.70    2.40
  -4   3  10  103.39    5.20
  -3   3  10  166.78    6.00
  -2   3  10   45.00    3.70
  -1   3  10  195.28    6.10
   0  -3 -10   94.39    3.90
   0   3  10   86.59    4.40
  -1  -3 -10   90.69    3.90
  -2  -3 -10  176.18    5.80
  -3  -3 -10   -0.30    1.80
  -4  -3 -10    1.80    2.00
  -5  -3 -10   50.19    4.20
  -4   4  10   66.59    4.70
  -3   4  10  286.27    7.80
  -2   4  10  490.55   10.10
  -1   4  10   15.90    2.50
   0  -4 -10   27.20    2.50
   0   4  10   31.20    3.20
  -1  -4 -10  100.19    4.20
   1   4  10  104.29    4.80
  -2  -4 -10   90.99    4.30
  -3  -4 -10  107.89    4.80
  -4  -4 -10   25.20    3.00
  -5  -4 -10    9.30    2.70
  -5   5  10    0.70    2.60
  -4   5  10   58.39    4.80
  -3   5  10   11.00    2.70
  -2   5  10   56.79    4.10
  -1   5  10   83.99    4.40
   0  -5 -10   84.39    3.60
   0   5  10   84.39    4.40
  -1  -5 -10   28.20    2.80
   1   5  10   31.40    3.20
  -2  -5 -10  227.18    6.50
  -3  -5 -10   65.39    4.00
  -4  -5 -10    5.40    2.10
  -5  -5 -10   59.49    4.30
  -5   6  10  107.69    6.30
  -4   6  10    1.00    2.60
  -3   6  10    1.80    2.60
  -2   6  10   85.79    4.90
  -1   6  10  593.24   11.40
   0  -6 -10   21.90    2.30
   0   6  10   21.30    3.00
  -1  -6 -10  148.79    4.90
   1   6  10  165.48    5.20
   1   6  10  158.08    5.70
   2   6  10  137.69    5.00
   2   6  10  144.19    5.50
   3   6  10  232.88    6.80
  -4  -6 -10   34.40    3.40
   4   6  10   39.10    3.70
  -5  -6 -10   36.90    3.80
  -5   7  10   50.19    5.10
  -4   7  10    2.80    2.60
  -3   7  10   84.09    5.30
  -2   7  10   54.49    4.40
  -1   7  10  150.78    5.80
   0   7  10  112.49    5.20
   0   7  10  100.89    3.90
   1   7  10    4.80    2.20
   1   7  10    2.90    1.60
   2   7  10  280.27    7.50
   2   7  10  263.37    6.90
   3   7  10  387.56    9.00
   4   7  10  117.19    5.30
   5   7  10    0.40    2.10
  -4   8  10  166.38    7.50
  -3   8  10    9.20    3.00
  -2   8  10   42.90    4.20
  -1   8  10  213.28    7.10
   0   8  10  141.29    5.70
   1   8  10   -0.90    1.30
   1   8  10    2.20    1.90
   2   8  10  149.59    5.30
   2   8  10  157.18    5.70
   3   8  10   -1.40    1.50
   4   8  10   -1.10    1.60
  -4   9  10   20.50    4.00
  -3   9  10   14.40    3.40
  -2   9  10    1.20    2.40
  -1   9  10   35.30    3.80
   0   9  10  165.18    6.00
   1   9  10   70.59    3.70
   1   9  10   73.79    4.40
   2   9  10   41.70    3.50
   2   9  10   34.40    3.30
   3   9  10  156.58    5.80
   4   9  10   17.20    2.70
  -3  10  10    3.70    3.00
  -2  10  10   15.40    3.50
  -1  10  10   48.10    4.50
   0  10  10    4.30    2.40
   1  10  10   14.20    2.80
   1  10  10   14.50    2.40
   2  10  10   61.89    3.90
   2  10  10   71.79    4.30
   3  10  10   11.00    2.40
   4  10  10    4.00    2.30
  -3  11  10   39.50    4.80
  -2  11  10   31.30    4.10
  -1  11  10   29.40    3.90
   0  11  10  116.79    5.70
   1  11  10   57.09    4.30
   1  11  10   49.80    3.30
   2  11  10    1.30    1.70
   3  11  10   47.00    4.20
  -2  12  10    6.40    3.30
  -1  12  10   44.20    4.60
   0  12  10   16.90    3.20
   2  12  10   81.49    4.60
   3  12  10   63.29    4.40
  -1  13  10   -0.90    2.50
   0  13  10   58.79    4.90
   2  13  10   74.49    4.60
  -1  14  10   24.00    4.20
  -4  -3  11  122.29    7.90
   2   3 -11   11.20    2.60
   1   3 -11   83.49    4.70
   0   3 -11   41.90    4.00
   1   2 -11  103.09    4.90
   0   2 -11  158.48    6.10
  -1   2 -11   76.19    4.70
   1   1 -11  206.08    6.60
   0   1 -11   37.90    3.70
  -1   1 -11    4.30    2.30
  -2   1 -11    0.50    1.90
   1   0 -11   29.40    3.20
   0   0 -11  107.39    4.80
  -1   0 -11   58.99    3.90
  -2   0 -11   56.89    4.40
  -3   0 -11   10.80    2.60
  -2   1  11   -0.40    2.00
   1  -1 -11   13.70    2.40
  -1   1  11   14.00    2.60
   0  -1 -11   10.20    2.20
  -1  -1 -11  214.48    6.60
  -2  -1 -11   19.60    2.90
  -3  -1 -11    8.30    2.50
  -3   2  11  204.28    6.70
  -2   2  11  151.08    5.60
   1  -2 -11  163.98    5.20
  -1   2  11  159.38    5.80
   0  -2 -11  119.19    4.80
   0   2  11  112.99    4.90
  -1  -2 -11   13.80    2.40
  -2  -2 -11  161.78    5.90
  -3  -2 -11   26.70    3.30
  -4  -2 -11   43.00    4.10
  -3   3  11    9.10    2.40
  -2   3  11  370.86    9.00
  -1   3  11   28.00    3.20
   0   3  11  127.39    5.40
  -1  -3 -11  222.18    6.30
  -2  -3 -11  268.77    7.50
  -3  -3 -11   81.89    4.60
  -4  -3 -11   17.00    2.80
  -4   4  11   21.40    3.50
  -3   4  11   32.50    3.60
  -2   4  11   62.99    4.20
  -1   4  11  288.47    7.80
   0  -4 -11    4.10    1.80
   0   4  11    1.70    1.80
  -1  -4 -11   32.70    3.00
   1   4  11   30.10    3.20
  -2  -4 -11  139.59    5.30
  -3  -4 -11   91.89    4.70
  -4  -4 -11    3.70    2.10
  -4   5  11    6.30    2.90
  -3   5  11   22.10    3.40
  -2   5  11  148.29    5.90
  -1   5  11   61.99    4.30
   0  -5 -11    7.60    1.80
   0   5  11    6.50    2.30
  -1  -5 -11   15.20    2.30
   1   5  11   14.30    2.50
  -2  -5 -11   95.19    4.40
  -3  -5 -11   70.79    4.20
  -4  -5 -11   30.50    3.30
  -5   6  11   70.19    5.70
  -4   6  11   24.30    3.80
  -3   6  11   39.20    4.10
  -2   6  11    1.60    2.10
  -1   6  11  174.78    6.30
   0  -6 -11   23.20    2.50
   0   6  11   18.50    2.80
  -1  -6 -11    1.40    1.70
   1   6  11    3.10    1.90
  -2  -6 -11   67.19    3.90
   2   6  11   68.79    4.10
  -3  -6 -11    5.60    2.20
  -4  -6 -11   -1.20    1.60
  -4   7  11   15.80    3.40
  -3   7  11   11.20    3.10
  -2   7  11   12.50    3.00
  -1   7  11  148.09    6.10
   0   7  11  116.49    5.20
  -1  -7 -11    3.80    1.70
   1   7  11    1.00    1.80
   2   7  11   25.00    3.20
   2   7  11   21.80    2.70
   3   7  11  102.29    4.90
  -4  -7 -11   46.50    3.90
   4   7  11   44.40    4.00
  -4   8  11  153.38    7.40
  -3   8  11    3.90    2.80
  -2   8  11   91.29    5.30
  -1   8  11   29.10    3.50
   0   8  11   15.30    2.70
   1   8  11    3.60    2.00
   1   8  11    2.20    1.60
   2   8  11   78.89    4.10
   2   8  11   68.59    4.40
   3   8  11   54.19    3.90
   4   8  11    2.90    2.10
  -4   9  11   75.69    6.20
  -3   9  11   52.09    4.90
  -2   9  11    0.20    2.50
  -1   9  11   98.29    5.20
   0   9  11   40.80    4.10
   1   9  11  108.59    5.10
   1   9  11  105.59    4.60
   2   9  11    4.10    2.10
   2   9  11    0.40    1.60
   3   9  11   13.70    2.60
   4   9  11    0.30    2.10
  -3  10  11   48.40    5.10
  -2  10  11   -0.60    2.70
  -1  10  11   34.30    4.10
   0  10  11   17.30    3.20
   1  10  11   19.60    2.60
   1  10  11   19.70    3.10
   2  10  11   62.99    3.90
   2  10  11   60.89    4.20
   3  10  11   35.10    3.60
  -2  11  11   41.50    4.80
  -1  11  11   13.80    3.20
   0  11  11   34.40    4.00
   1  11  11   10.70    2.80
   2  11  11   54.09    4.30
   3  11  11    4.90    2.20
  -2  12  11   46.40    5.10
  -1  12  11   77.09    5.70
   0  12  11   77.59    5.30
   1  12  11   54.79    4.60
   2  12  11   24.20    3.20
  -1  13  11   17.70    3.90
   0  13  11    3.80    2.90
   1   2 -12   47.50    4.10
   1   1 -12   15.50    2.90
   0   1 -12  109.79    5.50
  -1   1 -12   56.79    4.60
   1   0 -12   93.89    4.80
   0   0 -12    6.50    2.40
  -1   0 -12   30.20    3.60
  -2   0 -12    6.80    2.50
  -2   1  12   62.59    4.30
   1  -1 -12    1.30    2.00
   0  -1 -12    1.50    2.00
  -1  -1 -12  126.89    5.60
  -2  -1 -12  237.48    7.70
  -2   2  12   92.69    5.00
  -1   2  12    3.90    2.10
   0  -2 -12   52.89    4.00
  -1  -2 -12   15.90    2.70
  -2  -2 -12   29.40    3.50
  -3  -2 -12   13.90    2.80
  -3   3  12    2.80    2.40
  -2   3  12  155.18    6.30
  -1   3  12  411.56    9.90
   0  -3 -12    5.10    2.20
   0   3  12    5.30    2.20
  -1  -3 -12   92.49    4.70
  -2  -3 -12   95.69    4.90
  -3  -3 -12   26.00    3.30
  -3   4  12    5.80    2.60
  -2   4  12   40.00    4.00
  -1   4  12   28.90    3.50
   0  -4 -12   48.40    3.50
   0   4  12   45.50    4.00
  -1  -4 -12   13.40    2.60
  -2  -4 -12   40.70    3.70
  -3  -4 -12   46.70    4.00
  -4   5  12   46.10    4.70
  -3   5  12    5.40    2.80
  -2   5  12   81.19    5.10
  -1   5  12  158.78    6.20
   0  -5 -12    0.50    1.70
   0   5  12    0.10    1.90
  -1  -5 -12    2.80    2.00
   1   5  12    4.40    2.10
  -2  -5 -12   54.89    4.00
  -3  -5 -12   -0.90    1.90
  -4   6  12   16.40    3.40
  -3   6  12   33.50    4.00
  -2   6  12   16.40    3.30
  -1   6  12   26.80    3.40
   0   6  12    9.70    2.60
  -1  -6 -12   20.60    2.80
   1   6  12   15.60    2.90
  -2  -6 -12   13.50    2.50
  -3  -6 -12   41.00    3.90
  -4   7  12   91.39    6.10
  -3   7  12    1.70    2.70
  -2   7  12   24.10    3.60
  -1   7  12    4.20    2.50
   0   7  12  136.19    5.90
  -1  -7 -12   41.20    3.40
   1   7  12   32.50    3.70
  -2  -7 -12   59.29    3.80
   2   7  12   59.79    4.30
  -3  -7 -12   -0.20    1.90
  -3   8  12   24.20    3.90
  -2   8  12   59.49    5.10
  -1   8  12  228.08    7.80
   0   8  12   15.20    3.00
  -1  -8 -12   80.19    4.10
   1   8  12   77.99    4.60
  -2  -8 -12   80.29    4.50
   2   8  12   76.09    4.30
   2   8  12   77.09    4.80
   3   8  12   97.99    5.20
  -3   9  12  178.38    7.90
  -2   9  12   53.19    5.00
  -1   9  12   51.19    4.70
   0   9  12   42.40    4.30
   1   9  12   76.59    4.90
   1   9  12   79.89    4.20
   2   9  12   13.60    2.50
   2   9  12   13.00    2.80
   3   9  12   35.80    3.70
  -2  10  12   76.29    5.70
  -1  10  12   56.69    4.90
   0  10  12   66.39    5.20
   1  10  12   11.20    3.00
   2  10  12  189.38    6.60
   2  10  12  192.18    7.00
   3  10  12    1.80    2.10
  -2  11  12   17.30    3.70
  -1  11  12    0.00    2.70
   0  11  12   12.40    3.20
   1  11  12   30.20    3.80
   2  11  12   -1.30    2.10
   2  11  12    1.30    1.90
  -1  12  12   59.69    5.40
   0  12  12    2.10    2.60
   1  12  12   25.60    3.60
   0  13  12   35.10    4.40
   0  -1 -13    0.60    2.00
  -1  -1 -13   11.00    2.80
  -2   2  13   44.70    4.30
  -1   2  13    0.80    2.20
   0  -2 -13    2.10    2.00
  -1  -2 -13   38.90    3.90
  -2   3  13   36.70    4.00
  -1   3  13   89.69    5.20
   0  -3 -13    8.70    2.40
  -1  -3 -13    8.90    2.50
  -2  -3 -13    4.30    2.50
  -3   4  13   17.50    3.20
  -2   4  13   60.39    4.90
  -1   4  13  141.89    6.30
   0  -4 -13   43.40    3.70
   0   4  13   35.80    3.80
  -1  -4 -13   74.89    4.50
  -2  -4 -13   70.99    4.60
  -4   5  13   76.49    5.70
  -3   5  13   10.30    3.20
  -2   5  13   38.70    4.20
  -1   5  13   24.30    3.50
   0   5  13   92.89    5.10
  -1  -5 -13   19.50    2.90
  -2  -5 -13   41.80    3.90
  -4   6  13   38.70    4.70
  -3   6  13   42.10    4.60
  -2   6  13  125.59    6.30
  -1   6  13  113.69    5.90
   0   6  13   13.60    2.80
  -1  -6 -13   45.20    3.90
   1   6  13   54.19    4.60
  -2  -6 -13   18.10    2.90
  -3   7  13   39.60    4.50
  -2   7  13   25.10    3.80
  -1   7  13    7.10    2.60
   0   7  13   17.60    3.30
  -1  -7 -13   75.29    4.40
   1   7  13   64.89    4.50
  -2  -7 -13   32.10    3.60
  -3   8  13   29.60    4.20
  -2   8  13    7.80    3.10
  -1   8  13   57.49    5.00
   0   8  13   46.20    4.40
  -1  -8 -13   59.39    4.00
   1   8  13   65.99    4.80
  -2  -8 -13   51.59    4.30
   2   8  13   58.29    4.80
  -2   9  13   79.69    5.80
  -1   9  13   27.60    3.90
   0   9  13   14.70    3.10
   1   9  13   45.90    4.50
  -2  -9 -13   28.20    3.40
   2   9  13   23.80    3.50
  -2  10  13   22.80    4.00
  -1  10  13    8.00    3.20
   0  10  13   49.00    4.70
   1  10  13    5.60    2.70
   2  10  13   41.60    3.90
   2  10  13   42.60    4.30
  -1  11  13    7.50    3.30
   0  11  13   -0.60    2.60
   1  11  13  139.69    6.60
   2  11  13   -0.10    2.40
   0  12  13    3.70    2.90
   1  12  13    2.70    2.60
   0  -2 -14    8.50    2.60
  -2   3  14    6.40    2.80
  -1   3  14   25.60    3.60
   0  -3 -14    2.20    2.30
  -3   4  14   38.00    4.40
  -2   4  14   83.29    5.50
  -1   4  14   12.30    3.00
  -1  -4 -14    6.70    2.60
  -3   5  14    5.60    3.10
  -2   5  14   37.00    4.40
  -1   5  14   54.09    4.90
   0   5  14    6.60    2.50
  -3   6  14   73.49    6.00
  -2   6  14   12.40    3.20
  -1   6  14   13.50    3.20
   0   6  14   26.20    3.60
  -1  -6 -14   24.60    3.30
   1   6  14   31.60    3.90
  -2   7  14   58.99    5.40
  -1   7  14   12.10    3.10
   0   7  14   12.70    3.00
  -1  -7 -14    7.60    2.60
   1   7  14    5.60    2.80
  -2   8  14    3.90    3.00
  -1   8  14    1.50    2.70
   0   8  14    1.60    2.60
   1   8  14   43.20    4.50
  -1   9  14    4.50    2.80
   0   9  14   78.59    5.60
   1   9  14   32.60    4.00
   2   9  14    8.80    2.70
  -1  10  14   15.50    3.70
   0  10  14   12.30    3.40
   1  10  14   15.50    3.40
   2  10  14    1.00    2.20
   0  11  14    5.90    2.90
   1  11  14   86.69    5.70
   2  11  14    6.20    2.90
  -2   3  15    6.60    2.80
  -2   4  15   23.00    3.80
  -1   4  15   -2.20    2.30
  -2   5  15    7.50    3.10
  -1   5  15   52.29    4.90
   0   5  15   58.89    5.10
  -1   6  15   -0.10    2.50
   0   6  15    7.80    2.80
  -1   7  15   18.20    3.50
   0   7  15   34.60    4.20
   1   7  15    1.20    2.60
   0   8  15   22.40    3.80
   1   8  15   13.60    3.20
   0   0   0    0.00    0.00

_computing_structure_solution     'SHELXT 2014/5 (Sheldrick, 2014)'
;
_shelx_hkl_checksum              13599
loop_
_space_group_symop_operation_xyz
'x, y, z'
'-x, -y, -z'
loop_
_atom_site_label
_atom_site_type_symbol
_atom_site_fract_x
_atom_site_fract_y
_atom_site_fract_z
_atom_site_U_iso_or_equiv
_atom_site_adp_type
_atom_site_occupancy
_atom_site_site_symmetry_order
_atom_site_calc_flag
_atom_site_refinement_flags_posn
_atom_site_refinement_flags_adp
_atom_site_refinement_flags_occupancy
_atom_site_disorder_assembly
_atom_site_disorder_group
Co1 Co 1.000000 0.500000 0.500000 0.0216(2) Uani 1 2 d S . P . .
O1 O 0.7113(3) 0.5026(2) 0.37791(19) 0.0318(4) Uani 1 1 d D . . . .
H1B H 0.789(5) 0.478(3) 0.321(3) 0.051(10) Uiso 1 1 d D . . . .
H1A H 0.594(4) 0.459(3) 0.404(3) 0.051(10) Uiso 1 1 d D . . . .
O2 O 0.7346(3) 0.59280(18) 0.59899(17) 0.0277(4) Uani 1 1 d . . . . .
O3 O 0.9662(4) 0.5965(3) 0.7565(3) 0.0608(7) Uani 1 1 d . . . . .
O4 O 1.0968(8) 0.6612(4) 0.9734(4) 0.1277(16) Uani 1 1 d . . . . .
H4B H 1.160218 0.686453 0.897286 0.153 Uiso 1 1 d R U . . .
H4C H 1.021207 0.595623 0.979996 0.153 Uiso 1 1 d R U . . .
N1 N 0.9666(4) 0.2992(2) 0.6413(2) 0.0286(5) Uani 1 1 d . . . . .
N2 N 0.8231(4) 0.1316(2) 0.8060(2) 0.0269(5) Uani 1 1 d . . . . .
C1 C 0.7709(5) 0.6298(3) 0.6914(3) 0.0304(6) Uani 1 1 d . . . . .
C2 C 0.5616(5) 0.7254(3) 0.7200(3) 0.0397(7) Uani 1 1 d . . . . .
H2A H 0.412789 0.686030 0.730997 0.048 Uiso 1 1 calc R U . . .
H2AB H 0.597813 0.733072 0.802205 0.048 Uiso 1 1 calc R U . . .
C3 C 0.5244(5) 0.8682(3) 0.6072(3) 0.0342(6) Uani 1 1 d . . . . .
C4 C 0.3341(5) 0.9133(3) 0.5140(3) 0.0392(7) Uani 1 1 d . . . . .
H4 H 0.220466 0.855466 0.522595 0.047 Uiso 1 1 calc R U . . .
C5 C 0.3089(5) 1.0410(3) 0.4095(3) 0.0384(6) Uani 1 1 d . . . . .
H5 H 0.178913 1.068190 0.348258 0.046 Uiso 1 1 calc R U . . .
C6 C 0.7840(5) 0.2671(3) 0.7208(3) 0.0319(6) Uani 1 1 d . . . . .
H6 H 0.644399 0.330217 0.718746 0.038 Uiso 1 1 calc R U . . .
C7 C 1.1323(5) 0.1772(3) 0.6761(3) 0.0294(5) Uani 1 1 d . . . . .
H7 H 1.280931 0.167714 0.636037 0.035 Uiso 1 1 calc R U . . .
C8 C 1.0462(5) 0.0733(3) 0.7771(3) 0.0288(5) Uani 1 1 d . . . . .
H8 H 1.122629 -0.019125 0.818824 0.035 Uiso 1 1 calc R U . . .
C9 C 0.6595(5) 0.0645(3) 0.9054(2) 0.0272(5) Uani 1 1 d . . . . .
C10 C 0.4947(5) 0.1419(3) 0.9556(3) 0.0329(6) Uani 1 1 d . . . . .
H10 H 0.491902 0.237413 0.925961 0.039 Uiso 1 1 calc R U . . .
C11 C 0.6674(5) -0.0772(3) 0.9494(3) 0.0323(6) Uani 1 1 d . . . . .
H11 H 0.780301 -0.129193 0.915848 0.039 Uiso 1 1 calc R U . . .
loop_
_atom_site_aniso_label
_atom_site_aniso_U_11
_atom_site_aniso_U_22
_atom_site_aniso_U_33
_atom_site_aniso_U_23
_atom_site_aniso_U_13
_atom_site_aniso_U_12
Co1 0.0199(3) 0.0208(3) 0.0232(3) -0.00678(19) 0.00669(18) -0.00780(17)
O1 0.0227(9) 0.0386(10) 0.0374(10) -0.0176(9) 0.0039(8) -0.0088(8)
O2 0.0243(9) 0.0308(9) 0.0312(9) -0.0154(8) 0.0080(7) -0.0071(7)
O3 0.0344(12) 0.108(2) 0.0612(15) -0.0589(16) -0.0014(11) -0.0021(12)
O4 0.152(4) 0.129(4) 0.116(3) -0.068(3) -0.004(3) -0.009(3)
N1 0.0264(11) 0.0240(10) 0.0310(11) -0.0057(9) 0.0070(8) -0.0081(8)
N2 0.0276(11) 0.0233(10) 0.0257(10) -0.0047(8) 0.0059(8) -0.0081(8)
C1 0.0284(13) 0.0346(13) 0.0318(13) -0.0158(11) 0.0091(10) -0.0107(10)
C2 0.0376(15) 0.0483(16) 0.0448(16) -0.0299(14) 0.0172(13) -0.0128(12)
C3 0.0281(13) 0.0396(14) 0.0478(15) -0.0318(13) 0.0108(11) -0.0054(11)
C4 0.0282(14) 0.0444(16) 0.0618(19) -0.0360(15) 0.0091(13) -0.0143(11)
C5 0.0287(13) 0.0464(16) 0.0532(17) -0.0334(14) 0.0036(12) -0.0075(11)
C6 0.0279(13) 0.0259(12) 0.0332(13) -0.0034(10) 0.0109(10) -0.0060(10)
C7 0.0237(12) 0.0313(13) 0.0321(13) -0.0116(10) 0.0048(10) -0.0058(10)
C8 0.0276(13) 0.0248(12) 0.0288(12) -0.0065(10) 0.0000(10) -0.0023(9)
C9 0.0289(13) 0.0277(12) 0.0229(11) -0.0051(9) 0.0056(10) -0.0132(10)
C10 0.0406(15) 0.0226(11) 0.0331(13) -0.0071(10) 0.0109(11) -0.0120(10)
C11 0.0372(14) 0.0249(12) 0.0341(14) -0.0104(10) 0.0115(11) -0.0097(10)
loop_
_atom_type_symbol
_atom_type_description
_atom_type_scat_dispersion_real
_atom_type_scat_dispersion_imag
_atom_type_scat_source
C C 0.0033 0.0016 'International Tables Vol C Tables 4.2.6.8 and 6.1.1.4'
H H 0.0000 0.0000 'International Tables Vol C Tables 4.2.6.8 and 6.1.1.4'
Co Co 0.3494 0.9721 'International Tables Vol C Tables 4.2.6.8 and 6.1.1.4'
N N 0.0061 0.0033 'International Tables Vol C Tables 4.2.6.8 and 6.1.1.4'
O O 0.0106 0.0060 'International Tables Vol C Tables 4.2.6.8 and 6.1.1.4'
loop_
_geom_angle_atom_site_label_1
_geom_angle_atom_site_label_2
_geom_angle_atom_site_label_3
_geom_angle
_geom_angle_site_symmetry_1
_geom_angle_site_symmetry_3
_geom_angle_publ_flag
N1 Co1 N1 180.0 2_766 . ?
N1 Co1 O1 87.76(8) 2_766 . ?
N1 Co1 O1 92.24(8) . . ?
N1 Co1 O1 92.24(8) 2_766 2_766 ?
N1 Co1 O1 87.76(8) . 2_766 ?
O1 Co1 O1 180.0 . 2_766 ?
N1 Co1 O2 89.23(8) 2_766 . ?
N1 Co1 O2 90.77(8) . . ?
O1 Co1 O2 88.17(7) . . ?
O1 Co1 O2 91.83(7) 2_766 . ?
N1 Co1 O2 90.77(8) 2_766 2_766 ?
N1 Co1 O2 89.23(8) . 2_766 ?
O1 Co1 O2 91.83(7) . 2_766 ?
O1 Co1 O2 88.17(7) 2_766 2_766 ?
O2 Co1 O2 180.0 . 2_766 ?
Co1 O1 H1B 102(2) . . ?
Co1 O1 H1A 126(2) . . ?
H1B O1 H1A 109.2(16) . . ?
C1 O2 Co1 127.95(16) . . ?
H4B O4 H4C 105.9 . . ?
C6 N1 C7 105.6(2) . . ?
C6 N1 Co1 125.78(18) . . ?
C7 N1 Co1 128.55(18) . . ?
C6 N2 C8 106.7(2) . . ?
C6 N2 C9 125.4(2) . . ?
C8 N2 C9 127.8(2) . . ?
O3 C1 O2 124.2(2) . . ?
O3 C1 C2 118.9(2) . . ?
O2 C1 C2 116.8(2) . . ?
C3 C2 C1 110.3(2) . . ?
C3 C2 H2A 109.6 . . ?
C1 C2 H2A 109.6 . . ?
C3 C2 H2AB 109.6 . . ?
C1 C2 H2AB 109.6 . . ?
H2A C2 H2AB 108.1 . . ?
C4 C3 C5 117.3(3) . 2_676 ?
C4 C3 C2 122.4(3) . . ?
C5 C3 C2 120.3(3) 2_676 . ?
C5 C4 C3 121.5(3) . . ?
C5 C4 H4 119.2 . . ?
C3 C4 H4 119.2 . . ?
C4 C5 C3 121.2(3) . 2_676 ?
C4 C5 H5 119.4 . . ?
C3 C5 H5 119.4 2_676 . ?
N1 C6 N2 111.8(2) . . ?
N1 C6 H6 124.1 . . ?
N2 C6 H6 124.1 . . ?
C8 C7 N1 109.7(2) . . ?
C8 C7 H7 125.1 . . ?
N1 C7 H7 125.1 . . ?
C7 C8 N2 106.2(2) . . ?
C7 C8 H8 126.9 . . ?
N2 C8 H8 126.9 . . ?
C10 C9 C11 120.6(2) . . ?
C10 C9 N2 119.9(2) . . ?
C11 C9 N2 119.5(2) . . ?
C9 C10 C11 119.9(2) . 2_657 ?
C9 C10 H10 120.0 . . ?
C11 C10 H10 120.0 2_657 . ?
C9 C11 C10 119.4(3) . 2_657 ?
C9 C11 H11 120.3 . . ?
C10 C11 H11 120.3 2_657 . ?
loop_
_geom_bond_atom_site_label_1
_geom_bond_atom_site_label_2
_geom_bond_distance
_geom_bond_site_symmetry_2
_geom_bond_publ_flag
Co1 N1 2.104(2) 2_766 ?
Co1 N1 2.104(2) . ?
Co1 O1 2.1176(19) . ?
Co1 O1 2.1176(19) 2_766 ?
Co1 O2 2.1405(17) . ?
Co1 O2 2.1406(17) 2_766 ?
O1 H1B 0.848(10) . ?
O1 H1A 0.839(10) . ?
O2 C1 1.262(3) . ?
O3 C1 1.239(3) . ?
O4 H4B 0.8501 . ?
O4 H4C 0.8500 . ?
N1 C6 1.309(3) . ?
N1 C7 1.377(3) . ?
N2 C6 1.348(3) . ?
N2 C8 1.375(3) . ?
N2 C9 1.427(3) . ?
C1 C2 1.521(4) . ?
C2 C3 1.507(4) . ?
C2 H2A 0.9700 . ?
C2 H2AB 0.9700 . ?
C3 C4 1.381(4) . ?
C3 C5 1.403(4) 2_676 ?
C4 C5 1.365(4) . ?
C4 H4 0.9300 . ?
C5 H5 0.9300 . ?
C6 H6 0.9300 . ?
C7 C8 1.350(4) . ?
C7 H7 0.9300 . ?
C8 H8 0.9300 . ?
C9 C10 1.376(4) . ?
C9 C11 1.377(3) . ?
C10 C11 1.388(3) 2_657 ?
C10 H10 0.9300 . ?
C11 H11 0.9300 . ?
loop_
_geom_torsion_atom_site_label_1
_geom_torsion_atom_site_label_2
_geom_torsion_atom_site_label_3
_geom_torsion_atom_site_label_4
_geom_torsion
_geom_torsion_site_symmetry_1
_geom_torsion_site_symmetry_2
_geom_torsion_site_symmetry_3
_geom_torsion_site_symmetry_4
_geom_torsion_publ_flag
Co1 O2 C1 O3 -12.9(4) . . . . ?
Co1 O2 C1 C2 164.97(17) . . . . ?
O3 C1 C2 C3 108.3(3) . . . . ?
O2 C1 C2 C3 -69.7(3) . . . . ?
C1 C2 C3 C4 104.0(3) . . . . ?
C1 C2 C3 C5 -73.5(3) . . . 2_676 ?
C5 C3 C4 C5 0.2(4) 2_676 . . . ?
C2 C3 C4 C5 -177.4(2) . . . . ?
C3 C4 C5 C3 -0.2(5) . . . 2_676 ?
C7 N1 C6 N2 0.6(3) . . . . ?
Co1 N1 C6 N2 -175.93(17) . . . . ?
C8 N2 C6 N1 -0.7(3) . . . . ?
C9 N2 C6 N1 179.7(2) . . . . ?
C6 N1 C7 C8 -0.3(3) . . . . ?
Co1 N1 C7 C8 176.08(17) . . . . ?
N1 C7 C8 N2 -0.1(3) . . . . ?
C6 N2 C8 C7 0.4(3) . . . . ?
C9 N2 C8 C7 -180.0(2) . . . . ?
C6 N2 C9 C10 -24.8(4) . . . . ?
C8 N2 C9 C10 155.6(3) . . . . ?
C6 N2 C9 C11 154.8(3) . . . . ?
C8 N2 C9 C11 -24.8(4) . . . . ?
C11 C9 C10 C11 -0.7(5) . . . 2_657 ?
N2 C9 C10 C11 178.9(2) . . . 2_657 ?
C10 C9 C11 C10 0.7(4) . . . 2_657 ?
N2 C9 C11 C10 -178.9(2) . . . 2_657 ?
