#------------------------------------------------------------------------------
#$Date: 2021-07-05 20:05:20 +0300 (Mon, 05 Jul 2021) $
#$Revision: 267102 $
#$URL: file:///home/coder/svn-repositories/cod/cif/7/24/27/7242799.cif $
#------------------------------------------------------------------------------
#
# This file is available in the Crystallography Open Database (COD),
# http://www.crystallography.net/
#
# All data on this site have been placed in the public domain by the
# contributors.
#
data_7242799
loop_
_publ_author_name
'da Silva, Amandha Kaiser'
'Diniz, Luan F.'
'Tenorio, Juan C.'
'Naz\'ario, Carlos E. D.'
'Ribeiro, Caue'
'Carvalho Jr, Paulo S.'
_publ_section_title
;
 Driving a sustainable application of s-triazine ametryn and atrazine
 herbicides through multicomponent crystals with improved solubility
;
_journal_issue                   24
_journal_name_full               CrystEngComm
_journal_page_first              4252
_journal_page_last               4263
_journal_paper_doi               10.1039/D1CE00356A
_journal_volume                  23
_journal_year                    2021
_chemical_formula_moiety         'C9 H18 N5 S, N O3'
_chemical_formula_sum            'C9 H18 N6 O3 S'
_chemical_formula_weight         290.35
_space_group_crystal_system      triclinic
_space_group_IT_number           2
_space_group_name_Hall           '-P 1'
_space_group_name_H-M_alt        'P -1'
_atom_sites_solution_hydrogens   geom
_atom_sites_solution_primary     dual
_audit_creation_date             2020-11-23
_audit_creation_method
;
Olex2 1.3
(compiled 2020.07.31 svn.rc2a77460 for OlexSys, GUI svn.r6145)
;
_audit_update_record
;
2020-11-24 deposited with the CCDC.	2021-05-10 downloaded from the CCDC.
;
_cell_angle_alpha                77.541(7)
_cell_angle_beta                 72.346(7)
_cell_angle_gamma                67.479(7)
_cell_formula_units_Z            2
_cell_length_a                   9.1659(7)
_cell_length_b                   9.5067(8)
_cell_length_c                   9.6825(8)
_cell_measurement_reflns_used    15139
_cell_measurement_temperature    298(2)
_cell_measurement_theta_max      26.719
_cell_measurement_theta_min      3.401
_cell_volume                     737.89(11)
_computing_molecular_graphics    'Olex2 1.3 (Dolomanov et al., 2009)'
_computing_publication_material  'Olex2 1.3 (Dolomanov et al., 2009)'
_computing_structure_refinement  'SHELXL 2014/7 (Sheldrick, 2015)'
_computing_structure_solution    'SHELXT 2014/5 (Sheldrick, 2014)'
_diffrn_ambient_temperature      298(2)
_diffrn_measured_fraction_theta_full 0.997
_diffrn_measured_fraction_theta_max 0.998
_diffrn_measurement_device_type  'SuperNova, Dual, Cu at zero, AtlasS2'
_diffrn_radiation_type           MoK\a
_diffrn_radiation_wavelength     0.71073
_diffrn_reflns_av_R_equivalents  0.0288
_diffrn_reflns_av_unetI/netI     0.0198
_diffrn_reflns_Laue_measured_fraction_full 0.997
_diffrn_reflns_Laue_measured_fraction_max 0.998
_diffrn_reflns_limit_h_max       11
_diffrn_reflns_limit_h_min       -11
_diffrn_reflns_limit_k_max       11
_diffrn_reflns_limit_k_min       -12
_diffrn_reflns_limit_l_max       12
_diffrn_reflns_limit_l_min       -12
_diffrn_reflns_number            15139
_diffrn_reflns_point_group_measured_fraction_full 0.997
_diffrn_reflns_point_group_measured_fraction_max 0.998
_diffrn_reflns_theta_full        25.242
_diffrn_reflns_theta_max         26.719
_diffrn_reflns_theta_min         3.401
_exptl_absorpt_coefficient_mu    0.234
_exptl_crystal_colour            'clear light colourless'
_exptl_crystal_colour_lustre     clear
_exptl_crystal_colour_modifier   light
_exptl_crystal_colour_primary    colourless
_exptl_crystal_density_diffrn    1.307
_exptl_crystal_description       prism
_exptl_crystal_F_000             308
_refine_diff_density_max         0.343
_refine_diff_density_min         -0.236
_refine_diff_density_rms         0.041
_refine_ls_extinction_method     none
_refine_ls_goodness_of_fit_ref   1.046
_refine_ls_hydrogen_treatment    constr
_refine_ls_matrix_type           full
_refine_ls_number_parameters     204
_refine_ls_number_reflns         3125
_refine_ls_number_restraints     58
_refine_ls_restrained_S_all      1.045
_refine_ls_R_factor_all          0.0861
_refine_ls_R_factor_gt           0.0657
_refine_ls_shift/su_max          0.000
_refine_ls_shift/su_mean         0.000
_refine_ls_structure_factor_coef Fsqd
_refine_ls_weighting_details
'w=1/[\s^2^(Fo^2^)+(0.0828P)^2^+0.3629P] where P=(Fo^2^+2Fc^2^)/3'
_refine_ls_weighting_scheme      calc
_refine_ls_wR_factor_gt          0.1805
_refine_ls_wR_factor_ref         0.1950
_reflns_Friedel_coverage         0.000
_reflns_number_gt                2250
_reflns_number_total             3125
_reflns_threshold_expression     'I > 2\s(I)'
_iucr_refine_instructions_details
;

    amt_no3.res created by SHELXL-2014/7

TITL amt_no3_a.res in P-1
REM Old TITL amt_no3_a.res in P-1
REM SHELXT solution in P-1
REM R1 0.286, Rweak 0.030, Alpha 0.077, Orientation as input
REM Formula found by SHELXT: C12 N1 O3 S
CELL 0.71073 9.1659 9.5067 9.6825 77.541 72.346 67.479
ZERR 2 0.0007 0.0008 0.0008 0.007 0.007 0.007
LATT 1
SFAC C H N O S
UNIT 18 36 12 6 2
DFIX 1.51 C4A C5A
SADI C4A C5A C5B C4B
SADI N5B C4A N5A C4B
SADI N5A C3 N5B C3
RIGU N5B C4A C5A
RIGU N5A C5B C4B
RIGU N4 C1 N1 C2 N3 C3
 
L.S. 18
PLAN  4
TEMP 25(2)
CONF
BOND $H
list 4
MORE -1
fmap 2
acta
SHEL 10 0.79
REM <olex2.extras>
REM <HklSrc "%.\\AMT_NO3.hkl">
REM </olex2.extras>
 
WGHT    0.082800    0.362900
FVAR       0.67139
S1    5    0.175610    0.364656    0.870343    11.00000    0.08646    0.09311 =
         0.05777   -0.00518   -0.00388   -0.00512
N1    3    0.214309    0.476126    0.596236    11.00000    0.05964    0.05191 =
         0.06183   -0.00419   -0.01378   -0.00101
AFIX  43
H1    2    0.119587    0.541984    0.626344    11.00000   -1.20000
AFIX   0
N4    3    0.418848    0.251658    0.647174    11.00000    0.07230    0.05609 =
         0.05419   -0.00070   -0.01687    0.00124
 
N6    3   -0.154904    0.791145    0.623681    11.00000    0.06410    0.06316 =
         0.07778   -0.00140   -0.01804    0.00045
N3    3    0.438291    0.385462    0.404432    11.00000    0.06940    0.05716 =
         0.05669   -0.00022   -0.01165    0.00002
O1    4   -0.083566    0.686977    0.704637    11.00000    0.08158    0.08678 =
         0.09351    0.01690   -0.01014    0.01915
O3    4   -0.284645    0.885619    0.674198    11.00000    0.09078    0.08727 =
         0.09317    0.00032   -0.01487    0.02820
N2    3    0.232962    0.609838    0.368380    11.00000    0.07403    0.05493 =
         0.06606    0.00256   -0.01851    0.00047
AFIX  43
H2    2    0.139214    0.673643    0.404735    11.00000   -1.20000
AFIX   0
C2    1    0.297518    0.488855    0.454314    11.00000    0.06362    0.04781 =
         0.05750   -0.00105   -0.01828   -0.00799
C1    1    0.282510    0.358647    0.689173    11.00000    0.06545    0.05500 =
         0.05449   -0.00468   -0.01674   -0.01090
 
O2    4   -0.095773    0.798273    0.493550    11.00000    0.11503    0.15563 =
         0.07350   -0.00164   -0.01732    0.04168
C3    1    0.489753    0.266067    0.500988    11.00000    0.07317    0.05967 =
         0.05722   -0.00168   -0.01512    0.00295
PART 2
N5A   3    0.599394    0.133176    0.452348    10.45000    0.05669    0.04864 =
         0.05546   -0.00847   -0.01705    0.00192
AFIX  43
H5A   2    0.618449    0.053095    0.514832    10.45000   -1.20000
AFIX   0
PART 0
C6    1    0.310378    0.642807    0.214986    11.00000    0.07937    0.07177 =
         0.06586    0.01073   -0.02397   -0.01343
AFIX  13
H6    2    0.427360    0.613898    0.205884    11.00000   -1.20000
AFIX   0
C9    1    0.301302    0.196203    0.955876    11.00000    0.13527    0.10019 =
         0.05726    0.01542   -0.02013   -0.01784
AFIX 137
H9A   2    0.304460    0.107580    0.921127    11.00000   -1.50000
H9B   2    0.257634    0.190834    1.059626    11.00000   -1.50000
H9C   2    0.409575    0.199381    0.932987    11.00000   -1.50000
AFIX   0
C8    1    0.244326    0.813111    0.172505    11.00000    0.15781    0.07930 =
         0.10294    0.02884   -0.03461   -0.02081
AFIX 137
H8A   2    0.129318    0.844549    0.181734    11.00000   -1.50000
H8B   2    0.297736    0.837415    0.073285    11.00000   -1.50000
H8C   2    0.263837    0.865887    0.235427    11.00000   -1.50000
AFIX   0
C7    1    0.289304    0.552468    0.120574    11.00000    0.11588    0.13024 =
         0.08388   -0.00385   -0.02700   -0.04365
AFIX 137
H7A   2    0.338309    0.445167    0.149186    11.00000   -1.50000
H7B   2    0.340653    0.577517    0.020848    11.00000   -1.50000
H7C   2    0.175260    0.576028    0.130350    11.00000   -1.50000
AFIX   0
PART 1
C5A   1    0.722248    0.071087    0.237938    10.55000    0.20768    0.16028 =
         0.09171   -0.02223   -0.03354   -0.05851
AFIX 137
H5AA  2    0.796945    0.058438    0.143669    10.55000   -1.50000
H5AB  2    0.612648    0.116526    0.226638    10.55000   -1.50000
H5AC  2    0.735774   -0.027096    0.294916    10.55000   -1.50000
AFIX   0
PART 2
C5B   1    0.834298    0.168397    0.243186    10.45000    0.08161    0.11133 =
         0.07150   -0.02322    0.00435   -0.03088
AFIX 137
H5BA  2    0.888005    0.142045    0.145711    10.45000   -1.50000
H5BB  2    0.908235    0.118163    0.305094    10.45000   -1.50000
H5BC  2    0.799922    0.277366    0.242867    10.45000   -1.50000
AFIX   0
PART 1
C4A   1    0.754780    0.170602    0.311886    10.55000    0.12112    0.08041 =
         0.09255   -0.01608   -0.02038    0.00671
AFIX  23
H4AA  2    0.731441    0.273607    0.261269    10.55000   -1.20000
H4AB  2    0.867476    0.130904    0.317848    10.55000   -1.20000
AFIX   0
PART 2
C4B   1    0.687631    0.117476    0.299618    10.45000    0.06222    0.05686 =
         0.05246   -0.02030   -0.01665   -0.00033
AFIX  23
H4BA  2    0.611418    0.175093    0.239644    10.45000   -1.20000
H4BB  2    0.722917    0.010475    0.285163    10.45000   -1.20000
AFIX   0
PART 1
N5B   3    0.641989    0.169131    0.460779    10.55000    0.07695    0.06921 =
         0.07210   -0.00386   -0.01406    0.00833
AFIX  43
H5B   2    0.678731    0.099160    0.526763    10.55000   -1.20000
AFIX   0
HKLF 4
 
REM  amt_no3_a.res in P-1
REM R1 =  0.0657 for    2250 Fo > 4sig(Fo)  and  0.0861 for all    3125 data
REM    204 parameters refined using     58 restraints
 
END  
     
WGHT      0.0829      0.3625 

REM Highest difference peak  0.343,  deepest hole -0.236,  1-sigma level  0.041
Q1    1  -0.0438  0.8533  0.5358  11.00000  0.05    0.34
Q2    1  -0.1065  0.7015  0.5451  11.00000  0.05    0.26
Q3    1  -0.1143  0.6567  0.6215  11.00000  0.05    0.24
Q4    1   0.1860  0.3375  0.7772  11.00000  0.05    0.24

  REM The information below was added by Olex2.
  REM
  REM R1 = 0.0657 for 2250 Fo > 4sig(Fo) and 0.0861 for all 16120 data
  REM 204 parameters refined using n/a restraints
  REM Highest difference peak 0.34, deepest hole -0.24
  REM Mean Shift 0, Max Shift 0.000.

  REM +++ Tabular Listing of Refinement Information +++
  REM R1_all = 0.0861
  REM R1_gt = 0.0657
  REM wR_ref = 0.1950
  REM GOOF = 1.046
  REM Shift_max = 0.000
  REM Shift_mean = 0
  REM Reflections_all = 16120
  REM Reflections_gt = 2250
  REM Parameters = 204
  REM Hole = -0.24
  REM Peak = 0.34
  REM Flack = n/a

  
;
_cod_data_source_file            d1ce00356a2.cif
_cod_data_source_block           amt_no3
_cod_depositor_comments
'Adding full bibliography for 7242798--7242801.cif.'
_cod_original_cell_volume        737.90(11)
_cod_database_code               7242799
_shelx_shelxl_version_number     2014/7
_shelx_space_group_comment
;
The symmetry employed for this shelxl refinement is uniquely defined
by the following loop, which should always be used as a source of
symmetry information in preference to the above space-group names.
They are only intended as comments.
;
_olex2_refinement_description
;
1. Fixed Uiso
 At 1.2 times of:
  All C(H) groups, All C(H,H) groups, All N(H) groups
 At 1.5 times of:
  All C(H,H,H) groups
2. Restrained distances
 C4A-C5A
 1.51 with sigma of 0.02
 C4A-C5A \\sim C5B-C4B
 with sigma of 0.02
 N5B-C4A \\sim N5A-C4B
 with sigma of 0.02
 N5A-C3 \\sim N5B-C3
 with sigma of 0.02
3. Rigid body (RIGU) restrains
 N5B, C4A, C5A
 with sigma for 1-2 distances of 0.004 and sigma for 1-3 distances of 0.004
 N5A, C5B, C4B
 with sigma for 1-2 distances of 0.004 and sigma for 1-3 distances of 0.004
 N4, C1, N1, C2, N3, C3
 with sigma for 1-2 distances of 0.004 and sigma for 1-3 distances of 0.004
4. Others
 Fixed Sof: N5A(0.45) H5A(0.45) C5A(0.55) H5AA(0.55) H5AB(0.55) H5AC(0.55)
 C5B(0.45) H5BA(0.45) H5BB(0.45) H5BC(0.45) C4A(0.55) H4AA(0.55) H4AB(0.55)
 C4B(0.45) H4BA(0.45) H4BB(0.45) N5B(0.55) H5B(0.55)
5.a Ternary CH refined with riding coordinates:
 C6(H6)
5.b Secondary CH2 refined with riding coordinates:
 C4A(H4AA,H4AB), C4B(H4BA,H4BB)
5.c Aromatic/amide H refined with riding coordinates:
 N1(H1), N2(H2), N5A(H5A), N5B(H5B)
5.d Idealised Me refined as rotating group:
 C9(H9A,H9B,H9C), C8(H8A,H8B,H8C), C7(H7A,H7B,H7C), C5A(H5AA,H5AB,H5AC),
 C5B(H5BA,H5BB,H5BC)
;
_olex2_submission_original_sample_id 'Ametryn nitrate'
_olex2_submission_special_instructions 'No special instructions were received'
loop_
_space_group_symop_operation_xyz
'x, y, z'
'-x, -y, -z'
loop_
_atom_site_label
_atom_site_type_symbol
_atom_site_fract_x
_atom_site_fract_y
_atom_site_fract_z
_atom_site_U_iso_or_equiv
_atom_site_adp_type
_atom_site_occupancy
_atom_site_site_symmetry_order
_atom_site_calc_flag
_atom_site_refinement_flags_posn
_atom_site_refinement_flags_adp
_atom_site_refinement_flags_occupancy
_atom_site_disorder_assembly
_atom_site_disorder_group
S1 S 0.17561(11) 0.36466(11) 0.87034(8) 0.0909(4) Uani 1 1 d . . . . .
N1 N 0.2143(3) 0.4761(2) 0.5962(2) 0.0640(6) Uani 1 1 d . U . . .
H1 H 0.1196 0.5420 0.6263 0.077 Uiso 1 1 calc R U . . .
N4 N 0.4188(3) 0.2517(2) 0.6472(2) 0.0686(6) Uani 1 1 d . U . . .
N6 N -0.1549(3) 0.7911(3) 0.6237(3) 0.0762(7) Uani 1 1 d . . . . .
N3 N 0.4383(3) 0.3855(2) 0.4044(2) 0.0697(6) Uani 1 1 d . U . . .
O1 O -0.0836(3) 0.6870(3) 0.7046(3) 0.1093(9) Uani 1 1 d . . . . .
O3 O -0.2846(3) 0.8856(3) 0.6742(3) 0.1122(10) Uani 1 1 d . . . . .
N2 N 0.2330(3) 0.6098(3) 0.3684(3) 0.0732(7) Uani 1 1 d . . . . .
H2 H 0.1392 0.6736 0.4047 0.088 Uiso 1 1 calc R U . . .
C2 C 0.2975(3) 0.4889(3) 0.4543(3) 0.0597(6) Uani 1 1 d . U . . .
C1 C 0.2825(3) 0.3586(3) 0.6892(3) 0.0611(6) Uani 1 1 d . U . . .
O2 O -0.0958(4) 0.7983(4) 0.4936(3) 0.1453(14) Uani 1 1 d . . . . .
C3 C 0.4898(4) 0.2661(3) 0.5010(3) 0.0723(8) Uani 1 1 d D U . . .
N5A N 0.5994(10) 0.1332(10) 0.4523(10) 0.0586(19) Uani 0.45 1 d D U P A 2
H5A H 0.6184 0.0531 0.5148 0.070 Uiso 0.45 1 calc R U P A 2
C6 C 0.3104(4) 0.6428(3) 0.2150(3) 0.0778(8) Uani 1 1 d . . . . .
H6 H 0.4274 0.6139 0.2059 0.093 Uiso 1 1 calc R U . . .
C9 C 0.3013(6) 0.1962(5) 0.9559(4) 0.1094(13) Uani 1 1 d . . . . .
H9A H 0.3045 0.1076 0.9211 0.164 Uiso 1 1 calc R U . . .
H9B H 0.2576 0.1908 1.0596 0.164 Uiso 1 1 calc R U . . .
H9C H 0.4096 0.1994 0.9330 0.164 Uiso 1 1 calc R U . . .
C8 C 0.2443(6) 0.8131(4) 0.1725(5) 0.1253(16) Uani 1 1 d . . . . .
H8A H 0.1293 0.8445 0.1817 0.188 Uiso 1 1 calc R U . . .
H8B H 0.2977 0.8374 0.0733 0.188 Uiso 1 1 calc R U . . .
H8C H 0.2638 0.8659 0.2354 0.188 Uiso 1 1 calc R U . . .
C7 C 0.2893(5) 0.5525(5) 0.1206(4) 0.1102(13) Uani 1 1 d . . . . .
H7A H 0.3383 0.4452 0.1492 0.165 Uiso 1 1 calc R U . . .
H7B H 0.3407 0.5775 0.0208 0.165 Uiso 1 1 calc R U . . .
H7C H 0.1753 0.5760 0.1303 0.165 Uiso 1 1 calc R U . . .
C5A C 0.7222(17) 0.0711(14) 0.2379(11) 0.154(4) Uani 0.55 1 d D U P A 1
H5AA H 0.7969 0.0584 0.1437 0.231 Uiso 0.55 1 calc R U P A 1
H5AB H 0.6126 0.1165 0.2266 0.231 Uiso 0.55 1 calc R U P A 1
H5AC H 0.7358 -0.0271 0.2949 0.231 Uiso 0.55 1 calc R U P A 1
C5B C 0.8343(10) 0.1684(11) 0.2432(10) 0.092(3) Uani 0.45 1 d D U P A 2
H5BA H 0.8880 0.1420 0.1457 0.138 Uiso 0.45 1 calc R U P A 2
H5BB H 0.9082 0.1182 0.3051 0.138 Uiso 0.45 1 calc R U P A 2
H5BC H 0.7999 0.2774 0.2429 0.138 Uiso 0.45 1 calc R U P A 2
C4A C 0.7548(13) 0.1706(10) 0.3119(9) 0.111(3) Uani 0.55 1 d D U P A 1
H4AA H 0.7314 0.2736 0.2613 0.133 Uiso 0.55 1 calc R U P A 1
H4AB H 0.8675 0.1309 0.3178 0.133 Uiso 0.55 1 calc R U P A 1
C4B C 0.6876(8) 0.1175(9) 0.2996(7) 0.0604(15) Uani 0.45 1 d D U P A 2
H4BA H 0.6114 0.1751 0.2396 0.073 Uiso 0.45 1 calc R U P A 2
H4BB H 0.7229 0.0105 0.2852 0.073 Uiso 0.45 1 calc R U P A 2
N5B N 0.6420(9) 0.1691(10) 0.4608(9) 0.085(3) Uani 0.55 1 d D U P A 1
H5B H 0.6787 0.0992 0.5268 0.102 Uiso 0.55 1 calc R U P A 1
loop_
_atom_site_aniso_label
_atom_site_aniso_U_11
_atom_site_aniso_U_22
_atom_site_aniso_U_33
_atom_site_aniso_U_23
_atom_site_aniso_U_13
_atom_site_aniso_U_12
S1 0.0865(6) 0.0931(6) 0.0578(5) -0.0052(4) -0.0039(4) -0.0051(4)
N1 0.0596(12) 0.0519(11) 0.0618(13) -0.0042(9) -0.0138(10) -0.0010(9)
N4 0.0723(14) 0.0561(12) 0.0542(12) -0.0007(9) -0.0169(10) 0.0012(10)
N6 0.0641(14) 0.0632(14) 0.0778(16) -0.0014(12) -0.0180(12) 0.0005(11)
N3 0.0694(13) 0.0572(12) 0.0567(12) -0.0002(9) -0.0116(10) 0.0000(10)
O1 0.0816(15) 0.0868(15) 0.0935(16) 0.0169(13) -0.0101(12) 0.0191(12)
O3 0.0908(16) 0.0873(16) 0.0932(17) 0.0003(13) -0.0149(13) 0.0282(13)
N2 0.0740(14) 0.0549(12) 0.0661(14) 0.0026(10) -0.0185(11) 0.0005(11)
C2 0.0636(14) 0.0478(13) 0.0575(14) -0.0011(10) -0.0183(11) -0.0080(11)
C1 0.0654(15) 0.0550(14) 0.0545(14) -0.0047(10) -0.0167(11) -0.0109(11)
O2 0.115(2) 0.156(3) 0.0735(17) -0.0016(16) -0.0173(15) 0.0417(19)
C3 0.0732(17) 0.0597(15) 0.0572(14) -0.0017(11) -0.0151(12) 0.0030(13)
N5A 0.057(4) 0.049(4) 0.055(3) -0.008(2) -0.017(3) 0.002(3)
C6 0.0794(19) 0.0718(18) 0.0659(17) 0.0107(14) -0.0240(15) -0.0134(15)
C9 0.135(3) 0.100(3) 0.0573(18) 0.0154(17) -0.0201(19) -0.018(2)
C8 0.158(4) 0.079(2) 0.103(3) 0.029(2) -0.035(3) -0.021(2)
C7 0.116(3) 0.130(3) 0.084(2) -0.004(2) -0.027(2) -0.044(3)
C5A 0.208(12) 0.160(9) 0.092(6) -0.022(6) -0.034(7) -0.059(8)
C5B 0.082(5) 0.111(6) 0.072(5) -0.023(4) 0.004(4) -0.031(5)
C4A 0.121(7) 0.080(5) 0.093(5) -0.016(4) -0.020(5) 0.007(5)
C4B 0.062(3) 0.057(4) 0.052(3) -0.020(3) -0.017(3) 0.000(3)
N5B 0.077(5) 0.069(5) 0.072(3) -0.004(3) -0.014(3) 0.008(3)
loop_
_atom_type_symbol
_atom_type_description
_atom_type_scat_dispersion_real
_atom_type_scat_dispersion_imag
_atom_type_scat_source
C C 0.0033 0.0016 'International Tables Vol C Tables 4.2.6.8 and 6.1.1.4'
H H 0.0000 0.0000 'International Tables Vol C Tables 4.2.6.8 and 6.1.1.4'
N N 0.0061 0.0033 'International Tables Vol C Tables 4.2.6.8 and 6.1.1.4'
O O 0.0106 0.0060 'International Tables Vol C Tables 4.2.6.8 and 6.1.1.4'
S S 0.1246 0.1234 'International Tables Vol C Tables 4.2.6.8 and 6.1.1.4'
loop_
_diffrn_refln_index_h
_diffrn_refln_index_k
_diffrn_refln_index_l
_diffrn_refln_intensity_net
_diffrn_refln_intensity_u
0 2 0 908.52 10.95
0 -2 0 858.42 10.95
0 -2 0 875.9 10.35
0 -2 0 874.9 9.89
0 2 0 887.46 10.27
0 -3 0 166.52 2.67
0 -3 0 160.51 3.18
0 3 0 153.96 3.05
0 -3 0 162.82 3.69
0 3 0 169.19 3.75
0 -4 0 340.64 6.5
0 4 0 340.65 6.57
0 -4 0 336.07 4.93
0 -4 0 333.99 5.78
0 -4 0 351.56 4.88
0 4 0 334.79 5.58
0 -5 0 46.45 2.34
0 -5 0 46.1 1.55
0 -5 0 47 1.4
0 -5 0 46.17 1.98
0 5 0 39.11 2.24
0 5 0 46.57 1.87
0 -6 0 43.5 1.36
0 -6 0 37.54 1.58
0 -6 0 39.82 2.08
0 6 0 40.11 1.95
0 6 0 44.7 2.59
0 6 0 41.49 2.3
0 -6 0 41.02 2.41
0 -7 0 53.98 3.03
0 7 0 59.68 2.54
0 -7 0 53.18 2.09
0 -7 0 50.48 1.49
0 -7 0 61.06 3.46
0 7 0 56.34 2.92
0 7 0 65.27 3.4
0 8 0 33.23 2.01
0 8 0 31.82 2.34
0 -8 0 33.04 1.75
0 -8 0 34.19 2.77
0 8 0 36.45 2.73
0 -9 0 6.37 0.88
0 9 0 4.2 0.89
0 -9 0 6.1 1.39
0 9 0 4.65 1.17
0 -10 0 0.5 0.71
0 10 0 0.41 0.5
0 10 0 1.57 0.62
0 10 0 1.15 0.51
0 -11 0 1.86 0.9
0 11 0 1.75 0.91
0 11 -1 2.45 0.73
0 11 -1 0.9 0.71
0 -10 1 2.2 0.91
0 10 -1 0.59 0.56
0 10 -1 1.82 0.68
0 -9 1 2.2 0.84
0 -9 1 1.84 0.51
0 9 -1 1.22 0.64
0 9 -1 1.97 0.61
0 -8 1 2.77 0.55
0 8 -1 4.11 0.76
0 8 -1 3 0.8
0 7 -1 0.22 0.39
0 7 -1 -0.02 0.28
0 -7 1 1.08 0.52
0 -7 1 0.86 0.51
0 -7 1 0.12 0.19
0 6 -1 52.92 2.21
0 -6 1 54.3 2.36
0 -6 1 53.94 2.82
0 6 -1 50.91 2.69
0 -5 1 33.31 1.14
0 5 -1 39.02 1.69
0 -5 1 38.31 1.76
0 -5 1 42.7 2.26
0 -4 1 12.32 0.9
0 -4 1 13.74 0.65
0 -4 1 12.22 1.09
0 4 -1 12.43 0.86
0 4 -1 13.64 1.11
0 4 -1 12.71 0.79
0 -3 1 85.04 2.16
0 3 -1 87.58 1.97
0 -3 1 92.56 2.71
0 3 -1 90.84 2.62
0 3 -1 88.85 2.15
0 -3 1 87.77 1.72
0 2 -1 1885.61 20.66
0 -2 1 1915.28 20.77
0 2 -1 1884.37 21.42
0 -2 1 1873.43 20.24
0 -2 1 1881.15 21.48
0 2 -1 1884.97 20.47
0 1 -1 22.7 0.81
0 -1 1 20.62 0.68
0 -1 1 20.85 0.71
0 -2 -1 1124.05 13.83
0 -2 -1 1144.37 13.45
0 2 1 1107.66 13.37
0 2 1 1170.07 13.93
0 2 1 1182.56 13.17
0 -2 -1 1124.95 13.76
0 2 1 1151.31 12.62
0 -3 -1 303.5 5.58
0 -3 -1 293.34 3.95
0 3 1 296.23 5.09
0 3 1 312.41 4.83
0 3 1 306.78 5.61
0 -3 -1 304.11 5.5
0 -4 -1 122.62 3.66
0 4 1 117.1 3.2
0 -4 -1 123.58 3.57
0 4 1 122.69 2.97
0 4 1 131.31 3.75
0 -4 -1 121.93 2.3
0 5 1 11.41 1.22
0 -5 -1 9.69 0.64
0 5 1 10.12 0.89
0 5 1 9.69 0.96
0 -5 -1 10.08 1.13
0 -5 -1 9.33 1.04
0 -6 -1 85.92 3.59
0 -6 -1 91.52 2.31
0 6 1 90 2.97
0 6 1 82.57 3.24
0 -6 -1 87.99 2.29
0 6 1 86.06 2.67
0 6 1 92.68 3.76
0 -6 -1 87.18 3.83
0 -6 -1 94.17 3.23
0 7 1 2.3 0.63
0 -7 -1 3.56 0.49
0 7 1 2.86 0.55
0 -7 -1 4.29 0.84
0 7 1 3.31 0.82
0 -7 -1 2.84 0.72
0 7 1 3.93 0.68
0 -7 -1 3.65 0.45
0 -8 -1 23.67 2.27
0 8 1 22.98 2.18
0 -8 -1 23 1.28
0 8 1 20.11 1.86
0 8 1 22.17 1.64
0 -8 -1 21.43 0.96
0 9 1 27.97 2.07
0 -9 -1 26.72 2.6
0 -9 -1 26.6 1.45
0 9 1 26.08 2.56
0 10 1 8.62 1.55
0 -10 -1 7.79 1.54
0 -11 -1 3.38 1.21
0 11 1 -0.34 0.42
0 11 -2 1.23 0.57
0 11 -2 1.08 0.74
0 -10 2 -0.05 0.3
0 10 -2 0.32 0.39
0 10 -2 -0.18 0.29
0 -9 2 0.64 0.37
0 9 -2 0.49 0.33
0 9 -2 1.02 0.58
0 8 -2 4.92 0.81
0 -8 2 3.98 0.71
0 8 -2 4.99 1.03
0 -7 2 0.49 0.32
0 -7 2 0.66 0.39
0 7 -2 0.4 0.42
0 7 -2 0.15 0.23
0 -6 2 22.17 1.55
0 -6 2 21.36 1.8
0 6 -2 24.72 1.87
0 6 -2 20.41 1.35
0 5 -2 204.5 5.27
0 5 -2 208.38 4.45
0 -5 2 198.52 5.3
0 -5 2 206.85 4.6
0 5 -2 196.31 4.17
0 4 -2 290.52 5.89
0 -4 2 285.03 6.09
0 4 -2 275.53 4.99
0 -4 2 284.15 5.16
0 4 -2 277.1 4.88
0 3 -2 793.53 10.06
0 3 -2 801.65 10.2
0 -3 2 783.01 11.29
0 3 -2 813.65 11.27
0 -3 2 817.11 10.43
0 2 -2 2.85 0.39
0 -2 2 3.08 0.37
0 2 -2 2.81 0.33
0 -2 2 2.82 0.36
0 2 -2 2.37 0.29
0 -2 2 2.29 0.38
0 -1 2 1543.34 17.07
0 -1 2 1541.98 16.84
0 1 -2 1506.17 17.14
0 1 -2 1525.23 16.98
0 0 2 26.27 0.97
0 0 2 25.95 0.78
0 0 2 25.37 0.86
0 0 2 26.39 0.9
0 0 -2 26.62 0.94
0 0 -2 24.7 0.75
0 0 -2 24.64 0.87
0 -1 -2 840.53 10.35
0 1 2 869.63 10.59
0 1 2 860.75 10.11
0 -1 -2 865.97 10.28
0 -1 -2 866.33 10.53
0 -2 -2 10.11 0.69
0 2 2 9.6 0.63
0 2 2 10.46 0.47
0 -2 -2 9.87 0.75
0 2 2 9.82 0.75
0 -2 -2 10.13 0.72
0 3 2 35.66 1.11
0 3 2 34.03 1.72
0 -3 -2 34.92 1.62
0 -3 -2 37.42 1.58
0 3 2 36.52 1.75
0 3 2 37.37 1.49
0 -3 -2 33.85 1.61
0 3 2 36.7 0.92
0 -3 -2 36.68 1.71
0 4 2 89.68 2.19
0 -4 -2 92.79 3.07
0 4 2 93.84 3.23
0 4 2 97.93 2.65
0 -4 -2 94.07 3.04
0 4 2 92.89 2.79
0 -4 -2 93 2.89
0 -4 -2 94.27 3.25
0 -5 -2 97.91 3.46
0 -5 -2 98.94 3.67
0 -5 -2 106.96 3.55
0 5 2 104.13 3.03
0 5 2 97.82 2.57
0 5 2 105.7 3.8
0 5 2 96.69 3.15
0 -5 -2 98.92 1.93
0 -6 -2 12.85 0.67
0 6 2 14.05 1.19
0 6 2 14.25 1.48
0 -6 -2 14.37 1.25
0 6 2 13.08 1.22
0 -6 -2 13.24 1.34
0 -6 -2 11.16 1.33
0 6 2 11.96 0.95
0 -6 -2 13.17 1.35
0 -7 -2 1.45 0.25
0 7 2 1.92 0.47
0 -7 -2 1.06 0.47
0 7 2 1.61 0.49
0 7 2 1.57 0.62
0 7 2 1.56 0.45
0 -8 -2 0.46 0.47
0 -8 -2 0.74 0.21
0 8 2 0.96 0.62
0 8 2 0.69 0.45
0 -8 -2 0.78 0.24
0 9 2 6.1 0.6
0 9 2 6.4 1.29
0 -9 -2 6.48 1.34
0 -10 -2 0.28 0.49
0 10 2 0.12 0.49
0 -11 -2 -0.21 0.56
0 11 2 -1.14 0.72
0 11 -3 0.24 0.34
0 11 -3 1.44 0.67
0 11 -3 0.46 0.51
0 -10 3 0.59 0.38
0 10 -3 -0.38 0.41
0 10 -3 0.7 0.47
0 -9 3 2.18 0.69
0 9 -3 2.26 0.71
0 9 -3 1.43 0.51
0 8 -3 0.26 0.32
0 8 -3 -0.02 0.32
0 -7 3 -0.2 0.31
0 7 -3 -0.27 0.38
0 7 -3 -0.57 0.39
0 6 -3 6.41 0.82
0 6 -3 6.26 0.79
0 -6 3 6.48 1.06
0 6 -3 10.57 1.29
0 -6 3 7.55 0.96
0 5 -3 19.51 1.24
0 -5 3 18.88 1.33
0 5 -3 18.01 1.22
0 5 -3 20 1.56
0 -5 3 18.07 1.56
0 -4 3 4.64 0.73
0 4 -3 5.12 0.59
0 4 -3 6.13 0.8
0 -4 3 4.51 0.64
0 4 -3 5.78 0.61
0 -3 3 0.26 0.18
0 3 -3 0.22 0.22
0 -3 3 0.79 0.35
0 3 -3 0.01 0.13
0 -3 3 0.27 0.23
0 -3 3 -0.05 0.21
0 2 -3 2.47 0.31
0 -2 3 2.47 0.38
0 -2 3 2.52 0.38
0 -2 3 2.16 0.43
0 -1 3 19.69 0.9
0 1 -3 21.76 0.95
0 1 -3 20.24 0.98
0 -1 3 22.23 1.13
0 1 -3 21.34 0.84
0 -1 3 20.33 0.95
0 0 3 7.81 0.63
0 0 -3 5.25 0.55
0 0 3 12.03 0.66
0 0 3 7.93 0.69
0 0 3 4.48 0.47
0 0 -3 10.33 0.61
0 0 -3 9.17 0.74
0 -1 -3 374.82 5.68
0 1 3 368.43 5.95
0 -1 -3 382.36 5.77
0 1 3 384.61 5.53
0 -1 -3 381.82 5.87
0 1 3 373.98 5.85
0 -2 -3 34.56 0.94
0 -2 -3 37.43 0.84
0 -2 -3 33.26 1.44
0 2 3 35.83 1.62
0 2 3 34.47 1.32
0 -2 -3 37.35 1.61
0 -2 -3 34.3 1.48
0 -3 -3 17.9 1.15
0 -3 -3 18.42 1.22
0 3 3 18.49 0.78
0 -3 -3 18.56 1.26
0 3 3 17.69 1.29
0 3 3 16.74 1.01
0 4 3 0.48 0.18
0 -4 -3 0.33 0.28
0 4 3 0.5 0.15
0 -4 -3 0.56 0.29
0 -4 -3 0.51 0.25
0 4 3 0.45 0.22
0 5 3 0.23 0.23
0 5 3 0.28 0.23
0 5 3 0.35 0.37
0 -5 -3 0.62 0.43
0 5 3 0.18 0.14
0 -5 -3 0.36 0.31
0 -5 -3 0.05 0.25
0 6 3 40.02 2.12
0 6 3 40.74 2.62
0 -6 -3 39.41 2.13
0 -6 -3 38.61 2.34
0 -6 -3 41.14 2.59
0 -6 -3 36.43 2.32
0 6 3 36.05 1.67
0 7 3 3.28 0.86
0 7 3 2.54 0.22
0 7 3 3.63 0.72
0 7 3 4.48 0.65
0 -7 -3 3.08 0.79
0 8 3 0.36 0.13
0 8 3 0.69 0.41
0 8 3 0.15 0.41
0 8 3 0.16 0.29
0 8 3 0.39 0.12
0 -9 -3 2.05 0.42
0 9 3 2.55 0.86
0 -10 -3 0.01 0.49
0 10 3 0.84 0.53
0 -11 -3 0.35 0.45
0 11 3 -0.46 0.58
0 -11 4 -0.76 0.61
0 11 -4 0.4 0.41
0 10 -4 1.26 0.64
0 -10 4 0.04 0.39
0 -10 4 0.11 0.42
0 10 -4 -0.28 0.41
0 -10 4 -0.28 0.36
0 -9 4 1.27 0.66
0 -9 4 1.26 0.67
0 9 -4 1.06 0.47
0 -9 4 0.52 0.43
0 9 -4 0.36 0.33
0 8 -4 10.8 1.5
0 -8 4 13.32 1.59
0 -8 4 12.16 1.46
0 8 -4 10.83 1.18
0 7 -4 20.82 1.61
0 -7 4 22.59 1.86
0 7 -4 26.08 2.17
0 7 -4 25.54 1.72
0 -7 4 22.35 1.81
0 6 -4 0.48 0.26
0 -6 4 0.4 0.3
0 6 -4 1.02 0.42
0 -6 4 0.56 0.35
0 -6 4 1.16 0.51
0 -6 4 0.28 0.3
0 5 -4 46.2 2.16
0 -5 4 51.52 2.35
0 -5 4 50.26 2.34
0 -5 4 53.33 2.45
0 -5 4 50.49 2.78
0 5 -4 51.63 2.11
0 4 -4 103.25 2.79
0 4 -4 98.24 2.93
0 -4 4 99.63 3.61
0 -3 4 20.02 1.45
0 -3 4 19.53 1.18
0 3 -4 19.62 1.12
0 3 -4 20.78 1.21
0 2 -4 16.96 1.11
0 -2 4 18.9 1.29
0 2 -4 17.59 0.99
0 -2 4 18.39 1.11
0 -2 4 16.21 0.99
0 -1 4 470.18 6.71
0 -1 4 491.77 7.15
0 1 -4 480.21 6.46
0 1 -4 472.49 7.24
0 0 -4 216.25 4.13
0 0 -4 215.73 4.29
0 0 -4 207.37 3.58
0 0 4 212.15 4
0 0 4 203.75 4.34
0 0 4 220.75 4.21
0 -1 -4 343.21 5.31
0 1 4 327.06 6.01
0 -1 -4 346.34 5.96
0 -1 -4 341.87 5.76
0 1 4 345.61 5.54
0 -1 -4 338.39 5.71
0 2 4 109.25 3.24
0 -2 -4 110.44 2.19
0 -2 -4 114.8 3.18
0 2 4 106.56 2.71
0 -2 -4 108.41 2.98
0 -2 -4 107.2 2.96
0 -2 -4 105.03 1.83
0 3 4 70.54 2.26
0 -3 -4 70.79 2.56
0 -3 -4 71.64 2.55
0 -3 -4 71.37 2.66
0 -3 -4 68.2 1.57
0 4 4 10.14 0.67
0 -4 -4 9.53 0.99
0 -4 -4 11.4 1.16
0 -4 -4 9.04 0.98
0 4 4 9.74 0.88
0 5 4 24.23 1.96
0 5 4 23.99 0.92
0 5 4 25.45 1.95
0 -5 -4 26.38 1.92
0 -5 -4 25.68 1.78
0 -5 -4 24.76 1.58
0 5 4 25.05 1.56
0 5 4 22.56 1.15
0 -5 -4 28.5 1.85
0 -6 -4 23.89 1.81
0 6 4 26.73 1.72
0 6 4 25.5 2.11
0 -6 -4 27.18 2.12
0 6 4 25.52 1.38
0 7 4 7.78 0.88
0 7 4 6.6 0.94
0 7 4 6.24 1.2
0 -7 -4 8.58 1.28
0 8 4 4.15 0.84
0 8 4 3.72 0.68
0 8 4 4.64 1.11
0 -8 -4 4.65 1.03
0 -9 -4 1.12 0.71
0 9 4 0.89 0.7
0 -10 -4 0.87 0.7
0 10 4 0.61 0.7
0 11 4 0.63 0.61
0 -10 5 0.32 0.36
0 -10 5 0.22 0.58
0 -10 5 -0.26 0.47
0 -9 5 1.45 0.72
0 -9 5 1.12 0.53
0 9 -5 0.43 0.34
0 8 -5 0.11 0.31
0 -8 5 0.55 0.4
0 -8 5 0.22 0.34
0 7 -5 8.01 0.98
0 -7 5 6.8 1.04
0 7 -5 5.58 0.93
0 -7 5 7.04 1.16
0 6 -5 0.93 0.4
0 -6 5 0.49 0.38
0 -6 5 0.68 0.38
0 -6 5 1.07 0.45
0 6 -5 0.53 0.3
0 -5 5 3.02 0.62
0 -5 5 4.25 0.9
0 -5 5 3.41 0.66
0 5 -5 3.74 0.67
0 5 -5 3.64 0.6
0 -5 5 3.62 0.68
0 -4 5 5.39 0.84
0 4 -5 5.31 0.72
0 4 -5 6.38 0.69
0 -4 5 5.81 0.79
0 -4 5 5.87 0.77
0 3 -5 0.56 0.32
0 -3 5 0.06 0.15
0 3 -5 0.19 0.18
0 -3 5 0.25 0.24
0 -3 5 0.38 0.25
0 3 -5 0.18 0.2
0 2 -5 11.76 1.01
0 2 -5 11.67 0.88
0 -2 5 12.35 0.92
0 1 -5 24.7 1.4
0 -1 5 23.66 1.15
0 1 -5 24.86 1.08
0 0 -5 87.13 2.22
0 0 -5 88.7 2.82
0 0 -5 90.09 2.72
0 -1 -5 231.01 4.76
0 1 5 233.49 4.57
0 -1 -5 233.47 4.99
0 -1 -5 223.19 4.22
0 -2 -5 318.64 5.03
0 -2 -5 321.07 6.33
0 -2 -5 305.56 6.11
0 2 5 319 5.74
0 3 5 56.68 2.04
0 -3 -5 63.22 2.56
0 -3 -5 59.95 2.44
0 -3 -5 58.2 2.47
0 -3 -5 57.43 1.56
0 -3 -5 54.66 0.89
0 -4 -5 8.92 1.02
0 -4 -5 9.26 1.05
0 -4 -5 9.4 0.93
0 -4 -5 8.74 1.04
0 4 5 8.24 1.11
0 -4 -5 7.73 0.48
0 4 5 8.87 0.88
0 5 5 38.79 2.58
0 -5 -5 36.23 2.19
0 5 5 35.44 1.38
0 -5 -5 42.67 2.18
0 5 5 35.75 1.89
0 -5 -5 36.49 2.32
0 5 5 38.64 2.52
0 -6 -5 7.07 1.05
0 6 5 5.64 1.04
0 6 5 5.26 0.42
0 -6 -5 5.85 1.01
0 6 5 5.51 0.78
0 6 5 6.6 0.67
0 -7 -5 -0.11 0.36
0 7 5 0.11 0.2
0 7 5 -0.37 0.46
0 7 5 0.26 0.46
0 -7 -5 0.39 0.46
0 -8 -5 1.68 0.74
0 8 5 2.37 0.84
0 -9 -5 7.5 1.41
0 9 5 8.54 1.67
0 -10 -5 4.34 1.17
0 10 5 5.02 1.4
0 -10 6 -0.6 0.5
0 -10 6 1.39 0.84
0 -10 6 0.27 0.63
0 -9 6 1.77 0.75
0 -9 6 1.01 0.64
0 9 -6 1.95 0.64
0 8 -6 0.41 0.37
0 -8 6 0.04 0.31
0 8 -6 -0.23 0.33
0 -8 6 0.1 0.48
0 -7 6 -0.14 0.32
0 -7 6 0.1 0.32
0 7 -6 0.67 0.39
0 7 -6 0.96 0.4
0 6 -6 6.61 0.85
0 6 -6 5.51 0.85
0 -6 6 5.32 0.91
0 -6 6 6.5 0.98
0 5 -6 1.42 0.43
0 -5 6 0.94 0.41
0 -5 6 0.74 0.33
0 5 -6 1.68 0.58
0 4 -6 2.75 0.71
0 -4 6 0.74 0.51
0 4 -6 2.96 0.96
0 -4 6 3.11 0.87
0 3 -6 10.25 0.94
0 -3 6 9.32 1.21
0 3 -6 6.95 0.93
0 -3 6 11.82 1.08
0 3 -6 8.79 1.02
0 -3 6 11.15 1.08
0 2 -6 200.96 4.81
0 -2 6 208.4 4.79
0 -2 6 206.59 5.42
0 -2 6 198.47 4.38
0 2 -6 203.23 4.99
0 2 -6 200.81 4.52
0 1 -6 3.93 0.47
0 -1 6 3.52 0.5
0 -1 6 3.16 0.55
0 -1 6 3.46 0.66
0 1 -6 3.43 0.58
0 1 -6 2.86 0.56
0 0 6 46.39 2.32
0 0 -6 47.43 2.14
0 0 -6 48.38 2.13
0 0 6 39.65 1.98
0 0 -6 44.33 1.59
0 1 6 39.63 1.81
0 -1 -6 39.96 1.93
0 -1 -6 39.81 2.01
0 1 6 37.05 2
0 -1 -6 38.67 1.61
0 -1 -6 39.12 2.01
0 1 6 30.36 1.92
0 2 6 0.81 0.29
0 -2 -6 0.63 0.28
0 -2 -6 0.91 0.36
0 -2 -6 0.83 0.27
0 -2 -6 0.2 0.23
0 -2 -6 0.82 0.33
0 2 6 0.43 0.28
0 2 6 0.66 0.3
0 -3 -6 6.32 0.93
0 -3 -6 4.53 0.53
0 -3 -6 6.71 0.94
0 3 6 4.82 0.86
0 -3 -6 3.81 0.25
0 3 6 5.71 0.73
0 3 6 4.98 0.89
0 -3 -6 6.37 0.86
0 -4 -6 2.65 0.71
0 -4 -6 2.91 0.69
0 4 6 1.37 0.6
0 4 6 2.45 0.57
0 4 6 0.99 0.34
0 -4 -6 1.56 0.3
0 4 6 0.65 0.3
0 -4 -6 1.36 0.54
0 5 6 4.86 0.6
0 5 6 7.73 0.93
0 5 6 6.27 1.11
0 -5 -6 5.58 0.98
0 -5 -6 4.81 0.88
0 -6 -6 49.44 2.96
0 6 6 49.51 3.33
0 6 6 49.94 2.4
0 -6 -6 46.13 2.77
0 6 6 43.71 1.58
0 7 6 0.43 0.46
0 -7 -6 -0.03 0.37
0 8 6 4.7 1.16
0 -8 -6 5.12 1.04
0 -8 -6 5.21 1.13
0 -9 -6 -0.16 0.5
0 9 6 0.61 0.55
0 10 6 0.45 0.65
0 -10 -6 0.07 0.44
0 -9 7 1.22 0.8
0 -9 7 1.52 0.75
0 -8 7 0.13 0.52
0 8 -7 1.2 0.58
0 -8 7 0.31 0.39
0 7 -7 0.47 0.33
0 -7 7 0.13 0.36
0 7 -7 0.97 0.46
0 -7 7 0.12 0.39
0 6 -7 0.06 0.29
0 6 -7 0.72 0.36
0 -6 7 0.44 0.4
0 -5 7 5.36 0.95
0 -5 7 5.07 0.88
0 5 -7 4.5 0.74
0 5 -7 5.03 0.85
0 -4 7 5.28 0.84
0 4 -7 5.48 0.87
0 -4 7 7.11 0.97
0 4 -7 5.23 0.73
0 3 -7 54.94 2.59
0 3 -7 51.49 2.27
0 -3 7 52.4 2.5
0 -3 7 54.33 2.37
0 -2 7 9.6 0.94
0 2 -7 9.2 1.05
0 2 -7 9.6 0.96
0 2 -7 9.44 1.07
0 -2 7 8.2 0.9
0 1 -7 21.47 1.56
0 1 -7 19.17 1.37
0 1 -7 20.52 1.53
0 -1 7 21.74 1.59
0 0 -7 1.21 0.36
0 0 -7 1.52 0.29
0 0 -7 1.46 0.41
0 0 7 1.3 0.41
0 0 7 1.25 0.47
0 -1 -7 33.35 2
0 1 7 32.2 2.14
0 -1 -7 35.11 2.07
0 -1 -7 29.71 1.49
0 -1 -7 33.45 1.93
0 -1 -7 33.97 1.69
0 1 7 32.36 2.06
0 -2 -7 44.19 1.99
0 -2 -7 49.65 2.53
0 -2 -7 44.19 1.87
0 2 7 45.27 2.6
0 2 7 41.64 2.06
0 -2 -7 47.35 2.46
0 2 7 44.75 2.52
0 -3 -7 3.58 0.68
0 -3 -7 3.91 0.54
0 -3 -7 2.58 0.21
0 -3 -7 3.25 0.73
0 3 7 3.37 0.77
0 -3 -7 3.8 0.7
0 3 7 4.62 0.68
0 -4 -7 29.93 2.15
0 -4 -7 37.79 2.43
0 -4 -7 34.04 1.51
0 4 7 30.21 2.33
0 4 7 33.82 2.47
0 -5 -7 0.17 0.42
0 5 7 0.69 0.54
0 -5 -7 -0.13 0.32
0 5 7 1.43 0.7
0 -6 -7 43.5 2.87
0 6 7 44.23 3.21
0 -6 -7 44.26 2.86
0 6 7 37.4 1.7
0 7 7 1.97 0.83
0 -7 -7 1.23 0.61
0 -7 -7 1.32 0.74
0 -8 -7 1.64 0.82
0 8 7 2.19 0.9
0 -8 -7 0.42 0.4
0 -9 -7 1.64 0.76
0 9 7 1.65 0.84
0 -10 -7 0.02 0.47
0 -8 8 1.91 0.75
0 7 -8 5.03 1.03
0 -7 8 3.62 0.89
0 -6 8 1.87 0.66
0 6 -8 1.05 0.5
0 6 -8 1.19 0.43
0 -6 8 1.06 0.5
0 5 -8 6.84 1.11
0 -5 8 7.39 1.12
0 5 -8 5.6 0.79
0 -5 8 6.52 1.03
0 4 -8 3.19 0.67
0 -4 8 3.14 0.72
0 4 -8 2.01 0.64
0 -4 8 3.26 0.66
0 3 -8 4.7 0.71
0 -3 8 1.5 0.45
0 -3 8 3.87 0.76
0 3 -8 3.43 0.73
0 -2 8 21.92 1.72
0 -2 8 20.54 1.4
0 2 -8 19.31 1.68
0 2 -8 20.62 1.5
0 1 -8 7.27 0.96
0 -1 8 8.15 1.05
0 1 -8 7.2 0.9
0 0 -8 26 1.9
0 0 -8 24.45 1.22
0 0 8 26.49 1.93
0 -1 -8 18.4 1.2
0 1 8 20.22 1.73
0 -1 -8 20.88 1.72
0 -1 -8 19.98 1.69
0 -1 -8 20.3 1.41
0 -2 -8 0.74 0.39
0 -2 -8 1.31 0.5
0 -2 -8 0.82 0.37
0 -2 -8 0.89 0.33
0 2 8 0.79 0.4
0 -3 -8 15.79 1.6
0 -3 -8 15.38 1.22
0 -3 -8 13.64 1.26
0 -3 -8 15.06 1.57
0 3 8 14.75 1.6
0 4 8 3.27 0.85
0 -4 -8 2.43 0.65
0 -4 -8 2.55 0.48
0 -4 -8 3.04 0.68
0 4 8 3 0.81
0 -5 -8 7.56 1.18
0 5 8 10.08 1.54
0 -5 -8 7.06 0.61
0 -5 -8 8.36 1.24
0 5 8 7.67 1.36
0 -6 -8 5.21 1.12
0 -6 -8 4.72 0.98
0 6 8 5.72 1.29
0 7 8 0.46 0.49
0 -7 -8 1.15 0.64
0 -7 -8 0.72 0.47
0 8 8 -0.59 0.52
0 -8 -8 0.17 0.4
0 -8 -8 0.54 0.52
0 -9 -8 0.5 0.54
0 -9 -8 0.99 0.65
0 -7 9 0.02 0.37
0 -6 9 0.03 0.34
0 6 -9 1.5 0.6
0 -5 9 0.26 0.3
0 5 -9 -0.39 0.56
0 4 -9 6.38 1.06
0 4 -9 5.91 0.84
0 -4 9 6.93 1.11
0 -3 9 0.07 0.33
0 -3 9 0.25 0.29
0 3 -9 -0.02 0.4
0 3 -9 0.19 0.3
0 2 -9 24.56 2
0 -2 9 22.1 1.88
0 2 -9 23.02 1.72
0 1 -9 21.74 1.93
0 1 -9 18.25 1.52
0 -1 9 20.15 1.81
0 0 -9 1.32 0.54
0 0 -9 0.89 0.5
0 0 -9 0.87 0.29
0 0 9 -0.35 0.38
0 1 9 5.65 0.99
0 -1 -9 4.55 0.95
0 -1 -9 4.53 0.58
0 -1 -9 6.65 0.94
0 -2 -9 0.76 0.45
0 -2 -9 0.87 0.46
0 -2 -9 1.21 0.37
0 2 9 1.76 0.63
0 -2 -9 1.43 0.45
0 -3 -9 5.64 0.84
0 -3 -9 4.53 0.73
0 -3 -9 5.43 1.04
0 3 9 4.62 0.99
0 -3 -9 6.75 1.1
0 4 9 2.68 0.82
0 -4 -9 4.05 0.95
0 -4 -9 2.63 0.77
0 4 9 3.13 0.92
0 -4 -9 2.68 0.58
0 -5 -9 3.4 0.93
0 -5 -9 3.39 0.88
0 5 9 4.26 1.27
0 5 9 2.28 0.8
0 -6 -9 4.49 1.09
0 -6 -9 3.49 1
0 6 9 3.99 1.13
0 -7 -9 8.54 1.46
0 7 9 5.63 1.42
0 -7 -9 5.26 1.15
0 -8 -9 1.49 0.74
0 -8 -9 0.83 0.51
0 -6 10 0.49 0.42
0 -5 10 0.65 0.48
0 4 -10 0.94 0.62
0 4 -10 -0.32 0.44
0 -4 10 0.77 0.51
0 3 -10 1.16 0.64
0 -3 10 0.25 0.34
0 3 -10 0.23 0.41
0 2 -10 8.88 1.34
0 2 -10 8.19 1.05
0 -2 10 9.02 1.32
0 2 -10 8.97 1.29
0 -1 10 7.78 1.2
0 1 -10 9.86 1.22
0 1 -10 7.16 1.27
0 1 -10 10.14 1.29
0 0 10 0.1 0.45
0 0 -10 1.1 0.5
0 0 -10 0.67 0.56
0 1 10 1.54 0.62
0 -1 -10 1.62 0.53
0 -1 -10 1.04 0.57
0 -2 -10 6.9 1
0 -2 -10 6.01 1.14
0 -2 -10 6.05 1.11
0 2 10 5.77 1.12
0 -3 -10 2.04 0.75
0 -3 -10 2.67 0.74
0 3 10 2.82 0.9
0 -3 -10 2.77 0.63
0 -4 -10 0.29 0.47
0 4 10 0.9 0.69
0 4 10 -0.35 0.59
0 -4 -10 0.38 0.47
0 -5 -10 2.8 0.93
0 5 10 4.62 1.18
0 -5 -10 1.5 0.6
0 5 10 2.29 0.8
0 -6 -10 1.27 0.73
0 6 10 1.24 0.78
0 -6 -10 1.08 0.57
0 -7 -10 0.7 0.77
0 -7 -10 -0.38 0.6
0 -8 -10 -0.44 0.63
0 -5 11 0.42 0.45
0 -4 11 1.79 0.67
0 3 -11 6.29 1.23
0 -3 11 6.35 1.2
0 2 -11 3.74 0.99
0 -2 11 2.3 0.72
0 2 -11 5.06 1.2
0 -1 11 0.27 0.37
0 1 -11 1.57 0.56
0 1 -11 1.39 0.75
0 0 -11 10.53 1.6
0 0 11 8.28 1.36
0 0 -11 9.12 1.23
0 0 -11 10.1 1.33
0 1 11 2.7 0.84
0 -1 -11 1.24 0.54
0 -1 -11 2.44 0.82
0 2 11 0.21 0.43
0 -2 -11 0.97 0.48
0 -2 -11 0.17 0.47
0 3 11 -0.37 0.54
0 -3 -11 -0.38 0.59
0 -3 -11 0.1 0.39
0 -4 -11 1.84 0.82
0 -4 -11 2.45 0.73
0 4 11 2.35 0.96
0 4 11 2.37 0.9
0 -5 -11 1.27 0.83
0 -5 -11 1.79 0.79
0 -6 -11 -0.24 0.53
0 -6 -11 0.47 0.73
0 -7 -11 0.62 0.75
0 1 -12 1.15 0.56
0 -1 12 1.01 0.67
0 0 12 2.96 1.01
0 0 -12 3.88 0.96
0 1 12 1.01 0.66
0 -1 -12 0.94 0.54
1 -1 -12 2.32 0.83
1 0 -12 0.02 0.5
1 1 -12 0.81 0.54
1 -5 -11 1.64 0.87
1 -4 -11 -0.37 0.68
1 -4 -11 0.76 0.52
1 -3 -11 0.63 0.38
1 -3 -11 1.42 0.79
-1 3 11 0.23 0.49
1 -2 -11 0.86 0.7
-1 2 11 2.63 0.85
1 -2 -11 2.22 0.73
1 -1 -11 0.77 0.42
-1 1 11 1.26 0.72
1 -1 -11 0.5 0.41
1 0 -11 -0.26 0.57
1 0 -11 0.32 0.4
-1 0 11 0.7 0.56
1 1 -11 2.9 0.95
-1 -1 11 1.35 0.65
1 1 -11 2.06 0.74
-1 -2 11 0.65 0.49
1 2 -11 0.79 0.53
-1 -3 11 2.35 0.81
1 -7 -10 1.03 0.7
1 -6 -10 0.96 0.65
1 -6 -10 -0.3 0.48
-1 5 10 4.46 1.19
1 -5 -10 3.03 0.95
1 -5 -10 3.9 1.07
-1 5 10 4.16 1.3
-1 4 10 4.35 1.15
1 -4 -10 5.73 1.21
1 -4 -10 5.2 1.2
-1 4 10 7.3 1.4
1 -3 -10 4.49 1.04
1 -3 -10 4.21 0.84
1 -3 -10 3.86 1.08
-1 3 10 4.18 1.08
1 -2 -10 0.43 0.32
1 -2 -10 0.7 0.69
-1 2 10 0.6 0.35
1 -2 -10 0.17 0.33
1 -1 -10 7.42 1.18
-1 1 10 8.07 1.34
1 -1 -10 7.33 1.36
1 0 -10 7.86 1.33
1 0 -10 5.71 1.07
-1 0 10 5.3 1.08
1 1 -10 2.73 0.62
-1 -1 10 2.27 0.73
1 1 -10 3.28 0.89
1 1 -10 1.72 0.68
1 2 -10 2.14 0.75
-1 -2 10 2.24 0.77
1 2 -10 2.25 0.84
1 3 -10 7.08 1.19
1 3 -10 8.02 1.34
-1 -3 10 8.28 1.31
-1 -4 10 4.01 0.92
1 4 -10 4.14 1.01
1 4 -10 3.17 0.93
-1 -5 10 1.95 0.72
1 -8 -9 0.72 0.68
-1 7 9 0.22 0.48
1 -7 -9 1.29 0.75
1 -7 -9 0.74 0.7
1 -6 -9 0.34 0.61
-1 6 9 0.65 0.57
1 -6 -9 0.04 0.46
-1 5 9 7.44 1.55
1 -5 -9 8.79 1.47
-1 5 9 5.59 1.22
1 -5 -9 5.09 1.13
-1 4 9 7.17 1.36
1 -4 -9 6.16 1.25
-1 4 9 7.31 1.39
1 -4 -9 6.97 0.94
1 -4 -9 7.02 1.26
-1 3 9 0.92 0.47
1 -3 -9 1.84 0.55
1 -3 -9 2.41 0.75
1 -3 -9 1.19 0.63
1 -2 -9 -0.52 0.47
-1 2 9 0.03 0.35
1 -2 -9 0.61 0.37
1 -2 -9 0.65 0.46
1 -1 -9 0.19 0.29
-1 1 9 0.72 0.47
1 -1 -9 0.22 0.29
1 -1 -9 0.11 0.41
1 0 -9 4.8 0.99
-1 0 9 5.27 0.98
1 0 -9 4.32 0.85
1 1 -9 1.33 0.53
1 1 -9 -0.01 0.29
-1 -1 9 1.03 0.58
1 1 -9 0.44 0.61
1 2 -9 14.03 1.22
1 2 -9 15.68 1.57
-1 -2 9 14.74 1.6
1 2 -9 14.26 1.67
1 3 -9 3.44 0.78
1 3 -9 2.93 0.86
-1 -3 9 2.97 0.8
1 3 -9 3.36 0.58
1 4 -9 1.47 0.63
1 4 -9 1.09 0.58
-1 -4 9 0.16 0.37
1 5 -9 1.11 0.54
-1 -5 9 1.04 0.53
1 5 -9 2.32 0.74
1 6 -9 -0.54 0.48
-1 -6 9 1.32 0.65
-1 -7 9 0.06 0.42
1 -9 -8 0.41 0.73
1 -8 -8 0.98 0.58
1 -8 -8 0.91 0.66
-1 8 8 0.28 0.7
1 -7 -8 3.35 0.97
1 -7 -8 1.68 0.61
-1 7 8 1.86 0.92
1 -6 -8 5.55 1.2
-1 6 8 5.98 1.35
1 -6 -8 7.16 1.3
-1 5 8 0.57 0.45
1 -5 -8 1.64 0.67
1 -5 -8 0.86 0.4
-1 5 8 1.28 0.7
1 -4 -8 4.95 0.72
-1 4 8 5.82 1.21
1 -4 -8 5.45 1.02
-1 4 8 5.82 1.19
1 -4 -8 3.42 0.87
1 -3 -8 -0.15 0.3
1 -3 -8 0.13 0.25
1 -3 -8 0.11 0.33
-1 3 8 -0.63 0.53
1 -3 -8 0.42 0.41
1 -2 -8 25.89 2.22
1 -2 -8 21.6 1.53
-1 2 8 26.23 2.13
1 -2 -8 23.83 1.33
1 -2 -8 22.26 1.64
1 -2 -8 25.56 2.06
1 -1 -8 22.6 0.94
1 -1 -8 25.79 2.01
-1 1 8 26.02 2.02
1 -1 -8 24.13 2.02
1 -1 -8 22.24 1.01
1 -1 -8 22.61 1.67
-1 0 8 -0.2 0.33
1 0 -8 -0.01 0.36
1 0 -8 0.08 0.28
1 1 -8 0.72 0.35
1 1 -8 1.22 0.48
-1 -1 8 0.55 0.34
1 2 -8 0.87 0.33
1 2 -8 1.19 0.51
-1 -2 8 1.24 0.51
1 2 -8 1.24 0.54
-1 -3 8 0.16 0.25
1 3 -8 0.21 0.23
-1 -3 8 0.07 0.36
1 3 -8 0.38 0.42
-1 -4 8 3.06 0.71
-1 -4 8 2.94 0.61
1 4 -8 3.47 0.85
1 4 -8 3.41 0.55
1 4 -8 2.72 0.7
1 5 -8 7.12 1.12
-1 -5 8 7.54 1.14
1 5 -8 7.82 0.85
1 5 -8 9.68 1.39
-1 -6 8 1.37 0.56
1 6 -8 3.35 0.8
1 6 -8 3.55 0.91
-1 -7 8 1.62 0.6
1 7 -8 0.82 0.55
1 7 -8 1.21 0.53
-1 -8 8 0.42 0.48
-1 9 7 0.54 0.6
1 -9 -7 1 0.67
-1 8 7 1.11 0.82
1 -8 -7 1.29 0.71
1 -8 -7 1.44 0.67
-1 7 7 -0.68 0.82
1 -7 -7 0.22 0.37
1 -7 -7 -0.62 0.47
1 -6 -7 0.69 0.45
1 -6 -7 0.73 0.57
-1 6 7 0.76 0.58
-1 5 7 38.02 2.86
-1 5 7 45.85 3.14
1 -5 -7 40.55 2.77
1 -5 -7 38.45 2.72
1 -4 -7 6.85 0.75
1 -4 -7 8.49 1.27
-1 4 7 6.37 1.16
-1 4 7 6.9 1.14
1 -4 -7 7.09 1.11
1 -3 -7 52.52 2.29
1 -3 -7 50.34 2.39
-1 3 7 51.07 2.89
1 -3 -7 55.37 2.96
1 -3 -7 52.77 2.99
1 -2 -7 9.87 0.88
1 -2 -7 9.74 0.93
-1 2 7 9.58 1.21
1 -2 -7 11.48 1.07
1 -2 -7 9.84 1.21
1 -2 -7 10.75 1.35
1 -1 -7 7.07 0.59
1 -1 -7 7.2 0.47
-1 1 7 6.89 0.99
1 -1 -7 7.32 0.87
1 -1 -7 6.47 0.97
1 -1 -7 7.1 1.01
-1 0 7 16.81 1.5
1 0 -7 16.04 0.68
1 0 -7 19.79 1.45
1 0 -7 19.04 1.6
1 1 -7 16.71 1.46
1 1 -7 17.8 1.4
-1 -1 7 16.78 1.47
1 2 -7 17.99 1.23
1 2 -7 15.87 1.36
1 2 -7 18.96 1.56
-1 -2 7 16.82 1.41
1 3 -7 -0.59 0.32
-1 -3 7 0.59 0.36
-1 -3 7 -0.51 0.39
1 3 -7 -0.1 0.38
1 4 -7 0.17 0.35
-1 -4 7 0.4 0.34
-1 -4 7 0.05 0.28
1 4 -7 -0.23 0.25
-1 -5 7 1.85 0.6
-1 -5 7 2.21 0.58
1 5 -7 1.88 0.41
1 5 -7 1.67 0.58
-1 -6 7 0.15 0.36
1 6 -7 -0.09 0.22
1 6 -7 0.6 0.43
-1 -6 7 -0.24 0.32
-1 -7 7 -0.19 0.38
1 7 -7 -0.13 0.33
-1 -7 7 0.18 0.36
1 7 -7 0.87 0.52
-1 -8 7 1.95 0.73
1 8 -7 2.44 0.81
1 8 -7 2.2 0.86
-1 -9 7 0.25 0.35
-1 9 6 0.76 0.46
1 -9 -6 1.43 0.78
-1 8 6 2.53 0.99
1 -8 -6 0.73 0.64
1 -8 -6 1.95 0.86
-1 7 6 7.97 1.44
1 -7 -6 9.94 1.57
1 -7 -6 8.87 1.37
1 -6 -6 1.94 0.69
-1 6 6 0.89 0.3
-1 6 6 2.62 0.82
1 -6 -6 0.78 0.42
-1 5 6 58.83 3.41
1 -5 -6 57.5 3.18
1 -5 -6 56.96 3.21
-1 5 6 50.9 2.18
1 -4 -6 85.39 3.75
1 -4 -6 85.96 3.76
-1 4 6 87.12 3.88
1 -4 -6 77.25 2.32
-1 4 6 84.19 3.75
-1 3 6 47.58 2.66
1 -3 -6 48.53 2.21
1 -3 -6 49.15 2.66
1 -3 -6 47.79 2.01
1 -3 -6 48.83 2.68
-1 3 6 47.1 2.24
-1 2 6 9.86 1.21
1 -2 -6 9.16 1.12
-1 2 6 10.29 0.99
-1 2 6 9.55 1.13
1 -2 -6 10.38 1.05
1 -2 -6 10.96 1.19
1 -2 -6 10.28 0.93
1 -1 -6 11.05 0.53
1 -1 -6 11.06 1.16
-1 1 6 10.14 1.18
-1 1 6 12.14 1.07
1 -1 -6 12.38 1.14
1 -1 -6 11.99 1.02
-1 1 6 12.01 1.18
1 -1 -6 11.98 0.76
1 -1 -6 11.93 1.22
-1 0 6 68.79 2.56
1 0 -6 69.79 2.86
1 0 -6 73.87 2.83
1 0 -6 58.37 1.42
1 0 -6 70.74 2.87
1 0 -6 67.35 2.52
-1 0 6 68.93 3.03
-1 0 6 73.61 2.85
1 1 -6 3.47 0.63
1 1 -6 3.33 0.6
-1 -1 6 2.71 0.53
1 1 -6 2.98 0.59
-1 -1 6 2.67 0.6
1 2 -6 3.48 0.69
1 2 -6 2.47 0.53
-1 -2 6 2.27 0.51
-1 -2 6 2.48 0.37
1 2 -6 2.73 0.45
-1 -2 6 2.38 0.59
1 2 -6 1.8 0.27
1 2 -6 2.57 0.56
-1 -3 6 44.23 1.83
-1 -3 6 44.02 2.29
1 3 -6 45.56 2.41
1 3 -6 43.46 2.27
1 3 -6 38.8 1.61
-1 -4 6 281.38 6.46
1 4 -6 272.73 5.07
-1 -4 6 276.4 5.66
1 4 -6 264.21 6.02
1 5 -6 49.03 2.45
-1 -5 6 52.42 2.75
1 5 -6 49.08 1.97
-1 -5 6 49.03 2.34
-1 -6 6 11.09 1.28
1 6 -6 8.76 1.08
-1 -6 6 9.06 1.1
1 6 -6 9.95 0.96
-1 -7 6 2.32 0.64
1 7 -6 2.4 0.57
1 7 -6 3.37 0.61
-1 -7 6 2.33 0.69
-1 -8 6 0.51 0.43
1 8 -6 0.46 0.4
-1 -8 6 0.45 0.37
-1 -9 6 0.45 0.67
-1 -9 6 0.45 0.43
1 9 -6 0.44 0.53
1 9 -6 0.09 0.42
1 10 -6 0.22 0.42
-1 -10 6 -0.15 0.49
-1 10 5 -0.03 0.69
1 -10 -5 1 0.66
1 -9 -5 -0.89 0.65
-1 9 5 0.54 0.66
-1 8 5 5.28 1.26
1 -8 -5 5.24 1.19
1 -7 -5 0.6 0.59
-1 7 5 -0.24 0.5
1 -7 -5 0.05 0.48
-1 7 5 0.39 0.18
-1 7 5 0.31 0.25
-1 6 5 16.89 0.96
-1 6 5 17.83 1.9
-1 6 5 16.91 1.04
1 -6 -5 17.83 1.76
1 -6 -5 17.54 1.81
-1 5 5 11.39 1.45
1 -5 -5 12.5 1.44
-1 5 5 12.5 1.24
1 -5 -5 11.43 1.4
-1 5 5 9.44 0.87
-1 4 5 7.34 1.03
1 -4 -5 7.37 0.95
-1 4 5 5.21 0.85
1 -4 -5 8.28 1.11
-1 4 5 7.45 0.91
-1 4 5 9.4 1.27
-1 4 5 6.95 0.75
1 -4 -5 7.63 0.91
1 -4 -5 6.98 0.98
-1 3 5 1.82 0.46
1 -3 -5 2.41 0.59
1 -3 -5 1.88 0.53
1 -3 -5 0.73 0.32
1 -3 -5 1.81 0.49
-1 3 5 1.47 0.54
1 -3 -5 2.08 0.38
1 -2 -5 205.06 4.91
1 -2 -5 212.63 5.38
-1 2 5 202.69 4.66
-1 2 5 197.62 5.35
1 -2 -5 211.38 5.27
1 -2 -5 212.4 4.33
1 -1 -5 129.24 3.28
1 -1 -5 130.72 3.59
1 -1 -5 134.29 3.92
1 -1 -5 129.76 2.73
1 -1 -5 124.38 1.98
-1 1 5 134.18 3.5
1 0 -5 46.97 1.89
1 0 -5 47.86 2.11
-1 0 5 49.94 2
1 0 -5 43.2 1.15
1 0 -5 50.09 2.22
-1 -1 5 0.08 0.14
1 1 -5 0.76 0.34
-1 -1 5 0.57 0.29
1 2 -5 50.91 2.12
1 2 -5 48.57 2.22
-1 -2 5 39.49 1.9
-1 -2 5 46.7 1.49
1 2 -5 49.32 1.68
1 3 -5 76.24 2.95
-1 -3 5 81.12 2.37
1 3 -5 82.01 2.77
1 3 -5 83.55 2.93
-1 -3 5 87.54 2.99
1 3 -5 79.71 2.19
-1 -3 5 82.38 3.4
-1 -3 5 86.85 3.31
-1 -4 5 93.96 3.85
1 4 -5 93.48 2.53
-1 -4 5 101.98 3.44
1 4 -5 90.53 3.3
1 4 -5 93.23 3.05
-1 -4 5 92.62 2.84
1 5 -5 155.09 3.61
1 5 -5 161.36 4.76
1 5 -5 147.33 4.06
-1 -5 5 162.71 4.77
-1 -5 5 147.09 4.04
-1 -6 5 18.75 1.56
-1 -6 5 17.07 1.57
1 6 -5 17.07 1.35
-1 -6 5 18.73 1.4
1 6 -5 19.45 1.28
1 7 -5 1.71 0.42
-1 -7 5 2.44 0.59
-1 -7 5 3.01 0.73
1 7 -5 1.49 0.49
-1 -7 5 1.74 0.51
-1 -8 5 2.84 0.78
1 8 -5 2.42 0.64
-1 -8 5 2.44 0.75
1 8 -5 2 0.49
1 9 -5 1.15 0.57
-1 -9 5 0.28 0.37
1 9 -5 0.32 0.36
-1 -9 5 0.21 0.44
1 9 -5 0.31 0.23
-1 -10 5 3 0.93
1 10 -5 1.56 0.56
1 10 -5 1.98 0.74
-1 -10 5 2.75 0.93
-1 10 4 0.58 0.73
1 -10 -4 0.24 0.54
1 -9 -4 2.86 0.92
-1 9 4 2.53 0.96
1 -8 -4 0.42 0.73
-1 8 4 -0.57 0.58
-1 7 4 10.12 0.92
-1 7 4 14.12 1.74
1 -7 -4 11.38 1.53
1 -6 -4 25.72 2.17
-1 6 4 22.22 1.05
-1 6 4 25.13 1.9
-1 6 4 21 1.99
1 -6 -4 23.61 1.96
-1 6 4 22.2 1.2
1 -5 -4 3.27 0.71
-1 5 4 3.98 0.44
-1 5 4 4.23 0.53
-1 5 4 3.12 0.77
-1 5 4 3.33 0.79
1 -5 -4 3.78 0.73
1 -5 -4 3.84 0.7
1 -5 -4 4.94 0.88
-1 5 4 4.04 0.71
-1 4 4 0.65 0.16
1 -4 -4 0.94 0.34
1 -4 -4 0.89 0.33
1 -4 -4 0.65 0.35
-1 4 4 0.3 0.32
1 -4 -4 0.41 0.33
-1 4 4 0.36 0.18
-1 4 4 1.07 0.39
-1 4 4 1.2 0.45
-1 4 4 1.05 0.47
1 -3 -4 27.55 1.62
1 -3 -4 27.3 1.72
1 -3 -4 28.03 1.78
1 -3 -4 27.04 1.17
-1 3 4 27.46 1.58
1 -2 -4 59.02 1.94
1 -2 -4 52.54 2.33
1 -2 -4 54.6 1.82
1 -2 -4 53.9 2.13
-1 2 4 53.32 2.06
1 -2 -4 54.21 2.34
-1 1 4 201.63 4.2
1 -1 -4 207.41 4.6
1 -1 -4 206.95 3.95
1 -1 -4 208.22 3.72
1 -1 -4 186.12 2.49
1 -1 -4 204.32 4.27
-1 0 4 73.56 2.28
1 0 -4 75 2.38
1 0 -4 71.75 2.45
1 0 -4 75.83 2.24
1 0 -4 67.56 1.39
1 1 -4 603.89 8.79
-1 -1 4 616.5 8.72
-1 -1 4 596.76 7.19
1 2 -4 8.55 0.84
1 2 -4 8.73 0.61
-1 -2 4 9.32 0.6
1 2 -4 9.7 0.83
-1 -3 4 0.15 0.23
-1 -3 4 0.27 0.21
1 3 -4 0.06 0.18
1 3 -4 0.25 0.17
1 4 -4 11.9 1.05
-1 -4 4 12.05 0.93
-1 -4 4 12.19 1.27
1 4 -4 11.06 0.76
1 4 -4 10.56 0.91
-1 -4 4 11.22 1.06
1 5 -4 64.49 2.37
-1 -5 4 63.22 3.17
1 5 -4 69.48 2.91
-1 -5 4 68.34 2.88
1 5 -4 67.63 2.19
-1 -5 4 67.52 2.44
1 6 -4 0.5 0.38
1 6 -4 0.34 0.19
-1 -6 4 0.34 0.44
-1 -6 4 0.45 0.21
-1 -7 4 13.48 1.28
1 7 -4 12.56 1.07
-1 -7 4 13.31 1.46
1 7 -4 12.21 1.32
-1 -8 4 5.22 1.03
1 8 -4 6.6 1.3
1 8 -4 5.85 0.81
1 9 -4 8.75 1.21
1 9 -4 4.72 0.87
-1 -9 4 7.04 1.21
1 9 -4 5.68 1.22
1 10 -4 0.34 0.53
1 10 -4 -0.13 0.31
1 10 -4 0.46 0.58
-1 -10 4 0.17 0.43
1 11 -4 0.91 0.52
1 11 -4 1.33 0.77
-1 11 3 0.02 0.48
-1 10 3 1.31 0.69
1 -10 -3 0.14 0.45
-1 9 3 -0.36 0.6
1 -9 -3 0.38 0.59
-1 8 3 4.14 1.07
1 -8 -3 7.18 1.3
-1 8 3 5.17 0.76
-1 7 3 13.49 1.47
-1 7 3 14.9 1.82
1 -7 -3 12.52 1.64
-1 7 3 10.88 0.72
-1 7 3 12.91 1.06
1 -6 -3 5.38 1.03
-1 6 3 6.82 1
-1 6 3 5.36 0.97
-1 6 3 5.81 0.49
-1 6 3 7.21 0.93
-1 6 3 5.33 0.62
-1 5 3 27.75 1.65
-1 5 3 27.97 2
-1 5 3 27.73 1.2
-1 5 3 26.12 1.15
-1 5 3 25.67 0.98
1 -5 -3 29.45 1.78
-1 5 3 31.68 2.25
1 -5 -3 26.99 2.05
1 -5 -3 27.43 1.84
-1 5 3 28.66 1.88
1 -5 -3 26.27 1.88
-1 4 3 30.09 1.79
-1 4 3 27.95 0.95
-1 4 3 27.27 1.84
1 -4 -3 29.53 1.75
-1 4 3 28.24 1.03
1 -4 -3 29.38 1.95
-1 4 3 29.3 1.28
1 -4 -3 20.23 1.61
-1 3 3 0.95 0.18
-1 3 3 0.53 0.22
1 -3 -3 0.93 0.36
-1 3 3 0.88 0.26
1 -3 -3 0.99 0.33
-1 3 3 0.94 0.15
1 -3 -3 1.08 0.37
1 -2 -3 45.65 2
1 -2 -3 44.72 1.59
1 -2 -3 40.87 1.74
-1 2 3 43.45 1.2
-1 2 3 42.69 1.77
1 -2 -3 44.4 1.94
1 -2 -3 42.84 1.43
-1 1 3 392.81 6.24
1 -1 -3 395.17 6.21
1 -1 -3 395.73 5.64
1 -1 -3 408.74 6.67
1 -1 -3 396.12 5.87
1 0 -3 26.36 1.13
1 0 -3 26.21 1.29
-1 0 3 25.65 1.17
1 0 -3 26.19 1.21
1 1 -3 331.95 5.1
1 1 -3 307.01 5.16
1 1 -3 333.34 5.11
-1 -1 3 314.74 4.93
1 2 -3 34.29 1.05
1 2 -3 33.39 1.51
-1 -2 3 32.53 1.04
-1 -2 3 32.98 1.45
1 2 -3 33.14 1.41
-1 -2 3 33.57 1.66
-1 -3 3 21.07 0.97
-1 -3 3 19.37 1.39
1 3 -3 21.34 0.9
1 3 -3 21.06 1.23
1 3 -3 20.91 1.08
1 4 -3 16.02 0.9
-1 -4 3 15.71 1.36
1 4 -3 17.22 1.22
1 4 -3 16.09 1.36
-1 -4 3 16.33 0.98
-1 -5 3 5.57 0.8
-1 -5 3 6.63 0.71
1 5 -3 6.45 0.81
1 5 -3 4.95 0.56
-1 -5 3 5.11 0.88
1 5 -3 4.99 0.81
1 6 -3 2.46 0.44
1 6 -3 3.12 0.63
-1 -6 3 2.97 0.7
-1 -6 3 2.62 0.5
-1 -6 3 3.37 0.67
1 6 -3 3.46 0.83
1 7 -3 0.06 0.34
1 7 -3 0.21 0.29
1 7 -3 0.88 0.29
-1 -7 3 0.12 0.23
1 8 -3 0.34 0.42
1 8 -3 0.38 0.3
1 9 -3 1.21 0.61
1 9 -3 0.55 0.44
1 9 -3 1.04 0.45
1 10 -3 1.78 0.79
1 10 -3 2.43 0.74
-1 -10 3 2.95 0.73
1 10 -3 1.78 0.54
1 11 -3 1.17 0.68
1 11 -3 1.3 0.69
1 11 -3 0.47 0.43
-1 11 2 -0.57 0.61
1 -10 -2 5.36 1.31
-1 10 2 3.76 1.06
1 -9 -2 3.21 0.93
-1 9 2 3.64 0.83
-1 9 2 2.69 0.82
1 -8 -2 12.78 0.94
-1 8 2 12.19 1.36
-1 8 2 12.56 1.69
1 -8 -2 13.12 1.81
-1 7 2 12.24 1.26
-1 7 2 10.5 0.98
1 -7 -2 10.63 0.63
1 -7 -2 11.28 0.86
-1 7 2 10.48 1.31
-1 7 2 11.93 1.57
1 -7 -2 12.11 1.59
-1 6 2 14.45 1.44
1 -6 -2 17.14 1.02
1 -6 -2 14.81 1.61
1 -6 -2 14.88 1.47
-1 6 2 17.6 1.36
1 -6 -2 17.84 1.55
-1 6 2 16 1.64
-1 5 2 2.14 0.56
1 -5 -2 2.45 0.59
1 -5 -2 2.31 0.54
-1 5 2 2.81 0.66
-1 5 2 2.69 0.37
1 -5 -2 2.33 0.35
-1 5 2 3 0.58
1 -4 -2 66.41 2.84
-1 4 2 63.56 2.6
-1 4 2 66.31 2.74
-1 4 2 61.82 1.77
1 -4 -2 60.85 2.43
1 -4 -2 63.99 2.69
-1 4 2 64.55 2.23
1 -3 -2 769.96 11.4
-1 3 2 768.01 11.21
-1 3 2 759.11 9.79
1 -3 -2 778.04 11.7
-1 3 2 760.5 9.48
-1 3 2 804.78 11.34
1 -3 -2 776.73 10.93
-1 3 2 786.4 10.39
-1 2 2 106.27 2.12
-1 2 2 106.87 2.38
1 -2 -2 102.22 2.9
1 -2 -2 108.04 2.5
-1 2 2 107.01 2.76
1 -2 -2 103.34 2.93
-1 2 2 109.39 2.91
1 -2 -2 103.8 2.63
-1 2 2 107.5 2.41
1 -1 -2 549.3 7.18
1 -1 -2 566.48 7.97
-1 1 2 549.87 7.66
1 -1 -2 533.16 7.42
1 -1 -2 553.22 7.03
-1 1 2 549.28 6.86
1 0 -2 420.86 5.15
-1 0 2 417.88 5.9
1 0 -2 423.88 4.99
1 0 -2 424.88 6.14
1 0 -2 418.66 5.8
-1 0 2 418.36 5.56
1 0 -2 426.55 5.91
1 1 -2 211.28 3.71
-1 -1 2 216.15 3.54
1 1 -2 224.32 3.73
1 1 -2 213.9 3.64
1 1 -2 219.82 3.62
1 2 -2 32.29 1.16
-1 -2 2 32.99 1.53
1 2 -2 34.21 1.31
-1 -2 2 34.8 1.38
-1 -2 2 32.7 0.93
1 2 -2 35.12 0.87
1 3 -2 17.09 0.74
-1 -3 2 16.37 1.05
-1 -3 2 16.75 1.21
1 3 -2 18.72 1.25
1 3 -2 17.15 1.04
-1 -3 2 16.69 0.88
-1 -3 2 15.72 0.77
1 4 -2 247.54 4.08
-1 -4 2 242.56 4.27
-1 -4 2 243.18 5.66
1 4 -2 250.37 5.63
1 4 -2 257.09 5.01
-1 -5 2 13.4 1
1 5 -2 15.25 0.97
1 5 -2 15.7 1.39
-1 -5 2 15.81 0.95
-1 -5 2 16.79 1.51
1 5 -2 14.34 1.14
1 6 -2 9.59 1.21
-1 -6 2 9.33 0.91
1 6 -2 9.64 0.84
1 6 -2 8.5 0.95
-1 -6 2 8.99 1.2
-1 -7 2 -0.02 0.25
1 7 -2 -0.09 0.2
1 7 -2 -0.02 0.32
1 8 -2 0.07 0.24
1 8 -2 -0.59 0.57
1 9 -2 1.84 0.73
1 9 -2 1.09 0.46
1 9 -2 3.02 0.68
-1 -10 2 0.9 0.43
1 10 -2 0.61 0.42
1 10 -2 1.43 0.54
1 10 -2 0.46 0.53
1 11 -2 0.64 0.59
1 11 -2 0.06 0.37
1 11 -2 0.71 0.54
-1 11 1 1.05 0.74
-1 10 1 0.13 0.48
-1 10 1 1.61 0.52
1 -10 -1 1.23 0.8
1 -9 -1 1.03 0.74
-1 9 1 1.68 0.64
-1 9 1 0.91 0.54
-1 8 1 20.01 2.06
-1 8 1 20.16 1.66
1 -8 -1 21.55 2.25
1 -8 -1 18.9 1.32
-1 7 1 1.19 0.56
1 -7 -1 1.5 0.38
1 -7 -1 2.5 0.72
1 -7 -1 1.67 0.56
-1 7 1 1.67 0.58
-1 7 1 1.88 0.53
-1 6 1 0.35 0.24
1 -6 -1 1.4 0.49
1 -6 -1 0.27 0.29
1 -6 -1 0.39 0.32
-1 6 1 0.27 0.3
-1 6 1 1.01 0.52
1 -6 -1 0.23 0.25
1 -6 -1 0.26 0.08
1 -6 -1 0.6 0.26
1 -5 -1 171.14 4.69
-1 5 1 174.98 4.24
1 -5 -1 167.52 3.63
-1 5 1 186.7 5.13
1 -5 -1 173.45 5.19
1 -5 -1 169.45 2.73
-1 5 1 175.61 4.95
1 -5 -1 173.76 4.64
1 -4 -1 15.42 0.91
1 -4 -1 16.4 1.2
-1 4 1 16.48 0.84
-1 4 1 17.12 1.37
1 -4 -1 16.11 1.2
-1 4 1 17.58 1.33
-1 4 1 16.17 1.07
1 -4 -1 17.2 1.42
1 -3 -1 429.02 6.83
-1 3 1 433.67 6.55
1 -3 -1 400.94 6.81
-1 3 1 420.78 7.3
1 -3 -1 417.13 7.43
1 -3 -1 418.02 6.11
-1 3 1 427.68 7.1
1 -3 -1 424 7.39
-1 3 1 427.58 5.92
1 -2 -1 22.31 0.93
-1 2 1 22.4 0.94
-1 2 1 22.72 1.11
1 -2 -1 21.96 1.04
-1 2 1 23.57 1.13
-1 2 1 23.28 1.24
-1 2 1 23.53 1.02
1 -2 -1 22.47 1.25
1 -2 -1 22.25 1.22
1 -1 -1 344.07 4.76
-1 1 1 342.49 4.76
-1 1 1 349.92 4.91
1 -1 -1 334.34 4.76
-1 1 1 343.24 4.65
1 -1 -1 341.59 4.69
-1 1 1 343.63 5.31
-1 1 1 347.58 4.85
1 0 -1 111.43 2.06
1 0 -1 129.27 1.81
1 0 -1 120.8 2.04
-1 0 1 125.49 2.2
1 0 -1 108.43 2.21
-1 0 1 124.18 1.75
-1 0 1 122.69 1.78
-1 0 1 121.97 2.28
1 0 -1 126.92 2.29
1 0 -1 123.93 1.81
-1 -1 1 5.98 0.38
1 1 -1 6.16 0.44
1 1 -1 5.51 0.38
1 1 -1 5.9 0.43
1 1 -1 5.58 0.37
-1 -1 1 5.91 0.48
1 1 -1 5.73 0.43
1 2 -1 2.77 0.33
-1 -2 1 1.9 0.28
1 2 -1 2.4 0.34
1 2 -1 1.77 0.28
-1 -2 1 1.98 0.19
-1 -2 1 1.65 0.32
1 2 -1 2.19 0.25
1 2 -1 2.38 0.2
1 3 -1 146.68 3.15
-1 -3 1 135.91 2.95
-1 -3 1 149.99 2.63
1 3 -1 151.46 2.56
-1 -3 1 143.7 3.68
1 3 -1 145.19 3.58
-1 -4 1 48.47 1.61
-1 -4 1 47.84 1.63
1 4 -1 47.69 1.85
-1 -4 1 48.35 2.26
1 4 -1 46.22 1.51
1 4 -1 50.12 2.24
-1 -5 1 138.07 3.33
1 5 -1 139.08 3.2
-1 -5 1 140.4 4.35
-1 -5 1 142.02 3.12
1 5 -1 136.55 4.27
-1 -6 1 94.98 3.87
1 6 -1 97.27 3.03
-1 -6 1 97.78 3.04
1 6 -1 95.41 2.83
-1 -6 1 95.82 2.54
1 6 -1 91.67 3.73
-1 -7 1 32.02 1.43
-1 -7 1 36.64 1.99
1 7 -1 33.76 1.73
1 7 -1 33.33 2.44
-1 -7 1 31.66 2.41
1 8 -1 0.46 0.49
1 8 -1 1 0.41
-1 -9 1 2.38 0.54
1 9 -1 1.87 0.71
1 9 -1 2.79 0.67
1 9 -1 2.53 0.6
-1 -10 1 1.38 0.43
1 10 -1 2.14 0.61
1 10 -1 2.07 0.62
1 10 -1 1.68 0.79
1 11 -1 -0.04 0.55
-1 -11 1 2.14 1.05
-1 11 0 0.16 0.43
1 -10 0 -0.03 0.63
-1 10 0 0.45 0.3
-1 10 0 -0.13 0.52
1 -9 0 13.12 1.26
-1 9 0 16.09 1.59
1 -9 0 14.05 2.01
-1 9 0 11.78 1.66
1 -8 0 72.56 4.22
-1 8 0 69.37 3.85
1 -8 0 71.9 2.86
-1 8 0 76.72 3.32
-1 7 0 7.57 1.19
-1 7 0 6.52 1.09
-1 7 0 6.22 0.92
1 -7 0 7.53 1.13
1 -7 0 8 1.35
1 -7 0 5.94 0.77
-1 6 0 59.65 2.55
1 -6 0 58.38 2.28
1 -6 0 59.5 2.85
-1 6 0 58.19 2.97
-1 6 0 62.46 3.06
1 -6 0 61.24 2.74
1 -6 0 56.8 3.17
-1 5 0 4.38 0.69
1 -5 0 3.67 0.77
1 -5 0 2.99 0.6
-1 5 0 3.83 0.61
-1 5 0 3.22 0.66
1 -5 0 3.24 0.58
1 -5 0 3.81 0.53
-1 4 0 14.76 1.18
-1 4 0 14.55 1.25
-1 4 0 13.18 0.99
1 -4 0 13.35 1.09
1 -4 0 13.77 1.27
1 -4 0 13.96 0.91
-1 3 0 7.11 0.7
-1 3 0 5.72 0.58
-1 3 0 4.93 0.66
1 -3 0 5.69 0.69
1 -3 0 6.06 0.55
1 -3 0 5.86 0.63
-1 2 0 278.92 4.54
1 -2 0 279.39 4.48
1 -2 0 277.77 4.37
-1 2 0 291.76 4.21
1 -2 0 286.97 5.11
-1 2 0 277.93 5.08
-1 2 0 283.16 4.46
-1 1 0 314.86 4.39
1 -1 0 302.81 4.71
-1 1 0 302.86 4.27
1 -1 0 315.08 4.14
1 -1 0 315.75 4.45
-1 1 0 310.52 4.18
1 2 0 170.69 2.7
1 2 0 177.19 2.95
-1 -2 0 163.9 3.39
-1 -2 0 167.2 2.48
-1 -2 0 179.09 3.11
1 3 0 122.32 3.21
-1 -3 0 122.82 2.66
-1 -3 0 114.56 3.14
1 3 0 122.12 2.3
1 3 0 119.81 2.27
1 3 0 116.79 2.54
-1 -3 0 116.15 2.3
-1 -4 0 33.02 1.36
-1 -4 0 34.75 1.36
1 4 0 31.78 1.26
-1 -4 0 32.69 1.79
1 4 0 32.92 1.38
1 5 0 0.13 0.25
1 5 0 -0.22 0.36
-1 -5 0 0.1 0.19
-1 -5 0 0.22 0.2
-1 -5 0 0.17 0.34
1 5 0 0.14 0.26
-1 -6 0 11.28 1
1 6 0 10.82 0.91
1 6 0 11 1
-1 -6 0 10.28 1.22
-1 -6 0 11.22 0.91
1 6 0 10.2 1.24
-1 -7 0 8.74 1.25
1 7 0 7.08 0.83
1 7 0 8 1.24
-1 -7 0 7.18 0.89
-1 -7 0 6.43 0.65
1 7 0 7.65 0.9
-1 -8 0 1.91 0.37
1 8 0 4.09 0.73
1 8 0 4.01 0.63
1 8 0 2.94 0.83
1 8 0 3.32 0.72
-1 -8 0 2.92 0.48
-1 -9 0 1.52 0.4
1 9 0 1.31 0.58
1 9 0 1.74 0.7
1 9 0 1.41 0.59
-1 -9 0 1.34 0.72
1 9 0 1.37 0.44
1 10 0 1.92 0.77
-1 -10 0 2.07 0.93
1 10 0 1.84 0.55
1 11 0 2.59 1.02
-1 -11 0 1.85 1.17
-1 11 -1 0.12 0.44
1 -10 1 2.46 0.99
-1 10 -1 3.48 0.86
-1 10 -1 2.71 0.9
1 -9 1 6.97 1.49
-1 9 -1 5.48 1.11
1 -9 1 6.18 0.96
-1 9 -1 5.62 1.02
-1 8 -1 48.91 3.1
1 -8 1 51.84 3.59
-1 8 -1 48.73 2.59
1 -8 1 46.87 2.46
1 -7 1 0.97 0.6
-1 7 -1 0.54 0.51
1 -7 1 1.12 0.52
1 -7 1 0.37 0.26
-1 7 -1 0.74 0.38
-1 6 -1 4.01 0.67
-1 6 -1 3.73 0.75
1 -6 1 4.43 0.8
1 -6 1 4.2 0.77
1 -6 1 4.26 0.67
1 -5 1 45.75 1.91
-1 5 -1 45.7 2.08
1 -5 1 47.5 2.34
1 -5 1 47.95 2.21
-1 5 -1 47.19 2.36
1 -4 1 12.79 0.89
1 -4 1 12.06 1.04
-1 4 -1 12.17 0.96
1 -4 1 13.23 1.01
-1 4 -1 12.43 1.07
-1 3 -1 5.5 0.57
1 -3 1 5.56 0.61
-1 3 -1 4.53 0.32
1 -3 1 5.03 0.58
-1 3 -1 5.73 0.63
1 -3 1 5.33 0.53
-1 2 -1 9.48 0.64
1 -2 1 11.01 0.67
1 -2 1 11 0.72
1 -2 1 10.01 0.67
-1 2 -1 8.6 0.33
-1 2 -1 11.28 0.7
1 -1 1 33.01 0.89
-1 1 -1 32.87 1.1
1 -1 1 31.93 1.03
-1 1 -1 34.42 0.88
1 2 1 6.35 0.45
1 2 1 6.48 0.36
-1 -2 -1 6.38 0.32
-1 -2 -1 6.64 0.56
-1 -2 -1 6.1 0.42
-1 -3 -1 519.57 6.58
1 3 1 507.85 6.86
1 3 1 495.28 6.07
-1 -3 -1 499.03 6.66
-1 -3 -1 497.65 7.79
1 3 1 481.08 6.35
1 4 1 131.74 2.87
-1 -4 -1 133.82 2.95
-1 -4 -1 132.43 3.73
1 4 1 135.54 3.04
1 4 1 132.43 2.34
1 5 1 7.18 0.54
1 5 1 6.34 0.66
-1 -5 -1 7.45 0.98
1 5 1 6.95 0.72
-1 -5 -1 6.61 0.72
1 5 1 6.8 0.68
1 6 1 11.27 0.98
-1 -6 -1 11.24 1.01
1 6 1 10.22 0.93
1 6 1 11.11 0.73
-1 -6 -1 10.96 0.63
1 6 1 11.06 1.34
-1 -6 -1 11.28 0.95
1 6 1 9.96 0.97
-1 -6 -1 10.56 1.24
-1 -6 -1 10.71 1.26
1 7 1 0.94 0.32
1 7 1 0.01 0.21
-1 -7 -1 -0.07 0.21
1 7 1 1.12 0.53
-1 -7 -1 0.51 0.45
-1 -7 -1 0.41 0.5
1 7 1 0.48 0.34
-1 -7 -1 0.57 0.22
1 7 1 0.63 0.54
-1 -7 -1 0.29 0.41
1 8 1 10.86 0.89
1 8 1 10.8 1.22
-1 -8 -1 10.6 0.78
-1 -8 -1 10.67 1.49
1 8 1 11.31 1.56
-1 -8 -1 11.84 1.01
1 9 1 0.5 0.5
-1 -9 -1 1.05 0.33
-1 -9 -1 2.1 0.81
-1 -9 -1 0.85 0.29
1 9 1 2.54 0.89
1 9 1 1.09 0.4
1 10 1 10.62 1.72
1 10 1 8.02 0.9
-1 -10 -1 10.07 1.68
-1 -11 -1 6.41 1.49
1 11 1 3.87 1.17
-1 11 -2 1.02 0.65
-1 10 -2 0.34 0.48
1 -10 2 0.49 0.61
-1 10 -2 0.53 0.54
1 -9 2 0.13 0.64
-1 9 -2 -0.01 0.35
-1 9 -2 -0.31 0.34
1 -9 2 0.1 0.32
1 -8 2 5.46 0.91
-1 8 -2 2.9 0.72
-1 8 -2 5.77 1.06
1 -7 2 10.48 1.33
1 -7 2 11.57 1.16
-1 7 -2 11.73 1.41
-1 7 -2 9.56 1.08
-1 6 -2 1.02 0.4
1 -6 2 0.61 0.25
1 -6 2 0.65 0.41
-1 6 -2 0.66 0.36
1 -6 2 0.55 0.34
-1 5 -2 34.08 1.99
1 -5 2 44.12 2.32
-1 5 -2 41.73 1.49
1 -5 2 45.56 2.19
-1 5 -2 43.46 2.04
1 -5 2 43.91 1.92
-1 4 -2 608.09 7.98
1 -4 2 593.3 9.38
1 -4 2 620.13 9.77
-1 4 -2 612.47 9.18
-1 4 -2 613.78 9.58
-1 3 -2 310.71 5.45
-1 3 -2 305.35 5.34
-1 3 -2 303.16 4.32
1 -3 2 311.6 5.65
1 -3 2 319.44 5.53
-1 2 -2 93.61 2.37
1 -2 2 91.36 2.29
-1 2 -2 98.32 2.29
1 -2 2 98.94 2.53
1 -2 2 92.66 2.45
1 -1 2 15.77 0.72
1 -1 2 17.44 0.64
-1 1 -2 16.17 0.84
1 -1 2 16.47 0.88
1 -1 2 17.43 0.91
-1 1 -2 18.38 0.88
1 0 2 0.72 0.13
-1 0 -2 0.74 0.12
-1 0 -2 0.84 0.19
1 0 2 0.45 0.15
-1 -1 -2 5.5 0.35
-1 -1 -2 5.17 0.32
-1 -1 -2 5.51 0.48
-1 -1 -2 4.78 0.38
1 1 2 5.19 0.35
1 1 2 5.23 0.4
-1 -2 -2 231.42 3.54
-1 -2 -2 217.31 3.19
1 2 2 221.97 2.83
1 2 2 228.06 3.76
-1 -2 -2 227.2 4.13
-1 -2 -2 232.99 3.72
-1 -2 -2 218.67 3.98
-1 -3 -2 12.52 0.69
-1 -3 -2 11.44 0.85
1 3 2 12.58 0.75
-1 -3 -2 12.17 0.67
1 3 2 12.55 0.89
1 3 2 11.72 0.6
-1 -3 -2 12.19 0.96
-1 -4 -2 0.71 0.34
1 4 2 1.01 0.25
1 4 2 0.84 0.14
1 4 2 0.67 0.2
-1 -4 -2 0.85 0.31
1 5 2 65.22 1.46
-1 -5 -2 65.85 2.79
-1 -5 -2 69.97 2.98
1 5 2 65.44 2.17
1 5 2 66.93 2.22
-1 -6 -2 5.3 0.7
-1 -6 -2 5.08 0.89
1 6 2 6.94 1.09
1 6 2 5.24 0.44
-1 -6 -2 5.15 0.87
1 6 2 5.8 0.69
1 6 2 4.29 0.61
1 7 2 54.37 3.24
-1 -7 -2 49.91 1.12
1 7 2 56.21 2.44
-1 -7 -2 57.12 3.14
1 7 2 55.7 2.44
-1 -7 -2 58.6 2.63
1 7 2 53.96 1.62
-1 -8 -2 1.73 0.2
-1 -8 -2 1.23 0.5
1 8 2 1.94 0.34
1 8 2 1.86 0.52
-1 -8 -2 2.29 0.45
1 8 2 1.95 0.73
-1 -9 -2 0.81 0.54
1 9 2 0.98 0.44
1 9 2 0.03 0.61
1 9 2 0.78 0.25
1 10 2 6.06 1.39
-1 -10 -2 7.23 1.42
-1 -11 -2 4.48 1.36
1 11 2 1.91 0.97
-1 10 -3 0.33 0.58
1 -10 3 0.5 0.62
-1 10 -3 0.67 0.58
-1 9 -3 1.28 0.6
-1 9 -3 -0.2 0.39
1 -9 3 -0.2 0.4
1 -9 3 0.88 0.66
-1 8 -3 4.58 0.81
1 -8 3 5.79 0.95
-1 8 -3 5.74 1.05
-1 7 -3 5.53 1
-1 7 -3 6.16 0.93
1 -7 3 6.35 1.1
1 -7 3 5.04 0.82
1 -6 3 0.5 0.27
1 -6 3 1.04 0.41
-1 6 -3 1.09 0.45
1 -6 3 0.78 0.45
-1 6 -3 1.61 0.43
-1 6 -3 0.11 0.15
1 -5 3 -0.09 0.31
1 -5 3 -0.37 0.37
-1 5 -3 -0.13 0.14
-1 5 -3 0.08 0.24
-1 5 -3 0.67 0.39
1 -4 3 5.25 0.78
1 -4 3 4.29 0.69
-1 4 -3 4.92 0.62
-1 4 -3 6.01 0.76
-1 4 -3 4.38 0.47
1 -4 3 6.93 0.83
-1 3 -3 48.01 1.83
1 -3 3 50.54 1.76
1 -3 3 46.31 1.94
1 -3 3 51.75 2.03
1 -3 3 50.94 2.02
1 -2 3 499.77 7.31
-1 2 -3 522.26 7.29
1 -2 3 530.05 6.84
1 -2 3 514.82 7.51
1 -1 3 2.83 0.32
1 -1 3 2.88 0.41
-1 1 -3 2.48 0.31
-1 1 -3 2.55 0.39
-1 1 -3 2.67 0.41
1 0 3 1.35 0.24
-1 0 -3 1.45 0.23
1 0 3 1.11 0.22
-1 0 -3 1.42 0.28
1 0 3 1.09 0.25
-1 -1 -3 71.33 1.77
1 1 3 67.86 1.78
-1 -1 -3 68.98 1.78
-1 -1 -3 69.53 2.01
-1 -1 -3 71.29 1.68
1 1 3 74.03 1.91
-1 -2 -3 844.33 11.3
1 2 3 898.36 11.45
1 2 3 879.77 11.64
1 2 3 870.56 10.36
1 2 3 878.99 11.17
-1 -2 -3 877.82 11.03
-1 -2 -3 880.46 10.55
-1 -3 -3 283.13 4.26
-1 -3 -3 280.09 5.09
-1 -3 -3 268.9 4.55
1 3 3 267.48 5.17
-1 -3 -3 277.41 5.26
1 3 3 275.04 4.19
1 4 3 17.66 1.05
-1 -4 -3 16.82 1.05
-1 -4 -3 18.76 1.33
-1 -4 -3 19.08 1.3
1 4 3 18.57 1.34
-1 -4 -3 16.4 1.32
-1 -4 -3 18.47 0.9
1 4 3 17.41 0.93
-1 -5 -3 223.52 5.57
-1 -5 -3 221.76 5.59
1 5 3 231.66 4.48
-1 -5 -3 216.47 4.69
-1 -5 -3 224.49 5.51
1 5 3 216.15 4.46
-1 -6 -3 56.66 2.81
1 6 3 59.94 3.14
1 6 3 55.68 2.17
-1 -6 -3 56.64 2.92
1 6 3 53.83 2.19
-1 -6 -3 60.38 2.47
-1 -6 -3 57.29 2.89
1 7 3 0.21 0.24
-1 -7 -3 0.03 0.38
1 7 3 0.33 0.19
1 7 3 -0.23 0.4
-1 -8 -3 0.33 0.34
1 8 3 0.39 0.53
1 8 3 1.09 0.43
1 8 3 0.63 0.14
1 8 3 0.93 0.35
-1 -9 -3 1.91 0.73
1 9 3 2.54 0.95
1 9 3 2.12 0.53
1 10 3 4.02 1.19
-1 -10 -3 4.14 1.16
-1 -11 -3 0.82 0.67
1 11 3 1.03 0.87
1 -10 4 -0.94 0.61
-1 10 -4 -0.54 0.51
1 -10 4 0.22 0.54
-1 10 -4 -0.04 0.42
1 -10 4 0.48 0.56
-1 9 -4 3.26 0.74
1 -9 4 4.65 0.9
1 -9 4 4.92 1.15
1 -9 4 4.13 0.89
-1 9 -4 3.88 0.94
1 -8 4 4.69 1.02
-1 8 -4 2.61 0.83
1 -8 4 2.84 0.72
-1 8 -4 3.67 0.71
1 -8 4 5.05 0.94
-1 7 -4 -0.5 0.33
1 -7 4 -0.49 0.44
-1 7 -4 -0.08 0.28
1 -7 4 -0.27 0.35
-1 7 -4 0.56 0.35
1 -7 4 0.96 0.53
1 -6 4 0.53 0.26
1 -6 4 1.3 0.58
1 -6 4 1.36 0.46
-1 6 -4 1.24 0.41
-1 6 -4 1.22 0.46
-1 6 -4 0.52 0.3
1 -5 4 47.2 2.59
1 -5 4 46.11 2.39
1 -5 4 47.61 2.42
-1 5 -4 46.16 2.15
-1 5 -4 44.24 1.89
-1 4 -4 0.86 0.29
1 -4 4 1.23 0.42
1 -4 4 0.54 0.39
-1 4 -4 1.48 0.35
1 -4 4 1.06 0.43
1 -3 4 27.49 1.64
1 -3 4 28.89 1.4
1 -3 4 28.11 1.57
1 -3 4 27.66 1.63
-1 3 -4 29.55 1.5
1 -2 4 42.93 1.86
1 -2 4 44.08 1.89
-1 2 -4 43.74 1.79
1 -2 4 45.77 1.61
1 -1 4 0.33 0.25
-1 1 -4 0.56 0.25
1 -1 4 0.37 0.19
-1 1 -4 0.14 0.13
-1 1 -4 0.47 0.23
1 0 4 13.7 0.83
-1 0 -4 13.45 0.8
1 0 4 13.05 0.87
1 0 4 11.78 0.86
-1 0 -4 13.14 0.89
1 1 4 6.69 0.63
-1 -1 -4 6.67 0.59
-1 -1 -4 7.41 0.67
-1 -1 -4 7.68 0.62
-1 -1 -4 7.69 0.66
1 1 4 6.71 0.61
1 2 4 21.57 1
-1 -2 -4 19.85 1.12
-1 -2 -4 20.81 1.14
1 2 4 18.59 1.15
1 2 4 19.53 1.16
-1 -2 -4 19.89 1.03
-1 -3 -4 17.88 1.15
1 3 4 18.26 0.93
-1 -3 -4 17.47 0.86
-1 -3 -4 16.72 1.02
1 3 4 18.41 1.24
-1 -3 -4 16.17 1.18
-1 -4 -4 43.16 1.4
-1 -4 -4 49.1 2.25
1 4 4 46.57 1.63
1 4 4 47.79 2.25
-1 -4 -4 49.61 2.2
-1 -4 -4 45.19 1.88
-1 -5 -4 0.6 0.28
1 5 4 0.57 0.2
-1 -5 -4 1.08 0.35
1 5 4 0.9 0.26
-1 -5 -4 0.46 0.22
-1 -6 -4 7.36 0.92
1 6 4 6.89 1.1
1 6 4 8.2 0.81
-1 -6 -4 7.74 0.9
-1 -6 -4 8.27 1.12
1 6 4 7.32 0.82
-1 -6 -4 7.47 1.06
1 7 4 4.17 0.63
1 7 4 4.45 0.71
1 7 4 4.58 1
-1 -7 -4 4.76 0.92
1 8 4 4.26 1.07
1 8 4 3.52 0.63
1 8 4 4.71 0.8
-1 -8 -4 5.03 1.07
-1 -9 -4 0.23 0.41
1 9 4 0.77 0.55
1 9 4 0.62 0.38
-1 -10 -4 0.3 0.51
1 10 4 -0.57 0.49
1 11 4 -0.43 0.6
-1 -11 -4 0.03 0.65
1 -10 5 0.28 0.41
1 -10 5 -0.29 0.55
-1 9 -5 0.23 0.41
1 -9 5 0.37 0.45
1 -9 5 0.06 0.37
1 -9 5 -0.37 0.65
1 -8 5 3.17 0.89
1 -8 5 3.53 0.82
1 -8 5 2.31 0.77
-1 8 -5 3.95 0.81
1 -7 5 16.97 1.59
1 -7 5 16.09 1.78
-1 7 -5 17.45 1.57
-1 6 -5 19.8 1.51
1 -6 5 19.34 1.88
-1 6 -5 19.2 1.55
1 -6 5 19.79 1.59
1 -6 5 17.21 1.67
-1 5 -5 15.12 1.18
-1 5 -5 16.77 1.33
1 -5 5 16.23 1.32
1 -5 5 16.18 1.56
1 -5 5 15.49 1.46
1 -5 5 15.2 1.49
1 -4 5 1.17 0.4
1 -4 5 1.76 0.45
1 -4 5 0 0.12
-1 4 -5 1.22 0.36
1 -4 5 1.97 0.58
-1 4 -5 1.89 0.43
-1 3 -5 172.24 4.15
1 -3 5 174.39 4.5
1 -3 5 162.56 4.52
-1 2 -5 4.99 0.61
1 -2 5 5.43 0.7
1 -2 5 6 0.76
-1 2 -5 5.74 0.69
1 -2 5 5.12 0.61
-1 1 -5 8.37 0.76
1 -1 5 8.57 0.72
1 -1 5 8.28 0.79
-1 1 -5 7.53 0.83
-1 1 -5 7.76 0.72
1 0 5 4.23 0.58
-1 0 -5 3.27 0.45
-1 0 -5 4.05 0.53
1 0 5 3.39 0.48
1 0 5 4.26 0.6
-1 -1 -5 715.64 10.11
1 1 5 722.53 10.3
1 1 5 699.88 10.32
-1 -1 -5 733.37 10.14
-1 -1 -5 723.44 9.97
-1 -1 -5 699.81 9.97
-1 -2 -5 15.9 1.12
1 2 5 13.84 1.08
-1 -2 -5 13.89 1.09
-1 -2 -5 13.95 0.98
1 2 5 13.89 0.92
-1 -2 -5 15.03 1.07
1 3 5 263.54 4.79
1 3 5 273.98 5.84
-1 -3 -5 267.92 4.35
-1 -3 -5 270.21 5.66
-1 -3 -5 258.21 5.15
-1 -3 -5 270.62 5.52
-1 -4 -5 75.62 2.67
1 4 5 74.78 2.29
-1 -4 -5 75.68 2.91
-1 -4 -5 78.18 1.92
-1 -4 -5 63.84 1.32
-1 -4 -5 77.62 2.91
-1 -5 -5 12.99 1.15
1 5 5 13.05 0.66
-1 -5 -5 15.13 1.41
1 5 5 13.46 1.39
1 5 5 14.36 1.51
-1 -5 -5 15.44 1.28
1 5 5 14.09 1.02
-1 -5 -5 15.37 1.4
1 6 5 -0.02 0.19
-1 -6 -5 0.36 0.4
1 6 5 0.09 0.31
1 6 5 0.46 0.37
-1 -6 -5 0.35 0.35
-1 -7 -5 1.18 0.44
1 7 5 1.79 0.45
-1 -7 -5 2.22 0.64
1 7 5 1.74 0.46
1 7 5 2.11 0.75
1 8 5 7.22 1.37
-1 -8 -5 8.33 1.32
1 8 5 6.82 0.87
1 8 5 7.01 0.94
-1 -9 -5 4.03 1.15
1 9 5 4.41 1.2
-1 -10 -5 1.41 0.78
1 10 5 0.28 0.67
-1 -11 -5 0.64 0.6
1 11 5 1.83 1.07
1 -9 6 2.83 0.97
-1 9 -6 1.58 0.6
1 -9 6 2.38 0.83
1 -9 6 2.31 0.85
1 -8 6 8.38 1.34
1 -8 6 7.42 1.14
1 -8 6 7.15 1.32
-1 8 -6 9.03 1.25
1 -7 6 0.3 0.38
1 -7 6 0.83 0.41
-1 7 -6 1.18 0.47
-1 6 -6 4.98 0.81
1 -6 6 4.48 0.91
1 -6 6 3.98 0.73
-1 6 -6 4.58 0.82
-1 5 -6 21.85 1.56
-1 5 -6 23.69 1.64
1 -5 6 22.7 1.87
1 -5 6 21.24 1.92
1 -5 6 24.53 1.7
-1 4 -6 47.7 2.25
-1 4 -6 43.58 2.12
1 -4 6 44.26 2.46
1 -4 6 48.3 2.22
1 -4 6 41.02 2.5
-1 3 -6 45.64 2.1
1 -3 6 44.98 2.43
1 -3 6 47.71 2.39
-1 2 -6 60.64 2.4
1 -2 6 62.88 2.7
-1 2 -6 62.02 2.47
1 -2 6 62.44 2.73
1 -2 6 60.16 2.52
-1 2 -6 58.27 2.37
-1 1 -6 88.49 2.62
-1 1 -6 94.19 3.01
-1 1 -6 87.46 2.81
-1 1 -6 89.02 2.77
1 -1 6 89.74 2.85
1 0 6 60.49 2.31
-1 0 -6 61.7 2.23
-1 0 -6 64.12 2.32
-1 0 -6 66.12 2.4
-1 -1 -6 78.65 2.61
-1 -1 -6 75.68 2.59
-1 -1 -6 76.16 2.64
-1 -1 -6 76.66 2.58
1 2 6 18.05 1.16
-1 -2 -6 19.46 1.34
-1 -2 -6 20.42 1.34
-1 -2 -6 19.11 1.28
-1 -2 -6 18.89 1.33
1 3 6 59.73 2.19
-1 -3 -6 62.16 2.57
-1 -3 -6 56.87 1.75
-1 -3 -6 57.87 2.37
-1 -3 -6 60.81 2.52
1 3 6 57.34 2.64
1 4 6 52.32 2.76
-1 -4 -6 53.26 1.57
-1 -4 -6 49.32 1.38
-1 -4 -6 50.07 2.36
1 4 6 52.52 2.81
1 4 6 50.72 2.02
-1 -4 -6 50.99 2.45
1 4 6 51.73 2.72
-1 -4 -6 50.61 2.53
1 5 6 1.35 0.55
1 5 6 1.15 0.51
-1 -5 -6 0.62 0.36
1 5 6 1.56 0.37
-1 -5 -6 1 0.49
1 6 6 3.7 0.59
-1 -6 -6 3.31 0.7
1 6 6 3.18 0.84
1 6 6 3.25 0.33
-1 -6 -6 2.2 0.56
1 7 6 8.9 1.44
-1 -7 -6 9 1.19
1 7 6 11.03 1.06
-1 -7 -6 10.18 1.4
1 8 6 1.68 0.48
-1 -8 -6 2.09 0.8
-1 -8 -6 0.65 0.32
1 8 6 0.27 0.65
-1 -9 -6 1.63 0.76
1 9 6 1.4 0.84
1 10 6 1.49 0.88
-1 -10 -6 -0.37 0.62
-1 -11 -6 0.53 0.56
1 -9 7 1.57 0.71
-1 8 -7 -0.51 0.38
1 -8 7 1 0.66
1 -8 7 0.07 0.3
1 -8 7 -1.28 0.77
1 -7 7 0.16 0.41
1 -7 7 -0.52 0.4
-1 7 -7 0.29 0.27
1 -6 7 2.25 0.59
-1 6 -7 1.07 0.45
1 -6 7 1.73 0.72
1 -5 7 4.32 0.88
1 -5 7 4.6 0.75
-1 5 -7 3.66 0.76
-1 5 -7 5.2 0.81
-1 4 -7 12.2 1.23
1 -4 7 13.51 1.43
-1 4 -7 12.81 1.22
1 -4 7 13.46 1.24
1 -3 7 102.49 4.05
1 -3 7 103.63 3.73
-1 3 -7 104.63 3.49
1 -3 7 103.81 3.42
-1 3 -7 102.3 3.59
-1 2 -7 394.78 7.6
-1 2 -7 392.9 7.61
-1 2 -7 370.23 7.45
1 -2 7 406.39 8.46
1 -2 7 404.55 7.8
1 -2 7 383.81 7.21
-1 1 -7 9.07 0.95
-1 1 -7 8.52 0.84
1 -1 7 6.65 0.91
1 -1 7 7.87 0.88
1 -1 7 8.56 0.96
-1 1 -7 7.76 0.93
-1 1 -7 7.63 0.92
-1 0 -7 4.08 0.62
1 0 7 4.34 0.68
-1 0 -7 3.3 0.62
-1 0 -7 3.9 0.54
1 0 7 4.17 0.72
-1 -1 -7 13.35 1.16
-1 -1 -7 13.2 1.09
1 1 7 13.18 1.22
1 1 7 13.04 1.24
-1 -1 -7 13.24 1.14
-1 -2 -7 65.19 2.64
-1 -2 -7 68.4 2.78
1 2 7 71.87 3.07
-1 -2 -7 69.97 2.77
1 2 7 67.17 2.99
-1 -2 -7 70.08 2.85
-1 -3 -7 8.14 0.98
-1 -3 -7 11.3 1.2
-1 -3 -7 9.15 1.08
1 3 7 8.12 1.11
1 3 7 10.19 0.95
-1 -3 -7 11.32 1.2
1 3 7 7.5 1.06
-1 -4 -7 18.65 1.58
-1 -4 -7 15.97 0.9
-1 -4 -7 17.07 1.46
1 4 7 16.68 1.63
1 4 7 18.11 1.83
1 4 7 18.13 1.29
1 4 7 18.32 1.69
-1 -4 -7 16.72 0.85
-1 -5 -7 34.44 2.19
1 5 7 40.63 2.78
-1 -5 -7 37.17 2.35
1 5 7 37.26 1.88
1 6 7 31.76 1.35
1 6 7 31.45 1.8
-1 -6 -7 34.62 2.41
-1 -6 -7 33.25 2.21
1 6 7 32.66 2.68
1 7 7 4.95 0.77
-1 -7 -7 5.38 1
-1 -7 -7 5.69 1.1
1 7 7 5.35 1.24
-1 -8 -7 0.28 0.45
-1 -8 -7 -0.5 0.73
1 8 7 0.82 0.64
1 9 7 1.34 0.9
-1 -9 -7 1.43 0.69
-1 -10 -7 0.79 0.58
1 10 7 1.13 0.77
1 -8 8 0.77 0.7
1 -7 8 0.18 0.3
1 -7 8 0.82 0.61
-1 7 -8 1.34 0.51
-1 6 -8 4.23 0.82
1 -6 8 5.42 0.96
-1 6 -8 5.89 1.01
1 -6 8 6.72 1.29
1 -5 8 0.67 0.4
-1 5 -8 0.65 0.47
-1 5 -8 0.82 0.42
1 -5 8 0.94 0.51
1 -4 8 8.59 1.19
-1 4 -8 9.01 1.16
-1 4 -8 8.91 1.06
1 -4 8 9.61 1.12
1 -3 8 10.21 1.12
-1 3 -8 9.85 1.16
1 -3 8 10.98 1.22
-1 3 -8 11.23 1.19
-1 2 -8 25.18 1.75
1 -2 8 24.42 1.7
-1 2 -8 24.67 1.79
1 -2 8 22.52 1.68
-1 1 -8 2.97 0.62
1 -1 8 3.2 0.65
-1 1 -8 2.89 0.57
1 -1 8 2.56 0.58
-1 1 -8 3.53 0.6
-1 0 -8 29.25 1.61
1 0 8 31.94 1.99
-1 0 -8 28.57 1.89
-1 -1 -8 18.59 1.53
1 1 8 18.3 1.56
-1 -1 -8 19.97 1.41
-1 -2 -8 1.17 0.36
-1 -2 -8 1.75 0.52
-1 -2 -8 1.58 0.56
1 2 8 1.36 0.53
-1 -3 -8 0.1 0.32
-1 -3 -8 -0.25 0.36
-1 -3 -8 0.5 0.3
1 3 8 0.13 0.38
-1 -3 -8 -0.21 0.3
-1 -4 -8 7.58 0.57
-1 -4 -8 7.58 1.08
1 4 8 8.14 1.28
-1 -4 -8 8.33 1.12
-1 -4 -8 6.98 0.71
1 4 8 8.78 1.27
-1 -4 -8 6.24 0.96
-1 -5 -8 5.06 0.96
1 5 8 8.71 1.39
-1 -5 -8 7.65 1.11
-1 -5 -8 6.03 0.55
-1 -6 -8 4.3 0.87
1 6 8 3.93 1
-1 -6 -8 3.97 0.86
1 7 8 10.94 1.78
-1 -7 -8 12.22 1.66
-1 -7 -8 9.66 1.34
-1 -8 -8 2.78 0.89
-1 -8 -8 0.85 0.48
1 8 8 1.39 0.82
-1 -9 -8 0.57 0.61
1 9 8 0.29 0.54
-1 -10 -8 0.38 0.65
1 -6 9 -0.38 0.48
-1 5 -9 4.37 0.91
1 -5 9 2.72 0.74
1 -5 9 3.15 0.68
-1 5 -9 3.95 0.76
1 -4 9 2.22 0.58
-1 4 -9 1.78 0.58
-1 4 -9 2.21 0.6
1 -4 9 2.6 0.76
1 -3 9 7.88 1.1
-1 3 -9 8.65 1.19
-1 3 -9 9.03 1.1
1 -3 9 9.01 1.17
1 -2 9 3.34 0.76
-1 2 -9 4.99 0.88
-1 2 -9 3.84 0.74
1 -2 9 3.72 0.73
1 -1 9 0.95 0.52
-1 1 -9 -0.09 0.39
-1 1 -9 0.46 0.35
-1 0 -9 0.9 0.34
1 0 9 0.51 0.31
-1 0 -9 0.05 0.4
-1 -1 -9 0.58 0.31
-1 -1 -9 0.04 0.44
1 1 9 0.28 0.32
1 2 9 2.67 0.74
-1 -2 -9 2.24 0.7
-1 -2 -9 2.87 0.61
-1 -2 -9 4.24 0.82
1 3 9 12.44 1.55
-1 -3 -9 15.09 1.56
-1 -3 -9 14 1.13
-1 -3 -9 12.33 1.28
-1 -3 -9 12.4 1.39
-1 -4 -9 8.3 0.56
-1 -4 -9 8.9 1.25
1 4 9 7.94 1.42
-1 -4 -9 9.97 0.92
1 4 9 10.53 1.53
-1 -4 -9 9.69 1.25
-1 -4 -9 9.89 1.28
-1 -5 -9 0.97 0.55
1 5 9 1.13 0.65
-1 -5 -9 2.19 0.75
-1 -5 -9 1.22 0.31
1 5 9 1.22 0.57
1 6 9 0.72 0.52
-1 -6 -9 0.99 0.58
-1 -6 -9 0.29 0.44
1 7 9 2.11 0.78
-1 -7 -9 2.04 0.7
-1 -7 -9 1.1 0.55
1 8 9 0.71 0.63
-1 -8 -9 0.03 0.44
-1 -8 -9 1.27 0.64
-1 -9 -9 0.36 0.44
1 -5 10 0.21 0.34
1 -4 10 0.23 0.28
-1 4 -10 0.57 0.42
-1 3 -10 0.38 0.38
1 -3 10 0.3 0.37
-1 3 -10 0.08 0.25
-1 2 -10 -0.48 0.48
1 -2 10 0.33 0.36
-1 2 -10 0.35 0.34
-1 1 -10 3.54 0.91
1 -1 10 2.76 0.73
-1 1 -10 3.65 0.79
1 0 10 11.22 1.4
-1 0 -10 11.64 1.4
-1 0 -10 10.2 1.41
1 1 10 -0.01 0.35
-1 -1 -10 0.74 0.5
-1 -2 -10 3.37 0.87
1 2 10 4.34 0.95
-1 -2 -10 4.71 0.75
-1 -3 -10 1.13 0.56
-1 -3 -10 -0.03 0.48
-1 -3 -10 0.49 0.35
1 3 10 0.13 0.31
-1 -4 -10 0.2 0.38
1 4 10 -0.13 0.37
-1 -4 -10 -0.27 0.33
-1 -4 -10 0.23 0.33
1 4 10 0.21 0.41
1 5 10 0.69 0.66
-1 -5 -10 0.75 0.63
-1 -5 -10 0.35 0.47
1 5 10 1.1 0.56
-1 -6 -10 1.97 0.76
1 6 10 1.63 0.81
-1 -6 -10 1.17 0.69
-1 -7 -10 3.22 0.98
-1 -7 -10 2.81 0.89
1 7 10 3.73 1.12
-1 -8 -10 1.36 0.75
-1 -8 -10 0.44 0.49
1 -4 11 0.06 0.38
1 -3 11 0.57 0.42
-1 2 -11 2.61 0.75
-1 2 -11 2.19 0.82
1 -2 11 1.83 0.69
-1 1 -11 5.71 1
1 -1 11 5.05 1.09
-1 1 -11 7.58 1.33
-1 0 -11 0.25 0.46
-1 0 -11 0.87 0.76
1 0 11 0.88 0.62
-1 0 -11 0.42 0.48
1 1 11 6.2 1.21
-1 -1 -11 6.28 1.24
-1 -1 -11 7.13 1.05
-1 -2 -11 3.72 0.75
1 2 11 3.23 0.93
-1 -2 -11 2.76 0.84
-1 -3 -11 4.21 0.77
-1 -3 -11 3.18 0.87
1 3 11 3.65 0.98
-1 -4 -11 0.25 0.46
1 4 11 1.67 0.74
1 4 11 1.62 0.69
-1 -4 -11 0.63 0.41
-1 -5 -11 2.31 0.85
1 5 11 1.68 0.78
1 5 11 2.92 1.24
-1 -5 -11 1.39 0.66
-1 -6 -11 2.19 0.89
-1 -6 -11 0.74 0.55
-1 -7 -11 0.85 0.65
-1 -7 -11 1.06 0.7
1 -3 12 0.36 0.42
1 -2 12 0.55 0.53
-1 1 -12 2.87 0.83
1 -1 12 0.66 0.48
1 0 12 3.97 1.07
-1 0 -12 2.26 0.74
-1 0 -12 5.04 1
1 1 12 0.85 0.56
-1 -1 -12 0.91 0.48
-1 -1 -12 0.4 0.49
-1 -2 -12 0.4 0.36
1 2 12 0.52 0.55
-1 -2 -12 -0.24 0.57
-1 -3 -12 0.15 0.49
1 3 12 1.8 0.88
-1 -4 -12 0.34 0.54
-1 -5 -12 1.72 0.86
-1 -5 -12 0.94 0.64
-1 -6 -12 -0.69 0.69
-1 -6 -12 0.43 0.43
2 0 -12 6.24 1.48
2 -1 -11 1.72 0.71
2 0 -11 -0.85 0.63
2 1 -11 1.73 0.73
2 2 -11 5.2 1.28
2 -5 -10 2.49 0.99
-2 4 10 1.3 0.79
2 -4 -10 2.09 0.85
2 -4 -10 1.88 0.84
-2 4 10 3.18 1.13
2 -3 -10 3.03 0.99
-2 3 10 1.87 0.77
2 -3 -10 3.59 0.92
2 -2 -10 5.68 1.08
-2 2 10 4.38 1.1
2 -2 -10 5.28 1.09
2 -2 -10 4.55 1.18
2 -1 -10 -0.83 0.76
-2 1 10 -2.04 0.75
2 0 -10 1.02 0.45
2 0 -10 1.02 0.62
-2 0 10 1.98 0.79
2 1 -10 2.41 0.81
-2 -1 10 1.42 0.61
2 1 -10 0.66 0.45
2 2 -10 7.32 1.38
2 2 -10 4.88 1.12
-2 -2 10 5.59 1.2
2 3 -10 0.23 0.47
2 3 -10 -0.14 0.44
-2 -3 10 0.29 0.55
2 4 -10 1.49 0.85
-2 -4 10 2.59 0.86
2 -7 -9 1.45 0.85
2 -6 -9 0.81 0.81
2 -6 -9 0.62 0.61
-2 6 9 0.06 0.5
2 -5 -9 -1.48 0.69
2 -5 -9 -0.63 0.77
-2 5 9 0.43 0.38
-2 5 9 -0.55 0.58
2 -4 -9 6.93 1.29
-2 4 9 6.62 1.33
2 -4 -9 7.55 1.42
2 -3 -9 5.72 1.28
2 -3 -9 4.47 0.86
-2 3 9 4.98 1.16
2 -3 -9 5.16 1.15
2 -2 -9 2.47 0.84
-2 2 9 2.23 0.72
2 -2 -9 2.57 0.74
2 -2 -9 2.15 0.74
2 -1 -9 4.73 1.1
2 -1 -9 7.37 1.16
-2 1 9 6.39 1.17
2 -1 -9 6.61 1.19
2 0 -9 8.29 1.4
2 0 -9 7.85 1.18
-2 0 9 8.45 1.32
2 1 -9 4.93 1.04
2 1 -9 5.29 1.02
-2 -1 9 3.84 0.96
2 2 -9 0.32 0.49
-2 -2 9 0.92 0.62
2 2 -9 1.46 0.66
2 3 -9 11.26 1.53
-2 -3 9 10.7 1.48
2 3 -9 9.8 1.4
2 4 -9 5.2 1.07
-2 -4 9 3.52 0.88
2 4 -9 3.56 0.87
2 5 -9 1.63 0.75
2 5 -9 2.81 0.91
-2 -5 9 2.41 0.79
2 6 -9 1.1 0.64
-2 -6 9 1.84 0.66
2 -8 -8 0.88 0.66
-2 7 8 0.52 0.88
2 -7 -8 -0.49 0.68
2 -7 -8 0.22 0.51
2 -6 -8 3.87 0.99
-2 6 8 4.63 1.35
2 -6 -8 7.79 1.38
-2 5 8 10.54 1.85
-2 5 8 13.74 1.87
2 -5 -8 12.91 1.75
2 -5 -8 7.51 1.36
2 -4 -8 4 1.05
2 -4 -8 4.21 0.96
2 -4 -8 4.03 0.68
-2 4 8 3.79 1.04
-2 3 8 1.56 0.66
2 -3 -8 1.18 0.45
2 -3 -8 0.92 0.58
2 -3 -8 1.5 0.72
2 -2 -8 9.29 1.2
2 -2 -8 8.02 1.23
-2 2 8 9.19 1.37
2 -2 -8 11.16 1.56
-2 1 8 9.82 1.34
2 -1 -8 9.43 0.96
2 -1 -8 11.43 1.34
2 -1 -8 8.92 1.28
2 -1 -8 8.71 1.33
2 0 -8 1.49 0.51
2 0 -8 1.17 0.49
2 0 -8 0.3 0.17
2 0 -8 1.25 0.27
-2 0 8 1.17 0.52
2 1 -8 6.15 1.11
2 1 -8 5.38 0.66
-2 -1 8 5.71 1.03
2 1 -8 5.53 0.96
2 2 -8 0.1 0.27
-2 -2 8 0.67 0.43
2 2 -8 0.33 0.24
2 2 -8 0.47 0.41
2 2 -8 0.41 0.29
-2 -3 8 9.29 1.23
2 3 -8 9.45 1.33
2 3 -8 8.95 1.24
2 3 -8 8.31 0.71
2 4 -8 3.3 0.83
-2 -4 8 3.17 0.81
2 4 -8 3.69 0.89
-2 -5 8 -0.45 0.4
2 5 -8 -0.57 0.52
2 5 -8 -0.09 0.33
2 6 -8 -0.26 0.47
-2 -6 8 -0.47 0.41
2 7 -8 -0.49 0.61
-2 -7 8 0.06 0.37
-2 8 7 -0.06 0.55
2 -8 -7 0.72 0.64
2 -8 -7 0.01 0.5
2 -7 -7 0.68 0.47
-2 7 7 0.84 0.73
2 -7 -7 0.96 0.65
2 -6 -7 0.64 0.57
-2 6 7 -0.19 0.42
2 -6 -7 0.76 0.58
2 -5 -7 1.16 0.59
-2 5 7 0.87 0.54
2 -5 -7 2.17 0.85
-2 5 7 1.24 0.6
-2 5 7 1.06 0.42
-2 4 7 7.75 1.06
2 -4 -7 8.4 0.9
2 -4 -7 9.07 1.44
-2 4 7 7.89 1.31
-2 4 7 7.3 1.2
2 -4 -7 8.6 1.3
2 -3 -7 30.12 2.46
-2 3 7 28.62 2.32
2 -3 -7 30.59 1.89
2 -3 -7 28.82 2.31
-2 2 7 20.35 1.89
2 -2 -7 19.62 1.94
2 -2 -7 17.66 1.36
2 -2 -7 23.33 1.73
2 -2 -7 20 1.13
2 -2 -7 22.71 1.96
2 -1 -7 10.3 1.26
2 -1 -7 10.11 1.34
2 -1 -7 9.44 1.11
2 -1 -7 7.57 0.41
-2 1 7 10.58 1.29
-2 0 7 2.17 0.59
2 0 -7 1.54 0.51
2 0 -7 1.92 0.63
2 0 -7 1.71 0.31
2 0 -7 1.13 0.49
2 1 -7 15.25 1.05
2 1 -7 14.92 1.43
2 1 -7 15.82 1.58
-2 -1 7 16.55 1.54
2 2 -7 20.08 1.19
2 2 -7 21.14 1.76
2 2 -7 19.64 1.74
2 2 -7 20.05 1.3
-2 -2 7 23.6 1.79
2 3 -7 4.94 0.71
-2 -3 7 4.19 0.75
2 3 -7 4.98 0.52
2 3 -7 4.92 0.87
2 3 -7 4.97 0.89
-2 -4 7 20.13 1.11
2 4 -7 21.7 1.05
2 4 -7 20.73 1.76
2 4 -7 24.97 1.99
-2 -4 7 24.05 1.94
2 5 -7 2.18 0.61
-2 -5 7 3.47 0.6
2 5 -7 2.67 0.4
-2 -5 7 3.22 0.79
2 5 -7 2.36 0.71
-2 -6 7 4.42 0.94
-2 -6 7 4.11 0.73
2 6 -7 3.15 0.77
2 6 -7 2.74 0.8
2 7 -7 1.21 0.56
-2 -7 7 2.32 0.82
2 7 -7 2.09 0.74
-2 -8 7 -0.1 0.33
2 8 -7 0.34 0.34
2 8 -7 0.18 0.37
2 9 -7 1.64 0.62
-2 9 6 -0.16 0.55
-2 8 6 0.08 0.46
2 -8 -6 1.35 0.77
-2 7 6 3.3 1.07
2 -7 -6 2.62 0.92
2 -7 -6 2.56 0.74
2 -6 -6 3.44 0.91
-2 6 6 2.61 0.78
2 -6 -6 3.59 0.95
2 -5 -6 1.84 0.62
2 -5 -6 2.48 0.76
-2 5 6 2.78 0.83
-2 5 6 3.94 0.96
2 -4 -6 49.99 3.03
-2 4 6 50.48 3.01
2 -4 -6 54.11 3.07
-2 4 6 55.97 3.18
2 -3 -6 0.45 0.28
2 -3 -6 0 0.45
-2 3 6 0.7 0.47
2 -3 -6 0.62 0.37
2 -3 -6 0.83 0.47
2 -2 -6 29.38 1.65
2 -2 -6 30.61 2.25
-2 2 6 31.59 2.12
2 -2 -6 28.15 2.07
2 -2 -6 31.04 1.86
2 -1 -6 0.81 0.36
2 -1 -6 0.59 0.33
-2 1 6 0.9 0.37
2 -1 -6 1.6 0.54
2 -1 -6 0.75 0.16
2 0 -6 17.96 1.03
-2 0 6 18.43 1.5
2 0 -6 18.77 0.92
2 0 -6 19.33 1.5
2 0 -6 19.29 1.61
2 0 -6 20.55 1.66
-2 -1 6 34.35 2.02
2 1 -6 32.1 1.97
2 1 -6 30.47 2.03
2 1 -6 31.65 1.41
2 2 -6 5.89 0.9
2 2 -6 5.58 0.63
2 2 -6 5.61 0.56
-2 -2 6 5.37 0.82
2 2 -6 4.95 0.82
2 3 -6 1.2 0.43
2 3 -6 2.57 0.66
2 3 -6 1.83 0.28
2 3 -6 3.09 0.58
-2 -3 6 2.43 0.54
-2 -3 6 1.85 0.28
2 4 -6 17.53 1.52
2 4 -6 19.51 1.68
-2 -4 6 18.31 1.15
2 4 -6 15.31 0.85
-2 -4 6 17.15 1.55
2 5 -6 5.41 0.97
2 5 -6 4.59 0.85
-2 -5 6 5.14 0.68
-2 -5 6 6.29 1.06
2 5 -6 4.46 0.5
2 6 -6 4.22 0.51
2 6 -6 6.69 0.96
2 6 -6 5.66 0.99
-2 -6 6 5.9 1.02
-2 -6 6 4.36 0.72
2 7 -6 1.38 0.58
2 7 -6 2.11 0.7
-2 -7 6 0.92 0.49
-2 -7 6 1.45 0.63
-2 -8 6 0.73 0.51
2 8 -6 0.95 0.45
2 8 -6 0.75 0.48
-2 -8 6 0.92 0.6
-2 -9 6 0.53 0.52
2 9 -6 0.13 0.45
2 9 -6 0.81 0.55
2 10 -6 0.27 0.57
-2 10 5 0.84 0.8
-2 9 5 1.22 0.84
2 -9 -5 0.51 0.58
-2 8 5 0.53 0.53
2 -8 -5 0.3 0.52
2 -7 -5 0.31 0.42
-2 7 5 0.22 0.42
2 -7 -5 0.25 0.38
-2 6 5 4.12 0.95
2 -6 -5 6.54 1.2
-2 6 5 5.8 0.75
-2 6 5 5.28 0.47
2 -6 -5 6.26 1.21
-2 5 5 3.95 0.94
2 -5 -5 3.06 0.84
2 -5 -5 3.04 0.76
-2 4 5 169.12 5.35
2 -4 -5 171.66 5.56
-2 4 5 166.69 5.4
2 -4 -5 164.17 5.57
-2 3 5 40.91 2.22
2 -3 -5 41.36 2.01
-2 3 5 43.16 2.45
2 -3 -5 39.69 2.51
2 -3 -5 41.72 2.51
2 -3 -5 37.27 1.8
2 -2 -5 0.3 0.4
-2 2 5 0.18 0.28
2 -2 -5 0.21 0.19
2 -2 -5 0.2 0.33
2 -2 -5 0.49 0.43
-2 2 5 0.1 0.25
-2 2 5 0.22 0.28
2 -1 -5 19.46 1.38
2 -1 -5 18.47 1.1
-2 1 5 17.7 1.31
2 -1 -5 19.86 1.39
2 -1 -5 21.09 1.68
2 -1 -5 18.55 1.5
2 0 -5 5.22 0.51
-2 0 5 6 0.74
2 0 -5 4.96 0.69
2 0 -5 5.21 0.72
2 0 -5 5.43 0.45
2 0 -5 5.73 0.79
2 0 -5 7.33 0.8
2 1 -5 29.41 1.73
2 1 -5 25.87 1.21
2 1 -5 25.56 1.64
2 1 -5 27.4 1.73
-2 -1 5 25.04 1.5
2 1 -5 26.43 1.59
2 2 -5 43.36 1.4
-2 -2 5 48.17 2.18
2 2 -5 40.85 1.68
2 2 -5 39.46 2.04
2 2 -5 45.33 2.24
2 2 -5 44.8 2.24
-2 -2 5 44.35 2
2 2 -5 45.16 2.17
-2 -3 5 2.97 0.39
-2 -3 5 2.9 0.6
2 3 -5 1.78 0.5
2 3 -5 3.72 0.63
2 3 -5 3.29 0.75
2 3 -5 3.47 0.65
2 3 -5 2.67 0.61
-2 -3 5 3.16 0.68
2 3 -5 2.55 0.29
-2 -3 5 3.03 0.68
2 4 -5 100.1 3.54
2 4 -5 89.33 2.03
-2 -4 5 106.22 3.66
-2 -4 5 90.81 2.49
2 4 -5 92.07 3.2
2 4 -5 96.7 3.14
-2 -5 5 2.28 0.76
-2 -5 5 0.01 0.27
2 5 -5 0.14 0.42
2 5 -5 0.29 0.17
2 5 -5 2.91 0.77
2 6 -5 0.61 0.39
-2 -6 5 1.41 0.72
2 6 -5 1.2 0.58
-2 -6 5 0.48 0.41
2 6 -5 -0.12 0.19
-2 -7 5 0.75 0.47
-2 -7 5 0.52 0.41
2 7 -5 0.15 0.28
2 7 -5 -0.01 0.4
2 7 -5 0.18 0.22
-2 -8 5 1.42 0.58
2 8 -5 1.77 0.58
2 8 -5 1.83 0.62
2 8 -5 1.63 0.41
-2 -8 5 1.75 0.61
-2 -9 5 0.89 0.58
2 9 -5 0.45 0.41
2 9 -5 0.16 0.37
-2 -9 5 0.79 0.46
-2 -10 5 0.47 0.55
2 10 -5 1.13 0.65
-2 -10 5 -0.85 0.41
2 10 -5 0.52 0.36
-2 10 4 -0.61 0.59
2 -9 -4 1.2 0.95
-2 9 4 1.09 0.76
-2 8 4 8.94 1.58
2 -8 -4 10.02 1.65
2 -7 -4 21.4 2.22
-2 7 4 21.17 2.24
2 -6 -4 8.61 1.35
2 -6 -4 6.74 1.17
-2 6 4 7.61 1.21
-2 6 4 7 0.54
-2 6 4 8.68 0.85
-2 6 4 7.6 0.67
-2 5 4 2.42 0.71
-2 5 4 2.44 0.5
-2 5 4 2.22 0.3
-2 5 4 2.97 0.34
2 -5 -4 3.12 0.75
2 -5 -4 3.21 0.81
2 -4 -4 1.96 0.61
-2 4 4 2.15 0.43
2 -4 -4 1.68 0.49
-2 4 4 1.99 0.22
-2 4 4 2.24 0.62
-2 4 4 1.97 0.33
-2 4 4 2.94 0.6
2 -4 -4 1.7 0.53
-2 4 4 2.59 0.61
2 -4 -4 2.41 0.65
-2 3 4 37.32 1.82
-2 3 4 37.71 1.37
-2 3 4 39.43 2.13
2 -3 -4 39.43 2.34
2 -3 -4 40.57 2.32
2 -3 -4 41.65 2.06
-2 3 4 38.64 2.12
2 -2 -4 61.59 2.39
-2 2 4 59.21 2.47
2 -2 -4 56.25 2.72
2 -2 -4 60.37 2.25
2 -2 -4 63.18 2.76
-2 2 4 62.98 1.92
2 -1 -4 102.81 3.41
2 -1 -4 108.19 2.84
2 -1 -4 100.03 3.05
2 -1 -4 99.68 2.56
2 -1 -4 98.84 3.06
-2 1 4 102.23 3.12
2 0 -4 450.57 6.1
2 0 -4 462.94 6.38
2 0 -4 459.29 7.7
2 0 -4 466.51 7.85
-2 0 4 451.46 7.58
2 0 -4 477.27 7.38
2 0 -4 467.52 8.17
2 1 -4 416.87 6.15
2 1 -4 402.18 5.38
2 1 -4 423.49 7.01
-2 -1 4 422.07 6.95
2 1 -4 417.72 7.37
2 1 -4 410.19 7.37
2 1 -4 415.07 7.24
2 2 -4 112.17 3.41
2 2 -4 113.69 2.81
2 2 -4 108.17 3.29
2 2 -4 111.19 3.36
2 2 -4 108.85 2.03
-2 -2 4 111.83 3.04
2 3 -4 22.28 1.48
-2 -3 4 20.59 0.86
2 3 -4 21.12 1.46
-2 -3 4 21.18 1.64
2 3 -4 22.31 1.5
2 3 -4 19.55 1.18
2 3 -4 20.25 0.7
2 4 -4 0.35 0.35
2 4 -4 0.79 0.34
2 4 -4 -0.4 0.43
-2 -4 4 0.07 0.26
2 4 -4 -0.14 0.21
-2 -4 4 0.23 0.42
2 4 -4 0.07 0.11
2 5 -4 0.19 0.22
-2 -5 4 0.3 0.32
2 5 -4 0.53 0.3
2 5 -4 0.38 0.33
2 5 -4 -0.04 0.14
2 5 -4 0.49 0.4
2 6 -4 12.05 1.08
2 6 -4 12.92 1.4
2 6 -4 13.39 1.31
-2 -6 4 11.62 0.97
2 6 -4 11.84 0.82
-2 -6 4 12.53 1.34
-2 -7 4 0.31 0.36
-2 -7 4 0.3 0.31
2 7 -4 0.15 0.27
2 7 -4 0.19 0.21
2 7 -4 -0.25 0.36
2 8 -4 -0.01 0.26
-2 -8 4 0.19 0.32
2 8 -4 0.9 0.58
2 8 -4 0.5 0.31
2 9 -4 0.71 0.47
-2 -9 4 0.17 0.53
2 9 -4 0.59 0.4
2 9 -4 0.42 0.31
2 10 -4 0.9 0.47
-2 -10 4 0.98 0.53
2 10 -4 -0.07 0.34
2 11 -4 1.04 0.62
-2 10 3 -0.04 0.62
-2 9 3 2.02 0.91
2 -9 -3 2.4 0.92
2 -8 -3 2.79 0.98
-2 8 3 3.28 0.94
-2 8 3 4.14 0.88
2 -7 -3 7.96 0.48
-2 7 3 7.65 0.79
-2 7 3 7.54 0.74
-2 7 3 8.96 1.39
2 -7 -3 9.33 1.46
-2 7 3 10.26 1.22
-2 6 3 9.02 0.75
-2 6 3 9.88 1.34
-2 6 3 9.37 0.8
-2 6 3 9.92 1.11
2 -6 -3 9.46 1.37
2 -6 -3 7.95 0.66
-2 6 3 8.09 0.73
-2 5 3 46.3 2.21
-2 5 3 40.22 2.55
-2 5 3 41.13 1.67
2 -5 -3 46.7 2.78
2 -5 -3 43.97 2.77
2 -5 -3 43.8 2.34
-2 5 3 46.34 2.67
-2 5 3 39.19 1.81
-2 4 3 90.61 2.5
2 -4 -3 96.32 3.3
-2 4 3 95.65 3.6
-2 4 3 97.28 3.65
-2 4 3 94.68 3.03
2 -4 -3 96.71 3.86
2 -4 -3 94.84 3.77
2 -4 -3 93.34 3.24
-2 4 3 89.13 2.82
-2 3 3 196.14 4.24
-2 3 3 191.91 4.87
-2 3 3 184.91 4.8
2 -3 -3 184.67 4.5
-2 3 3 183.14 3.72
2 -3 -3 181.82 5.13
2 -3 -3 191.74 5.13
-2 3 3 183.37 4.27
-2 3 3 207.43 5.25
2 -2 -3 1.86 0.4
2 -2 -3 1.97 0.51
-2 2 3 1.05 0.21
-2 2 3 1.4 0.34
-2 2 3 1.33 0.33
-2 2 3 2.2 0.42
2 -2 -3 1.99 0.41
2 -2 -3 1.74 0.4
-2 1 3 253.37 5.2
2 -1 -3 264.07 4.41
2 -1 -3 253.65 4.99
2 -1 -3 273.9 4.6
-2 1 3 249.35 4.46
2 -1 -3 261.76 5.46
2 -1 -3 257.3 4.9
2 0 -3 105.85 2.64
2 0 -3 109.03 2.9
2 0 -3 112.22 3.03
2 0 -3 109.9 2.19
-2 0 3 106.91 2.6
2 0 -3 110.14 3.11
-2 0 3 107.05 2.89
2 0 -3 105.93 2.11
2 1 -3 592.46 7
2 1 -3 606.19 8.69
2 1 -3 603.77 7.88
-2 -1 3 597.28 8.59
2 1 -3 593.2 8.93
2 1 -3 604.68 9.02
2 2 -3 161.44 3.27
-2 -2 3 152.42 3.29
2 2 -3 154.11 3.5
2 2 -3 153.98 3.72
2 2 -3 154.62 3.71
-2 -2 3 156.21 4.01
2 2 -3 159.89 3.82
2 3 -3 105.03 2.8
2 3 -3 108.49 3.26
2 3 -3 94.68 1.59
-2 -3 3 102.72 3.46
2 3 -3 103.95 3.1
2 4 -3 1.87 0.4
2 4 -3 1.55 0.22
-2 -4 3 2.28 0.56
2 4 -3 1.67 0.47
2 4 -3 2 0.49
-2 -4 3 1.35 0.23
-2 -5 3 1.93 0.53
2 5 -3 2.5 0.49
2 5 -3 2.96 0.65
2 5 -3 2.68 0.62
2 5 -3 -0.07 0.1
2 5 -3 2.73 0.56
-2 -5 3 2.66 0.66
-2 -5 3 2.47 0.37
2 5 -3 2.07 0.32
2 6 -3 29.25 2
-2 -6 3 31.02 2.04
2 6 -3 30.6 2.26
2 6 -3 26.88 1.26
2 6 -3 26.5 1.46
2 6 -3 27.84 1.77
-2 -6 3 30.09 1.5
2 7 -3 11.72 0.93
2 7 -3 11.77 1
2 7 -3 12.56 1.51
2 7 -3 11.64 1.33
2 7 -3 12.12 1.22
-2 -7 3 11.53 1.32
-2 -7 3 11.85 1.06
2 8 -3 1.13 0.28
-2 -8 3 2.03 0.51
2 8 -3 3.03 0.76
-2 -8 3 2 0.65
2 8 -3 2.75 0.51
2 8 -3 1.68 0.65
2 9 -3 6.56 1.03
2 9 -3 5.96 0.8
2 9 -3 6.17 0.82
-2 -9 3 4.8 1.02
2 9 -3 6.67 1.27
2 10 -3 2.57 0.62
-2 -10 3 4.06 1.04
2 10 -3 3.41 0.83
2 10 -3 3.46 1.09
2 11 -3 0.85 0.48
2 11 -3 -0.22 0.41
-2 -11 3 0.02 0.44
2 11 -3 0.91 0.75
-2 11 2 1.05 0.79
-2 10 2 0.43 0.39
-2 10 2 -0.67 0.7
2 -9 -2 0.25 0.49
-2 9 2 0.81 0.54
-2 9 2 -0.16 0.53
2 -8 -2 3.64 0.64
2 -8 -2 3.55 1.01
-2 8 2 3.55 0.77
-2 8 2 4.67 1.06
2 -7 -2 5.22 0.7
2 -7 -2 6.27 1.21
-2 7 2 5.56 0.91
-2 7 2 6.5 1.13
-2 6 2 4.57 0.89
-2 6 2 5.32 0.99
2 -6 -2 5.09 0.66
2 -6 -2 4.49 1.04
2 -6 -2 3.15 0.24
-2 6 2 5.68 0.83
2 -5 -2 0.31 0.45
2 -5 -2 0.44 0.3
-2 5 2 0.43 0.49
-2 5 2 -0.09 0.31
2 -5 -2 0.7 0.33
-2 5 2 0.04 0.15
2 -5 -2 0.24 0.12
2 -5 -2 -0.3 0.24
-2 5 2 0.37 0.28
-2 5 2 0.19 0.23
2 -4 -2 70.23 3.17
2 -4 -2 68.15 2.65
2 -4 -2 72.27 2.39
2 -4 -2 72.67 1.66
-2 4 2 73.43 2.58
-2 4 2 68.99 2.31
-2 4 2 72.63 2.97
-2 4 2 69.13 2.32
2 -4 -2 72.05 3.24
-2 4 2 69.85 3.08
-2 3 2 8.05 0.76
2 -3 -2 8.9 0.57
-2 3 2 7.12 0.82
-2 3 2 8.73 0.98
-2 3 2 7.85 0.87
-2 3 2 7.51 0.7
2 -3 -2 7.18 0.95
-2 3 2 7.86 0.75
2 -3 -2 7.58 0.77
2 -3 -2 7.6 0.95
-2 2 2 52.91 2.01
-2 2 2 53.16 1.97
2 -2 -2 57.05 1.52
-2 2 2 55.57 2.32
-2 2 2 53.39 1.85
2 -2 -2 54.77 1.92
-2 2 2 54.83 1.81
2 -2 -2 52.94 1.91
2 -2 -2 54.95 2.31
-2 1 2 22.59 1.32
2 -1 -2 24.42 1.07
-2 1 2 22.94 1.2
-2 1 2 21.88 1.19
2 -1 -2 21.11 1.16
2 -1 -2 22.97 0.98
-2 1 2 22.87 1.14
2 -1 -2 22.21 1.31
-2 1 2 21.87 0.97
2 -1 -2 22.67 1.13
2 0 -2 35.56 0.93
-2 0 2 36.15 1.5
-2 0 2 35.6 1.4
-2 0 2 34.45 0.94
2 0 -2 38.46 1.56
-2 0 2 36.8 1.4
2 0 -2 35.25 1.36
-2 0 2 33.34 1.52
2 0 -2 38.61 1.43
2 0 -2 35.93 1.53
-2 0 2 36.02 1.04
2 0 -2 37.36 1.09
2 1 -2 432.54 5.04
2 1 -2 448.39 6.76
2 1 -2 437.83 6.06
-2 -1 2 441.69 6.79
2 1 -2 436.19 6.58
2 1 -2 449.1 6.75
2 1 -2 451.71 6.93
-2 -1 2 432.7 6.41
-2 -1 2 445.84 6.43
-2 -1 2 425.65 5.66
2 1 -2 447.5 6.67
-2 -2 2 34.69 1.27
2 2 -2 30.65 1.43
-2 -2 2 34.8 1.66
-2 -2 2 35.68 1.53
2 2 -2 34.35 1.35
2 2 -2 35.14 1.39
2 2 -2 34.99 1.57
2 2 -2 34.4 1.56
2 3 -2 73.7 2.58
2 3 -2 75.04 2.02
-2 -3 2 59.78 1.29
-2 -3 2 70.29 2.67
2 3 -2 77.96 2.43
2 3 -2 76.68 2.25
-2 -3 2 74.23 2.21
2 3 -2 62.79 1.19
-2 -4 2 0.02 0.11
2 4 -2 -0.18 0.22
2 4 -2 0 0.09
2 4 -2 0.26 0.2
2 4 -2 -0.17 0.26
2 4 -2 -0.05 0.21
-2 -4 2 -0.05 0.3
2 5 -2 5.7 0.51
2 5 -2 6.78 0.79
-2 -5 2 6.4 0.57
2 5 -2 5.51 0.8
2 5 -2 5.67 0.7
-2 -5 2 6.1 0.95
2 5 -2 6.42 0.95
-2 -6 2 2.56 0.44
2 6 -2 1.87 0.52
2 6 -2 1.71 0.49
-2 -6 2 0.01 0.08
-2 -6 2 2.59 0.7
2 6 -2 2.5 0.42
2 6 -2 2.31 0.53
2 6 -2 2.09 0.63
-2 -7 2 11.37 0.98
2 7 -2 13.97 1.58
2 7 -2 12.24 0.94
2 7 -2 11.52 1.1
-2 -7 2 12.81 1.08
-2 -8 2 1.36 0.43
2 8 -2 3.89 0.93
2 8 -2 3.56 0.63
2 8 -2 4.73 0.8
-2 -8 2 3.16 0.63
2 9 -2 3.28 0.93
2 9 -2 2.79 0.56
2 9 -2 2.42 0.64
2 10 -2 0.67 0.44
2 10 -2 0.74 0.45
2 11 -2 0.16 0.35
2 11 -2 -0.23 0.41
-2 11 1 2.36 0.97
-2 10 1 3.27 1
2 -10 -1 1.69 0.77
-2 10 1 2.69 0.86
2 -9 -1 1.89 0.75
-2 9 1 2.32 0.71
-2 9 1 2.62 0.87
2 -8 -1 0.24 0.4
2 -8 -1 0.55 0.37
-2 8 1 -0.11 0.48
-2 8 1 0.39 0.33
2 -7 -1 12.77 1.7
-2 7 1 13.48 1.35
-2 7 1 14.08 1.59
2 -7 -1 15.17 1.29
2 -6 -1 6.12 0.9
2 -6 -1 6.66 0.81
-2 6 1 7.06 1.09
-2 6 1 7.82 0.96
-2 6 1 7.94 1.16
2 -6 -1 6.52 1.16
2 -5 -1 4 0.6
-2 5 1 4.37 0.77
-2 5 1 3.94 0.86
2 -5 -1 3.63 0.68
2 -5 -1 5.01 0.91
2 -5 -1 4.39 0.79
-2 5 1 3.69 0.62
-2 5 1 4.16 0.54
-2 4 1 252.29 5.63
2 -4 -1 242.29 5.22
-2 4 1 249.65 6.21
-2 4 1 248.71 4.72
2 -4 -1 238.88 4.95
-2 4 1 256.93 5.28
2 -4 -1 255.54 6.32
-2 3 1 50.45 2.41
-2 3 1 49.76 1.89
2 -3 -1 49.58 1.91
2 -3 -1 51.5 2.47
-2 3 1 53.65 2.13
-2 3 1 50.75 1.89
2 -3 -1 50.08 1.93
2 -3 -1 46.95 1.14
2 -3 -1 50.46 2.41
-2 2 1 84.5 2.32
-2 2 1 87.24 2.47
2 -2 -1 86.62 2.39
-2 2 1 88.32 2.51
2 -2 -1 84.91 1.74
2 -2 -1 83.3 2.26
-2 2 1 87.05 2.4
2 -2 -1 88.12 2.45
-2 2 1 87.23 2.96
2 -2 -1 91.35 2.89
-2 2 1 86.63 2.43
2 -1 -1 47.39 1.44
2 -1 -1 46.52 1.76
-2 1 1 44.85 1.48
-2 1 1 45.92 1.69
2 -1 -1 45.77 1.43
2 -1 -1 47.15 1.34
-2 1 1 43.76 1.39
-2 1 1 45.93 1.66
2 -1 -1 47.03 1.67
-2 1 1 46.72 1.84
-2 1 1 46.04 1.86
2 -1 -1 44.26 1.44
2 0 -1 178.07 3.09
2 0 -1 179.97 3.31
-2 0 1 175.18 2.79
2 0 -1 180.94 2.91
-2 0 1 178.4 3.47
2 0 -1 168.62 2.78
-2 0 1 186.35 3.02
-2 0 1 178.93 3.54
2 0 -1 177.47 3.6
-2 0 1 178.04 3.61
-2 0 1 169.89 3.49
-2 0 1 175.96 2.9
2 0 -1 180.43 3.44
-2 0 1 185.84 3.11
-2 -1 1 660.79 8.25
-2 -1 1 657.75 8.45
2 1 -1 698.01 8.82
2 1 -1 656.36 8.47
2 1 -1 678.36 9.02
2 1 -1 671.91 9.12
-2 -1 1 662.98 8.48
2 1 -1 657.21 7.42
2 1 -1 653.86 8.52
-2 -1 1 660.24 8.6
2 1 -1 681.4 8.57
-2 -1 1 672.87 7.86
-2 -1 1 678.72 7.34
2 2 -1 3.75 0.43
-2 -2 1 3.79 0.38
-2 -2 1 3.86 0.36
2 2 -1 4.19 0.39
2 2 -1 3.47 0.48
-2 -2 1 4.06 0.53
2 2 -1 3.71 0.45
-2 -2 1 4.12 0.45
-2 -3 1 106.04 2.85
-2 -3 1 109.71 1.83
2 3 -1 110.71 3.01
2 3 -1 115.08 2.81
-2 -3 1 110.89 3.26
2 3 -1 108.25 2.78
2 3 -1 108.15 2.24
2 4 -1 3.94 0.37
2 4 -1 4.82 0.6
2 4 -1 4.44 0.42
-2 -4 1 4.08 0.39
2 4 -1 4.21 0.62
-2 -4 1 4.41 0.56
2 4 -1 4 0.56
-2 -4 1 5.05 0.8
-2 -5 1 192.01 3.63
-2 -5 1 180.98 4.14
2 5 -1 173.87 4.2
2 5 -1 172.1 3.32
2 5 -1 168.64 3.95
-2 -5 1 176.14 5.16
2 6 -1 29 2.11
2 6 -1 25.12 1.59
-2 -6 1 27.86 1.43
2 6 -1 24.61 1.48
-2 -6 1 27.62 2.09
2 6 -1 27.16 1.3
2 7 -1 26.02 1.58
-2 -7 1 25.7 1.54
2 7 -1 25.49 2.12
2 7 -1 26.74 1.43
2 8 -1 3.84 0.69
-2 -8 1 3.02 0.55
2 8 -1 4.3 0.69
-2 -8 1 4.19 0.73
2 8 -1 4.29 0.98
-2 -9 1 0.19 0.21
2 9 -1 0.16 0.33
2 9 -1 0.48 0.47
2 10 -1 0.39 0.39
2 10 -1 0.79 0.64
2 11 -1 -0.06 0.43
2 11 -1 0.34 0.49
-2 10 0 0.78 0.59
-2 10 0 0.79 0.6
2 -10 0 -0.66 0.68
-2 9 0 0.04 0.47
2 -9 0 -0.1 0.48
-2 9 0 -0.1 0.32
-2 8 0 13.81 1.52
-2 8 0 10.91 1.49
2 -8 0 11.11 1.19
2 -8 0 13.96 1.92
2 -7 0 78.23 3.12
-2 7 0 86.7 3.48
-2 7 0 87.21 3.96
2 -7 0 80.61 4.26
2 -7 0 78.41 3.48
2 -6 0 14.78 1.36
2 -6 0 15.76 1.31
-2 6 0 14.42 1.58
-2 6 0 13.38 1.42
2 -6 0 13.44 1.61
2 -6 0 13.5 1.3
-2 6 0 13.94 1.27
2 -5 0 75.71 2.74
-2 5 0 76.62 2.85
-2 5 0 78.78 3.51
2 -5 0 79.23 3.07
2 -5 0 75.76 2.87
2 -5 0 71.84 2.79
2 -5 0 83.11 3.64
-2 4 0 145.78 4.6
-2 4 0 150.75 3.88
2 -4 0 146.67 3.77
2 -4 0 147.25 4.61
2 -4 0 151.87 3.79
2 -4 0 144.55 3.76
-2 4 0 145.02 3.99
2 -3 0 162.62 3.78
2 -3 0 162.09 3.58
2 -3 0 164.68 3.54
-2 3 0 163.86 3.52
-2 3 0 168.34 3.82
-2 3 0 160.72 3.73
2 -3 0 163.64 4.39
-2 3 0 161.26 4.59
-2 2 0 402.91 6.21
-2 2 0 398.15 6.3
-2 2 0 390.83 5.95
2 -2 0 417.96 5.89
-2 2 0 385.73 6.9
2 -2 0 409.47 6.48
2 -2 0 394.49 6.9
2 -1 0 824.77 10.06
-2 1 0 806.34 9.37
2 -1 0 763.7 10.26
2 -1 0 753.27 9.79
-2 1 0 773.74 10.21
2 -1 0 801.86 9.25
-2 1 0 803.01 10.9
-2 1 0 772.75 9.78
-2 1 0 731.56 10.39
-2 1 0 762.42 8.96
2 -1 0 776.83 10.46
-2 0 0 3009.57 31.66
2 0 0 2868.19 31.4
-2 0 0 2921.98 32.35
2 0 0 2924.85 31.62
-2 0 0 2900.02 31.55
-2 0 0 2904.66 31.73
-2 0 0 2878.49 32.45
-2 0 0 3018.42 31.43
2 0 0 2914.23 32.32
-2 0 0 2884.1 30.98
2 0 0 2863.37 31
2 0 0 2922.02 32.11
2 1 0 40.66 1.44
-2 -1 0 37.25 1.05
-2 -1 0 39.05 1.28
-2 -1 0 39.31 1.19
2 1 0 39.6 1.22
2 1 0 40.12 1.22
-2 -1 0 37.75 1.24
-2 -1 0 38.7 0.98
2 1 0 36.02 1.09
2 1 0 38.82 1.22
-2 -1 0 38.26 1.08
2 1 0 39.59 1.04
-2 -1 0 39.64 1.21
-2 -2 0 94.52 2.51
-2 -2 0 97.76 1.66
2 2 0 93.37 2.29
2 2 0 98.78 2.48
2 2 0 97.59 1.78
2 2 0 94.49 2.35
-2 -2 0 95.45 2.25
2 3 0 122.12 2.8
2 3 0 126.28 2.05
2 3 0 122.33 2.89
-2 -3 0 123.96 2.15
-2 -3 0 128.72 3.19
-2 -3 0 131.3 3.48
-2 -3 0 121.49 2.55
2 4 0 172.38 3.82
-2 -4 0 177.24 3.96
2 4 0 168.84 3.52
-2 -4 0 163.01 3.06
-2 -4 0 167.69 4.45
-2 -5 0 15.39 1.41
-2 -5 0 15.65 1.15
2 5 0 15.09 0.99
2 5 0 15.84 1.16
-2 -5 0 15.91 0.96
2 6 0 93.71 2.75
-2 -6 0 103.64 2.92
2 6 0 101.07 3.93
-2 -6 0 103.92 3.22
-2 -6 0 93.31 3.87
2 6 0 98.82 3.29
-2 -7 0 12.45 1.09
-2 -7 0 11.58 1.48
2 7 0 11.94 1
2 7 0 11.32 1.46
2 8 0 1.15 0.65
-2 -8 0 1.99 0.51
2 8 0 0.79 0.34
2 9 0 0.27 0.29
2 9 0 0.43 0.37
2 9 0 0.29 0.61
-2 -9 0 0.13 0.2
-2 -10 0 1.57 0.44
-2 -10 0 1.07 0.33
2 10 0 0.89 0.36
2 10 0 1.06 0.52
-2 -10 0 0.38 0.48
2 11 0 0.69 0.48
-2 -11 0 1.56 0.81
-2 10 -1 1.06 0.55
-2 10 -1 1.12 0.66
-2 9 -1 4.51 0.92
2 -9 1 2.98 0.69
2 -9 1 2.85 1.03
-2 9 -1 3.37 0.93
-2 8 -1 2.27 0.65
2 -8 1 2.59 1.02
-2 8 -1 1.63 0.6
2 -8 1 1.66 0.58
-2 7 -1 23.5 2
2 -7 1 25.12 1.85
2 -7 1 25.21 1.96
-2 7 -1 25.66 1.87
2 -7 1 26.98 2.51
2 -6 1 91.09 3.52
2 -6 1 95.4 4.42
-2 6 -1 94.71 3.44
-2 6 -1 95.05 3.76
2 -6 1 98.14 3.45
2 -5 1 78.26 2.87
-2 5 -1 79.24 3.11
2 -5 1 82.44 3.22
2 -5 1 80.62 3.64
2 -5 1 76.99 2.91
-2 5 -1 76.95 2.92
-2 5 -1 76.15 3.58
-2 4 -1 0.03 0.24
2 -4 1 0.24 0.18
2 -4 1 -0.29 0.36
-2 4 -1 0.27 0.24
2 -4 1 0.12 0.34
-2 3 -1 126.18 3.25
-2 3 -1 119.99 3.04
2 -3 1 117.47 2.91
2 -3 1 122.37 3.75
2 -3 1 126.5 3.26
-2 2 -1 505.93 7.3
2 -2 1 474.38 7.51
2 -2 1 471.31 6.4
-2 2 -1 486.9 6.58
-2 2 -1 472.75 7.01
2 -2 1 475.89 7.72
-2 1 -1 50.13 1.62
-2 1 -1 47.43 1.59
2 -1 1 45.84 1
-2 1 -1 47.94 1.02
-2 1 -1 47.71 1.62
2 -1 1 45.68 1.61
2 -1 1 47.73 1.68
2 0 1 158.73 3.17
2 0 1 158.04 2.94
-2 0 -1 161.39 2.95
-2 0 -1 155.01 3.05
2 0 1 153.11 2.59
-2 -1 -1 537.03 7.12
-2 -1 -1 516.4 6.8
2 1 1 544.08 6.67
-2 -1 -1 516.32 6.7
2 1 1 539 7.15
-2 -1 -1 542.41 7.29
-2 -1 -1 539.37 7.41
-2 -2 -1 9726.02 103.53
-2 -2 -1 9689.64 103.91
-2 -2 -1 9808.45 103.25
2 2 1 9962.74 103.84
2 2 1 9999 103.7
2 2 1 9941.24 104.09
-2 -3 -1 684.01 9.14
2 3 1 694.23 9.01
2 3 1 676.05 9.37
-2 -3 -1 682.42 8.64
-2 -3 -1 709.43 10.09
-2 -3 -1 699.4 8.48
-2 -4 -1 202.45 3.57
-2 -4 -1 201.67 4.91
2 4 1 195.56 4.16
2 4 1 195.71 3.67
2 5 1 15.78 1.16
-2 -5 -1 16.16 1.44
2 5 1 15.32 0.93
-2 -5 -1 16.29 0.98
-2 -6 -1 9.61 0.87
2 6 1 11.06 1.06
-2 -6 -1 10.2 1
-2 -6 -1 9.79 1.2
2 6 1 9.25 0.77
2 6 1 9.94 0.82
2 7 1 1.21 0.46
-2 -7 -1 1.32 0.47
-2 -7 -1 1.32 0.43
2 7 1 1.27 0.39
2 7 1 0.52 0.21
2 7 1 1 0.53
2 8 1 10.35 1.06
-2 -8 -1 9.23 1.34
2 8 1 9.61 0.91
2 8 1 9.87 1.54
2 9 1 18.15 1.33
2 9 1 17.95 1.48
2 9 1 19.37 2.18
-2 -9 -1 20.38 2.13
-2 -9 -1 18.71 1.03
2 10 1 7.36 0.92
-2 -10 -1 8.09 0.94
-2 -10 -1 8.89 1.58
2 10 1 9.72 1.73
-2 -11 -1 0.82 0.72
2 11 1 -0.77 0.69
2 12 1 -0.46 0.62
-2 10 -2 1 0.52
-2 10 -2 1.36 0.66
2 -9 2 1.46 0.58
2 -9 2 1.44 0.69
-2 9 -2 0.79 0.56
-2 9 -2 0.22 0.33
2 -9 2 2.64 1.02
2 -8 2 2.38 0.84
2 -8 2 3.48 0.79
-2 8 -2 2.26 0.65
2 -8 2 3.42 0.96
-2 8 -2 1.74 0.58
2 -7 2 1.51 0.53
-2 7 -2 1.71 0.5
2 -7 2 1.05 0.49
-2 7 -2 1.96 0.62
2 -7 2 2.03 0.78
-2 6 -2 1.34 0.47
2 -6 2 0.5 0.29
2 -6 2 -0.02 0.35
-2 6 -2 0.85 0.46
2 -5 2 14.91 1.36
2 -5 2 15.18 1.27
2 -5 2 15.87 1.31
-2 5 -2 16.48 1.33
-2 5 -2 15.95 1.3
-2 4 -2 378.72 6.98
2 -4 2 382.74 6.82
-2 4 -2 358.33 4.83
-2 4 -2 376.91 6.72
2 -4 2 374.25 7.21
2 -4 2 381.09 6.93
2 -3 2 50.54 1.86
2 -3 2 51.71 2.03
-2 3 -2 52.96 1.82
-2 3 -2 51.68 2.04
-2 2 -2 39.95 1.67
-2 2 -2 42.37 1.29
2 -2 2 41.92 1.35
2 -2 2 41.89 1.69
2 -1 2 352.32 4.2
-2 1 -2 338.47 5.68
2 -1 2 349.72 5.64
2 -1 2 335.86 4.39
-2 1 -2 355.33 5.65
-2 0 -2 1756.56 20.5
-2 0 -2 1800.93 20.39
2 0 2 1731.87 20.2
-2 -1 -2 214.47 3.49
-2 -1 -2 207.91 3.09
-2 -1 -2 205.95 3.29
2 1 2 219.07 3.38
2 1 2 222.67 3.69
-2 -1 -2 208.66 3.99
-2 -2 -2 3285.65 36.24
2 2 2 3246.42 36.3
-2 -2 -2 3320.79 34.81
-2 -2 -2 3258.83 36.13
2 2 2 3333.9 35.5
-2 -2 -2 3353 35.27
-2 -3 -2 574.47 7.96
2 3 2 561.54 6.84
-2 -3 -2 579.66 7.65
-2 -3 -2 554.47 6.8
-2 -3 -2 539.96 8.6
2 3 2 589.97 8.91
-2 -3 -2 560.98 7.31
2 3 2 573.08 8.17
-2 -4 -2 13.9 1.18
-2 -4 -2 14.53 0.92
2 4 2 13.88 0.75
2 4 2 12.76 0.48
-2 -4 -2 13.49 0.52
-2 -4 -2 15.59 1.07
-2 -4 -2 13.11 0.62
2 4 2 13.79 0.99
2 5 2 46.72 1.97
2 5 2 46.9 1.53
-2 -5 -2 42.69 2.34
2 5 2 45.02 1.33
-2 -5 -2 38.14 0.92
-2 -5 -2 50.77 2.25
-2 -5 -2 48.44 1.83
-2 -6 -2 0.89 0.35
-2 -6 -2 0.52 0.1
-2 -6 -2 0.36 0.25
2 6 2 0.8 0.24
2 6 2 0.68 0.26
2 6 2 0.46 0.22
-2 -6 -2 0.84 0.32
2 7 2 6.17 0.84
2 7 2 6.25 0.67
-2 -7 -2 5.54 0.32
2 7 2 6.92 0.67
2 7 2 7.8 1.2
-2 -7 -2 4.83 0.3
-2 -7 -2 7.54 0.89
-2 -7 -2 7.41 1.1
-2 -8 -2 9.03 1.31
2 8 2 8.03 0.9
2 8 2 8.47 0.78
-2 -8 -2 6.65 0.35
2 8 2 7.71 1.34
-2 -9 -2 0.01 0.16
-2 -9 -2 -0.37 0.49
2 9 2 0.85 0.33
2 9 2 0.96 0.33
2 9 2 1.66 0.82
-2 -10 -2 5.99 1.38
-2 -10 -2 6.51 0.91
2 10 2 5.98 0.76
2 10 2 7.61 1.62
2 11 2 6.18 1.57
-2 -11 -2 5.82 1.39
-2 -12 -2 2.89 1.1
-2 10 -3 0.27 0.53
-2 9 -3 4.63 0.96
2 -9 3 3.71 1.1
2 -9 3 2.41 0.78
-2 9 -3 3.38 0.91
2 -9 3 4.26 1.17
2 -8 3 0.29 0.47
2 -8 3 0.79 0.61
-2 8 -3 -0.43 0.54
2 -8 3 0.77 0.45
-2 8 -3 0.21 0.36
2 -7 3 2.37 0.76
-2 7 -3 2.93 0.76
2 -7 3 2.17 0.6
2 -7 3 3 0.73
-2 7 -3 2.7 0.7
2 -6 3 0.89 0.5
2 -6 3 2.11 0.67
-2 6 -3 2.3 0.57
2 -6 3 1.12 0.45
-2 6 -3 0.7 0.42
-2 5 -3 0.04 0.22
2 -5 3 0.84 0.39
2 -5 3 1.29 0.55
2 -5 3 1.06 0.41
2 -5 3 0.84 0.36
-2 5 -3 0.52 0.28
-2 5 -3 0.7 0.21
2 -4 3 1.27 0.36
2 -4 3 1.3 0.47
-2 4 -3 0.31 0.25
-2 4 -3 1.47 0.27
2 -4 3 1.35 0.44
2 -4 3 1.33 0.37
-2 4 -3 1.49 0.39
2 -3 3 281 6.02
2 -3 3 305.82 6.08
2 -3 3 292.05 5.41
-2 3 -3 295.47 5.13
2 -3 3 287.29 5.66
-2 3 -3 284.12 5.72
-2 2 -3 89.53 2.67
2 -2 3 90.78 2.67
2 -2 3 87.69 2.89
2 -2 3 85.67 2.24
2 -2 3 90.31 2.02
2 -2 3 85.96 2.82
2 -1 3 1108.15 13.92
2 -1 3 1108.51 12.36
-2 1 -3 1146.43 14.2
2 -1 3 1078.81 12.82
2 -1 3 1122.92 14.58
2 -1 3 1130.59 14.26
-2 1 -3 1077.03 14.15
-2 0 -3 0.34 0.11
2 0 3 0.16 0.09
2 0 3 0.25 0.17
-2 0 -3 0.32 0.17
-2 0 -3 0.11 0.16
2 0 3 0.12 0.24
-2 -1 -3 270.47 5.05
2 1 3 274.41 4.36
2 1 3 274.94 4.22
2 1 3 279.09 5.14
2 1 3 278.76 3.85
2 1 3 281.05 4.47
-2 -1 -3 271.13 4.04
2 2 3 287.98 4.39
2 2 3 288.13 5.15
-2 -2 -3 274.98 4.7
-2 -2 -3 284.33 3.91
-2 -2 -3 291.74 5.43
-2 -2 -3 290.09 4.07
2 2 3 288.2 4.23
2 3 3 13.78 0.66
-2 -3 -3 14.9 0.65
-2 -3 -3 14.44 1.06
-2 -3 -3 14.97 0.94
-2 -3 -3 15.35 1.04
2 3 3 14.4 0.86
-2 -3 -3 14.66 0.85
2 3 3 14.38 0.56
2 3 3 15.01 1.16
-2 -4 -3 25.63 1.63
2 4 3 26.04 1.38
-2 -4 -3 25.58 1.25
2 4 3 25.03 0.81
-2 -4 -3 24.43 0.81
-2 -4 -3 24.19 0.98
-2 -4 -3 26.2 1.38
2 4 3 22.18 0.63
2 5 3 55.11 2.19
-2 -5 -3 53.73 2.66
2 5 3 50.79 1.39
-2 -5 -3 54.21 2.35
-2 -5 -3 54.84 1.89
2 6 3 44.32 2.11
-2 -6 -3 43.95 2.02
2 6 3 39.4 1.46
-2 -6 -3 44.2 2.56
2 6 3 39.29 1.22
-2 -6 -3 43.68 2.35
2 7 3 23.3 1.25
-2 -7 -3 24.7 1.93
-2 -7 -3 26.72 1.7
2 7 3 22.99 0.97
2 7 3 23.89 2.2
2 7 3 23.11 1.63
2 8 3 0.19 0.18
2 8 3 0.35 0.41
2 8 3 0.38 0.62
2 8 3 0.28 0.12
-2 -8 -3 0.34 0.35
-2 -9 -3 1.19 0.49
2 9 3 0.36 0.29
2 9 3 0.46 0.49
2 9 3 0.59 0.22
2 10 3 -0.3 0.54
-2 -10 -3 0.08 0.25
2 11 3 1.24 0.69
-2 -11 -3 1.71 0.79
-2 -12 -3 0.8 0.44
-2 10 -4 -0.64 0.47
2 -9 4 0.53 0.68
-2 9 -4 0.01 0.46
2 -9 4 0 0.36
2 -9 4 -0.01 0.41
-2 9 -4 0.22 0.45
2 -8 4 1.53 0.48
2 -8 4 1.54 0.8
-2 8 -4 2.47 0.67
2 -8 4 2.11 0.69
-2 8 -4 1.75 0.63
-2 7 -4 3.66 0.77
2 -7 4 3.16 0.68
2 -7 4 3.34 0.83
2 -7 4 4.31 0.89
2 -7 4 3.64 0.88
-2 7 -4 4.52 0.85
2 -6 4 3.81 0.89
2 -6 4 2.63 0.52
-2 6 -4 4.02 0.75
2 -6 4 3.65 0.78
-2 6 -4 3.94 0.55
2 -6 4 3.19 0.72
-2 6 -4 3.66 0.73
2 -5 4 9.38 1.09
-2 5 -4 7.73 0.73
2 -5 4 8.09 1.02
-2 5 -4 9.58 1.05
2 -5 4 8.02 1.11
2 -4 4 -0.01 0.15
2 -4 4 0.58 0.39
-2 4 -4 0.21 0.22
2 -4 4 0.13 0.23
-2 4 -4 0.36 0.21
2 -4 4 0.35 0.38
2 -4 4 0.25 0.21
2 -3 4 103.97 2.65
2 -3 4 105.44 3.5
2 -3 4 103.86 3.09
2 -3 4 107.96 3.64
-2 3 -4 104.48 3.27
2 -2 4 0.49 0.37
-2 2 -4 -0.43 0.38
2 -2 4 -0.15 0.12
2 -2 4 -0.22 0.36
2 -2 4 -0.01 0.15
-2 1 -4 1.46 0.25
2 -1 4 1.23 0.24
-2 1 -4 1.36 0.37
-2 1 -4 1.38 0.41
2 -1 4 1.5 0.43
2 0 4 4.38 0.42
-2 0 -4 4.58 0.64
-2 0 -4 4.4 0.39
2 0 4 4.74 0.61
-2 0 -4 4.25 0.55
2 0 4 4.45 0.48
-2 -1 -4 4.51 0.44
2 1 4 3.82 0.44
-2 -1 -4 4.2 0.58
2 1 4 4.44 0.44
2 1 4 4.4 0.61
-2 -2 -4 7.99 0.84
2 2 4 8.8 0.81
-2 -2 -4 7.68 0.66
2 2 4 7.64 0.73
2 2 4 7.87 0.62
-2 -2 -4 7.79 0.59
-2 -2 -4 8.1 0.59
2 3 4 0.06 0.17
-2 -3 -4 0.1 0.2
2 3 4 0.34 0.17
-2 -3 -4 0.32 0.21
2 3 4 0.01 0.24
-2 -3 -4 0.2 0.2
-2 -4 -4 52.21 2.3
-2 -4 -4 51.34 1.85
2 4 4 50.23 1.43
-2 -4 -4 54.6 2.41
2 4 4 49.77 2.07
-2 -4 -4 50.02 1.99
-2 -4 -4 47.38 1.29
2 4 4 49.2 1.26
-2 -4 -4 48.55 1.65
2 5 4 1.41 0.27
-2 -5 -4 1.73 0.45
2 5 4 2.26 0.52
-2 -5 -4 1.88 0.5
-2 -5 -4 1.55 0.34
-2 -5 -4 2.22 0.59
-2 -5 -4 1.59 0.34
2 6 4 -0.11 0.25
-2 -6 -4 0.39 0.35
-2 -6 -4 0.01 0.24
-2 -6 -4 0.42 0.25
2 6 4 -0.31 0.43
-2 -6 -4 -0.35 0.3
-2 -6 -4 -0.1 0.24
2 6 4 0.08 0.15
2 7 4 11.5 1.51
2 7 4 8.78 0.75
-2 -7 -4 9.76 1.26
2 7 4 8.68 1.02
2 8 4 5.57 0.89
-2 -8 -4 5.11 1.04
2 8 4 4.47 0.58
2 8 4 6.92 1.32
-2 -9 -4 0.17 0.37
2 9 4 0.44 0.3
2 9 4 1.25 0.84
-2 -10 -4 0.53 0.42
2 10 4 0.13 0.52
2 11 4 0.89 0.53
-2 -11 -4 -0.03 0.55
-2 -12 -4 0.85 0.9
2 -9 5 -0.16 0.39
-2 9 -5 0.59 0.46
2 -9 5 0.14 0.61
-2 8 -5 0.24 0.4
2 -8 5 -0.02 0.25
2 -8 5 0.36 0.42
2 -8 5 0.91 0.66
2 -7 5 1.62 0.7
2 -7 5 2.07 0.76
-2 7 -5 1.95 0.65
2 -7 5 1.56 0.52
2 -6 5 22.34 1.89
-2 6 -5 23.62 1.8
-2 6 -5 21.2 1.42
2 -6 5 20.34 1.82
2 -6 5 23.65 1.67
2 -6 5 17 1.82
2 -5 5 16.8 1.52
-2 5 -5 17.37 1.46
2 -5 5 15.4 1.48
2 -5 5 12.44 1.09
-2 5 -5 15.28 1.1
2 -5 5 14.06 1.49
-2 4 -5 0.17 0.24
-2 4 -5 0.43 0.27
2 -4 5 -0.12 0.21
2 -4 5 0.04 0.23
2 -4 5 -0.04 0.4
2 -3 5 13.96 0.97
-2 3 -5 13.25 1.17
2 -3 5 15.09 1.33
2 -3 5 13.56 1.16
2 -3 5 13.77 1.33
2 -2 5 204.91 3.86
2 -2 5 190.48 5.03
-2 2 -5 201.7 4.82
2 -2 5 189.55 4.42
2 -1 5 62.52 2.55
2 -1 5 63.74 1.9
-2 1 -5 65.54 2.53
-2 1 -5 62.79 1.95
-2 1 -5 66.61 2.46
2 0 5 10.88 1
-2 0 -5 11.9 1.03
-2 0 -5 11.54 0.78
2 0 5 11.56 0.81
2 0 5 12.05 0.9
-2 -1 -5 66.55 2.04
2 1 5 65.78 2.51
-2 -1 -5 67.68 2.5
-2 -1 -5 69.78 2.05
2 1 5 65.61 2.1
2 1 5 69.56 2.19
-2 -2 -5 128.95 2.99
-2 -2 -5 124.85 2.9
2 2 5 122.46 3.29
-2 -2 -5 122.32 3.61
2 2 5 121.79 3.11
-2 -2 -5 118.32 3.08
-2 -3 -5 64.69 2
-2 -3 -5 62.56 2.37
-2 -3 -5 68.29 2.73
-2 -3 -5 62.72 2.15
2 3 5 63.01 2.32
-2 -4 -5 1.01 0.33
-2 -4 -5 0.7 0.26
2 4 5 1.6 0.29
2 4 5 0.26 0.26
2 4 5 0.9 0.34
-2 -4 -5 0.99 0.42
2 4 5 1.02 0.24
-2 -4 -5 0.51 0.29
2 5 5 4.96 0.36
-2 -5 -5 5.76 0.62
2 5 5 3.85 0.78
-2 -5 -5 5.32 0.64
2 5 5 5.57 0.55
-2 -5 -5 6.49 0.89
-2 -5 -5 6.03 0.81
2 6 5 3.84 0.47
2 6 5 3.7 0.72
2 6 5 4.38 0.87
-2 -6 -5 4.16 0.66
-2 -6 -5 5.05 0.81
2 7 5 4.15 0.53
-2 -7 -5 3.95 0.65
2 7 5 4.01 0.89
2 7 5 4.23 0.69
-2 -7 -5 4.54 0.84
2 8 5 3.96 0.77
2 8 5 2.84 0.5
-2 -8 -5 2.97 0.76
2 8 5 3.34 0.94
2 9 5 -0.22 0.64
-2 -9 -5 0.58 0.49
-2 -10 -5 1.16 0.63
2 10 5 1.39 0.88
-2 -11 -5 1.32 0.73
2 11 5 -0.05 0.61
2 -9 6 0.87 0.42
-2 9 -6 0.32 0.46
2 -8 6 0.87 0.6
2 -8 6 -0.27 0.4
2 -8 6 -0.17 0.5
-2 8 -6 -0.33 0.47
2 -7 6 8.22 1.05
-2 7 -6 9.37 1.28
2 -7 6 7.16 1.28
2 -7 6 6.36 1.22
2 -6 6 4.44 0.94
2 -6 6 1.63 0.77
-2 6 -6 3.21 0.78
2 -6 6 3.07 0.64
2 -5 6 32.29 2.29
-2 5 -6 33.91 2.15
-2 5 -6 26.7 1.65
2 -5 6 33.53 2.39
2 -5 6 34.21 1.86
-2 4 -6 0.93 0.38
-2 4 -6 0.54 0.33
2 -4 6 0.06 0.16
2 -4 6 1.38 0.53
2 -4 6 1.21 0.56
-2 3 -6 1.43 0.44
2 -3 6 1.34 0.48
2 -3 6 1.05 0.4
-2 2 -6 7.1 0.91
2 -2 6 7.92 0.9
2 -2 6 9.27 1.08
-2 1 -6 2.81 0.54
2 -1 6 1.32 0.36
2 -1 6 0.1 0.18
-2 1 -6 2.02 0.39
2 -1 6 2.3 0.44
-2 1 -6 2.15 0.5
-2 0 -6 23.36 1.52
-2 0 -6 22.79 1.25
2 0 6 21.19 1.48
-2 0 -6 22.65 1.34
2 0 6 22.13 1.31
-2 -1 -6 2.55 0.47
-2 -1 -6 3.19 0.48
-2 -1 -6 1.93 0.47
2 1 6 2.85 0.5
-2 -2 -6 4.63 0.63
-2 -2 -6 4.42 0.71
-2 -2 -6 3.13 0.51
-2 -2 -6 4.72 0.61
2 2 6 3.69 0.58
-2 -3 -6 13.89 1.14
2 3 6 13.25 1.25
-2 -3 -6 14.86 1.36
-2 -3 -6 14.3 1.09
-2 -3 -6 17.11 1.13
2 3 6 14.69 1.2
-2 -4 -6 91.49 2.87
-2 -4 -6 93.61 2.68
2 4 6 99.3 3.85
2 4 6 92.67 2.58
-2 -4 -6 95.97 3.14
-2 -4 -6 99.19 3.43
-2 -5 -6 22.29 1.71
-2 -5 -6 19.97 1.37
2 5 6 20.51 0.92
2 5 6 21.05 1.18
-2 -5 -6 16.08 0.66
2 5 6 20.51 1.85
-2 -5 -6 21.19 1.17
-2 -5 -6 23.57 1.65
-2 -5 -6 17.86 0.54
2 6 6 0.76 0.3
2 6 6 -0.21 0.29
2 6 6 0.03 0.38
-2 -6 -6 0.25 0.22
-2 -6 -6 0.32 0.34
2 7 6 8.3 0.84
-2 -7 -6 10.35 1.14
2 7 6 10.42 1.52
-2 -7 -6 11.42 1.35
-2 -8 -6 3.31 0.89
2 8 6 3.14 0.51
-2 -8 -6 2.49 0.64
2 8 6 3.13 0.97
2 9 6 3.04 1.1
-2 -9 -6 0.99 0.62
-2 -10 -6 -0.07 0.43
2 10 6 0.31 0.62
-2 -11 -6 1.31 0.76
-2 8 -7 0.67 0.61
2 -8 7 0.58 0.57
2 -8 7 1.2 0.86
2 -7 7 2.17 0.92
-2 7 -7 1.68 0.64
2 -7 7 2.82 0.88
2 -7 7 0.42 0.41
2 -6 7 0.34 0.27
2 -6 7 0.36 0.43
-2 6 -7 0.45 0.33
2 -6 7 0.73 0.68
2 -5 7 0.74 0.52
-2 5 -7 0.29 0.32
2 -5 7 0.01 0.21
2 -4 7 5.48 1.02
2 -4 7 4.35 0.66
2 -4 7 4.96 0.87
-2 4 -7 5.46 0.87
2 -3 7 16.14 1.21
2 -3 7 17.64 1.68
-2 3 -7 15.34 1.38
2 -3 7 16.9 1.52
2 -2 7 2.09 0.55
-2 2 -7 3.85 0.7
-2 2 -7 2.55 0.54
2 -2 7 3.34 0.75
2 -2 7 2.84 0.75
-2 1 -7 30.67 1.79
2 -1 7 29.3 1.94
2 -1 7 31.17 1.92
-2 1 -7 32.5 1.84
-2 1 -7 29.74 1.64
-2 1 -7 34.16 2.03
2 0 7 82.87 3.07
-2 0 -7 90.93 2.87
2 0 7 87.01 3.26
-2 0 -7 88.9 3.13
-2 0 -7 88.82 2.99
-2 -1 -7 8.71 0.98
2 1 7 0 0.14
-2 -1 -7 8.21 0.87
2 1 7 0.15 0.2
-2 -1 -7 9.52 0.91
-2 -2 -7 3.9 0.71
-2 -2 -7 2.76 0.53
-2 -2 -7 1.99 0.47
2 2 7 1.59 0.46
-2 -2 -7 2.34 0.51
-2 -3 -7 7.83 0.99
-2 -3 -7 15.42 1.3
2 3 7 8.5 1.14
-2 -3 -7 15.79 1.57
-2 -3 -7 9.83 1.01
2 3 7 7.64 1.07
2 3 7 0.15 0.13
2 4 7 1.35 0.48
-2 -4 -7 2.27 0.5
-2 -4 -7 2.19 0.44
-2 -4 -7 3.11 0.69
2 4 7 1.49 0.55
-2 -4 -7 2.46 0.58
-2 -4 -7 2.32 0.51
2 5 7 2.09 0.61
2 5 7 2.04 0.42
-2 -5 -7 2.94 0.64
-2 -5 -7 3.3 0.66
2 5 7 2.83 0.79
-2 -5 -7 2.19 0.41
-2 -5 -7 2.27 0.27
2 6 7 2.6 0.63
-2 -6 -7 2.85 0.46
2 6 7 2.62 0.46
-2 -6 -7 3.49 0.7
2 6 7 2.2 0.72
2 6 7 1.95 0.31
-2 -6 -7 3.71 0.85
-2 -7 -7 0.12 0.35
2 7 7 0.98 0.39
-2 -7 -7 1.9 0.71
2 7 7 0.97 0.63
-2 -8 -7 5.69 0.96
2 8 7 7.46 1.5
-2 -8 -7 8.45 1.38
2 9 7 2.08 0.92
-2 -9 -7 0.33 0.41
2 10 7 0.92 0.59
-2 -10 -7 1.39 0.83
-2 -11 -7 0.16 0.52
2 -8 8 2.23 1.02
-2 7 -8 1.93 0.69
2 -7 8 2.03 0.85
2 -7 8 2.25 0.92
2 -6 8 1.63 0.75
-2 6 -8 1.26 0.61
2 -6 8 0.74 0.45
2 -5 8 0.62 0.57
-2 5 -8 1.56 0.6
2 -5 8 0.55 0.3
2 -4 8 0.18 0.27
2 -4 8 0.03 0.35
-2 4 -8 0.92 0.44
-2 4 -8 0.2 0.3
-2 3 -8 2.84 0.66
-2 3 -8 3.24 0.77
2 -3 8 4.16 0.7
2 -3 8 3.02 0.75
-2 2 -8 10.63 1.11
2 -2 8 11.93 1.32
2 -2 8 12.01 1.12
-2 2 -8 14.79 1.36
-2 2 -8 13.11 1.35
2 -2 8 10.73 1.3
-2 1 -8 62.39 2.66
2 -1 8 65.19 2.71
-2 1 -8 65.58 2.85
-2 1 -8 62.53 3.01
2 -1 8 61.02 2.93
-2 1 -8 67.71 2.74
2 0 8 -0.34 0.59
-2 0 -8 1.2 0.37
-2 0 -8 1.85 0.51
-2 0 -8 0.87 0.32
2 0 8 1.46 0.31
2 0 8 1.85 0.52
-2 0 -8 0.95 0.32
-2 -1 -8 15.37 1.31
-2 -1 -8 16.73 1.43
-2 -1 -8 17.44 1.36
2 1 8 16.04 1.43
2 1 8 16.81 1.45
-2 -2 -8 0.57 0.32
-2 -2 -8 0.28 0.3
-2 -2 -8 0.14 0.22
2 2 8 0.86 0.47
2 2 8 0.27 0.25
-2 -3 -8 12.63 1.18
2 3 8 9.36 1.19
2 3 8 11.73 1.37
-2 -3 -8 10.47 1.1
2 3 8 10.23 1.2
-2 -3 -8 10.82 1.25
-2 -4 -8 12.35 1.23
2 4 8 13.55 1.58
-2 -4 -8 10.82 0.94
-2 -4 -8 13.08 1.46
-2 -4 -8 12.16 1.25
2 4 8 11.6 1.37
2 4 8 11.87 1.43
-2 -5 -8 0.45 0.3
-2 -5 -8 -0.19 0.28
2 5 8 0.49 0.5
-2 -5 -8 0.66 0.21
2 5 8 0.28 0.2
-2 -5 -8 0.06 0.35
-2 -6 -8 10.83 1.24
-2 -6 -8 9.86 0.77
2 6 8 10.33 0.78
2 6 8 9.78 1.57
2 6 8 9.81 0.96
-2 -6 -8 9.54 1.27
-2 -7 -8 0.39 0.43
2 7 8 0.12 0.3
2 7 8 -0.81 0.55
-2 -7 -8 1.28 0.57
2 8 8 7.89 1.63
-2 -8 -8 8.36 1.21
-2 -8 -8 9.97 1.45
-2 -9 -8 1.54 0.69
2 9 8 0.57 0.58
-2 -10 -8 -0.01 0.5
-2 -11 -8 0.97 0.62
2 -6 9 3.7 1.09
-2 6 -9 2.21 0.73
-2 5 -9 2.91 0.81
2 -5 9 3.15 0.92
-2 5 -9 3.26 0.76
2 -5 9 3.21 0.73
2 -4 9 -0.34 0.49
-2 4 -9 0.23 0.33
2 -4 9 0.78 0.45
-2 4 -9 0.4 0.39
-2 3 -9 8.39 1.12
-2 3 -9 8.48 1.18
2 -3 9 7.1 1.15
2 -3 9 7.31 0.97
2 -2 9 1.74 0.64
-2 2 -9 2.09 0.64
-2 2 -9 1.6 0.53
2 -2 9 2.64 0.59
-2 1 -9 1.18 0.52
-2 1 -9 0.96 0.53
-2 1 -9 0.5 0.36
2 -1 9 0.49 0.3
2 -1 9 0.61 0.32
2 0 9 2.91 0.68
-2 0 -9 3.84 0.72
-2 0 -9 4.83 0.76
-2 0 -9 4.14 0.84
2 1 9 0.18 0.28
-2 -1 -9 0.42 0.29
-2 -2 -9 7.88 1.08
2 2 9 7.16 1.12
-2 -2 -9 6.54 1
2 3 9 10.98 1.45
-2 -3 -9 10.04 1.2
-2 -3 -9 11.84 1.26
-2 -3 -9 9.3 1.23
-2 -4 -9 0.76 0.5
-2 -4 -9 1.15 0.35
-2 -4 -9 1.16 0.5
2 4 9 1.05 0.54
-2 -4 -9 0.67 0.41
2 4 9 1.7 0.72
-2 -5 -9 11.43 1.34
-2 -5 -9 9.16 0.77
2 5 9 9.04 1.53
-2 -5 -9 9.71 0.78
-2 -5 -9 10.86 1.3
-2 -6 -9 0.54 0.24
-2 -6 -9 0.28 0.31
2 6 9 1.01 0.75
2 7 9 2.03 0.84
-2 -7 -9 0.73 0.5
-2 -7 -9 0.5 0.48
2 8 9 1.78 0.91
-2 -8 -9 1.56 0.71
-2 -8 -9 0.98 0.58
-2 -9 -9 0.57 0.57
-2 -10 -9 -0.75 0.69
2 -4 10 1.82 0.58
-2 4 -10 1.16 0.49
-2 4 -10 2.32 0.7
2 -3 10 0.22 0.33
-2 3 -10 0.39 0.39
-2 3 -10 0.15 0.4
2 -3 10 0.54 0.37
2 -2 10 6.4 0.99
2 -2 10 5.83 1.05
-2 2 -10 6.01 1.07
-2 2 -10 7.96 1.2
-2 1 -10 0.2 0.4
-2 1 -10 0.19 0.35
2 -1 10 0.42 0.28
-2 0 -10 19.35 1.87
2 0 10 18.81 1.77
-2 0 -10 17.17 1.69
-2 -1 -10 12.97 1.46
2 1 10 12.16 1.45
2 2 10 0.16 0.3
-2 -2 -10 -0.2 0.35
-2 -3 -10 4.06 0.83
2 3 10 5.02 1.04
-2 -4 -10 1.07 0.37
-2 -4 -10 0.13 0.37
2 4 10 0.38 0.55
-2 -4 -10 1.08 0.52
2 4 10 0.13 0.36
-2 -5 -10 0.94 0.48
2 5 10 1.58 0.8
-2 -5 -10 0.06 0.3
-2 -6 -10 0.21 0.4
2 6 10 0.74 0.47
-2 -6 -10 0.12 0.46
-2 -7 -10 1.2 0.57
2 7 10 1.13 0.87
-2 -7 -10 1.82 0.66
-2 -8 -10 2.38 0.87
-2 -9 -10 2.47 0.89
2 -3 11 1.68 0.6
-2 3 -11 2.48 0.71
-2 2 -11 0.44 0.47
-2 2 -11 -0.75 0.58
2 -2 11 0.12 0.35
-2 1 -11 0.55 0.5
-2 1 -11 0.92 0.59
2 -1 11 -0.43 0.48
-2 0 -11 4.69 0.99
-2 0 -11 4.01 0.97
2 0 11 3.76 0.86
-2 -1 -11 3.37 0.8
2 1 11 1.9 0.76
-2 -2 -11 0.34 0.48
2 2 11 -0.17 0.37
2 3 11 0.5 0.48
-2 -3 -11 1.16 0.46
-2 -3 -11 -0.26 0.55
2 3 11 0.66 0.57
-2 -4 -11 0.71 0.63
2 4 11 1.7 0.83
-2 -4 -11 1.09 0.53
2 4 11 0 0.42
2 5 11 0.37 0.52
-2 -5 -11 0.53 0.51
-2 -5 -11 0.3 0.39
-2 -6 -11 -0.25 0.35
2 6 11 0.31 0.56
-2 -6 -11 -0.09 0.33
-2 -7 -11 1.09 0.7
-2 -7 -11 1.5 0.6
-2 -8 -11 -0.35 0.58
2 -2 12 2.78 0.83
-2 1 -12 5.83 1.11
2 -1 12 5.93 1.19
2 0 12 1.17 0.71
-2 0 -12 2.14 0.8
-2 0 -12 1.69 0.73
-2 -1 -12 1.04 0.59
-2 -1 -12 0.75 0.59
2 1 12 1.67 0.73
-2 -2 -12 4.34 1.04
-2 -2 -12 5.12 0.94
2 2 12 2.45 0.78
-2 -3 -12 1.86 0.74
2 3 12 0.6 0.67
2 3 12 1.18 0.69
2 4 12 0.92 0.63
-2 -4 -12 -0.24 0.54
2 4 12 0.06 0.49
-2 -5 -12 0.89 0.46
-2 -5 -12 -0.25 0.55
-2 -6 -12 0.18 0.58
-2 -6 -12 1.08 0.67
-2 -7 -12 -0.35 0.53
2 0 13 1.09 0.7
-2 -1 -13 1.63 0.7
2 1 13 1.24 0.69
-2 -1 -13 -0.4 0.57
2 2 13 0.79 0.58
3 0 -11 4.12 1.18
3 1 -11 4.93 1.21
3 -2 -10 0.35 0.54
3 -2 -10 1.2 0.63
3 -2 -10 0.49 0.47
3 -1 -10 0.24 0.47
3 -1 -10 1.51 0.65
-3 1 10 0.63 0.46
3 -1 -10 0.21 0.35
3 0 -10 0.54 0.63
-3 0 10 0.72 0.54
3 0 -10 0.72 0.58
3 1 -10 0.24 0.6
-3 -1 10 0.48 0.65
3 1 -10 -0.5 0.61
3 2 -10 0.77 0.45
-3 -2 10 1.12 0.61
3 2 -10 1.29 0.67
3 3 -10 0.2 0.52
3 -5 -9 1.92 0.87
3 -4 -9 -0.06 0.45
-3 4 9 0.33 0.5
3 -4 -9 1.03 0.69
-3 4 9 0.95 0.67
3 -3 -9 8.16 1.54
3 -3 -9 7.36 1.15
-3 3 9 9.72 1.64
3 -3 -9 8.59 1.46
3 -2 -9 10.6 1.49
3 -2 -9 10.87 1.77
3 -2 -9 13.08 1.74
-3 2 9 10.71 1.64
3 -1 -9 2.22 0.77
3 -1 -9 4.01 1.1
-3 1 9 2.64 0.85
3 -1 -9 3.04 0.88
-3 0 9 0.63 0.6
3 0 -9 0.88 0.42
3 0 -9 1.47 0.72
3 1 -9 8.88 1.51
3 1 -9 10.17 1.48
-3 -1 9 11.33 1.57
3 2 -9 5.16 1.1
3 2 -9 5.32 1.11
-3 -2 9 6.48 1.17
3 3 -9 1.12 0.54
3 3 -9 0.55 0.47
-3 -3 9 1.5 0.64
-3 -4 9 2.52 0.92
3 4 -9 3.08 0.94
3 4 -9 3.48 1.23
3 5 -9 8.78 1.42
-3 -5 9 8.99 1.47
3 5 -9 6.87 1.33
3 -7 -8 0.28 0.84
3 -6 -8 0.22 0.6
-3 6 8 -0.41 0.56
3 -6 -8 0.21 0.54
-3 5 8 0.83 0.38
-3 5 8 0.02 0.45
3 -5 -8 0.69 0.77
3 -5 -8 1.43 0.62
3 -4 -8 0.96 0.57
-3 4 8 0.62 0.52
3 -4 -8 0.43 0.56
3 -3 -8 4.28 1.08
3 -3 -8 3.15 0.69
-3 3 8 3.45 0.91
3 -3 -8 5.08 1.09
3 -2 -8 7.7 1.41
3 -2 -8 7.66 1.18
-3 2 8 9.42 1.45
3 -2 -8 7.71 1.3
3 -1 -8 3.65 0.67
-3 1 8 3.72 0.9
3 -1 -8 2.44 0.92
3 -1 -8 3.9 0.86
3 -1 -8 3.46 0.82
3 0 -8 4.05 0.89
3 0 -8 4.39 0.95
3 0 -8 3.21 0.88
-3 0 8 5.84 1.06
3 1 -8 0.35 0.44
-3 -1 8 1.42 0.68
3 1 -8 -0.02 0.55
3 2 -8 -0.15 0.47
3 2 -8 0.22 0.21
-3 -2 8 0.26 0.39
3 2 -8 0.27 0.44
3 3 -8 2.33 0.78
3 3 -8 1.55 0.55
-3 -3 8 1.91 0.67
3 4 -8 8.4 1.33
3 4 -8 9.08 1.48
-3 -4 8 8.9 1.32
3 5 -8 3.18 0.9
-3 -5 8 2.88 0.8
3 5 -8 1.83 0.8
-3 -6 8 0.16 0.34
3 6 -8 1.05 0.66
3 6 -8 0.82 0.64
-3 -7 8 4.71 1.09
3 7 -8 2.78 0.82
3 -8 -7 1.68 0.86
3 -7 -7 3.39 1.19
-3 7 7 2.58 0.93
3 -7 -7 3.65 1.12
3 -6 -7 -0.36 0.47
-3 6 7 -0.13 0.54
3 -6 -7 0.39 0.56
3 -5 -7 1.7 0.78
-3 5 7 2.1 0.73
3 -5 -7 2.9 0.88
-3 5 7 2.65 0.94
-3 4 7 20.28 2.11
-3 4 7 20.46 2.21
3 -4 -7 21.05 2.14
3 -4 -7 19.93 2.23
3 -3 -7 0.67 0.39
3 -3 -7 0.56 0.39
-3 3 7 0.24 0.36
3 -3 -7 0.85 0.52
3 -2 -7 19.17 0.93
-3 2 7 23.28 2.04
3 -2 -7 22.28 2.21
3 -2 -7 19.93 1.52
3 -2 -7 19.27 1.74
3 -2 -7 24.42 2.16
3 -1 -7 0.3 0.31
3 -1 -7 -0.59 0.56
-3 1 7 -0.31 0.35
3 -1 -7 0.51 0.41
3 -1 -7 0.14 0.23
3 0 -7 14.22 1.53
3 0 -7 15.46 1.78
3 0 -7 16.27 1.67
-3 0 7 13.47 1.47
3 0 -7 11.87 0.76
3 1 -7 11.43 0.96
3 1 -7 12.35 1.43
3 1 -7 13.04 1.59
3 1 -7 11.04 0.8
-3 -1 7 11.95 1.38
3 2 -7 2.35 0.48
3 2 -7 1.81 0.61
-3 -2 7 2.85 0.73
3 2 -7 2.64 0.76
3 2 -7 1.59 0.31
3 2 -7 1.76 0.27
3 3 -7 2.69 0.57
-3 -3 7 2.76 0.68
3 3 -7 3.63 0.84
3 3 -7 3.08 0.74
3 3 -7 3.08 0.29
3 3 -7 0.77 0.16
3 4 -7 2.16 0.77
-3 -4 7 1.72 0.66
3 4 -7 1.16 0.38
3 5 -7 0.74 0.49
-3 -5 7 0.73 0.49
3 5 -7 0.51 0.44
3 6 -7 1.84 0.59
3 6 -7 2.92 0.77
-3 -6 7 2.63 0.78
-3 -7 7 0.24 0.56
3 7 -7 0.39 0.32
3 7 -7 -0.12 0.41
3 8 -7 -0.14 0.4
-3 -8 7 -0.36 0.61
3 9 -7 -0.03 0.46
-3 8 6 1.38 0.9
3 -7 -6 0.41 0.45
-3 7 6 -0.12 0.48
3 -7 -6 0.29 0.39
-3 6 6 6.31 1.41
3 -6 -6 5.63 1.28
3 -6 -6 7.15 1.36
-3 5 6 4.16 0.81
3 -5 -6 5 1.1
3 -5 -6 4.15 0.73
-3 5 6 4.19 1.02
3 -5 -6 4.2 1.07
-3 5 6 3.61 0.99
-3 4 6 2.49 0.81
3 -4 -6 2.74 0.88
-3 4 6 2.22 0.59
-3 4 6 2.41 0.72
3 -4 -6 3.22 0.89
3 -3 -6 53.59 3.37
3 -3 -6 54.04 3.15
-3 3 6 52.47 2.79
-3 3 6 48.93 2.95
3 -3 -6 49.95 2.51
3 -2 -6 10.39 1.48
3 -2 -6 10.63 1.02
-3 2 6 11.23 1.35
3 -2 -6 11.52 1.26
3 -2 -6 13.64 1.52
-3 1 6 86.8 3.57
3 -1 -6 66.32 1.45
3 -1 -6 89.35 3.8
3 -1 -6 87.37 4.04
3 -1 -6 84.79 3.53
3 -1 -6 68.86 1.41
3 0 -6 1.12 0.24
3 0 -6 1.7 0.29
3 0 -6 1.03 0.41
-3 0 6 1.5 0.48
3 0 -6 1.91 0.61
3 0 -6 1.36 0.41
3 1 -6 40.04 1.74
3 1 -6 41.5 2.54
3 1 -6 38.96 1.4
3 1 -6 45.02 2.6
3 1 -6 42.26 2.48
-3 -1 6 42.83 2.39
3 2 -6 22.62 1.42
3 2 -6 23.15 1.9
3 2 -6 26.22 1.99
3 2 -6 21.18 0.96
-3 -2 6 23.98 1.8
3 2 -6 18.54 0.79
-3 -3 6 16.87 1.54
3 3 -6 11.94 0.46
3 3 -6 17.53 1.66
3 3 -6 15.6 1.28
3 3 -6 14.83 1.45
-3 -4 6 6.21 0.98
3 4 -6 5.93 0.95
3 4 -6 5.76 0.98
-3 -5 6 0.94 0.29
3 5 -6 1.33 0.56
-3 -5 6 1.19 0.52
-3 -6 6 0.92 0.29
3 6 -6 0.78 0.39
3 6 -6 1.88 0.68
-3 -6 6 1.05 0.52
3 7 -6 0.66 0.49
-3 -7 6 0.57 0.46
-3 -7 6 0.65 0.29
3 7 -6 0.7 0.5
3 8 -6 0.29 0.33
3 8 -6 -0.39 0.41
-3 -8 6 0.33 0.46
-3 -9 6 0.41 0.46
3 9 -6 0.38 0.43
3 9 -6 -0.23 0.39
3 10 -6 1.26 0.58
-3 9 5 0.55 0.58
-3 8 5 0.27 0.47
3 -8 -5 1.32 0.78
-3 7 5 9.25 1.57
3 -7 -5 9.54 1.64
3 -7 -5 10.52 1.78
3 -6 -5 2.78 0.94
-3 6 5 2.69 0.75
3 -6 -5 4.7 1.16
-3 5 5 11.08 1.2
-3 5 5 12.49 1.61
3 -5 -5 12.13 1.63
3 -5 -5 12.01 1.06
-3 5 5 12.52 0.87
3 -5 -5 11.47 1.61
-3 4 5 5.38 0.82
3 -4 -5 6.59 1.2
3 -4 -5 6.38 0.77
-3 4 5 6.42 1.12
-3 4 5 6.38 0.68
-3 4 5 6.16 1.05
3 -4 -5 6.72 1.1
-3 3 5 118.95 4.09
3 -3 -5 134.66 4.09
3 -3 -5 134.04 5.14
3 -3 -5 124.29 3.64
-3 3 5 125.95 3.23
-3 3 5 123.1 4.57
3 -3 -5 136.96 4.95
-3 2 5 106.85 3.75
-3 2 5 118.81 4.14
3 -2 -5 113.32 3.37
3 -2 -5 118.52 4.59
3 -2 -5 114.36 3.78
-3 2 5 114.29 3.04
3 -2 -5 122.07 4.39
3 -1 -5 7.34 0.51
-3 1 5 9.11 1.09
3 -1 -5 7.82 0.9
3 -1 -5 8.07 1.01
3 -1 -5 9.25 1.15
3 -1 -5 7.73 1.16
3 0 -5 5.65 0.57
3 0 -5 5.78 0.81
3 0 -5 5.26 0.91
-3 0 5 5 0.8
3 0 -5 5.48 0.74
3 0 -5 5.04 0.85
-3 0 5 5.85 0.8
3 0 -5 5.68 0.88
-3 0 5 4.69 0.84
3 1 -5 25.15 1.9
3 1 -5 25.34 1.02
3 1 -5 26.27 1.34
3 1 -5 26.8 1.78
3 1 -5 23.76 1.69
3 1 -5 26.07 1.86
3 1 -5 25.81 1.78
-3 -1 5 26.86 1.98
-3 -1 5 27.68 1.73
-3 -1 5 27.07 1.66
3 2 -5 4.14 0.31
3 2 -5 4.98 0.67
-3 -2 5 3.81 0.6
-3 -2 5 4.67 0.74
3 2 -5 4.19 0.35
3 2 -5 6.2 0.93
3 2 -5 4.63 0.8
3 3 -5 0.39 0.37
-3 -3 5 0.43 0.28
3 3 -5 0.21 0.23
3 3 -5 -0.04 0.32
3 4 -5 3.01 0.6
-3 -4 5 3.86 0.76
3 4 -5 4.33 0.77
-3 -4 5 3.13 0.37
3 4 -5 3.63 0.77
-3 -5 5 50.38 2.74
3 5 -5 43.33 2.32
3 5 -5 47.37 2.77
-3 -5 5 44.64 1.76
-3 -6 5 58.58 3.11
3 6 -5 54.53 2.65
3 6 -5 52.48 3.04
-3 -6 5 59.33 2.35
3 7 -5 8.23 1.06
-3 -7 5 8.88 1.29
3 7 -5 9.26 1.34
-3 -8 5 -0.02 0.37
3 8 -5 -0.24 0.33
3 8 -5 0.19 0.45
-3 -9 5 0.05 0.33
3 9 -5 0.59 0.32
3 9 -5 0.62 0.42
3 10 -5 -1.1 0.69
3 10 -5 -0.55 0.47
-3 10 4 -0.31 0.7
-3 9 4 0.38 0.62
3 -8 -4 0.33 0.61
-3 8 4 0.38 0.55
3 -7 -4 -0.1 0.42
-3 7 4 0.35 0.54
3 -6 -4 19.3 2.11
-3 6 4 19.78 2.04
3 -6 -4 18.4 2.07
-3 5 4 8.41 1.02
3 -5 -4 6.44 0.67
-3 5 4 6.28 0.48
3 -5 -4 7.76 1.3
-3 5 4 6.77 1.17
-3 5 4 5.97 0.66
3 -5 -4 8.83 1.35
3 -4 -4 32.99 2.5
-3 4 4 34.78 2.29
-3 4 4 35.61 2.35
3 -4 -4 35.02 1.65
-3 4 4 29.2 0.79
-3 4 4 31.95 1.53
3 -4 -4 35.04 2.44
-3 4 4 38.12 1.97
3 -3 -4 1.6 0.54
3 -3 -4 2.25 0.75
3 -3 -4 1.96 0.45
3 -3 -4 2.87 0.61
-3 3 4 1.61 0.35
-3 3 4 1.32 0.48
-3 3 4 -0.02 0.16
3 -3 -4 1.15 0.47
3 -2 -4 2.69 0.51
-3 2 4 2.06 0.59
3 -2 -4 2.1 0.5
3 -2 -4 1.32 0.48
-3 2 4 -0.08 0.11
-3 2 4 3.26 0.66
3 -2 -4 3.27 0.57
-3 2 4 1.97 0.42
-3 2 4 3.42 0.7
3 -2 -4 2.22 0.63
3 -1 -4 30.07 1.17
3 -1 -4 34.07 1.82
3 -1 -4 33.22 1.52
-3 1 4 32.89 1.88
3 -1 -4 38.79 1.8
3 -1 -4 32.64 1.91
-3 1 4 30.57 1.53
-3 1 4 32.66 1.89
3 -1 -4 32.6 2.02
-3 0 4 229.58 5.2
-3 0 4 219.79 4.68
3 0 -4 222.43 5.01
3 0 -4 230.56 5.59
3 0 -4 220.82 4
3 0 -4 232.71 5.6
3 0 -4 233.69 5.26
3 1 -4 45.07 1.7
-3 -1 4 44.67 2.04
3 1 -4 42.51 2.12
3 1 -4 40.84 2.04
3 1 -4 48.7 2.39
3 1 -4 41.86 2.13
3 1 -4 42.16 1.22
3 2 -4 28.37 1.74
3 2 -4 20.44 0.55
3 2 -4 27.34 1.71
3 2 -4 27.37 1.74
3 2 -4 26.36 1.81
-3 -2 4 26.26 1.5
3 2 -4 20.29 0.59
3 2 -4 25.75 1.39
-3 -3 4 28.3 1.51
3 3 -4 28.37 1.8
-3 -3 4 21.81 1.54
-3 -3 4 23.83 0.74
3 3 -4 29.39 1.93
3 3 -4 27.87 1.86
3 3 -4 30.9 1.77
-3 -3 4 26.47 1.91
-3 -3 4 30.19 1.93
3 3 -4 30 1.64
3 4 -4 43.93 2.42
3 4 -4 43.25 2.18
3 4 -4 46.29 2.58
3 4 -4 42.64 2.1
-3 -4 4 46.14 2.34
-3 -4 4 45.62 2.45
-3 -5 4 16.01 1.48
3 5 -4 14.64 1.45
3 5 -4 15.42 1.27
3 6 -4 59.28 2.51
3 6 -4 56.81 2.98
-3 -6 4 61.63 3.09
-3 -7 4 73.35 3.57
3 7 -4 65.58 3.29
-3 -7 4 68.27 2.27
3 7 -4 68.46 2.83
3 8 -4 3.23 0.67
3 8 -4 3.83 0.84
-3 -8 4 1.55 0.58
3 9 -4 0.62 0.41
-3 -9 4 -0.49 0.47
3 9 -4 0.08 0.38
-3 -10 4 0.43 0.72
3 10 -4 1.15 0.45
3 10 -4 0.25 0.44
3 11 -4 0.24 0.42
-3 10 3 -0.39 0.49
-3 9 3 1.65 0.66
-3 9 3 2.12 0.83
3 -9 -3 2.5 0.98
3 -8 -3 11.23 1.78
-3 8 3 12.06 1.78
-3 8 3 14.2 1.59
-3 7 3 8.92 1.42
-3 7 3 10.07 1.24
3 -7 -3 10.23 1.62
3 -6 -3 3.97 0.89
-3 6 3 3.32 0.71
3 -6 -3 3.42 0.4
-3 6 3 4.48 0.97
-3 6 3 3.3 0.57
-3 5 3 19.7 1.54
-3 5 3 20.03 1.35
3 -5 -3 19.93 1.06
-3 5 3 18.34 1.74
3 -5 -3 18.67 1.94
3 -5 -3 17.5 1.87
3 -4 -3 20.69 1.9
3 -4 -3 19.77 1.56
-3 4 3 19.24 1.67
-3 4 3 21.7 1.75
-3 4 3 19.55 1.41
3 -4 -3 19.89 1.1
-3 4 3 19.61 1.33
3 -4 -3 20.27 1.51
3 -4 -3 19.05 1.78
-3 3 3 1.33 0.52
3 -3 -3 2.09 0.66
-3 3 3 1.33 0.55
3 -3 -3 0.93 0.28
3 -3 -3 0.67 0.33
3 -3 -3 1.26 0.41
-3 3 3 1.17 0.33
-3 3 3 2.1 0.5
-3 3 3 1.73 0.5
3 -3 -3 1.44 0.6
-3 2 3 0.19 0.1
3 -2 -3 -0.03 0.18
-3 2 3 -0.08 0.39
-3 2 3 0.17 0.2
3 -2 -3 0.25 0.16
-3 2 3 0.17 0.23
-3 2 3 0.2 0.27
3 -2 -3 0.23 0.31
3 -1 -3 17.1 0.92
-3 1 3 18.42 1
3 -1 -3 16.46 1.12
-3 1 3 16.18 0.65
3 -1 -3 17.46 1.03
-3 1 3 17.58 1.34
3 -1 -3 16.76 1.16
3 -1 -3 17.18 1.3
-3 1 3 16.89 1.16
-3 1 3 16.89 1.23
3 -1 -3 17.04 1.35
-3 0 3 13.44 0.64
-3 0 3 14.75 1.16
3 0 -3 13.19 0.76
3 0 -3 13.27 1.04
3 0 -3 14.42 1.21
-3 0 3 13.48 1.03
3 0 -3 13.7 1.05
3 0 -3 12.88 1.12
3 0 -3 14.22 0.67
3 1 -3 0.59 0.15
3 1 -3 1.95 0.56
-3 -1 3 1.07 0.35
3 1 -3 0.4 0.23
3 1 -3 0.47 0.19
3 1 -3 0.09 0.29
-3 -1 3 0.75 0.33
3 1 -3 1.85 0.41
-3 -2 3 25.05 1.33
3 2 -3 25.78 1.62
3 2 -3 23.27 1.3
-3 -2 3 23.03 1.57
3 2 -3 25.29 1.62
3 2 -3 24.1 1.5
3 3 -3 120.07 3.36
3 3 -3 114.65 3.58
-3 -3 3 118.11 3.02
-3 -3 3 118.25 3.95
3 3 -3 126.71 3.95
3 3 -3 124.56 3.91
-3 -3 3 122.35 3.71
3 4 -3 35.03 2.13
3 4 -3 35.76 2.04
-3 -4 3 32.24 2.15
-3 -4 3 32.85 1.9
-3 -4 3 36.88 1.78
3 4 -3 32.4 1.8
3 5 -3 7.24 0.95
3 5 -3 7.04 0.92
3 5 -3 7.62 1.03
-3 -5 3 6.57 0.88
-3 -5 3 6.81 0.82
-3 -5 3 4.33 0.39
-3 -5 3 6.08 1.02
3 6 -3 0.16 0.39
-3 -6 3 0.51 0.35
3 6 -3 0.58 0.22
-3 -6 3 1.32 0.53
3 6 -3 1.17 0.5
3 6 -3 0.77 0.4
-3 -6 3 0.65 0.22
3 7 -3 0.66 0.36
-3 -7 3 -0.44 0.51
-3 -7 3 1.17 0.48
-3 -7 3 0.24 0.19
3 7 -3 0.38 0.33
3 7 -3 0.23 0.43
-3 -8 3 -0.84 0.68
-3 -8 3 0.23 0.25
3 8 -3 0.51 0.41
3 8 -3 0.67 0.6
3 8 -3 0.41 0.25
-3 -9 3 2 0.73
3 9 -3 1.52 0.46
3 9 -3 1.39 0.62
3 9 -3 1.74 0.82
-3 -10 3 2.77 0.88
3 10 -3 2.29 0.56
3 10 -3 2.4 0.75
3 10 -3 2.31 0.92
3 11 -3 -0.89 0.64
3 11 -3 0.46 0.77
-3 10 2 -0.05 0.74
3 -9 -2 0.17 0.46
-3 9 2 0.09 0.31
-3 9 2 -0.6 0.51
3 -8 -2 1.24 0.68
-3 8 2 0.46 0.42
-3 8 2 1.51 0.67
-3 7 2 0.1 0.4
3 -7 -2 -0.06 0.29
-3 7 2 0.44 0.45
3 -7 -2 0.12 0.46
-3 6 2 22.69 2.03
-3 6 2 21.45 1.58
3 -6 -2 23.9 1.64
-3 6 2 23.84 1.79
3 -6 -2 21.85 2.22
3 -5 -2 24.29 1.71
3 -5 -2 19.94 0.83
-3 5 2 20.91 1.79
3 -5 -2 23.65 1.58
-3 5 2 22.14 1.54
3 -5 -2 23.86 2.09
-3 5 2 23.95 1.68
3 -4 -2 6.52 0.56
3 -4 -2 6.48 0.81
-3 4 2 6.53 1.02
-3 4 2 6.03 1.03
3 -4 -2 7.44 1.1
3 -4 -2 6.64 1.06
3 -4 -2 6.25 0.85
-3 4 2 7.3 0.86
-3 4 2 6.7 0.83
-3 4 2 6.39 0.91
3 -3 -2 19.94 1.32
-3 3 2 18.45 1.33
3 -3 -2 18.95 1.01
3 -3 -2 17.16 1.61
-3 3 2 19.34 1.63
-3 3 2 12.37 1.15
-3 3 2 18.25 1.3
-3 3 2 18.58 1.25
3 -3 -2 19.02 1.6
-3 3 2 18.74 1.38
3 -2 -2 103.64 2.84
-3 2 2 109.23 3.38
-3 2 2 106.91 2.89
-3 2 2 109.89 3.2
-3 2 2 112.39 3.8
3 -2 -2 107.1 2.98
3 -2 -2 114.2 2.77
-3 2 2 109.82 3.24
3 -2 -2 105.44 3.56
3 -1 -2 1.7 0.34
3 -1 -2 1.31 0.42
-3 1 2 1.3 0.29
3 -1 -2 1.18 0.3
3 -1 -2 1.39 0.32
3 -1 -2 1.34 0.31
-3 1 2 1.83 0.52
-3 1 2 1.87 0.46
-3 1 2 1.75 0.38
-3 1 2 1.58 0.31
3 -1 -2 1.22 0.36
-3 0 2 18.01 0.85
3 0 -2 19.96 0.93
-3 0 2 20.18 1.13
-3 0 2 18.24 0.88
3 0 -2 15.75 0.82
3 0 -2 16.77 1.23
3 0 -2 19.33 1.14
3 0 -2 18.38 1.16
-3 0 2 18.58 1.26
-3 0 2 18.51 1.18
-3 0 2 16.16 1.2
3 0 -2 18.86 1.24
-3 -1 2 310.12 4.19
3 1 -2 319.9 5.62
3 1 -2 315.91 6.2
-3 -1 2 307.67 4.84
3 1 -2 307.65 5.23
-3 -1 2 324.05 5.51
-3 -1 2 313.54 5.62
3 1 -2 330.32 6.08
3 1 -2 333.86 6.14
-3 -1 2 332.8 5.39
-3 -1 2 310.76 4.12
3 1 -2 320.55 4.27
3 1 -2 336.53 5.84
-3 -1 2 314.51 5.86
-3 -2 2 106.34 2.14
3 2 -2 115.55 3.41
3 2 -2 108.9 3.07
-3 -2 2 108.82 3.28
-3 -2 2 112.4 2.56
-3 -2 2 112.3 2.77
3 2 -2 114.41 3.05
3 2 -2 110.03 3.4
-3 -2 2 116.6 3.17
3 2 -2 113.4 2.94
3 3 -2 103.92 3.02
-3 -3 2 100.97 2.53
3 3 -2 110.77 2.9
3 3 -2 109.93 3.47
-3 -3 2 99.84 3.4
3 3 -2 109.03 3.4
-3 -3 2 106.47 3.09
3 4 -2 18.63 1.3
3 4 -2 18.89 1.11
3 4 -2 18.86 1.47
-3 -4 2 13.31 0.47
-3 -4 2 18.38 1.55
3 4 -2 20.25 1.44
3 5 -2 11.84 1.12
-3 -5 2 11.33 0.64
-3 -5 2 10.14 0.98
-3 -5 2 10.89 1.31
3 5 -2 10.94 1.11
3 5 -2 14.02 1.35
3 6 -2 12.37 1.35
-3 -6 2 13.07 0.84
-3 -6 2 12.13 1.09
-3 -6 2 13.77 1.36
3 6 -2 12.99 1.54
3 6 -2 11.79 1.18
-3 -7 2 2.76 0.55
3 7 -2 3.4 0.69
-3 -7 2 3.44 0.55
3 7 -2 3.54 0.91
3 8 -2 -0.04 0.22
-3 -8 2 0.18 0.26
3 8 -2 0.08 0.31
-3 -8 2 0.12 0.25
3 8 -2 -0.08 0.36
-3 -9 2 1.15 0.47
3 9 -2 0.53 0.23
-3 -9 2 1.16 0.45
3 9 -2 0.15 0.32
3 9 -2 0.89 0.58
3 10 -2 0.67 0.38
3 10 -2 0.03 0.32
3 10 -2 0.59 0.64
3 11 -2 2.13 0.95
3 11 -2 0.98 0.57
3 -9 -1 -0.43 0.49
-3 9 1 0.57 0.43
-3 9 1 -0.53 0.5
3 -8 -1 12.91 1.91
-3 8 1 11.77 1.45
3 -8 -1 11.11 1.24
-3 8 1 10.57 1.53
3 -7 -1 11.54 1.67
3 -7 -1 11.19 1.25
-3 7 1 12.06 1.5
-3 7 1 11.3 1.35
3 -6 -1 6.33 1.19
-3 6 1 7.38 1.09
3 -6 -1 5.75 0.88
-3 6 1 6.44 0.97
3 -6 -1 6.84 0.9
3 -5 -1 8.77 1
-3 5 1 8.17 1.01
-3 5 1 9.44 1.14
3 -5 -1 10.29 1.4
3 -5 -1 9.15 1.03
-3 4 1 33.38 2.35
-3 4 1 33 1.84
3 -4 -1 35.98 2.02
-3 4 1 36.35 2.02
3 -4 -1 34.19 1.82
3 -4 -1 35.74 2.36
3 -4 -1 32.64 1.84
-3 3 1 7.12 0.79
-3 3 1 9.09 0.93
3 -3 -1 8.1 0.87
3 -3 -1 8.25 1.03
3 -3 -1 8.14 0.79
-3 3 1 8.78 1.12
-3 3 1 8.55 0.85
-3 3 1 8.21 0.93
3 -3 -1 7.8 0.54
-3 3 1 8.42 1.09
3 -2 -1 3.71 0.55
-3 2 1 3.8 0.65
-3 2 1 3.2 0.48
3 -2 -1 2.91 0.52
3 -2 -1 4.09 0.66
-3 2 1 3.9 0.6
-3 2 1 3.25 0.65
3 -2 -1 3.39 0.41
3 -2 -1 3.42 0.47
3 -2 -1 3.36 0.5
-3 2 1 3.93 0.63
-3 2 1 3.72 0.54
-3 1 1 369.03 5.88
-3 1 1 363.53 5.82
3 -1 -1 383.46 6.65
3 -1 -1 379.43 5.74
3 -1 -1 362.91 5.98
-3 1 1 367.47 7.05
3 -1 -1 367.21 5.93
3 -1 -1 374.65 5.88
-3 1 1 384.05 5.29
-3 1 1 380.88 6.79
-3 1 1 365.74 6.69
3 -1 -1 362.58 6.58
-3 1 1 371.28 6.83
3 0 -1 8.58 0.68
-3 0 1 8.26 0.83
-3 0 1 7.72 0.61
-3 0 1 7.68 0.74
3 0 -1 8.03 0.58
3 0 -1 7.21 0.69
-3 0 1 7.36 0.61
3 0 -1 7.98 0.62
3 0 -1 8.09 0.82
-3 0 1 7.63 0.76
3 0 -1 8.4 0.75
-3 0 1 7.37 0.55
-3 0 1 7.87 0.57
3 1 -1 28.84 1.12
-3 -1 1 27.77 1.21
-3 -1 1 29.42 1.21
-3 -1 1 28.47 1.35
-3 -1 1 27.63 0.87
3 1 -1 28.85 1.44
3 1 -1 27.78 1.42
-3 -1 1 29.2 1.33
3 1 -1 29.63 0.96
3 1 -1 28.1 1.23
3 1 -1 27.01 1.5
-3 -1 1 28.71 1.08
3 1 -1 28.78 1.28
-3 -1 1 28.31 1.32
-3 -2 1 170.75 3.53
-3 -2 1 167.26 3.17
3 2 -1 161.89 4.04
3 2 -1 177.46 3.61
-3 -2 1 166.01 3.22
3 2 -1 171.2 4.05
-3 -2 1 167.15 3.9
-3 -2 1 155.9 2.23
3 2 -1 164.29 3.64
-3 -2 1 168.31 3.52
3 2 -1 159.69 3.54
-3 -2 1 167.04 3.41
3 3 -1 27.49 1.47
-3 -3 1 26.42 0.61
3 3 -1 28.58 1.23
3 3 -1 26.78 1.59
-3 -3 1 28.2 1.65
3 3 -1 29.11 1.59
-3 -3 1 27.08 1.32
-3 -3 1 26.69 1.31
-3 -3 1 28.2 1.08
-3 -4 1 115.68 2.03
3 4 -1 112.6 3.3
3 4 -1 111.98 2.58
-3 -4 1 114.98 3.83
3 4 -1 105.82 3.51
3 4 -1 111.31 3.38
-3 -5 1 1.9 0.29
3 5 -1 1.56 0.29
3 5 -1 1.29 0.38
-3 -5 1 1.71 0.53
3 5 -1 1.56 0.36
-3 -6 1 11.77 1.43
3 6 -1 10.8 0.76
-3 -6 1 11.78 0.83
3 6 -1 10.85 1.3
3 6 -1 8.86 0.99
3 6 -1 12.16 1.16
-3 -7 1 25 1.65
-3 -7 1 23.52 1.36
3 7 -1 25.01 2.18
3 7 -1 24.16 1.68
-3 -8 1 -0.09 0.23
-3 -8 1 0.11 0.26
3 8 -1 -0.04 0.36
3 9 -1 0.15 0.18
-3 -9 1 0.78 0.29
-3 -9 1 0.87 0.39
3 9 -1 0.61 0.35
3 9 -1 0.6 0.59
3 10 -1 -0.15 0.32
-3 -10 1 0.16 0.3
3 10 -1 0.12 0.18
3 10 -1 -0.61 0.56
3 11 -1 -0.45 0.54
3 11 -1 -1.14 0.78
3 -9 0 0.52 0.62
3 -9 0 1.53 0.79
-3 9 0 0.43 0.64
-3 9 0 0.31 0.41
3 -8 0 2 0.79
3 -8 0 1.32 0.44
-3 8 0 2.78 0.71
-3 8 0 1.81 0.67
3 -7 0 0.61 0.33
3 -7 0 1.11 0.55
-3 7 0 0.32 0.37
-3 7 0 1.17 0.5
3 -6 0 27.49 1.88
-3 6 0 28.91 2.04
3 -6 0 26.23 1.78
-3 6 0 26.03 1.99
3 -6 0 28.12 2.43
-3 5 0 15.19 1.34
3 -5 0 16.22 1.3
-3 5 0 15.42 1.41
3 -5 0 15.69 1.37
3 -5 0 15.67 1.72
-3 4 0 6.59 0.84
3 -4 0 6.33 0.73
3 -4 0 5.41 0.78
-3 4 0 6.39 1.11
3 -4 0 2.69 0.56
-3 4 0 6.55 0.81
3 -4 0 6.9 1.06
3 -3 0 313.5 5.48
3 -3 0 304.67 6.19
-3 3 0 291.88 5.57
-3 3 0 305.24 5.95
-3 3 0 300.89 5.92
3 -3 0 297.93 6.72
-3 2 0 4.19 0.67
-3 2 0 3.74 0.52
3 -2 0 3.63 0.6
-3 2 0 4.36 0.65
-3 2 0 4.67 0.83
-3 2 0 3.93 0.29
3 -2 0 4.16 0.45
3 -2 0 5.4 0.7
-3 2 0 4.25 0.51
3 -2 0 3.99 0.67
-3 1 0 819.42 11.76
-3 1 0 858.76 12.58
-3 1 0 819.92 11.04
3 -1 0 856.7 10.26
3 -1 0 830.99 11.13
-3 1 0 842.54 10.32
3 -1 0 853.87 11.51
3 -1 0 862.6 11.7
3 -1 0 840.54 11.83
-3 1 0 827.37 10.43
-3 0 0 73.96 2.06
3 0 0 82.67 2.32
-3 0 0 77.12 1.99
-3 0 0 77.72 2.55
3 0 0 70.95 2.49
3 0 0 75.44 2.03
3 0 0 73.08 2.38
-3 0 0 74.24 2.52
3 0 0 73.23 2.11
3 0 0 76 1.74
-3 0 0 78.68 2.13
-3 0 0 74.08 2.18
-3 0 0 75.28 1.74
3 1 0 65.62 1.96
3 1 0 65.58 2.18
3 1 0 62.91 2.07
-3 -1 0 66.77 1.66
-3 -1 0 69.16 2.14
-3 -1 0 66.92 1.62
-3 -1 0 61 1.82
3 1 0 64.6 2.35
3 1 0 64.63 1.67
-3 -1 0 63.14 2
-3 -1 0 65.19 1.92
3 1 0 64.51 1.69
-3 -1 0 64.1 1.77
-3 -1 0 65.6 2
3 1 0 63.56 1.69
-3 -2 0 441.9 6.98
3 2 0 452.8 7.38
-3 -2 0 440.53 5.86
-3 -2 0 451.78 6.17
-3 -2 0 456.4 6.86
3 2 0 455.58 6.45
3 2 0 443.24 7.02
-3 -2 0 440.44 6.73
-3 -2 0 447.74 7.08
3 2 0 471.28 7.04
-3 -2 0 443.95 6.21
-3 -2 0 450.5 6.53
3 3 0 2.69 0.38
3 3 0 2.1 0.46
-3 -3 0 1.48 0.22
3 3 0 2.59 0.52
-3 -3 0 1.77 0.38
-3 -3 0 2.69 0.56
3 3 0 3.55 0.61
-3 -4 0 -0.13 0.23
3 4 0 0.44 0.33
3 4 0 0.1 0.22
3 4 0 0.27 0.17
-3 -4 0 0.26 0.39
-3 -4 0 0.3 0.24
-3 -4 0 0.26 0.14
-3 -5 0 81.32 2.1
3 5 0 80.06 2.89
3 5 0 79.1 1.88
-3 -5 0 79.86 3.42
3 5 0 83.87 2.78
-3 -6 0 8.03 0.75
3 6 0 9.34 0.59
-3 -6 0 10.23 1.29
3 6 0 8.67 0.89
3 6 0 8.43 0.99
-3 -7 0 20.42 1.3
3 7 0 20.61 0.97
-3 -7 0 18.6 1.5
3 7 0 22.85 2.04
3 7 0 20.04 1.49
-3 -8 0 11.45 1.19
-3 -8 0 11.51 1.08
3 8 0 8.54 1.01
3 8 0 9.67 1.45
-3 -9 0 5.24 0.83
3 9 0 4.83 0.8
3 9 0 5.62 1.17
-3 -10 0 -0.23 0.22
3 10 0 -0.21 0.5
3 10 0 0.23 0.62
3 11 0 -0.16 0.34
-3 -11 0 0.4 0.32
3 11 0 0.39 0.61
-3 -12 0 0.78 0.67
3 -9 1 2.53 0.99
3 -9 1 3.28 1.11
-3 9 -1 1.91 0.72
-3 9 -1 1.82 0.68
3 -8 1 1.69 0.87
3 -8 1 1.57 0.58
3 -8 1 1.04 0.68
-3 8 -1 1.14 0.61
-3 8 -1 1.42 0.58
3 -7 1 5.69 1.24
3 -7 1 6.12 1.13
3 -7 1 5.03 0.87
-3 7 -1 6.17 1.03
-3 7 -1 6.11 0.98
3 -7 1 5.44 0.98
3 -6 1 161.59 5.02
3 -6 1 156.06 4.56
3 -6 1 160.31 4.54
-3 6 -1 163.24 4.97
-3 6 -1 163.68 5.05
3 -6 1 176.05 5.6
3 -6 1 160.77 5.97
3 -5 1 2.12 0.7
3 -5 1 2.55 0.65
3 -5 1 2.29 0.52
3 -5 1 2.29 0.71
-3 5 -1 1.96 0.49
-3 5 -1 2.71 0.63
3 -5 1 1.97 0.48
3 -4 1 136.21 4.18
3 -4 1 134.66 4.07
-3 4 -1 134.9 3.96
3 -4 1 126.18 3.35
3 -4 1 130.12 4.52
3 -4 1 125.72 3.3
3 -4 1 123.82 3.97
-3 4 -1 127.89 3.61
-3 4 -1 134.07 4.78
-3 3 -1 1.21 0.38
3 -3 1 0.96 0.4
-3 3 -1 0.88 0.35
-3 3 -1 1.16 0.34
3 -3 1 1.59 0.49
3 -3 1 1.19 0.29
3 -2 1 0.66 0.37
-3 2 -1 0.64 0.21
3 -2 1 0.72 0.35
-3 2 -1 0.56 0.26
-3 2 -1 0.25 0.35
-3 2 -1 0.4 0.1
-3 2 -1 0.37 0.27
3 -2 1 0.61 0.18
3 -1 1 17.89 1.21
3 -1 1 18.97 0.68
-3 1 -1 17.91 0.66
-3 1 -1 18.61 1.35
-3 1 -1 18.68 1.08
-3 1 -1 19 1.13
3 -1 1 17.72 1.11
3 0 1 16.53 1.08
-3 0 -1 14.55 1.06
-3 0 -1 16.22 0.56
3 0 1 15.35 0.54
3 0 1 16.69 1.09
3 0 1 15.6 0.84
-3 0 -1 15.94 0.92
-3 0 -1 16.01 0.58
-3 0 -1 14.7 0.94
3 0 1 16.68 0.97
-3 0 -1 15.3 0.86
3 1 1 294.18 5.18
-3 -1 -1 286.77 3.98
-3 -1 -1 289.46 5.21
-3 -1 -1 295.85 4.47
-3 -1 -1 286.97 5.03
-3 -1 -1 302.81 4.73
3 1 1 301.29 4.29
3 1 1 288.95 3.96
3 1 1 292.56 5.27
-3 -1 -1 282.31 4.08
-3 -1 -1 291.83 5.14
-3 -2 -1 209.82 4.23
-3 -2 -1 205.68 4.12
3 2 1 204.66 3.48
3 2 1 206.38 4.01
-3 -2 -1 204.05 4.08
3 2 1 204.62 4.37
-3 -2 -1 201.72 4.25
-3 -2 -1 205.97 2.97
-3 -2 -1 201.15 3.36
3 2 1 207.66 3.93
-3 -3 -1 972.63 13.03
-3 -3 -1 947.99 12.03
3 3 1 951.62 12.63
3 3 1 927.02 12.69
3 3 1 923.34 10.66
-3 -3 -1 936.66 10.26
3 3 1 970.61 12.97
-3 -3 -1 936.27 12.31
3 4 1 66.34 1.2
-3 -4 -1 59 1.88
-3 -4 -1 63.71 2.67
3 4 1 63.09 2.24
-3 -4 -1 58.96 1.94
3 4 1 61.03 2.37
-3 -5 -1 30.92 1.3
3 5 1 25.6 0.79
3 5 1 30.76 1.76
-3 -5 -1 28.34 1.97
3 5 1 28.05 1.51
-3 -5 -1 30.46 1.33
3 6 1 2.06 0.5
3 6 1 1.59 0.23
3 6 1 1.46 0.43
-3 -6 -1 0.69 0.47
-3 -6 -1 1.43 0.36
-3 -7 -1 1.74 0.4
3 7 1 2.04 0.42
-3 -7 -1 -0.05 0.17
3 7 1 1.27 0.46
3 7 1 1.26 0.57
3 7 1 0.71 0.35
-3 -8 -1 1.97 0.57
-3 -8 -1 0.82 0.44
3 8 1 1.32 0.39
3 8 1 1.32 0.51
3 8 1 0.92 0.59
3 9 1 2.16 0.51
-3 -9 -1 1.15 0.46
3 9 1 2.44 0.61
3 9 1 1.87 0.84
-3 -10 -1 0.64 0.6
-3 -10 -1 0.49 0.31
3 10 1 0.95 0.45
3 10 1 1.67 0.82
-3 -11 -1 0.26 0.47
-3 -11 -1 0.14 0.26
3 11 1 1.35 0.84
-3 -12 -1 0.56 0.73
3 -9 2 0.36 0.62
3 -9 2 1.01 0.64
3 -9 2 -0.04 0.39
-3 9 -2 -0.44 0.42
3 -8 2 15.09 2.08
3 -8 2 16.1 1.74
-3 8 -2 15.95 1.71
-3 8 -2 16.58 1.75
3 -8 2 15.03 2.12
-3 7 -2 13.35 1.48
3 -7 2 12.82 1.35
3 -7 2 13.81 1.38
-3 7 -2 14.49 1.5
3 -7 2 13.39 1.54
3 -7 2 14.7 1.95
3 -7 2 17.01 1.87
-3 6 -2 191.53 5.29
3 -6 2 196.95 5.73
3 -6 2 201.47 6.25
3 -6 2 185.41 5
3 -6 2 200.47 6.8
-3 6 -2 197.43 5.67
3 -5 2 1.84 0.65
-3 5 -2 1.64 0.53
3 -5 2 1.93 0.58
3 -5 2 2.13 0.69
3 -5 2 1.77 0.43
-3 5 -2 2.57 0.56
3 -4 2 5.2 0.87
-3 4 -2 3.8 0.66
3 -4 2 4.09 0.77
3 -4 2 6.68 0.9
3 -4 2 6.4 0.88
3 -4 2 4.96 0.61
-3 4 -2 4.68 0.62
3 -3 2 23.46 1.55
-3 3 -2 23.1 1.48
3 -3 2 22.39 1.08
-3 3 -2 24.22 1.15
3 -3 2 25.93 1.75
3 -2 2 33.98 1.78
3 -2 2 31.1 0.98
-3 2 -2 31.52 1.63
-3 2 -2 32.01 1
3 -2 2 32.72 1.06
3 -2 2 32.64 1.78
-3 1 -2 11.43 0.94
3 -1 2 12.21 1.01
-3 1 -2 11.51 0.92
3 -1 2 11.04 0.85
3 0 2 2.8 0.43
3 0 2 2.69 0.46
3 0 2 2.35 0.34
-3 0 -2 2.65 0.46
-3 0 -2 2.8 0.44
-3 -1 -2 81.4 2.36
-3 -1 -2 83.7 2.57
3 1 2 82.57 2.47
-3 -1 -2 80.13 1.72
3 1 2 86.03 1.82
-3 -1 -2 88.12 2.39
3 1 2 73.88 1.32
-3 -2 -2 401.89 6.22
-3 -2 -2 406.41 6.93
-3 -2 -2 402.57 6.79
3 2 2 418.03 6.37
-3 -2 -2 417.48 6.35
3 2 2 412.84 6.43
3 3 2 104.1 2.45
-3 -3 -2 105.19 2.51
-3 -3 -2 96.05 2.91
3 3 2 98.67 2.94
-3 -3 -2 102.62 2.76
-3 -4 -2 0.31 0.3
3 4 2 0.44 0.29
3 4 2 0.02 0.2
-3 -4 -2 0.31 0.15
-3 -4 -2 0.8 0.28
3 4 2 0.39 0.3
-3 -5 -2 85.32 2.09
3 5 2 86.45 2.58
-3 -5 -2 83.86 2.15
-3 -5 -2 86.79 3.4
3 5 2 84.92 2.96
-3 -6 -2 14.53 1.06
3 6 2 11.16 0.5
-3 -6 -2 10.42 0.95
3 6 2 13.61 1.28
-3 -6 -2 14.02 1.49
3 6 2 14.34 1.04
-3 -6 -2 14.03 0.77
-3 -7 -2 7.55 0.55
3 7 2 8.82 1.08
3 7 2 7.54 0.56
-3 -7 -2 7.66 0.85
3 7 2 8.98 0.88
-3 -7 -2 10.1 1.21
3 7 2 11.67 1.51
3 8 2 8.74 0.72
-3 -8 -2 7.77 0.54
-3 -8 -2 7.38 1.02
3 8 2 10.71 1
-3 -8 -2 9.72 1.3
3 8 2 11.33 1.62
-3 -9 -2 0.84 0.55
-3 -9 -2 0.47 0.15
3 9 2 0.58 0.25
-3 -9 -2 0.69 0.16
-3 -9 -2 0.79 0.44
3 9 2 0.63 0.38
3 9 2 0.96 0.73
-3 -10 -2 -0.31 0.53
-3 -10 -2 0.2 0.31
3 10 2 0.75 0.38
3 10 2 1.29 0.85
-3 -11 -2 1.42 0.83
-3 -11 -2 1.39 0.54
3 11 2 1.11 0.72
-3 -12 -2 1.42 1.02
3 12 2 2.08 1.11
3 -9 3 6.55 1.29
3 -9 3 8.58 1.82
3 -9 3 7.75 1.61
-3 9 -3 6.33 1.18
3 -8 3 4.88 1.26
3 -8 3 5.04 1.07
-3 8 -3 3.53 0.97
3 -8 3 3.84 1.06
-3 8 -3 3.34 0.78
3 -7 3 0.66 0.48
3 -7 3 0.29 0.48
-3 7 -3 0.79 0.47
3 -7 3 0.38 0.42
-3 7 -3 0.09 0.33
3 -6 3 0.93 0.57
3 -6 3 1.12 0.53
-3 6 -3 0.82 0.47
3 -6 3 0.49 0.42
3 -6 3 -0.12 0.37
-3 6 -3 0.66 0.35
3 -5 3 26.71 2.07
3 -5 3 24.6 1.87
-3 5 -3 25.27 1.78
3 -5 3 23.09 1.5
-3 5 -3 21.3 0.78
-3 5 -3 24.14 1.53
-3 4 -3 0.05 0.35
-3 4 -3 0.74 0.18
3 -4 3 0.46 0.24
3 -4 3 0.79 0.36
3 -4 3 0.55 0.36
3 -4 3 0.5 0.29
-3 4 -3 0.52 0.25
3 -3 3 78.06 3.09
3 -3 3 77.52 2.98
-3 3 -3 77.27 2.86
3 -3 3 76.72 2.2
-3 3 -3 74.85 2.02
-3 2 -3 644.48 9.97
3 -2 3 633.69 8.18
3 -2 3 672.5 10.32
3 -2 3 657.5 7.88
3 -1 3 62.91 2.38
3 -1 3 56.41 1.24
-3 1 -3 65.17 2.38
-3 1 -3 66.39 2.39
-3 0 -3 192.41 4.37
3 0 3 188.99 4.18
3 0 3 182.12 2.7
-3 0 -3 194.96 4.25
3 1 3 1.04 0.22
-3 -1 -3 1.31 0.19
3 1 3 1.2 0.3
-3 -1 -3 1.43 0.32
-3 -1 -3 0.78 0.25
-3 -2 -3 95.4 3.03
3 2 3 93.98 2.55
-3 -2 -3 86.95 2.27
-3 -2 -3 91.17 2.4
3 2 3 93.53 2.57
-3 -3 -3 40.26 2
-3 -3 -3 38.91 1.34
-3 -3 -3 38.39 0.89
-3 -3 -3 39.69 1.81
3 3 3 42.01 1.89
-3 -3 -3 38.13 1.73
-3 -3 -3 38.47 1.64
3 3 3 40.88 1.52
-3 -3 -3 38.99 1.1
-3 -4 -3 118.23 3.23
-3 -4 -3 109.75 2.28
3 4 3 111.6 2.4
-3 -4 -3 118.79 3.63
3 4 3 122.35 3.77
-3 -4 -3 112.23 2.76
-3 -4 -3 113.64 2.76
3 5 3 6.58 0.83
-3 -5 -3 5.65 0.5
-3 -5 -3 7.35 0.97
-3 -5 -3 5.86 0.4
-3 -5 -3 6.79 0.73
-3 -6 -3 3.78 0.23
3 6 3 4.15 0.25
3 6 3 4.36 0.72
-3 -6 -3 5.57 0.81
-3 -6 -3 5.33 0.91
3 6 3 3.69 0.49
-3 -6 -3 4.68 0.65
-3 -7 -3 4.66 0.85
3 7 3 4.19 0.34
3 7 3 4.47 0.78
3 7 3 4.35 0.54
3 7 3 5.14 1.1
-3 -7 -3 5.09 0.73
-3 -8 -3 1.11 0.5
3 8 3 0.92 0.28
3 8 3 0.89 0.21
3 8 3 1.12 0.51
-3 -9 -3 7.64 1.26
3 9 3 6.46 0.64
3 9 3 6.44 0.7
3 9 3 8.51 1.51
-3 -10 -3 0.25 0.27
3 10 3 1.05 0.82
-3 -10 -3 0.21 0.56
-3 -11 -3 -0.16 0.45
-3 -11 -3 -0.12 0.35
3 11 3 0.02 0.72
-3 -12 -3 0.75 0.65
-3 9 -4 2.3 0.73
3 -9 4 1.43 0.74
3 -8 4 2.22 0.62
3 -8 4 3.38 1.02
3 -8 4 0.37 0.47
-3 8 -4 2.52 0.73
3 -8 4 1.72 0.79
3 -7 4 10.62 1.61
-3 7 -4 10.35 1.33
3 -7 4 9.36 1.33
-3 7 -4 8.3 1.09
3 -6 4 12.19 1.12
3 -6 4 12.99 1.5
3 -6 4 13.59 1.35
3 -6 4 12.7 1.58
-3 6 -4 14.45 1.3
-3 6 -4 14.33 1.48
3 -5 4 4.06 0.81
3 -5 4 5.07 1.01
-3 5 -4 5.37 0.82
-3 5 -4 4.55 0.49
3 -5 4 4.49 0.74
3 -4 4 0.8 0.25
3 -4 4 0.13 0.14
3 -4 4 -0.1 0.31
-3 4 -4 -0.02 0.29
3 -4 4 -0.52 0.43
3 -3 4 6.46 0.9
3 -3 4 7.22 0.72
3 -3 4 6.86 0.59
-3 3 -4 7.27 0.9
3 -3 4 9.42 1.11
3 -3 4 7.59 0.99
3 -2 4 93.49 1.96
3 -2 4 96.68 3.44
3 -2 4 89.94 2.33
3 -2 4 90.58 3.16
-3 2 -4 89.07 3.06
3 -2 4 93.37 3.49
3 -1 4 147.11 2.39
-3 1 -4 149.46 4
3 -1 4 150.86 3.91
3 -1 4 144.37 2.77
3 -1 4 151.48 4.28
-3 1 -4 155.83 4.05
-3 0 -4 134.75 3.76
3 0 4 136.74 3.89
3 0 4 138.57 3.53
3 0 4 128.35 2.29
-3 0 -4 130.98 2.17
-3 0 -4 143.6 3.84
-3 -1 -4 22.61 1.47
3 1 4 21.34 1.46
-3 -1 -4 21.5 0.85
3 1 4 21.58 1.27
3 1 4 21.05 1.05
3 1 4 21.41 0.85
-3 -2 -4 0.2 0.3
3 2 4 0.29 0.2
3 2 4 -0.07 0.24
-3 -2 -4 0.6 0.23
3 2 4 0.44 0.12
-3 -3 -4 27.22 1.5
-3 -3 -4 27 0.95
-3 -3 -4 27.77 1.45
3 3 4 28.89 1.65
3 3 4 29.78 1.33
-3 -3 -4 27.55 1.75
-3 -3 -4 28.28 1.01
3 3 4 27.11 1.1
3 4 4 212.89 3.81
-3 -4 -4 201.31 3.27
-3 -4 -4 212.58 4.95
-3 -4 -4 214.23 4.68
-3 -4 -4 209.96 4.15
-3 -4 -4 214.51 4.01
-3 -4 -4 216.35 5.13
-3 -5 -4 29.61 1.09
3 5 4 29.99 0.97
-3 -5 -4 32.92 1.21
-3 -5 -4 33.42 2.06
-3 -5 -4 32.87 1.66
-3 -6 -4 1.34 0.47
3 6 4 0.57 0.28
-3 -6 -4 1.16 0.51
3 6 4 0.84 0.16
3 6 4 1.33 0.5
-3 -6 -4 1.55 0.22
3 7 4 22.36 1.73
3 7 4 20.82 0.83
-3 -7 -4 24.32 1.43
3 7 4 22.73 2.12
-3 -7 -4 22.51 1.8
3 8 4 11.84 0.69
3 8 4 11.74 1.34
3 8 4 14.06 1.84
-3 -8 -4 12.96 1.5
-3 -9 -4 0.28 0.41
3 9 4 0.32 0.19
3 9 4 0.79 0.67
-3 -10 -4 0.99 0.7
3 10 4 -0.39 0.44
-3 -11 -4 0.31 0.61
-3 -11 -4 0.24 0.32
3 11 4 -0.12 0.67
-3 -12 -4 1.87 0.87
-3 9 -5 0.12 0.4
3 -9 5 -0.9 0.76
3 -8 5 0.16 0.52
-3 8 -5 -0.43 0.42
3 -8 5 0.24 0.5
3 -7 5 3.75 0.72
3 -7 5 4.09 1.07
-3 7 -5 4.13 0.91
3 -7 5 3.55 0.93
-3 6 -5 8.8 1.24
3 -6 5 9.88 1.37
3 -6 5 9.86 1.04
3 -6 5 9.58 1.45
-3 5 -5 -0.27 0.37
-3 5 -5 0.07 0.15
3 -5 5 0.1 0.28
3 -5 5 -0.09 0.26
3 -5 5 -0.08 0.38
3 -4 5 5.78 0.64
3 -4 5 6.09 1.02
3 -4 5 5.58 0.89
3 -4 5 6.63 0.83
-3 4 -5 5.43 0.85
3 -3 5 43.82 2.37
3 -3 5 47.42 2.06
3 -3 5 46.89 1.64
-3 3 -5 47.86 2.4
3 -3 5 47.39 2.66
3 -3 5 45.11 2.63
3 -2 5 0.07 0.38
-3 2 -5 0.46 0.3
3 -2 5 0.21 0.27
3 -2 5 0.21 0.12
3 -2 5 0.19 0.17
-3 1 -5 35.44 1.94
3 -1 5 33.75 1.21
3 -1 5 31.78 1.98
3 -1 5 32.93 1.82
-3 1 -5 33.58 1.9
3 -1 5 33.23 1.42
-3 0 -5 57.6 2.49
3 0 5 58.41 2.57
-3 0 -5 54.35 1.52
3 0 5 52.92 1.62
-3 0 -5 57.63 2.48
3 0 5 58.39 2.32
3 1 5 9.22 0.89
3 1 5 10.82 1.1
3 1 5 8.47 0.67
-3 -1 -5 9.83 1.03
-3 -1 -5 9.04 0.65
3 1 5 8.12 0.69
-3 -2 -5 25.92 1.24
3 2 5 25.76 1.38
-3 -2 -5 25.31 1.14
-3 -2 -5 25.77 1.69
3 2 5 25.04 1.46
3 2 5 24.38 1.12
-3 -3 -5 18.99 1.23
-3 -3 -5 21.53 1.62
-3 -3 -5 19.27 0.96
3 3 5 19.52 1.15
-3 -3 -5 20.59 1.01
3 3 5 20.13 1.11
3 4 5 3.66 0.46
-3 -4 -5 3.8 0.44
-3 -4 -5 3.63 0.6
3 4 5 3.59 0.54
-3 -4 -5 3.73 0.52
-3 -4 -5 3.83 0.59
3 5 5 0.4 0.22
-3 -5 -5 0.36 0.17
3 5 5 0.49 0.19
3 5 5 1.01 0.5
-3 -5 -5 -0.18 0.33
-3 -5 -5 0.39 0.2
-3 -5 -5 0.78 0.3
-3 -6 -5 2.43 0.22
3 6 5 2.95 0.34
-3 -6 -5 3.05 0.6
-3 -6 -5 2.48 0.46
-3 -6 -5 3.49 0.77
3 6 5 3.26 0.8
-3 -6 -5 3.13 0.67
-3 -7 -5 0.46 0.29
3 7 5 0.57 0.2
3 7 5 0.44 0.49
-3 -7 -5 0.08 0.26
3 8 5 0.1 0.28
3 8 5 0.16 0.16
-3 -8 -5 0.79 0.43
3 8 5 0.53 0.51
-3 -9 -5 0 0.4
3 9 5 0.49 0.45
-3 -10 -5 1.58 0.68
3 10 5 -0.34 0.67
3 11 5 0.37 0.59
-3 -11 -5 -0.07 0.57
-3 -12 -5 1.25 0.71
-3 8 -6 1.7 0.7
3 -8 6 2.17 0.82
3 -8 6 1.65 0.8
3 -7 6 1.37 0.47
-3 7 -6 1.93 0.72
3 -7 6 -0.06 0.44
3 -7 6 1.91 0.82
3 -6 6 6.75 1.24
-3 6 -6 6.42 1.07
3 -6 6 5.51 0.79
3 -6 6 7.2 1.29
3 -5 6 24.45 2.21
-3 5 -6 23.11 1.42
-3 5 -6 24.57 1.9
3 -5 6 21.37 1.74
3 -5 6 23.2 2
3 -4 6 24.06 2.1
3 -4 6 23.35 1.95
-3 4 -6 20.05 1.7
3 -4 6 21.55 1.64
3 -3 6 1.17 0.53
3 -3 6 0.69 0.25
-3 3 -6 0.69 0.41
3 -3 6 0.7 0.35
3 -3 6 0.27 0.41
3 -2 6 6.28 0.91
3 -2 6 6.43 1.01
3 -2 6 6.33 0.62
-3 2 -6 7.32 0.96
3 -2 6 6.1 0.73
-3 1 -6 57.3 1.9
-3 1 -6 62.37 2.71
3 -1 6 60.9 1.95
-3 1 -6 60.97 2.77
3 -1 6 64.5 2.93
-3 0 -6 2.8 0.53
3 0 6 3.18 0.67
-3 0 -6 3.2 0.44
3 0 6 3.19 0.45
3 0 6 3.26 0.51
-3 0 -6 3.45 0.64
-3 -1 -6 22.16 1.13
-3 -1 -6 22.21 1.25
-3 -1 -6 22 1.6
3 1 6 20.35 1.23
3 1 6 21.7 1.24
3 1 6 25.64 1.76
-3 -2 -6 32.97 1.55
-3 -2 -6 31.85 1.47
3 2 6 32.26 1.69
3 2 6 36.33 1.74
3 2 6 32.36 1.52
-3 -2 -6 31.12 1.93
-3 -3 -6 175.32 5.05
-3 -3 -6 167.84 4.14
-3 -3 -6 163.43 3.63
3 3 6 175.78 3.95
-3 -3 -6 174.04 3.7
3 3 6 160.67 3.87
-3 -4 -6 4.44 0.56
3 4 6 5.34 0.63
-3 -4 -6 5.58 0.9
3 4 6 5.31 0.86
3 4 6 5.53 0.73
-3 -4 -6 5.65 0.65
-3 -4 -6 4.84 0.72
3 5 6 36.48 1.45
3 5 6 38.04 2.48
-3 -5 -6 34.22 1.59
-3 -5 -6 34.79 1.42
-3 -5 -6 39.42 2.23
-3 -5 -6 36.47 1.85
3 6 6 18.17 0.77
-3 -6 -6 20.07 1.28
3 6 6 21.4 1.04
3 6 6 23.47 2.07
-3 -6 -6 15.67 0.54
-3 -6 -6 22.32 1.6
-3 -7 -6 3.85 0.6
3 7 6 3.73 0.46
-3 -7 -6 3.42 0.6
3 7 6 4.99 1.13
-3 -7 -6 4.25 0.81
-3 -8 -6 0.24 0.35
3 8 6 0.41 0.22
3 8 6 0.13 0.46
-3 -9 -6 0.09 0.34
3 9 6 0.43 0.5
-3 -10 -6 0.08 0.41
3 10 6 0.16 0.44
-3 -11 -6 2.07 0.93
3 11 6 0.72 0.73
-3 -12 -6 0.24 0.64
-3 8 -7 0.16 0.48
3 -7 7 3.11 1.11
3 -7 7 4.33 1.06
-3 7 -7 3.41 0.89
3 -6 7 11.06 1.66
3 -6 7 9.79 1.08
3 -6 7 11.76 1.57
-3 6 -7 10.23 1.37
3 -5 7 1 0.53
3 -5 7 1.17 0.37
-3 5 -7 1.86 0.6
3 -5 7 1.79 0.73
3 -4 7 14.95 1.73
3 -4 7 15.17 1.64
-3 4 -7 14.38 1.49
3 -4 7 11.64 1.28
3 -3 7 41.28 2.52
-3 3 -7 38.35 2.33
3 -3 7 42.3 2.73
3 -3 7 38.15 2.19
-3 2 -7 22.23 1.77
3 -2 7 19.37 1.46
3 -2 7 21.01 1.84
-3 1 -7 0.2 0.26
3 -1 7 0.08 0.28
-3 1 -7 0.25 0.2
-3 1 -7 0.11 0.27
3 -1 7 -0.44 0.36
-3 0 -7 5.88 0.85
3 0 7 6.73 0.99
-3 0 -7 5.94 0.79
-3 0 -7 6.93 0.7
-3 0 -7 5.48 0.9
-3 -1 -7 58.08 2.79
-3 -1 -7 51.44 2.03
-3 -1 -7 58.68 2.28
-3 -2 -7 34.87 2.16
-3 -2 -7 33.03 1.67
-3 -2 -7 35.49 1.73
3 2 7 31.79 1.72
3 3 7 53.13 2.16
-3 -3 -7 51.23 2.71
-3 -3 -7 53.46 2.33
-3 -3 -7 50.31 2.05
3 3 7 44.02 2.36
3 3 7 55.35 2.76
-3 -3 -7 50.11 2.01
3 3 7 48.1 2.22
3 4 7 45.71 1.92
-3 -4 -7 43.7 2.29
-3 -4 -7 42.72 1.93
3 4 7 47.16 2.7
-3 -4 -7 47.27 2.72
-3 -4 -7 46.48 2.06
3 5 7 9.65 0.82
-3 -5 -7 9.57 0.94
3 5 7 10.28 1.38
-3 -5 -7 10.24 1.3
-3 -5 -7 9.99 1.03
3 6 7 2.48 0.37
-3 -6 -7 1.83 0.51
3 6 7 3.38 0.9
-3 -6 -7 2.14 0.25
3 6 7 1.61 0.52
-3 -6 -7 2.99 0.63
-3 -7 -7 0.68 0.42
3 7 7 0.39 0.39
-3 -7 -7 0.56 0.33
3 7 7 -0.46 0.38
-3 -7 -7 -0.29 0.3
3 7 7 0.25 0.23
-3 -8 -7 0.36 0.28
3 8 7 0.78 0.47
-3 -8 -7 -0.17 0.43
3 9 7 3.33 1.13
-3 -9 -7 2.82 0.83
3 10 7 0.17 0.6
-3 -10 -7 0.28 0.65
-3 -11 -7 0.67 0.62
-3 -12 -7 0.33 0.53
-3 7 -8 0.48 0.56
3 -7 8 0.78 0.82
3 -6 8 -0.3 0.46
3 -6 8 0.03 0.44
-3 6 -8 0.36 0.39
3 -5 8 0.55 0.65
3 -5 8 1.77 0.73
3 -5 8 0.19 0.24
-3 5 -8 0.24 0.4
3 -4 8 3.82 0.92
3 -4 8 4.46 0.95
3 -4 8 3.21 0.56
-3 4 -8 2.22 0.63
3 -3 8 1.14 0.61
-3 3 -8 0.26 0.35
3 -3 8 0.39 0.23
3 -3 8 0.19 0.37
-3 2 -8 0.92 0.49
3 -2 8 -0.03 0.19
3 -2 8 0.78 0.35
-3 1 -8 53.71 2.62
-3 1 -8 50.83 2.13
3 -1 8 53.05 2.9
-3 1 -8 57.29 2.56
-3 1 -8 57.4 2.9
3 -1 8 58.11 2.72
3 0 8 248.45 6.07
-3 0 -8 244.92 4.59
-3 0 -8 246.46 5.61
-3 0 -8 264.18 5.29
-3 0 -8 254.72 6.17
3 0 8 245.17 5.33
-3 -1 -8 3.06 0.59
-3 -1 -8 3.25 0.73
-3 -1 -8 2.71 0.53
3 1 8 2.62 0.59
3 1 8 3.6 0.71
-3 -2 -8 26.6 1.62
3 2 8 25.89 1.79
-3 -2 -8 27.23 1.65
-3 -2 -8 28.05 2
-3 -3 -8 4.86 0.89
-3 -3 -8 6.57 0.83
-3 -3 -8 6.5 0.86
3 3 8 7.42 1.13
-3 -3 -8 6.21 0.8
3 3 8 5.99 0.94
3 4 8 5.74 0.88
-3 -4 -8 5.91 1.06
-3 -4 -8 6.6 0.85
-3 -4 -8 7.27 0.88
3 4 8 6.97 1.12
3 4 8 6.67 0.82
3 5 8 1.17 0.5
3 5 8 1.32 0.38
3 5 8 1.14 0.5
-3 -5 -8 0.62 0.27
-3 -5 -8 1.25 0.45
3 6 8 0.03 0.43
3 6 8 1.44 0.55
-3 -6 -8 1.46 0.44
3 6 8 1.46 0.33
-3 -6 -8 1.16 0.24
-3 -6 -8 1.25 0.21
-3 -6 -8 0.69 0.36
-3 -7 -8 5.27 0.69
3 7 8 7.34 0.52
-3 -7 -8 10.74 1.24
3 7 8 9.44 1.53
-3 -7 -8 11.65 1.35
-3 -8 -8 5.34 0.93
3 8 8 7 1.49
-3 -8 -8 7.06 1.17
3 9 8 -0.03 0.55
-3 -9 -8 0.48 0.48
3 10 8 1.04 0.71
-3 -10 -8 1.36 0.74
-3 -11 -8 0 0.5
-3 6 -9 0.7 0.5
3 -6 9 0.98 0.63
3 -5 9 2.08 0.81
-3 5 -9 0.87 0.43
3 -5 9 0.95 0.69
3 -4 9 3.59 0.93
-3 4 -9 4.07 0.89
3 -4 9 4.42 1.12
3 -4 9 4.35 0.75
-3 4 -9 3.7 0.93
-3 3 -9 -0.17 0.29
3 -3 9 0.29 0.36
-3 3 -9 -0.16 0.37
3 -3 9 -0.23 0.27
3 -2 9 11.84 1.18
-3 2 -9 14.72 1.46
-3 2 -9 13.4 1.53
3 -2 9 15.13 1.68
-3 1 -9 9.48 1.04
3 -1 9 10.53 1.38
-3 1 -9 9.53 1.15
-3 1 -9 10.44 1.32
3 -1 9 9.44 1.08
3 0 9 40.59 2.26
3 0 9 39.64 2.55
-3 0 -9 40.25 2.11
-3 0 -9 39.35 2.3
-3 0 -9 39.58 2.35
-3 0 -9 43.2 2.71
-3 -1 -9 9.14 1.2
3 1 9 10.05 1.19
-3 -1 -9 7.21 0.95
-3 -1 -9 9.14 1.01
3 1 9 8.08 1.04
-3 -2 -9 16.17 1.6
-3 -2 -9 15.61 1.36
3 2 9 16.28 1.53
3 2 9 16.2 1.47
-3 -3 -9 7.21 1.11
-3 -3 -9 8.5 1.06
3 3 9 6.92 1.15
3 3 9 7.88 1.17
3 3 9 7.78 1.07
-3 -4 -9 0.46 0.31
3 4 9 0.45 0.57
-3 -4 -9 0.95 0.43
3 4 9 0.59 0.43
-3 -5 -9 -0.11 0.33
3 5 9 0.34 0.23
3 5 9 -0.13 0.41
-3 -5 -9 0.13 0.15
-3 -5 -9 -0.16 0.31
-3 -6 -9 4.23 0.83
3 6 9 2.71 0.9
3 6 9 3.58 0.58
-3 -6 -9 4.62 0.86
-3 -7 -9 0.18 0.21
-3 -7 -9 0.82 0.44
3 7 9 0.25 0.43
-3 -7 -9 0.27 0.37
3 8 9 2.31 0.94
-3 -8 -9 2.41 0.74
-3 -8 -9 3.53 0.83
3 9 9 0.96 0.68
-3 -9 -9 2.23 0.77
-3 -10 -9 0.35 0.64
-3 -11 -9 0.07 0.64
3 -5 10 2.15 0.91
-3 5 -10 3.39 0.87
3 -4 10 2.37 0.91
-3 4 -10 2.51 0.81
3 -4 10 1.24 0.77
-3 4 -10 0.93 0.58
3 -3 10 4.27 1.07
-3 3 -10 5.59 1.07
-3 3 -10 5.83 1.09
3 -3 10 4.96 0.85
3 -2 10 -0.02 0.4
-3 2 -10 0.16 0.34
3 -2 10 0.41 0.34
-3 2 -10 -0.23 0.38
-3 1 -10 7.37 1.18
-3 1 -10 4.77 0.94
3 -1 10 4.56 1.06
3 -1 10 4.87 0.84
-3 0 -10 4.42 0.88
-3 0 -10 4.53 0.94
3 0 10 5.71 0.96
-3 -1 -10 0.17 0.32
-3 -1 -10 0.78 0.58
3 1 10 0.39 0.43
-3 -2 -10 -0.16 0.31
3 2 10 0.13 0.3
-3 -3 -10 0.48 0.37
3 3 10 -0.19 0.38
3 3 10 -0.26 0.33
-3 -4 -10 2.09 0.62
3 4 10 2.28 0.78
-3 -4 -10 2.47 0.62
-3 -5 -10 0.9 0.4
3 5 10 1.54 0.47
3 5 10 1.69 0.8
-3 -5 -10 0.59 0.28
-3 -5 -10 1 0.45
3 6 10 0.73 0.34
3 6 10 1.19 0.52
-3 -6 -10 0.76 0.45
-3 -6 -10 1.12 0.5
-3 -7 -10 0.39 0.43
3 7 10 1.13 0.56
-3 -7 -10 0.86 0.42
3 8 10 1.23 0.93
-3 -8 -10 0.19 0.48
-3 -9 -10 1.06 0.7
-3 4 -11 -0.46 0.41
-3 3 -11 -1.07 0.62
-3 2 -11 0.43 0.37
-3 2 -11 -0.18 0.4
3 -2 11 0.09 0.39
-3 1 -11 0.56 0.47
-3 1 -11 -0.52 0.5
3 -1 11 0.47 0.26
-3 0 -11 0.04 0.39
3 0 11 0.32 0.4
-3 0 -11 0.06 0.43
-3 -1 -11 3.3 0.85
-3 -1 -11 4.76 1.06
3 1 11 3.13 0.81
-3 -2 -11 2.97 0.78
3 2 11 2.09 0.7
-3 -3 -11 0.65 0.5
3 3 11 0.29 0.44
3 3 11 -0.47 0.58
-3 -4 -11 0.15 0.35
3 4 11 0.64 0.46
-3 -5 -11 0.16 0.39
3 5 11 0.59 0.34
3 5 11 0.65 0.74
-3 -5 -11 -0.05 0.28
3 6 11 0.33 0.62
-3 -6 -11 0.97 0.56
-3 -6 -11 -0.06 0.3
3 7 11 0.18 0.52
-3 -7 -11 -0.53 0.44
-3 -8 -11 0.59 0.58
-3 2 -12 0.48 0.59
-3 1 -12 0.51 0.54
-3 0 -12 1.76 0.68
-3 0 -12 2.62 0.96
3 0 12 0.76 0.51
-3 -1 -12 2.9 0.88
-3 -1 -12 3.09 0.86
3 1 12 3.07 0.84
3 2 12 0.15 0.47
3 2 12 -0.58 0.54
-3 -2 -12 0.22 0.49
-3 -3 -12 2.72 0.76
3 3 12 4.65 1.18
3 3 12 2.66 0.99
3 4 12 0.79 0.61
-3 -4 -12 0.59 0.36
-3 -5 -12 1.21 0.59
3 5 12 1.2 0.83
-3 -6 -12 0.78 0.58
-3 -6 -12 -0.02 0.4
-3 0 -13 0.25 0.49
-3 -1 -13 1.71 0.81
3 1 13 1.54 0.61
-3 -2 -13 1.23 0.74
3 2 13 1.38 0.89
3 2 13 1.49 0.79
3 3 13 0.61 0.68
-3 -4 -13 -0.23 0.43
-3 -5 -13 -0.33 0.63
4 -1 -10 3.08 0.99
4 0 -10 5.22 1.24
4 1 -10 0.33 0.64
4 2 -10 0.4 0.57
4 -3 -9 3.22 1.08
4 -2 -9 2.91 1.07
4 -2 -9 3.86 1.04
-4 2 9 4.04 1.09
4 -2 -9 4.09 1.08
4 -1 -9 3.46 1.04
4 -1 -9 4.79 1.12
-4 1 9 5.08 1.15
4 -1 -9 4.93 1.18
4 0 -9 2.37 0.77
4 0 -9 1.92 0.84
-4 0 9 2.02 0.83
4 1 -9 0.06 0.56
-4 -1 9 0.02 0.53
4 1 -9 -0.36 0.54
4 2 -9 1.85 0.83
-4 -2 9 2.26 0.77
-4 -3 9 3.07 0.92
4 3 -9 1.85 0.79
4 3 -9 0.6 0.52
4 4 -9 0.25 0.4
4 4 -9 -0.69 0.84
4 -5 -8 1.51 0.89
-4 5 8 0.82 0.62
-4 4 8 1.62 0.83
4 -4 -8 -0.32 0.48
-4 4 8 0.86 0.53
4 -3 -8 0.52 0.61
4 -3 -8 0.2 0.38
-4 3 8 -0.41 0.5
4 -3 -8 -1.04 0.68
-4 2 8 13.44 1.8
4 -2 -8 11.51 1.88
4 -2 -8 13.12 1.78
4 -2 -8 11.1 1.48
4 -1 -8 6.85 1.44
4 -1 -8 6.36 1.21
-4 1 8 7.35 1.31
4 -1 -8 7.44 1.35
4 0 -8 5.04 1.25
4 0 -8 4.06 1
-4 0 8 3.95 0.94
4 0 -8 4.15 0.91
-4 -1 8 4.96 0.99
4 1 -8 5.43 1.2
4 1 -8 4.75 1.2
-4 -2 8 4.51 0.95
4 2 -8 2.6 0.79
4 2 -8 3.27 0.92
4 3 -8 3.94 0.98
-4 -3 8 2.59 0.8
4 3 -8 3.53 0.96
4 4 -8 0.44 0.47
-4 -4 8 1.43 0.69
4 4 -8 0.62 0.56
-4 -5 8 6.37 1.25
4 5 -8 4.45 1.11
4 5 -8 4.99 1.07
-4 -6 8 0.6 0.64
4 6 -8 0.98 0.56
4 7 -8 0.64 0.55
4 -6 -7 0.25 0.43
-4 6 7 0.77 0.68
4 -5 -7 -0.17 0.51
-4 5 7 0.13 0.38
4 -5 -7 -0.24 0.62
-4 5 7 -0.18 0.41
4 -4 -7 8.26 1.61
-4 4 7 9.4 1.61
-4 4 7 8.25 1.49
4 -4 -7 10.34 1.62
-4 3 7 16.04 1.89
4 -3 -7 18.05 2.24
4 -3 -7 20.67 1.85
4 -3 -7 20.13 2.15
4 -2 -7 1.09 0.62
4 -2 -7 2.33 0.66
-4 2 7 1.53 0.6
4 -2 -7 3.18 0.83
4 -1 -7 0.28 0.33
4 -1 -7 1.15 0.58
4 -1 -7 1.87 0.81
-4 1 7 0.75 0.49
4 -1 -7 0.84 0.59
4 0 -7 3.8 0.99
4 0 -7 4.29 1
-4 0 7 4.71 0.95
4 0 -7 5.53 1.02
4 1 -7 4.25 0.98
-4 -1 7 4.34 0.91
4 1 -7 3.81 0.89
4 1 -7 4.12 0.83
4 2 -7 0.57 0.29
4 2 -7 0.45 0.45
4 2 -7 0.14 0.11
-4 -2 7 0.79 0.48
4 2 -7 0.32 0.42
4 3 -7 0.47 0.34
4 3 -7 -0.04 0.55
-4 -3 7 -0.37 0.45
4 3 -7 0.47 0.47
4 4 -7 0.33 0.43
-4 -4 7 0.09 0.31
4 4 -7 0.08 0.43
4 5 -7 0.36 0.36
-4 -5 7 0.76 0.53
4 5 -7 0.58 0.46
4 6 -7 0.3 0.53
-4 -6 7 -0.06 0.35
4 6 -7 0.12 0.39
-4 -7 7 -0.17 0.41
4 7 -7 0.05 0.49
4 7 -7 0.16 0.35
4 8 -7 0.98 0.56
4 9 -7 0.24 0.42
4 -8 -6 1.78 0.93
-4 8 6 -0.3 0.57
-4 7 6 3.17 1.14
4 -7 -6 2.2 1.04
4 -6 -6 -0.06 0.61
-4 6 6 -0.01 0.42
4 -5 -6 2.04 0.59
-4 5 6 2.2 0.78
4 -5 -6 2.25 0.91
4 -5 -6 2.01 0.84
-4 5 6 2.14 0.78
4 -4 -6 0.38 0.32
4 -4 -6 1.33 0.7
-4 4 6 0.14 0.36
-4 4 6 -0.09 0.44
4 -4 -6 -0.28 0.46
4 -3 -6 1.47 0.63
-4 3 6 1.14 0.55
4 -3 -6 1.06 0.68
4 -2 -6 5.94 0.6
4 -2 -6 5.31 0.79
4 -2 -6 5.22 0.94
-4 2 6 7.14 1.17
4 -2 -6 6.96 1.32
4 -2 -6 7 1.17
4 -1 -6 22.5 0.7
4 -1 -6 28.65 2.21
-4 1 6 29.3 2.18
4 -1 -6 29.35 2.57
4 -1 -6 30.39 2.42
-4 0 6 21.62 1.82
4 0 -6 20.53 1.22
4 0 -6 27.23 2.39
4 0 -6 24.19 2.13
4 0 -6 25 2.07
4 1 -6 5.71 1.12
4 1 -6 5.87 0.53
-4 -1 6 6.27 1.01
4 1 -6 6.82 1.12
4 1 -6 5.58 0.66
4 1 -6 7.65 1.09
4 2 -6 0.83 0.37
4 2 -6 1.6 0.68
-4 -2 6 1.69 0.61
4 2 -6 0.63 0.14
4 2 -6 0.31 0.13
4 2 -6 1.75 0.72
4 3 -6 12.09 1.21
-4 -3 6 10.86 1.32
4 3 -6 9.76 1.32
4 3 -6 10.3 1.43
4 4 -6 4.12 0.86
-4 -4 6 5.07 0.94
4 4 -6 3.63 0.85
-4 -5 6 -0.15 0.36
4 5 -6 -0.1 0.35
4 5 -6 -0.1 0.57
4 6 -6 3.94 0.87
4 6 -6 4.74 1.02
4 7 -6 1.23 0.59
-4 -7 6 1.63 0.67
4 7 -6 1.03 0.63
-4 -8 6 -0.74 0.47
4 8 -6 -0.05 0.4
4 9 -6 0.04 0.37
-4 8 5 -0.38 0.48
-4 7 5 0.44 0.48
4 -7 -5 0.18 0.47
4 -6 -5 -0.23 0.57
-4 6 5 0.61 0.39
4 -6 -5 0.48 0.62
4 -5 -5 4.15 1.07
-4 5 5 3.55 0.98
4 -5 -5 3.51 0.94
4 -4 -5 5.57 0.83
4 -4 -5 5.86 1.22
4 -4 -5 4.78 0.8
-4 4 5 4.76 1.05
-4 4 5 5.25 0.72
-4 4 5 4.61 0.96
4 -4 -5 5.11 1.09
4 -3 -5 3.9 0.99
4 -3 -5 3.67 0.69
-4 3 5 3.54 0.58
-4 3 5 3.53 0.82
4 -3 -5 4 0.93
-4 2 5 19.39 1.74
4 -2 -5 19.06 2
4 -2 -5 18.89 1.18
4 -2 -5 17.66 1.52
4 -2 -5 19.63 1.71
-4 2 5 21.81 1.47
4 -2 -5 20.88 1.96
4 -2 -5 19.09 1.44
4 -1 -5 1.34 0.25
4 -1 -5 2.66 0.86
4 -1 -5 2.3 0.68
-4 1 5 2.81 0.71
-4 1 5 2.06 0.52
4 -1 -5 3.46 0.82
-4 0 5 8.56 1.07
4 0 -5 7.12 0.68
4 0 -5 6.26 1.01
4 0 -5 8.5 1.21
4 0 -5 9.05 1.17
4 1 -5 0.27 0.52
4 1 -5 0.19 0.16
-4 -1 5 0.32 0.41
4 1 -5 0.02 0.38
4 1 -5 -0.21 0.4
4 2 -5 1.86 0.58
4 2 -5 1.82 0.18
-4 -2 5 2.56 0.6
4 2 -5 2.38 0.68
4 2 -5 2.59 0.53
4 3 -5 6.08 0.85
4 3 -5 5.44 0.91
-4 -3 5 6.71 0.95
4 3 -5 7.38 1.17
4 4 -5 0.47 0.48
4 4 -5 -0.24 0.38
-4 -4 5 0.51 0.42
4 4 -5 -0.29 0.63
-4 -5 5 0.25 0.19
-4 -5 5 0.91 0.54
4 5 -5 0.9 0.48
4 6 -5 7.5 1.03
4 6 -5 6.05 1.13
-4 -6 5 9.32 1.28
-4 -7 5 0.49 0.52
4 7 -5 0.73 0.51
4 7 -5 -0.49 0.5
4 8 -5 1.37 0.57
-4 -8 5 1.88 0.73
4 8 -5 -0.21 0.47
4 9 -5 -0.01 0.38
-4 -9 5 0.26 0.44
4 9 -5 -0.32 0.55
4 10 -5 0.93 0.5
-4 9 4 -0.41 0.66
4 -8 -4 2.15 0.78
-4 8 4 2.66 0.89
-4 7 4 0.42 0.55
4 -7 -4 0.08 0.43
4 -6 -4 0.93 0.76
-4 6 4 1.38 0.65
-4 6 4 0.93 0.46
4 -6 -4 0.67 0.56
-4 5 4 -0.01 0.36
-4 5 4 1.48 0.53
4 -5 -4 1.38 0.67
4 -5 -4 0.96 0.31
-4 5 4 1.84 0.67
-4 5 4 0.75 0.36
4 -5 -4 1.12 0.55
4 -4 -4 2.99 0.65
-4 4 4 1.56 0.49
4 -4 -4 3.28 0.96
4 -4 -4 1.62 0.42
-4 4 4 3.58 0.85
-4 4 4 1.94 0.47
-4 4 4 1.96 0.49
-4 4 4 1.99 0.62
4 -4 -4 2.33 0.74
-4 3 4 17.54 1.32
-4 3 4 14.15 0.54
-4 3 4 16.66 1.58
4 -3 -4 17.15 1.88
-4 3 4 16.14 1.53
4 -3 -4 18.03 1.37
-4 3 4 15.26 1.22
4 -3 -4 17.32 1.74
4 -3 -4 15.68 1.39
4 -2 -4 183.31 4.23
-4 2 4 169.33 2.52
4 -2 -4 195.41 4.68
4 -2 -4 192.61 6.24
-4 2 4 197.97 5.47
4 -2 -4 193.5 5.33
-4 2 4 188.6 4.71
4 -2 -4 204.5 5.89
4 -2 -4 188.76 4.87
-4 2 4 183.53 5.38
-4 1 4 84.83 3.33
4 -1 -4 84.82 3.87
4 -1 -4 83.93 2.38
4 -1 -4 82.67 3.45
4 -1 -4 88.25 3.24
-4 1 4 87.54 3.06
-4 1 4 77.36 3.32
4 -1 -4 94.42 3.69
4 -1 -4 87.57 3.23
-4 0 4 3.42 0.65
4 0 -4 2.68 0.7
4 0 -4 2.04 0.27
4 0 -4 3.01 0.61
4 0 -4 3.21 0.45
4 0 -4 2.71 0.55
-4 0 4 2.99 0.55
4 0 -4 2.19 0.58
-4 0 4 3.23 0.6
4 0 -4 2.69 0.67
-4 0 4 2.76 0.64
4 1 -4 22.23 1.6
-4 -1 4 21.89 1.53
-4 -1 4 21.12 1.54
4 1 -4 23.31 1.86
4 1 -4 20.41 0.91
4 1 -4 22.61 1.69
4 1 -4 21.82 1.81
-4 -1 4 21.14 1.48
4 1 -4 23.39 1.7
-4 -1 4 21.74 1.78
4 2 -4 12.32 1.28
-4 -2 4 12.15 1.17
4 2 -4 13.73 1.14
-4 -2 4 15.03 1.23
4 2 -4 13.41 1.42
4 2 -4 13.32 1.36
4 2 -4 13.21 1.26
-4 -2 4 11.48 1.25
-4 -3 4 11.33 1.02
4 3 -4 11.38 1.2
4 3 -4 10.6 1.32
-4 -3 4 10.96 1.24
4 3 -4 10.99 1.09
-4 -3 4 11.01 1.13
-4 -4 4 2.31 0.33
-4 -4 4 2.28 0.48
4 4 -4 2.17 0.55
-4 -4 4 3.14 0.69
4 4 -4 1.67 0.44
4 4 -4 2.04 0.55
4 5 -4 1.03 0.45
-4 -5 4 1.51 0.49
4 5 -4 -0.07 0.62
4 6 -4 29.72 1.94
4 6 -4 29 2.3
-4 -6 4 33.02 2.3
4 7 -4 3.23 0.76
-4 -7 4 2.33 0.78
4 7 -4 1.82 0.68
4 8 -4 0.53 0.34
-4 -8 4 1.34 0.62
4 8 -4 0.57 0.47
4 9 -4 0.34 0.3
-4 -9 4 0.94 0.6
4 9 -4 -0.49 0.57
4 10 -4 0.04 0.42
-4 -10 4 -0.07 0.36
4 10 -4 -0.89 0.82
-4 9 3 1.23 0.87
4 -8 -3 3.29 1.06
4 -8 -3 2.74 0.94
-4 8 3 2.3 0.87
-4 8 3 4.06 1
4 -7 -3 1.9 0.79
-4 7 3 3.04 0.87
-4 7 3 2.75 0.72
4 -6 -3 9.14 1.51
-4 6 3 6.73 0.95
-4 6 3 9.24 1.36
-4 6 3 7.69 1.11
-4 5 3 18.71 1.6
-4 5 3 20.83 1.67
4 -5 -3 19.17 2.16
-4 5 3 18.05 1.88
4 -5 -3 17.7 1.11
-4 5 3 17.87 1.5
4 -5 -3 21.44 2.12
-4 4 3 14.37 1.48
-4 4 3 16.06 1.51
4 -4 -3 16.19 1.83
-4 4 3 16.62 1.38
-4 4 3 16.02 1.59
4 -4 -3 17.32 1.21
-4 4 3 17.47 1.46
4 -4 -3 17.33 1.46
4 -4 -3 17.49 1.84
4 -3 -3 13.77 1.21
-4 3 3 14.1 1.36
4 -3 -3 13.11 1.6
-4 3 3 13.86 1.37
4 -3 -3 14.48 1.25
-4 3 3 13.05 1.12
4 -3 -3 13.27 1.1
-4 3 3 13.27 1.23
4 -3 -3 11.95 1.33
-4 2 3 3.42 0.79
-4 2 3 2.66 0.36
-4 2 3 2.58 0.62
4 -2 -3 3.39 0.83
4 -2 -3 3.35 0.58
4 -2 -3 0.54 0.23
4 -2 -3 3.45 0.59
-4 2 3 2.53 0.62
-4 2 3 2.64 0.6
-4 2 3 3.77 0.69
-4 2 3 3.37 0.54
4 -2 -3 2.66 0.65
-4 1 3 4.96 0.88
-4 1 3 3.96 0.43
4 -1 -3 3.92 0.55
-4 1 3 4.17 0.83
4 -1 -3 4.8 0.68
4 -1 -3 4.41 0.69
4 -1 -3 4.02 0.73
-4 1 3 4 0.73
-4 1 3 3.63 0.61
-4 1 3 3.99 0.65
-4 1 3 4.61 0.57
4 -1 -3 4.01 0.71
4 0 -3 29.49 1.26
4 0 -3 35.32 1.83
-4 0 3 29.59 1.18
-4 0 3 32.1 1.91
4 0 -3 28.87 1.3
-4 0 3 32.68 1.75
4 0 -3 30.78 1.85
-4 0 3 32.28 1.29
4 0 -3 28.11 1.9
-4 0 3 31.5 1.8
-4 0 3 29.61 1.89
4 0 -3 32.29 1.9
-4 0 3 30.15 1.95
-4 -1 3 73.36 2.74
-4 -1 3 72.64 2
4 1 -3 75.58 2.77
4 1 -3 70.5 3.06
4 1 -3 68.66 1.78
4 1 -3 76.84 3.06
4 1 -3 72.83 3.16
-4 -1 3 67.25 2.62
-4 -1 3 68.95 2.57
4 1 -3 75.32 2.9
-4 -1 3 72.47 2.99
-4 -2 3 164.88 2.46
4 2 -3 191.75 4.79
-4 -2 3 182.7 4.84
-4 -2 3 198.24 4.55
4 2 -3 182.42 4.31
-4 -2 3 189.46 3.63
-4 -2 3 180.75 4.27
4 2 -3 195.72 5.19
-4 -2 3 190.67 4.35
-4 -2 3 182 4.83
4 2 -3 186.99 5.26
-4 -2 3 187.71 4.53
4 2 -3 184.93 4.6
4 3 -3 57.86 2.57
-4 -3 3 59.83 2.51
4 3 -3 60.38 2.89
-4 -3 3 64.76 2.26
4 3 -3 56.81 2.42
-4 -3 3 56.42 2.74
4 3 -3 67.11 3.04
-4 -3 3 59.5 2.4
-4 -3 3 55.87 1.48
-4 -3 3 58.88 2.62
4 4 -3 24.55 1.7
-4 -4 3 27.9 1.79
4 4 -3 25.21 1.94
-4 -4 3 26.77 1.64
-4 -4 3 24.28 1.35
-4 -4 3 23.67 1.9
4 4 -3 25.48 1.96
-4 -4 3 26.09 1.79
4 5 -3 2.65 0.6
4 5 -3 4.24 0.67
-4 -5 3 4.31 0.8
-4 -5 3 4.82 0.74
4 5 -3 3.1 0.67
-4 -5 3 4.15 0.74
4 6 -3 0.2 0.37
-4 -6 3 0.51 0.44
-4 -6 3 0.76 0.42
4 6 -3 -0.23 0.46
-4 -7 3 2.29 0.68
4 7 -3 2.08 0.5
-4 -7 3 1.23 0.25
-4 -7 3 2.88 0.61
4 7 -3 1.24 0.44
4 8 -3 9.69 1.6
4 8 -3 8.64 1
-4 -8 3 6.98 1.19
-4 -8 3 7.72 1.08
4 8 -3 8.12 1.26
4 9 -3 -0.05 0.24
-4 -9 3 0.84 0.52
4 9 -3 0.01 0.5
4 10 -3 0.64 0.71
4 10 -3 0.04 0.27
-4 -10 3 0.74 0.64
4 10 -3 -0.33 0.45
4 11 -3 -0.98 0.73
4 -8 -2 1.92 0.78
4 -8 -2 2.3 0.87
-4 8 2 0.6 0.41
-4 8 2 1.87 0.67
4 -7 -2 7.16 1.33
4 -7 -2 4.73 1.14
-4 7 2 4.19 0.94
-4 7 2 4.89 0.97
-4 6 2 2.13 0.54
4 -6 -2 2.63 0.88
4 -6 -2 3.24 0.94
-4 6 2 2.25 0.67
-4 6 2 2.45 0.75
-4 6 2 3 0.73
4 -5 -2 39.44 2.4
-4 5 2 33.58 2.34
-4 5 2 33.55 2.07
-4 5 2 38.62 2.27
-4 5 2 35.4 2.2
4 -5 -2 38.22 2.8
4 -4 -2 34.26 2.09
-4 4 2 31.42 1.9
-4 4 2 31.45 2.02
4 -4 -2 36.71 2.03
4 -4 -2 31.4 2.51
-4 4 2 34.82 2.2
-4 4 2 32.27 2.05
4 -4 -2 34.07 2.46
4 -4 -2 30.21 1.38
4 -3 -2 37.91 2.02
-4 3 2 53.17 2.3
4 -3 -2 49.73 2.4
-4 3 2 39.15 2.26
4 -3 -2 51.8 2.24
4 -3 -2 47.35 2.9
-4 3 2 49.75 2.41
-4 3 2 49.71 2.4
4 -3 -2 50.2 1.94
-4 3 2 49.53 2.49
4 -3 -2 52.47 2.83
-4 3 2 48.91 2.92
-4 2 2 64.53 2.25
-4 2 2 66.23 2.5
-4 2 2 69.35 3.15
4 -2 -2 69.25 2.38
4 -2 -2 66.83 2.32
-4 2 2 68 2.79
4 -2 -2 69.32 2.99
-4 2 2 67.05 3.16
4 -1 -2 210.98 3.93
4 -1 -2 217.92 4.44
4 -1 -2 221 4.12
-4 1 2 231.4 5.46
4 -1 -2 205.59 3.84
-4 1 2 205.82 3.65
-4 1 2 209.12 4.8
-4 1 2 225.46 4.36
4 -1 -2 211.09 4.85
-4 1 2 214.92 5.16
-4 0 2 9.34 0.9
-4 0 2 19.92 1.02
4 0 -2 19.86 1.25
-4 0 2 19.81 1.49
4 0 -2 18.75 1.1
4 0 -2 19.84 1.41
-4 0 2 19.87 1.15
4 0 -2 19.15 1.49
-4 0 2 19.5 1.46
4 0 -2 19.5 1.07
-4 0 2 18.35 1.05
4 0 -2 19.52 1.39
-4 0 2 18.72 1.44
-4 -1 2 53.04 1.52
4 1 -2 53.2 1.7
4 1 -2 50.75 2.09
-4 -1 2 53 1.44
-4 -1 2 52.92 1.82
-4 -1 2 55.77 2.07
-4 -1 2 51.35 2.22
4 1 -2 58.07 2.5
4 1 -2 49.81 1.54
-4 -1 2 56.99 2.07
4 1 -2 52.81 2.52
-4 -1 2 51.22 2.32
4 1 -2 52.97 2.21
-4 -1 2 49.46 2.26
-4 -2 2 102.13 1.65
-4 -2 2 106.62 3.07
-4 -2 2 107.51 2.79
-4 -2 2 103.32 2.97
-4 -2 2 101.22 2.31
4 2 -2 105.76 3.2
4 2 -2 109.15 3.63
-4 -2 2 99.64 3.31
4 2 -2 106.45 3.72
4 2 -2 103.89 3.1
4 2 -2 103.89 3.09
-4 -2 2 104.82 3.28
4 3 -2 235.83 5.26
-4 -3 2 222.99 4.18
4 3 -2 223.73 5.73
-4 -3 2 222.48 5.58
4 3 -2 232.92 5.86
-4 -3 2 227.12 5.15
-4 -3 2 220.13 4.51
4 4 -2 27.56 1.76
-4 -4 2 27.12 1.3
4 4 -2 26.07 1.88
-4 -4 2 27.33 1.96
4 4 -2 26.24 1.89
-4 -4 2 27.14 1.64
4 5 -2 5.13 0.89
4 5 -2 4.89 0.82
-4 -5 2 4.37 0.74
4 5 -2 5.79 0.97
-4 -5 2 4.84 0.76
4 5 -2 4.92 0.86
-4 -5 2 4.31 0.89
-4 -5 2 4.62 0.7
-4 -6 2 1.03 0.23
-4 -6 2 0.73 0.37
4 6 -2 0.22 0.31
-4 -6 2 0.93 0.4
4 6 -2 0.32 0.41
4 6 -2 1.38 0.56
-4 -7 2 5.26 0.92
-4 -7 2 6.37 0.59
-4 -7 2 5.68 0.87
4 7 -2 6.3 1.01
4 7 -2 6.25 1.22
4 8 -2 1.44 0.41
-4 -8 2 0.53 0.47
-4 -8 2 1.55 0.49
4 8 -2 1.06 0.47
4 8 -2 1.15 0.57
-4 -8 2 1.45 0.34
-4 -9 2 -0.44 0.54
-4 -9 2 0.46 0.39
4 9 -2 -1.28 0.62
4 9 -2 0.27 0.28
4 9 -2 0.32 0.54
-4 -10 2 -0.59 0.69
-4 -10 2 0.15 0.43
4 10 -2 0.39 0.28
4 10 -2 -0.41 0.47
4 10 -2 0.29 0.72
-4 -11 2 0.41 0.5
4 11 -2 0.42 0.44
4 11 -2 0.9 0.85
4 12 -2 0.56 0.63
4 -8 -1 0.09 0.42
-4 8 1 -0.12 0.47
-4 8 1 -0.47 0.45
4 -7 -1 2.05 0.74
4 -7 -1 0.69 0.43
-4 7 1 0.85 0.43
4 -7 -1 1.38 0.77
-4 7 1 1.98 0.69
4 -6 -1 10.35 1.37
-4 6 1 8.27 1
4 -6 -1 8.44 1.12
4 -6 -1 9.6 1.48
-4 6 1 8.84 1.25
-4 6 1 9.25 1.19
4 -5 -1 8.19 1.32
4 -5 -1 7.22 1.13
4 -5 -1 5.45 0.89
-4 5 1 5.89 0.85
-4 5 1 5.33 0.91
-4 5 1 5.87 0.95
4 -5 -1 5.55 0.82
-4 5 1 7.48 1
-4 4 1 15.23 1.3
4 -4 -1 15.65 1.24
-4 4 1 15.06 1.34
4 -4 -1 16.88 1.46
-4 4 1 15.96 1.39
4 -4 -1 15.2 1.4
-4 4 1 15.73 1.48
4 -4 -1 15.57 1.67
4 -3 -1 36.08 1.73
4 -3 -1 33.65 1.9
-4 3 1 35.55 1.88
4 -3 -1 34.82 2
-4 3 1 37.13 1.9
-4 3 1 35.21 2.12
-4 3 1 36.53 2.45
4 -3 -1 31.95 1.96
4 -3 -1 35.6 2.23
-4 3 1 32.95 2.29
4 -2 -1 43.8 2.2
4 -2 -1 46.58 1.78
-4 2 1 44.06 1.92
-4 2 1 44.63 1.9
4 -2 -1 44.49 1.72
-4 2 1 47.02 2.58
-4 2 1 44.8 2.28
4 -2 -1 44.72 2.31
-4 2 1 46.13 2.46
4 -1 -1 10.74 1.07
4 -1 -1 11.13 0.98
-4 1 1 12.03 1.22
-4 1 1 10.89 0.87
-4 1 1 10.94 0.87
4 -1 -1 9.91 0.87
4 -1 -1 10.31 0.89
-4 1 1 11.64 0.75
-4 1 1 10.92 1.11
4 -1 -1 11.57 0.85
4 -1 -1 11.74 1.08
-4 1 1 10.88 1.1
4 0 -1 143.23 3.47
-4 0 1 143.35 3.25
4 0 -1 134.79 3.18
-4 0 1 136.38 3.06
-4 0 1 142.52 4.08
4 0 -1 137.26 3.15
4 0 -1 135.81 3.69
-4 0 1 134.75 3.16
-4 0 1 136.77 3.09
-4 0 1 140.63 4.1
4 0 -1 141.17 3.68
-4 0 1 135.37 3.8
4 1 -1 0.88 0.25
-4 -1 1 0.55 0.27
-4 -1 1 0.94 0.31
4 1 -1 0.74 0.27
-4 -1 1 0.98 0.21
4 1 -1 1.14 0.42
4 1 -1 0.85 0.36
-4 -1 1 1.82 0.36
-4 -1 1 0.58 0.22
-4 -1 1 1.14 0.35
4 1 -1 1.28 0.48
4 1 -1 0.98 0.34
-4 -1 1 0.72 0.25
4 1 -1 0.62 0.22
4 2 -1 81.14 2.56
-4 -2 1 83.09 2.33
-4 -2 1 88.09 2.54
-4 -2 1 82.15 2.52
-4 -2 1 81.89 2.5
4 2 -1 79.82 2.7
-4 -2 1 85.1 1.71
4 2 -1 85.81 3.07
-4 -2 1 78.26 2.75
4 2 -1 83.5 3.08
4 2 -1 81.87 2.44
-4 -2 1 82.07 2.57
-4 -3 1 5.16 0.61
4 3 -1 5.28 0.72
-4 -3 1 5.2 0.63
-4 -3 1 5.5 0.57
4 3 -1 6.05 0.72
-4 -3 1 5.39 0.69
-4 -3 1 4.73 0.31
4 3 -1 4.59 0.74
4 3 -1 5.3 0.79
-4 -3 1 5.8 0.68
-4 -3 1 5.99 0.8
-4 -4 1 53.82 1.11
-4 -4 1 58.62 2.17
-4 -4 1 54.07 1.66
4 4 -1 55.78 1.97
4 4 -1 59.21 2.54
4 4 -1 53.89 2.64
-4 -4 1 54.62 2.76
4 4 -1 56.27 2.62
-4 -4 1 54.15 2.11
4 5 -1 30.17 1.91
-4 -5 1 27.79 0.94
4 5 -1 28.38 1.36
-4 -5 1 30.46 1.89
-4 -5 1 28.43 2.14
4 5 -1 28.34 1.88
-4 -6 1 2.43 0.36
4 6 -1 1.91 0.55
4 6 -1 2.46 0.44
-4 -6 1 1.54 0.45
4 6 -1 1.33 0.55
-4 -6 1 2.34 0.76
4 6 -1 2.6 0.66
-4 -7 1 1.15 0.29
4 7 -1 1.01 0.26
-4 -7 1 1.96 0.53
4 7 -1 0.89 0.42
4 7 -1 1.3 0.6
-4 -8 1 1.79 0.42
-4 -8 1 1.05 0.47
4 8 -1 1.01 0.47
4 8 -1 1.47 0.68
-4 -9 1 5.77 0.92
-4 -9 1 6.75 0.87
4 9 -1 3.9 0.85
4 9 -1 5.3 1.24
4 10 -1 0.95 0.35
-4 -10 1 0.38 0.29
4 10 -1 1.3 0.54
4 10 -1 1.32 0.76
-4 -11 1 0.85 0.48
4 11 -1 0.95 0.58
4 11 -1 0.98 0.66
4 -8 0 7.48 1.52
4 -8 0 6.54 1.39
4 -8 0 4.76 0.98
-4 8 0 6.33 1.16
-4 8 0 7.57 1.23
4 -7 0 5.42 1.12
4 -7 0 3.61 1.09
4 -7 0 4 0.84
-4 7 0 3.84 0.87
-4 7 0 3.83 0.86
4 -6 0 22.56 1.7
4 -6 0 23.31 1.95
-4 6 0 23.14 1.9
4 -6 0 25.98 2.19
-4 6 0 21.66 1.83
4 -6 0 24.84 2.33
4 -5 0 7.23 1.18
4 -5 0 8.46 1.23
-4 5 0 6.08 0.91
-4 5 0 7.51 0.94
4 -5 0 6.9 1
-4 5 0 5.74 0.86
4 -5 0 6.36 0.81
-4 4 0 0.97 0.4
4 -4 0 1.36 0.52
-4 4 0 0.28 0.22
4 -4 0 0.07 0.38
-4 4 0 0.7 0.33
4 -4 0 0.43 0.24
4 -4 0 0.56 0.48
4 -3 0 12.22 1.21
4 -3 0 12.38 0.94
-4 3 0 12.39 1.11
4 -3 0 11.98 1.15
-4 3 0 11.4 1.44
4 -3 0 12.18 1.24
-4 3 0 11.8 0.98
4 -3 0 12.48 1.32
4 -2 0 335.62 6.1
4 -2 0 361.6 4.38
-4 2 0 356.88 5.51
-4 2 0 348.72 4.84
-4 2 0 352.23 4.65
-4 2 0 370.24 7.27
-4 2 0 344.56 3.26
4 -2 0 350.07 6.32
-4 2 0 341.28 6.46
4 -1 0 102.26 3.18
4 -1 0 100.39 3.32
-4 1 0 99.84 2.52
-4 1 0 100.61 2.47
-4 1 0 102.66 3.7
-4 1 0 99.91 2.88
4 -1 0 98.05 2.95
4 -1 0 102.15 2.37
-4 1 0 103.85 3.6
4 -1 0 99.64 3.12
-4 1 0 94.37 3.19
4 0 0 8.34 0.85
4 0 0 7.57 0.89
-4 0 0 7.66 0.71
-4 0 0 7.25 0.6
4 0 0 6.91 0.56
-4 0 0 7.7 0.93
4 0 0 7.31 0.9
-4 0 0 7.31 0.73
-4 0 0 7.01 0.71
4 0 0 7.38 0.72
4 0 0 7.18 0.72
-4 0 0 9.06 0.87
4 1 0 -0.2 0.17
-4 -1 0 -0.1 0.16
4 1 0 0.21 0.27
4 1 0 -0.53 0.41
4 1 0 0.2 0.18
-4 -1 0 0.23 0.25
4 1 0 0.33 0.29
-4 -1 0 0.15 0.13
-4 -1 0 -0.12 0.25
4 1 0 0.71 0.4
4 1 0 -0.17 0.19
-4 -1 0 0.29 0.21
-4 -1 0 0.22 0.21
-4 -1 0 -0.1 0.24
-4 -2 0 16.92 1.11
-4 -2 0 18.52 1.02
4 2 0 16.44 1.1
-4 -2 0 16.92 1.17
-4 -2 0 17.17 1.06
-4 -2 0 19.4 0.92
-4 -2 0 17.65 1.18
4 2 0 17.42 1.39
4 2 0 17.34 0.93
-4 -2 0 18.13 1
-4 -3 0 15.27 1.13
4 3 0 16.16 1.22
-4 -3 0 14.94 0.84
4 3 0 14.15 0.95
-4 -3 0 16.48 1.08
-4 -3 0 15.78 1.27
4 3 0 16.6 1.22
4 3 0 13.51 1.17
-4 -3 0 15.49 0.79
-4 -3 0 15.42 1.09
-4 -3 0 16.75 0.98
-4 -3 0 16.68 1.17
4 4 0 0.42 0.23
-4 -4 0 0.74 0.29
-4 -4 0 0.44 0.17
4 4 0 1.04 0.27
4 4 0 0.73 0.36
-4 -4 0 0.39 0.3
4 5 0 -0.04 0.25
4 5 0 0.3 0.19
-4 -5 0 0.24 0.24
4 5 0 0.19 0.28
-4 -5 0 0.05 0.12
-4 -5 0 -0.34 0.4
-4 -6 0 10.73 0.77
4 6 0 12.56 0.75
-4 -6 0 12.32 1.34
4 6 0 12.32 1.41
4 6 0 12.11 1.24
4 6 0 12.34 1.33
-4 -6 0 12.53 1.48
-4 -7 0 6.92 0.71
4 7 0 6.52 0.56
-4 -7 0 8.09 1.08
4 7 0 6.76 0.98
4 7 0 6.89 1.21
-4 -8 0 0.58 0.28
4 8 0 0.33 0.2
-4 -8 0 1.02 0.47
4 8 0 1.52 0.65
4 8 0 0.49 0.56
4 9 0 0.54 0.26
-4 -9 0 0.7 0.34
-4 -9 0 -0.14 0.37
4 9 0 0.06 0.47
4 9 0 -0.35 0.52
-4 -10 0 0.44 0.36
4 10 0 0.17 0.32
4 10 0 -0.14 0.47
-4 -11 0 -0.21 0.4
4 11 0 0.47 0.4
4 11 0 0.7 0.65
4 -8 1 4.36 1.18
4 -8 1 4.17 0.95
4 -8 1 4.86 1.31
-4 8 -1 3.23 0.88
-4 7 -1 0.55 0.44
4 -7 1 1.41 0.73
4 -7 1 1.01 0.48
4 -7 1 0.8 0.51
-4 7 -1 0.87 0.41
4 -6 1 3.66 1.05
-4 6 -1 3.57 0.83
4 -6 1 4.18 0.98
4 -6 1 2.58 0.64
-4 6 -1 4.03 0.79
4 -6 1 3.86 0.69
-4 5 -1 138.37 4.54
4 -5 1 123.49 4.49
4 -5 1 120.77 3.61
-4 5 -1 117.2 3.88
4 -5 1 119.9 4.9
4 -5 1 128.14 4.77
4 -4 1 1.06 0.39
-4 4 -1 1.85 0.55
-4 4 -1 1.57 0.47
4 -4 1 1.65 0.56
-4 4 -1 1.11 0.31
4 -4 1 0.74 0.3
4 -4 1 1.29 0.59
4 -3 1 135.82 4.33
-4 3 -1 124.67 3.86
4 -3 1 139.96 3.23
4 -3 1 156.77 4.64
-4 3 -1 150.82 4.21
-4 3 -1 134.39 5.33
4 -3 1 145.25 4.39
-4 3 -1 132.19 3.25
-4 3 -1 146.67 2.02
4 -3 1 131.12 4.56
4 -2 1 13.53 1.28
-4 2 -1 14.5 1.46
-4 2 -1 16.13 1.2
-4 2 -1 14.46 0.81
-4 2 -1 15 0.8
4 -2 1 15.26 0.81
4 -2 1 13.96 1.24
-4 1 -1 52.55 2.13
4 -1 1 53.41 1.37
4 -1 1 53.63 2.41
-4 1 -1 51.73 2.55
-4 1 -1 49.99 1.46
-4 1 -1 51.75 1.35
-4 1 -1 50.15 1.78
-4 1 -1 52.41 2.08
4 -1 1 52.25 2.14
-4 1 -1 50.74 2.17
4 0 1 197.53 4.62
-4 0 -1 191.78 4.07
-4 0 -1 190.15 3.01
-4 0 -1 191.16 4.84
-4 0 -1 191.8 4.14
-4 0 -1 180.04 3.04
4 0 1 194.8 4.22
4 0 1 187.24 4.65
4 0 1 187.05 3.82
-4 0 -1 181.21 3.92
-4 0 -1 182.12 4.15
4 0 1 182.85 2.98
-4 -1 -1 549.13 8.62
-4 -1 -1 530.42 6.92
-4 -1 -1 581.26 8.07
-4 -1 -1 539.13 7.48
-4 -1 -1 544.58 8.76
4 1 1 551.55 8.9
4 1 1 547.31 7.96
4 1 1 537.19 7.28
-4 -1 -1 539.45 7.53
4 1 1 552.67 8.72
-4 -2 -1 221.59 3.96
4 2 1 226.49 4.83
-4 -2 -1 233.91 5.04
-4 -2 -1 227.73 4.38
4 2 1 227.5 4.49
4 2 1 237.11 4.91
-4 -2 -1 230.05 4.61
4 2 1 238.78 4.4
-4 -2 -1 244.4 4.35
4 2 1 223.82 3.47
-4 -2 -1 218.07 3.66
-4 -2 -1 225.62 4.82
-4 -3 -1 0.81 0.21
-4 -3 -1 1.25 0.42
-4 -3 -1 0.87 0.35
4 3 1 0.96 0.25
4 3 1 0.92 0.36
-4 -3 -1 0.66 0.35
-4 -3 -1 0.82 0.35
-4 -3 -1 1.11 0.25
4 3 1 0.89 0.34
-4 -4 -1 0.63 0.35
-4 -4 -1 7.17 0.46
4 4 1 7.85 1.41
4 4 1 0.56 0.26
4 4 1 1.9 0.57
-4 -4 -1 1.23 0.58
-4 -4 -1 1.36 0.51
4 5 1 15.35 1.4
4 5 1 13.96 0.7
-4 -5 -1 6.5 0.82
4 5 1 9.25 1.04
-4 -5 -1 12 1.01
-4 -5 -1 3.67 0.91
-4 -6 -1 2.78 0.53
4 6 1 4.52 0.86
-4 -6 -1 2.25 0.45
-4 -6 -1 1.56 0.45
4 6 1 1.23 0.2
-4 -6 -1 2.12 0.61
4 6 1 2.32 0.56
-4 -6 -1 1.54 0.65
4 6 1 2.59 0.72
-4 -7 -1 9.13 0.82
-4 -7 -1 9.85 0.89
4 7 1 10.83 0.56
-4 -7 -1 10.38 1.29
4 7 1 10.19 1.43
4 7 1 10.33 1.13
-4 -8 -1 19.58 1.38
4 8 1 16.96 0.83
4 8 1 16.14 0.96
-4 -8 -1 16.77 1.63
4 8 1 21.54 2.13
4 8 1 19 1.59
4 9 1 4.54 0.43
4 9 1 4.11 0.55
4 9 1 5.29 0.9
-4 -9 -1 4.34 0.89
4 9 1 4.12 1.09
-4 -10 -1 1.55 0.63
4 10 1 2 0.69
4 10 1 0.42 0.51
-4 -11 -1 -0.36 0.43
4 11 1 0.21 0.4
4 11 1 0.35 0.52
-4 -11 -1 -0.22 0.55
-4 -12 -1 -0.35 0.77
-4 8 -2 0.85 0.54
4 -8 2 2.24 0.85
4 -8 2 0.56 0.49
4 -8 2 0.98 0.76
4 -7 2 10.05 1.57
4 -7 2 8.3 1.5
-4 7 -2 10.02 1.32
4 -7 2 9.48 1.35
-4 7 -2 8.13 1.08
-4 6 -2 3.83 0.92
4 -6 2 3.08 0.86
4 -6 2 3.42 0.93
4 -6 2 3.22 0.88
-4 6 -2 2.94 0.65
4 -6 2 3.58 0.66
4 -5 2 121.43 4.74
4 -5 2 118.58 4.49
-4 5 -2 115.95 4.27
4 -5 2 104.49 3.26
-4 5 -2 119.96 3.58
4 -5 2 119.83 4.91
4 -4 2 118.56 4.33
-4 4 -2 123.71 4.07
4 -4 2 117.3 4.24
4 -4 2 110.32 2.96
-4 4 -2 115.52 3.1
4 -4 2 116.03 4.46
4 -3 2 12.21 1.27
4 -3 2 14.87 1.41
-4 3 -2 14.55 1.23
-4 3 -2 15.75 1.61
-4 3 -2 14.32 1.27
-4 3 -2 12.11 0.65
4 -3 2 14.85 1.42
-4 3 -2 14.11 0.83
4 -3 2 14.07 1.39
4 -3 2 14.56 0.85
4 -2 2 6.52 0.43
4 -2 2 6.54 0.92
4 -2 2 5.27 0.78
-4 2 -2 8.45 0.9
-4 2 -2 6.09 0.94
-4 2 -2 5.71 0.37
-4 1 -2 39.47 2.24
-4 1 -2 40.21 1.87
4 -1 2 37.17 0.82
-4 1 -2 40.38 1.95
4 -1 2 38.52 2.08
4 -1 2 39.85 1.81
4 0 2 142.59 3.97
-4 0 -2 131.67 3.63
-4 0 -2 133.03 3.95
-4 0 -2 140.6 3.56
4 0 2 137.08 3.06
-4 -1 -2 2.84 0.25
4 1 2 3.82 0.63
-4 -1 -2 2.73 0.46
-4 -1 -2 2.5 0.5
-4 -1 -2 2.63 0.46
4 1 2 3.49 0.34
-4 -1 -2 2.86 0.33
4 1 2 2.98 0.31
4 2 2 29.56 1.59
-4 -2 -2 28.79 1.56
-4 -2 -2 27.3 1.33
-4 -2 -2 26.64 1.31
4 2 2 28.78 1.29
-4 -2 -2 30.48 1.46
-4 -2 -2 29.09 1.63
-4 -2 -2 24.77 0.71
-4 -3 -2 159.87 3.85
-4 -3 -2 149.65 2.88
-4 -3 -2 155.72 3.89
4 3 2 156.44 3.84
-4 -3 -2 153.86 4.16
-4 -3 -2 154.75 4.03
4 3 2 152.2 3.66
-4 -3 -2 145.73 2.29
-4 -4 -2 442.45 8.36
4 4 2 460.46 8.46
4 4 2 457.19 8.05
-4 -4 -2 447.2 7.77
-4 -5 -2 116.73 3.12
4 5 2 117.26 3.81
-4 -5 -2 118.83 4.12
4 5 2 116.86 3.57
-4 -5 -2 119.53 3.29
-4 -6 -2 20.5 1.22
-4 -6 -2 20.62 1.42
4 6 2 20.48 1.64
-4 -6 -2 22.03 1.87
4 6 2 18.83 1.75
4 6 2 20.68 1.45
-4 -6 -2 19.08 1.15
-4 -6 -2 20.18 1.2
4 7 2 22.18 1.81
-4 -7 -2 22.02 1.51
-4 -7 -2 22.32 1.39
4 7 2 23.68 2.18
-4 -7 -2 19.9 1.15
4 7 2 20.85 1.49
-4 -8 -2 1.99 0.36
-4 -8 -2 1.6 0.6
4 8 2 1.7 0.47
4 8 2 2.52 0.76
-4 -8 -2 1.63 0.43
-4 -9 -2 4.03 0.92
4 9 2 2.83 0.28
-4 -9 -2 2.81 0.42
4 9 2 2.11 0.28
-4 -9 -2 2.96 0.76
4 9 2 2.5 0.61
4 9 2 2.86 0.97
-4 -10 -2 1.14 0.63
-4 -10 -2 -0.02 0.27
4 10 2 0.4 0.36
4 10 2 -0.04 0.56
-4 -11 -2 4.15 1.11
-4 -11 -2 3.81 0.97
4 11 2 3.93 1.3
-4 -12 -2 0.63 0.69
4 -8 3 2.41 1.11
4 -8 3 1.33 0.78
4 -8 3 2.04 0.79
-4 8 -3 1.27 0.89
4 -7 3 -0.91 0.62
-4 7 -3 0.89 0.62
4 -7 3 0.78 0.64
4 -7 3 0.76 0.65
-4 7 -3 0.74 0.42
4 -6 3 2.89 0.87
-4 6 -3 3.16 0.77
4 -6 3 1.57 0.63
4 -6 3 2.53 0.79
4 -6 3 1.65 0.45
-4 6 -3 2.52 0.6
4 -5 3 1.12 0.47
4 -5 3 1.54 0.67
-4 5 -3 1.21 0.41
4 -5 3 1.45 0.4
-4 5 -3 1.35 0.38
4 -5 3 0.99 0.32
4 -5 3 1.58 0.61
4 -4 3 1.06 0.41
4 -4 3 1.06 0.35
-4 4 -3 1.29 0.19
-4 4 -3 0.67 0.39
4 -4 3 1.66 0.32
4 -4 3 2.36 0.62
4 -4 3 1.62 0.31
-4 4 -3 1.51 0.31
4 -3 3 32.69 2.18
4 -3 3 32.16 2.08
4 -3 3 30.69 1.18
-4 3 -3 34.45 1.99
4 -3 3 30.16 1.08
4 -3 3 33.77 2.19
4 -3 3 32.57 2.11
4 -2 3 213.96 3.02
4 -2 3 229.41 5.67
4 -2 3 207.77 2.98
-4 2 -3 233.96 5.35
4 -2 3 226.99 5.37
-4 1 -3 72.19 2.71
4 -1 3 75.65 2.95
4 -1 3 73.31 2.53
-4 1 -3 73.06 2.81
-4 0 -3 8.49 0.89
4 0 3 8.32 0.94
-4 0 -3 8.46 0.85
4 0 3 7.36 0.66
-4 -1 -3 5.7 0.78
-4 -1 -3 4.53 0.3
4 1 3 5.3 0.75
4 1 3 5.77 0.45
-4 -1 -3 6.12 0.77
4 1 3 4.49 0.36
-4 -2 -3 64.24 2.63
4 2 3 65.06 2.45
-4 -2 -3 63.03 2.25
-4 -2 -3 63.3 1.95
4 2 3 62.83 2.02
-4 -3 -3 1.55 0.5
4 3 3 1.68 0.45
-4 -3 -3 1.74 0.37
-4 -3 -3 1.33 0.35
-4 -3 -3 1.65 0.4
4 3 3 1.21 0.33
-4 -4 -3 525.33 9.34
4 4 3 508.47 7.84
-4 -4 -3 511.02 7.79
-4 -4 -3 527.74 9.04
4 4 3 528.23 9.19
-4 -4 -3 526.63 8.53
-4 -4 -3 527.94 6.92
-4 -5 -3 304.42 4.17
-4 -5 -3 334.42 6.53
-4 -5 -3 313.7 4.78
-4 -5 -3 316.19 4.58
-4 -6 -3 9.36 0.96
-4 -6 -3 8.62 0.68
4 6 3 9.68 1.12
-4 -6 -3 11.03 1.3
-4 -6 -3 8.64 0.74
4 6 3 9.19 1.22
-4 -6 -3 8.9 0.95
-4 -7 -3 0.03 0.26
4 7 3 0.19 0.23
-4 -7 -3 0.11 0.14
-4 -7 -3 0.53 0.33
4 7 3 -0.11 0.27
-4 -7 -3 0.06 0.27
4 7 3 0.39 0.44
-4 -8 -3 0.22 0.1
-4 -8 -3 0.13 0.33
4 8 3 0.08 0.27
4 8 3 0.53 0.5
-4 -9 -3 2.48 0.78
-4 -9 -3 1.08 0.46
4 9 3 1.44 0.44
4 9 3 2.06 0.88
-4 -10 -3 0.9 0.53
-4 -10 -3 0.31 0.33
4 10 3 0.55 0.33
-4 -11 -3 1.74 0.67
-4 -11 -3 0.03 0.3
4 11 3 1.29 0.94
-4 -12 -3 1.75 0.84
4 -9 4 1.15 0.65
4 -8 4 -0.66 0.69
4 -8 4 0.82 0.72
4 -8 4 0.3 0.58
-4 8 -4 0.68 0.48
4 -7 4 2.23 0.83
4 -7 4 3.63 1.09
-4 7 -4 2.99 0.8
4 -7 4 3.82 1.01
4 -6 4 2.84 0.86
-4 6 -4 2.69 0.7
4 -6 4 3.29 0.85
4 -6 4 2.71 0.81
4 -5 4 0.15 0.56
4 -5 4 0.97 0.5
-4 5 -4 1.24 0.43
-4 5 -4 1.08 0.2
4 -5 4 0.42 0.42
4 -5 4 1.02 0.32
4 -4 4 4.89 0.54
4 -4 4 4.42 0.83
4 -4 4 3.84 0.81
-4 4 -4 5.01 0.81
4 -4 4 5.03 0.57
4 -3 4 0.69 0.36
4 -3 4 0.26 0.12
4 -3 4 0.33 0.14
-4 3 -4 0.69 0.41
4 -3 4 0.41 0.34
-4 2 -4 3.36 0.67
4 -2 4 3.56 0.7
4 -2 4 2.86 0.27
4 -2 4 4.39 0.79
4 -2 4 4.57 0.85
4 -2 4 3.3 0.25
-4 1 -4 113.89 3.69
4 -1 4 111.94 3.75
-4 1 -4 114.72 3.7
-4 0 -4 1.36 0.35
-4 0 -4 1.98 0.48
4 0 4 1.85 0.22
4 0 4 2.18 0.58
-4 -1 -4 305.16 6.51
-4 -1 -4 286.14 3.86
4 1 4 312.15 6.22
4 1 4 294.67 4.63
-4 -1 -4 315.64 6.3
-4 -2 -4 0.81 0.3
4 2 4 0.45 0.3
-4 -2 -4 1.29 0.38
4 2 4 0.85 0.29
-4 -2 -4 0.59 0.19
4 3 4 2.17 0.43
-4 -3 -4 2.04 0.35
-4 -3 -4 1.95 0.42
4 3 4 3.13 0.61
-4 -3 -4 2.67 0.61
-4 -3 -4 2.48 0.42
-4 -4 -4 131.25 2.91
-4 -4 -4 124.24 4.17
-4 -4 -4 117.45 2.02
-4 -4 -4 124.15 3.82
-4 -4 -4 121.2 3.48
4 4 4 120.32 3.15
-4 -4 -4 124.2 2.35
4 5 4 8.52 0.7
-4 -5 -4 0.13 0.16
-4 -5 -4 7.61 0.59
-4 -5 -4 8.6 1.1
-4 -5 -4 8.77 0.81
4 5 4 0.27 0.29
-4 -5 -4 9.34 0.77
-4 -6 -4 3.58 0.6
-4 -6 -4 3.22 0.56
-4 -6 -4 3.88 0.76
-4 -6 -4 2.95 0.43
4 6 4 4.11 0.84
-4 -7 -4 20.12 1.45
-4 -7 -4 15.91 1.3
4 7 4 18.39 1.89
-4 -7 -4 17.7 0.92
-4 -7 -4 16.07 1.42
4 7 4 17.6 1.61
-4 -8 -4 8.4 0.97
4 8 4 8.09 1.39
-4 -8 -4 8.95 1.2
-4 -9 -4 0.38 0.38
4 9 4 1.04 0.57
-4 -10 -4 -0.81 0.56
4 10 4 -0.32 0.53
-4 -11 -4 -0.18 0.41
-4 -11 -4 0.06 0.36
4 11 4 -0.26 0.6
-4 -12 -4 0.89 0.61
4 -9 5 0.94 0.81
4 -8 5 -0.23 0.7
-4 8 -5 0.93 0.62
4 -8 5 -0.38 0.55
4 -7 5 0.6 0.52
-4 7 -5 0.9 0.54
4 -7 5 -0.35 0.6
4 -7 5 0.25 0.49
4 -6 5 1.88 0.63
4 -6 5 1.28 0.51
4 -6 5 0.4 0.26
4 -5 5 9.85 1.47
4 -5 5 9.01 1.31
-4 5 -5 11.28 1.35
4 -4 5 13.22 1.64
4 -4 5 12.05 0.82
4 -4 5 12.76 1.47
-4 4 -5 12.46 1.38
4 -4 5 12.08 0.97
4 -3 5 6.55 1.1
4 -3 5 6.12 0.63
4 -3 5 7.29 0.53
4 -3 5 5.7 0.98
-4 3 -5 6.43 0.95
-4 2 -5 9.29 1.1
4 -2 5 8.56 0.48
4 -2 5 7.36 0.99
-4 2 -5 8.15 1.02
4 -2 5 8.44 0.66
4 -2 5 8.68 1.21
-4 1 -5 54.12 2.59
4 -1 5 49.4 2.52
4 -1 5 45.34 1.11
4 -1 5 51.58 2.75
-4 1 -5 51.08 2.57
4 -1 5 48.78 1.47
-4 0 -5 20.77 0.73
-4 0 -5 20.67 1.58
4 0 5 23.08 1.64
4 0 5 23.78 1.81
4 0 5 21.29 0.99
-4 0 -5 22.57 1.65
4 1 5 20.97 1.64
-4 -1 -5 21.21 0.83
-4 -1 -5 20.94 1.62
4 1 5 22.09 1.52
4 1 5 21.7 1.17
-4 -1 -5 20.3 1.53
4 1 5 21.15 0.94
-4 -2 -5 0.24 0.26
4 2 5 -0.04 0.3
4 2 5 0.09 0.17
-4 -2 -5 -0.09 0.12
4 2 5 0.12 0.24
4 2 5 -0.11 0.12
-4 -3 -5 2.8 0.66
-4 -3 -5 2.26 0.31
4 3 5 2.98 0.47
4 3 5 2.61 0.53
4 3 5 2.7 0.31
-4 -3 -5 2.01 0.4
4 4 5 2.1 0.42
-4 -4 -5 1.96 0.28
-4 -4 -5 1.82 0.55
-4 -4 -5 2.34 0.48
-4 -4 -5 1.93 0.27
-4 -5 -5 0.08 0.18
4 5 5 0.35 0.2
-4 -5 -5 0.04 0.12
-4 -5 -5 0.3 0.24
-4 -5 -5 0.14 0.16
4 5 5 -0.17 0.41
-4 -5 -5 -0.07 0.25
-4 -5 -5 0.08 0.15
-4 -6 -5 4.94 0.68
-4 -6 -5 4.47 0.69
-4 -6 -5 3.72 0.41
-4 -6 -5 4.79 0.91
-4 -6 -5 4.44 0.52
4 6 5 5.17 0.98
4 6 5 5.3 0.49
-4 -6 -5 4.98 0.85
-4 -7 -5 0.19 0.32
-4 -7 -5 0.32 0.29
4 7 5 -0.28 0.45
-4 -7 -5 0.17 0.16
-4 -8 -5 -0.35 0.34
-4 -8 -5 0.78 0.54
4 8 5 0.92 0.61
-4 -9 -5 1.65 0.67
4 9 5 0.73 0.64
-4 -10 -5 0.08 0.38
4 10 5 0.15 0.49
-4 -11 -5 -0.5 0.55
4 11 5 0.29 0.62
-4 -12 -5 0.35 0.59
4 -8 6 -0.3 0.51
4 -7 6 0.82 0.67
4 -7 6 -0.56 0.78
-4 7 -6 -0.53 0.53
4 -6 6 0.91 0.65
4 -6 6 0.01 0.43
-4 6 -6 0.5 0.47
4 -5 6 0.27 0.48
-4 5 -6 0.28 0.4
4 -5 6 -0.05 0.57
4 -4 6 5.93 1.08
4 -4 6 5.39 0.74
-4 4 -6 6.22 0.98
4 -4 6 7.43 1.28
4 -4 6 5.41 0.57
-4 3 -6 8.18 1.08
4 -3 6 7.22 1.21
4 -3 6 8.73 0.64
4 -3 6 9.05 1.22
4 -3 6 8.57 0.85
4 -2 6 1.04 0.59
-4 2 -6 1.27 0.47
4 -2 6 1.79 0.29
4 -2 6 1.86 0.39
4 -2 6 1.61 0.53
-4 1 -6 5.54 0.85
4 -1 6 5.1 0.9
4 -1 6 4.57 0.43
4 -1 6 4.92 0.84
4 -1 6 4.79 0.57
-4 1 -6 5.12 0.82
-4 0 -6 83.13 3.36
-4 0 -6 77.55 1.9
4 0 6 76.4 3.4
4 0 6 78.48 3.18
4 0 6 71.62 1.99
-4 0 -6 85.36 3.4
-4 -1 -6 11.58 1.26
4 1 6 10.87 1.23
4 1 6 14.14 1.27
4 1 6 12.09 0.98
-4 -1 -6 11.77 0.74
-4 -1 -6 11.41 1.21
4 1 6 11.3 0.82
4 2 6 0.33 0.33
4 2 6 1.1 0.39
4 2 6 0.91 0.36
-4 -2 -6 0.96 0.26
-4 -2 -6 0.34 0.27
4 2 6 0.66 0.19
4 3 6 2.83 0.42
-4 -3 -6 2.49 0.39
4 3 6 2.68 0.53
-4 -3 -6 2.34 0.61
-4 -3 -6 2.6 0.49
-4 -4 -6 31.59 2.27
4 4 6 30.95 1.64
-4 -4 -6 30.16 1.76
-4 -4 -6 27.57 1.24
-4 -4 -6 31.56 1.28
4 4 6 25.93 1.32
-4 -5 -6 9.21 1.24
-4 -5 -6 8.08 0.96
4 5 6 9.73 0.86
-4 -5 -6 9.41 1.07
4 5 6 9.55 1.25
-4 -5 -6 9.69 0.92
-4 -5 -6 8.23 0.69
-4 -5 -6 10.17 0.84
4 5 6 8.94 0.88
4 6 6 6.4 0.6
-4 -6 -6 7.64 0.94
-4 -6 -6 7.1 0.66
-4 -6 -6 6.87 0.66
4 6 6 8.54 1.3
-4 -6 -6 7.64 0.85
-4 -7 -6 1.51 0.3
-4 -7 -6 2.48 0.58
4 7 6 2.98 0.92
-4 -7 -6 1.81 0.26
-4 -7 -6 2.07 0.58
-4 -8 -6 0.26 0.26
-4 -8 -6 0.34 0.33
4 8 6 0.64 0.65
-4 -9 -6 3.57 0.91
4 9 6 2.46 0.9
-4 -10 -6 0.2 0.48
4 10 6 0.04 0.54
-4 -11 -6 -0.04 0.44
4 11 6 0.69 0.65
-4 -12 -6 0.25 0.58
-4 7 -7 1.2 0.62
4 -7 7 1.25 0.7
4 -7 7 2.08 0.99
4 -6 7 0.28 0.49
4 -6 7 -0.06 0.5
-4 6 -7 0.23 0.48
4 -5 7 19.05 2.2
4 -5 7 15.01 1.83
-4 5 -7 17.38 1.79
4 -4 7 5.25 1.11
-4 4 -7 4.78 0.97
4 -4 7 4.28 1.07
4 -3 7 24.6 2.26
4 -3 7 22.47 1.18
4 -3 7 22.58 2.03
-4 3 -7 24.51 1.97
4 -3 7 21.48 1.53
4 -2 7 1.03 0.48
4 -2 7 1.06 0.57
-4 2 -7 2.03 0.64
4 -2 7 1.23 0.3
4 -2 7 1.37 0.37
4 -1 7 0.72 0.42
4 -1 7 1.81 0.64
4 -1 7 1.21 0.3
-4 1 -7 0.77 0.42
4 -1 7 0.98 0.35
4 0 7 -0.23 0.44
-4 0 -7 0.28 0.16
4 0 7 0.45 0.39
-4 0 -7 -0.09 0.35
-4 0 -7 0.66 0.44
4 0 7 0.18 0.18
4 1 7 0.79 0.56
-4 -1 -7 0.52 0.42
4 1 7 0.25 0.35
-4 -1 -7 -0.02 0.15
-4 -1 -7 0.21 0.31
4 1 7 -0.01 0.18
4 1 7 0.25 0.25
4 2 7 7.53 0.94
-4 -2 -7 6.33 0.71
-4 -2 -7 7.88 1.13
-4 -2 -7 5.86 0.67
4 2 7 5.87 0.68
-4 -3 -7 4.72 0.6
4 3 7 4.04 0.67
4 3 7 3.3 0.66
-4 -3 -7 4.1 0.62
-4 -3 -7 4.86 0.95
4 3 7 3.94 0.56
4 4 7 2.84 0.51
-4 -4 -7 3.24 0.8
-4 -4 -7 2.85 0.47
4 4 7 2.73 0.58
4 4 7 2.75 0.71
-4 -4 -7 2.78 0.58
-4 -4 -7 2.7 0.44
4 5 7 8.93 0.9
-4 -5 -7 8.25 0.76
-4 -5 -7 8.41 0.98
-4 -5 -7 8.92 1.09
4 5 7 8.2 1.24
-4 -5 -7 8.86 0.84
4 5 7 7.75 0.88
-4 -6 -7 13.28 1.25
4 6 7 12.55 0.94
4 6 7 13.93 1.67
-4 -6 -7 13.38 0.97
-4 -6 -7 13.04 1.13
-4 -6 -7 13.1 1.04
-4 -7 -7 3.74 0.57
-4 -7 -7 3.13 0.29
4 7 7 5.71 1.21
4 7 7 3.98 0.38
-4 -7 -7 4.25 0.73
-4 -7 -7 4.91 0.75
-4 -8 -7 0.31 0.22
-4 -8 -7 0.26 0.24
4 8 7 -0.56 0.54
-4 -8 -7 -0.34 0.48
4 9 7 1.58 0.79
-4 -9 -7 1.15 0.57
4 10 7 1.46 0.89
-4 -10 -7 0.82 0.52
-4 -11 -7 1.4 0.71
-4 -12 -7 1.43 0.8
4 -6 8 3.18 1.09
4 -6 8 4.21 1.18
-4 6 -8 2.55 0.84
4 -5 8 0.48 0.54
4 -5 8 0.6 0.76
-4 5 -8 0.55 0.44
4 -4 8 0.62 0.53
4 -4 8 0.46 0.46
-4 4 -8 0.18 0.31
-4 3 -8 0.47 0.4
4 -3 8 0.2 0.39
4 -3 8 -0.37 0.48
4 -2 8 5.41 1.06
4 -2 8 5.58 1.07
-4 2 -8 5.46 0.98
4 -2 8 5.09 0.8
4 -1 8 24.26 2.1
4 -1 8 30.15 2.22
-4 1 -8 27.98 2.14
4 -1 8 26.91 1.7
4 -1 8 24.97 1.73
4 0 8 4.12 1
-4 0 -8 2.87 0.56
-4 0 -8 4.53 1.09
4 0 8 2.61 0.69
4 1 8 32.94 2.19
-4 -1 -8 26.9 1.58
-4 -2 -8 6.82 0.76
4 2 8 8.54 1.05
-4 -2 -8 7.8 0.87
4 2 8 7.33 1
-4 -3 -8 1.05 0.36
4 3 8 1.38 0.47
4 3 8 1.19 0.6
-4 -3 -8 1.2 0.45
-4 -4 -8 0.38 0.26
4 4 8 0.29 0.26
4 4 8 0.34 0.43
-4 -4 -8 -0.09 0.22
-4 -4 -8 -0.14 0.21
-4 -5 -8 0.25 0.29
-4 -5 -8 0.12 0.25
4 5 8 0 0.22
4 5 8 -0.19 0.36
-4 -5 -8 -0.03 0.19
4 6 8 0.89 0.48
4 6 8 -0.06 0.21
-4 -6 -8 -0.09 0.3
-4 -6 -8 0.11 0.23
4 6 8 -0.2 0.38
-4 -6 -8 0.5 0.32
-4 -6 -8 0.75 0.43
-4 -7 -8 1.94 0.46
4 7 8 1.83 0.33
-4 -7 -8 2.73 0.57
4 7 8 2.75 0.95
-4 -7 -8 2.82 0.63
-4 -8 -8 0.3 0.27
-4 -8 -8 0.66 0.38
4 8 8 1.43 0.79
-4 -8 -8 0.31 0.32
4 9 8 1.04 0.8
-4 -9 -8 0.44 0.42
4 10 8 0.49 0.59
-4 -10 -8 0.94 0.63
-4 -11 -8 -0.07 0.43
-4 6 -9 0.94 0.55
4 -6 9 0.66 0.63
4 -5 9 -0.42 0.61
-4 5 -9 -0.37 0.43
4 -4 9 1.96 0.8
4 -4 9 1.49 0.71
-4 4 -9 2.65 0.74
-4 3 -9 1.38 0.55
4 -3 9 1.7 0.82
4 -3 9 2.57 0.85
4 -2 9 1.22 0.6
4 -2 9 0.8 0.6
-4 2 -9 0.22 0.33
4 -2 9 0.03 0.15
4 -1 9 0.74 0.56
-4 1 -9 0.34 0.33
4 -1 9 1.72 0.68
4 -1 9 -0.01 0.13
-4 1 -9 0.72 0.61
4 -1 9 0.8 0.4
-4 0 -9 10.18 0.98
4 0 9 9.7 1.46
4 0 9 13.25 1.52
-4 0 -9 11.21 1.22
-4 0 -9 10.27 1.42
4 0 9 10.34 1.2
-4 -1 -9 11.26 1.05
4 1 9 13.65 1.57
-4 -1 -9 12.42 1.29
4 1 9 10.72 1.16
-4 -1 -9 13.13 1.58
4 1 9 12.21 1.26
-4 -2 -9 0.57 0.35
4 2 9 -0.13 0.44
-4 -2 -9 0.15 0.3
4 2 9 0.75 0.47
4 2 9 0.04 0.33
-4 -3 -9 3.35 0.65
4 3 9 5.13 0.87
-4 -3 -9 5.32 0.79
4 3 9 4.43 0.9
4 3 9 3.69 0.71
-4 -4 -9 3.4 0.66
4 4 9 2.77 0.64
4 4 9 3.09 0.63
4 4 9 2.7 0.78
4 5 9 1.51 0.53
-4 -5 -9 0.69 0.35
-4 -5 -9 0.9 0.35
4 5 9 1.27 0.46
4 5 9 0.99 0.56
-4 -5 -9 0.75 0.34
4 6 9 0.37 0.43
4 6 9 1.34 0.43
-4 -6 -9 0.31 0.27
-4 -6 -9 1.42 0.47
4 6 9 0.9 0.55
-4 -6 -9 0.93 0.41
-4 -7 -9 -0.09 0.26
-4 -7 -9 -0.32 0.35
-4 -7 -9 0.1 0.25
-4 -8 -9 2.34 0.54
4 8 9 1.33 0.74
-4 -8 -9 1.71 0.6
4 9 9 0.66 0.76
-4 -9 -9 -0.31 0.41
-4 -10 -9 0.03 0.4
4 -5 10 1.46 0.76
-4 5 -10 2.63 0.93
4 -4 10 4.07 1.2
-4 4 -10 3.68 0.95
4 -3 10 1.07 0.68
4 -3 10 2.44 0.94
-4 3 -10 1.41 0.65
-4 3 -10 3.36 0.83
4 -2 10 0.11 0.4
-4 2 -10 0.27 0.42
4 -2 10 1.06 0.67
-4 2 -10 0 0.35
4 -1 10 3.63 0.94
-4 1 -10 4.88 0.87
4 -1 10 5.27 1.12
4 -1 10 3.9 0.75
-4 1 -10 3.89 0.93
4 0 10 1.27 0.64
-4 0 -10 1.49 0.53
4 0 10 2.17 0.71
-4 0 -10 1.79 0.66
4 0 10 1.91 0.54
-4 -1 -10 0.42 0.52
-4 -1 -10 0.06 0.32
4 1 10 0.65 0.47
4 1 10 0.3 0.37
-4 -2 -10 -0.59 0.46
4 2 10 -0.44 0.51
4 2 10 -0.56 0.39
4 2 10 -0.32 0.36
-4 -3 -10 -0.9 0.55
4 3 10 0.47 0.39
4 3 10 0.42 0.48
-4 -4 -10 1.17 0.5
4 4 10 0.89 0.43
4 4 10 -0.01 0.34
-4 -5 -10 0.43 0.31
-4 -5 -10 0.59 0.33
4 5 10 1.24 0.38
4 5 10 1.46 0.64
-4 -5 -10 0.84 0.37
-4 -6 -10 1.59 0.5
4 6 10 1.73 0.51
-4 -6 -10 1.24 0.51
4 6 10 1.57 0.77
-4 -6 -10 2.03 0.56
-4 -7 -10 2.24 0.63
4 7 10 3.45 1.02
-4 -7 -10 1.59 0.52
4 8 10 0.23 0.51
-4 -8 -10 -0.55 0.38
-4 4 -11 0.44 0.41
-4 3 -11 0.63 0.59
4 -3 11 2.61 0.93
4 -2 11 0.93 0.51
-4 2 -11 3.04 0.84
4 -2 11 3.91 1.05
-4 2 -11 3.08 0.9
4 -1 11 0.38 0.46
4 -1 11 0.77 0.58
-4 1 -11 -0.02 0.45
-4 1 -11 0.66 0.45
-4 0 -11 0.96 0.52
4 0 11 0.67 0.5
-4 0 -11 1.52 0.76
4 0 11 0.71 0.41
-4 -1 -11 0.18 0.49
4 1 11 0.8 0.45
-4 -1 -11 0.35 0.61
4 1 11 0.09 0.34
-4 -2 -11 3.12 0.76
4 2 11 2.96 0.75
4 2 11 4.12 0.97
-4 -2 -11 3.62 1.03
4 2 11 3.46 0.8
-4 -3 -11 4.11 0.86
4 3 11 5.14 0.97
4 3 11 3.52 0.98
-4 -4 -11 0.15 0.33
4 4 11 -0.08 0.33
4 4 11 0.74 0.74
4 5 11 2.7 0.67
4 5 11 2.22 0.81
-4 -5 -11 1.78 0.61
-4 -6 -11 -0.12 0.3
4 6 11 0.26 0.54
-4 -6 -11 0.03 0.3
4 7 11 -0.46 0.45
-4 2 -12 1.2 0.62
-4 1 -12 0.37 0.49
-4 0 -12 -0.45 0.58
-4 0 -12 -0.03 0.36
4 0 12 0.73 0.61
-4 -1 -12 0.44 0.71
-4 -1 -12 0.15 0.38
4 1 12 0.77 0.59
4 1 12 0.84 0.61
4 1 12 0.1 0.38
-4 -2 -12 0.4 0.39
-4 -2 -12 0.83 0.49
4 2 12 1.48 0.63
4 2 12 0.03 0.44
4 2 12 1.32 0.67
-4 -3 -12 0.02 0.37
4 3 12 0.33 0.48
-4 -4 -12 0.36 0.45
4 4 12 0.15 0.33
4 4 12 0.83 0.74
-4 -5 -12 0.5 0.48
4 5 12 0.73 0.78
4 6 12 0.62 0.46
4 1 13 2.99 1.06
-4 -1 -13 2.36 0.92
-4 -2 -13 1.18 0.71
4 2 13 0.89 0.7
4 2 13 0.66 0.63
-4 -3 -13 0.73 0.48
4 3 13 1.06 0.58
4 3 13 0.64 0.65
-4 -4 -13 1.38 0.72
4 4 13 -0.55 0.62
-4 -5 -13 -0.38 0.65
5 0 -10 -1.57 0.89
5 1 -10 0.15 0.62
5 -1 -9 -0.12 0.41
5 0 -9 0.1 0.54
5 1 -9 0.28 0.44
5 2 -9 0.79 0.58
5 3 -9 0.3 0.55
-5 3 8 2.01 0.82
5 -2 -8 1.68 0.77
5 -2 -8 -0.67 0.58
-5 2 8 1.34 0.67
5 -2 -8 0.69 0.51
5 -1 -8 9.35 1.76
5 -1 -8 7.67 1.39
-5 1 8 6.83 1.33
5 -1 -8 8.74 1.48
5 0 -8 10.4 1.83
5 0 -8 8.64 1.48
-5 0 8 10.26 1.56
5 0 -8 9.85 1.53
5 1 -8 0.64 0.5
5 1 -8 -0.28 0.46
-5 -1 8 1.01 0.64
5 2 -8 3.27 1.12
-5 -2 8 2.2 0.75
5 2 -8 2.13 1.02
5 3 -8 3.73 1.13
-5 -3 8 5.42 1.08
5 3 -8 6.2 1.37
5 4 -8 2.78 0.9
-5 -4 8 2.45 0.82
5 4 -8 4.31 1.18
5 5 -8 -1.11 0.7
5 5 -8 1.4 0.78
5 6 -8 2.46 0.8
-5 5 7 -0.31 0.4
-5 5 7 0.95 0.68
5 -4 -7 -0.54 0.61
-5 4 7 0.51 0.54
5 -4 -7 -0.15 0.58
-5 4 7 -0.08 0.43
5 -3 -7 1.9 0.9
-5 3 7 0.74 0.56
5 -3 -7 1.11 0.54
5 -2 -7 2.33 0.85
5 -2 -7 2.56 0.77
-5 2 7 2.02 0.81
5 -2 -7 2.66 0.84
5 -1 -7 0.59 0.53
5 -1 -7 -0.08 0.44
-5 1 7 0.94 0.52
5 -1 -7 1.15 0.58
5 0 -7 0.35 0.43
5 0 -7 0.9 0.51
-5 0 7 0.48 0.44
5 0 -7 0.75 0.6
5 1 -7 5.21 1.19
-5 -1 7 5.77 1.11
5 1 -7 7.67 1.44
5 1 -7 3.97 0.96
5 2 -7 4.6 1.1
-5 -2 7 4.92 1
5 2 -7 5.58 1.2
5 3 -7 -0.53 0.52
-5 -3 7 -0.33 0.51
5 3 -7 0.68 0.48
5 4 -7 -0.02 0.52
-5 -4 7 0.3 0.38
5 4 -7 0.46 0.6
5 5 -7 0.75 0.5
-5 -5 7 1.65 0.73
5 5 -7 2 0.86
5 6 -7 0.33 0.37
-5 -6 7 1.63 0.71
5 6 -7 2.2 0.98
5 7 -7 -0.11 0.39
5 8 -7 0.24 0.44
-5 7 6 -1.04 0.72
-5 6 6 3.42 1.07
5 -5 -6 6.05 1.49
-5 5 6 5.79 1.34
5 -5 -6 6.96 1.43
-5 5 6 5.39 1.28
5 -4 -6 -0.24 0.36
5 -4 -6 0.03 0.44
-5 4 6 -0.45 0.5
-5 4 6 -0.28 0.53
5 -4 -6 0 0.37
5 -3 -6 0.26 0.21
5 -3 -6 1.6 0.75
-5 3 6 0.42 0.45
5 -3 -6 0.44 0.45
5 -2 -6 15.33 1.11
-5 2 6 14.43 1.79
5 -2 -6 17.04 2.19
5 -2 -6 13.93 1.66
5 -2 -6 18.49 2.03
5 -1 -6 2 0.67
5 -1 -6 1.51 0.44
5 -1 -6 1.71 0.68
-5 1 6 1.65 0.57
5 -1 -6 1.33 0.62
-5 0 6 25.84 2.1
5 0 -6 24.54 2.46
5 0 -6 27.03 2.43
5 0 -6 25.7 2.24
5 1 -6 6.85 0.6
5 1 -6 6.41 1.25
-5 -1 6 7.95 1.17
5 1 -6 6.69 1.25
5 1 -6 7.44 1.18
5 2 -6 1.85 0.72
-5 -2 6 0.93 0.49
5 2 -6 1.71 0.67
5 3 -6 2.7 0.67
5 3 -6 2.83 0.84
-5 -3 6 2.65 0.75
5 3 -6 3.5 0.96
5 4 -6 -0.95 0.63
-5 -4 6 0.42 0.46
5 4 -6 0.25 0.56
5 5 -6 1.9 0.65
-5 -5 6 3.05 0.83
5 5 -6 4.05 1.11
5 6 -6 0.6 0.52
-5 -6 6 1.28 0.65
5 6 -6 1.27 0.72
5 7 -6 0.78 0.55
-5 -7 6 0.16 0.42
5 7 -6 1.75 0.77
5 8 -6 -0.3 0.37
5 8 -6 1.16 0.9
5 9 -6 -0.15 0.47
5 -7 -5 2.8 0.93
-5 7 5 3.75 1.23
5 -6 -5 -0.02 0.33
5 -6 -5 -0.49 0.56
-5 6 5 -0.1 0.54
5 -6 -5 0.02 0.5
5 -5 -5 0.6 0.45
5 -5 -5 0.27 0.54
-5 5 5 -0.58 0.58
5 -5 -5 0.52 0.46
5 -4 -5 9 1.16
5 -4 -5 9.67 1.68
-5 4 5 9.07 1.43
-5 4 5 8.78 1.35
5 -4 -5 9.48 1.5
5 -3 -5 7.36 0.96
5 -3 -5 9 1.59
-5 3 5 9.83 1.11
-5 3 5 7.97 1.23
5 -3 -5 8.47 1.35
5 -2 -5 13.42 1.81
5 -2 -5 13.29 1.23
5 -2 -5 12.41 1.55
-5 2 5 13.33 1.59
5 -1 -5 6.45 0.68
5 -1 -5 7.9 0.85
5 -1 -5 9.33 1.5
5 -1 -5 7.91 1.2
-5 1 5 9.14 1.19
5 -1 -5 8.52 1.26
5 0 -5 9.18 1.45
5 0 -5 7.24 1.17
-5 0 5 9.38 1.21
5 0 -5 8.43 1.23
-5 -1 5 32.27 2.17
5 1 -5 31.53 2.56
5 1 -5 32.18 1.32
5 1 -5 34.77 2.65
5 1 -5 33.54 2.33
-5 -2 5 0.56 0.45
5 2 -5 -0.04 0.36
-5 -3 5 27.01 2.01
5 3 -5 24.02 1.81
5 3 -5 26.54 2.31
5 3 -5 24.54 2.27
-5 -4 5 13.42 1.47
5 4 -5 12.44 1.41
5 4 -5 12.08 1.55
5 4 -5 12.58 1.68
-5 -5 5 7.92 1.16
5 5 -5 6.26 1.26
5 5 -5 6.27 1.03
5 6 -5 -0.16 0.4
-5 -6 5 0.91 0.57
5 6 -5 0.42 0.55
5 7 -5 -0.24 0.41
-5 -7 5 0.18 0.45
5 7 -5 0.15 0.71
5 8 -5 0.16 0.36
-5 -8 5 0.77 0.52
5 8 -5 -0.21 0.4
5 9 -5 0.93 0.53
5 9 -5 -0.89 0.61
5 -8 -4 0.67 0.57
-5 8 4 0.27 0.69
5 -7 -4 -0.05 0.52
-5 7 4 1.11 0.65
-5 7 4 0.77 0.49
5 -6 -4 -0.14 0.44
-5 6 4 -0.29 0.38
-5 6 4 0.66 0.58
5 -6 -4 0.75 0.64
5 -5 -4 23.73 1.97
-5 5 4 25.71 2
5 -5 -4 23.55 2.63
-5 5 4 24.31 2.33
5 -5 -4 24.4 2.46
5 -4 -4 1.07 0.41
5 -4 -4 0.91 0.65
-5 4 4 1.28 0.58
-5 4 4 1.22 0.34
-5 4 4 0.98 0.42
5 -4 -4 1.65 0.62
-5 4 4 1.28 0.53
-5 3 4 1.92 0.27
5 -3 -4 2.29 0.87
5 -3 -4 1.77 0.55
5 -3 -4 1.45 0.49
-5 3 4 1.67 0.53
-5 3 4 2.01 0.5
-5 3 4 1.58 0.6
5 -3 -4 1.86 0.67
-5 2 4 11.78 1.07
-5 2 4 8.61 0.54
-5 2 4 10.7 1.28
5 -2 -4 9.89 1.11
5 -2 -4 10.8 1.6
5 -2 -4 11.02 1.26
-5 2 4 9.96 1.16
5 -2 -4 10.78 1.41
5 -1 -4 108.61 3
-5 1 4 106.5 2.11
5 -1 -4 116.79 4.89
5 -1 -4 111.14 4.06
5 -1 -4 110.43 4.32
-5 1 4 104.34 3.83
-5 1 4 108.1 3.73
5 -1 -4 116.37 4.33
5 0 -4 81.68 2.24
-5 0 4 84.37 2.1
-5 0 4 86.85 3.37
5 0 -4 85.3 4.06
5 0 -4 77.01 2.49
5 0 -4 83.51 3.85
-5 0 4 86.08 3.36
5 0 -4 93.05 3.8
5 1 -4 3.96 0.48
5 1 -4 4.25 0.89
-5 -1 4 3.33 0.64
5 1 -4 3.78 0.89
5 1 -4 4.13 0.79
-5 -2 4 15.83 1.39
5 2 -4 11.88 1.44
5 2 -4 13.41 1.6
5 2 -4 11.19 0.54
5 2 -4 13.56 1.36
-5 -3 4 11.51 1.21
5 3 -4 9.67 1.09
5 3 -4 12.52 1.43
5 3 -4 10.59 1.44
5 4 -4 0.11 0.3
-5 -4 4 0.16 0.11
5 4 -4 -0.06 0.36
-5 -4 4 0.16 0.31
5 4 -4 0.04 0.38
5 5 -4 0.12 0.33
-5 -5 4 0.41 0.2
-5 -5 4 0.18 0.31
5 5 -4 0.2 0.35
5 6 -4 4.33 0.76
-5 -6 4 3.91 0.85
5 6 -4 3.99 0.97
5 7 -4 8.12 1.13
-5 -7 4 9.77 1.35
5 7 -4 9.2 1.52
5 8 -4 3.83 0.84
-5 -8 4 4.24 1.07
5 8 -4 4.27 1.11
5 9 -4 2.21 0.69
-5 -9 4 2.68 0.83
5 9 -4 1.48 0.67
5 10 -4 0.16 0.44
5 -8 -3 0.56 0.74
5 -7 -3 0.65 0.61
-5 7 3 0.58 0.64
-5 7 3 0.89 0.49
5 -7 -3 1.21 0.7
5 -6 -3 0.4 0.39
-5 6 3 -0.44 0.5
-5 6 3 0.43 0.48
5 -6 -3 -0.56 0.52
5 -5 -3 1.79 0.63
-5 5 3 1.64 0.57
-5 5 3 1.33 0.51
5 -5 -3 0.8 0.59
5 -4 -3 13.41 1.42
-5 4 3 14.52 1.36
5 -4 -3 15.35 1.96
-5 4 3 12.81 1.51
-5 4 3 14.21 1.58
5 -4 -3 13.85 1.18
-5 4 3 13.97 1.47
5 -4 -3 15.03 1.79
5 -3 -3 9.09 1.06
-5 3 3 10.86 1.09
-5 3 3 10.35 1.27
-5 3 3 10.26 1.23
5 -3 -3 9.24 1.46
5 -3 -3 11.78 1.17
-5 3 3 11.16 1.28
5 -3 -3 10.19 1.37
-5 2 3 39.35 1.96
5 -2 -3 38.51 2.1
-5 2 3 37.61 2.29
5 -2 -3 37.24 2.78
5 -2 -3 37.57 2.05
5 -2 -3 37.85 2.15
-5 2 3 40.96 2.38
5 -2 -3 39.88 2.54
-5 2 3 36.66 1.6
5 -1 -3 1.87 0.46
-5 1 3 1.98 0.39
-5 1 3 1.36 0.41
5 -1 -3 2.79 0.81
5 -1 -3 1.56 0.48
5 -1 -3 2.49 0.59
-5 1 3 0.67 0.33
-5 1 3 1.87 0.48
5 -1 -3 0.05 0.14
-5 1 3 1.72 0.37
5 -1 -3 2.13 0.63
-5 0 3 1.35 0.54
5 0 -3 1.18 0.34
5 0 -3 1.37 0.3
-5 0 3 0.74 0.18
-5 0 3 1.57 0.53
5 0 -3 0.81 0.5
5 0 -3 0.86 0.39
5 0 -3 1.59 0.55
5 0 -3 0.71 0.39
-5 0 3 1.17 0.44
-5 0 3 1.29 0.46
-5 0 3 1.4 0.31
5 0 -3 0.86 0.41
-5 -1 3 57.97 1.65
5 1 -3 53.89 1.77
5 1 -3 54.15 2.53
-5 -1 3 57.23 2.47
-5 -1 3 52.78 1.92
-5 -1 3 55.69 2.61
5 1 -3 53.7 2.93
5 1 -3 55.55 2.91
5 1 -3 53.15 1.77
-5 -1 3 49.52 2.66
5 1 -3 54.48 2.98
-5 -1 3 54.97 2.65
5 1 -3 55.48 2.67
-5 -1 3 54.4 2.78
5 2 -3 73.22 3.02
-5 -2 3 73.5 2.84
-5 -2 3 67.83 2.25
-5 -2 3 74.67 2.88
5 2 -3 69.44 3.24
5 2 -3 74.84 3.42
-5 -2 3 77.93 2.82
-5 -2 3 66.57 2.97
5 2 -3 70.65 3.48
-5 -2 3 75.96 3.07
5 2 -3 68.25 1.63
5 2 -3 75.45 3
-5 -2 3 71.47 3.18
-5 -3 3 3.59 0.39
5 3 -3 3.46 0.66
-5 -3 3 3.57 0.58
-5 -3 3 3.08 0.6
5 3 -3 3.96 0.83
-5 -3 3 3.89 0.7
-5 -3 3 3.85 0.64
5 3 -3 3.16 0.75
-5 -3 3 3.99 0.74
-5 -3 3 2.9 0.67
-5 -4 3 -0.13 0.16
5 4 -3 0.27 0.33
-5 -4 3 0.31 0.31
5 4 -3 -0.2 0.38
-5 -4 3 -0.17 0.35
-5 -4 3 0.62 0.36
5 4 -3 0.12 0.36
-5 -4 3 0.07 0.28
-5 -5 3 8.71 0.83
-5 -5 3 11.3 1.28
5 5 -3 11.56 1.17
-5 -5 3 12.13 1.22
5 5 -3 9.58 1.4
5 6 -3 9.35 1.05
-5 -6 3 8.54 1.19
-5 -6 3 8.32 1.14
5 6 -3 10.4 1.48
5 7 -3 0.48 0.37
-5 -7 3 1.15 0.62
-5 -7 3 1.18 0.65
5 7 -3 0.98 0.81
5 8 -3 9.38 1.12
-5 -8 3 9.78 1.43
-5 -8 3 10.27 1.26
5 8 -3 10.33 1.61
5 9 -3 10.52 1.17
-5 -9 3 6.89 1.14
5 9 -3 11.5 1.69
-5 -9 3 11.62 1.71
-5 -10 3 0.65 0.56
5 10 -3 1.24 0.63
5 11 -3 2.58 0.9
5 -8 -2 1.66 0.82
5 -7 -2 2.29 0.81
5 -7 -2 2.07 0.77
-5 7 2 2.54 0.86
-5 7 2 1.42 0.63
5 -6 -2 24.21 2.21
-5 6 2 28.78 2.22
-5 6 2 24.35 2.21
5 -6 -2 28.52 2.7
5 -5 -2 11.51 1.42
-5 5 2 11.05 1.42
-5 5 2 12.57 1.45
-5 5 2 13.53 1.52
5 -5 -2 13.53 1.83
-5 4 2 12.66 1.33
-5 4 2 11.56 1.35
5 -4 -2 9.37 1.16
-5 4 2 12.26 1.44
5 -4 -2 13.08 1.62
5 -3 -2 8.64 1.04
5 -3 -2 9.82 1.03
-5 3 2 9.85 1.25
-5 3 2 8.53 1.06
5 -3 -2 9.43 1.43
5 -3 -2 7.72 0.86
-5 3 2 10.01 1.25
-5 3 2 10.25 1.08
-5 3 2 7.68 0.98
5 -3 -2 10.62 1.33
-5 2 2 12.62 1.13
5 -2 -2 11.76 1.07
-5 2 2 10.28 1.28
-5 2 2 12.72 1.2
5 -2 -2 11.5 1.49
5 -2 -2 11.18 1.12
5 -2 -2 11.78 1.09
-5 2 2 12.84 1.39
5 -2 -2 13.28 1.42
-5 1 2 1.13 0.31
-5 1 2 1.82 0.54
5 -1 -2 0.03 0.08
-5 1 2 1.55 0.53
-5 1 2 1.09 0.49
5 -1 -2 1.57 0.57
5 -1 -2 1.63 0.42
5 -1 -2 1.37 0.43
-5 1 2 1.19 0.48
-5 1 2 1.29 0.36
5 -1 -2 0.69 0.35
5 0 -2 22.2 1.43
-5 0 2 21.43 1.76
-5 0 2 23.31 1.37
-5 0 2 23.55 1.25
-5 0 2 24.01 1.47
5 0 -2 22.89 1.39
-5 0 2 25.35 1.85
5 0 -2 20.62 1.76
5 0 -2 22.23 1.3
5 0 -2 23.16 1.66
-5 0 2 26.36 1.45
5 0 -2 22.21 1.85
-5 0 2 23.13 1.76
5 0 -2 23.59 1.66
-5 0 2 22.43 1.73
-5 -1 2 -0.14 0.19
5 1 -2 0.42 0.24
-5 -1 2 -0.05 0.21
-5 -1 2 0.15 0.28
-5 -1 2 -0.29 0.33
5 1 -2 -0.1 0.17
5 1 -2 0.07 0.32
5 1 -2 -0.3 0.32
-5 -1 2 0.34 0.23
-5 -1 2 -0.45 0.31
5 1 -2 -0.01 0.27
-5 -1 2 0.07 0.31
5 1 -2 -0.11 0.15
5 1 -2 -0.05 0.28
-5 -1 2 -0.04 0.21
-5 -2 2 1.1 0.26
-5 -2 2 1.18 0.33
5 2 -2 1.9 0.46
-5 -2 2 2.25 0.51
5 2 -2 0.67 0.34
5 2 -2 1.38 0.44
-5 -2 2 1.15 0.36
-5 -2 2 1.58 0.44
5 2 -2 0.27 0.32
-5 -2 2 0.96 0.31
5 2 -2 1.64 0.42
-5 -2 2 1.6 0.42
-5 -2 2 1.39 0.2
-5 -2 2 1.3 0.41
-5 -3 2 3.28 0.49
5 3 -2 3.52 0.66
-5 -3 2 3.61 0.57
-5 -3 2 3.02 0.51
5 3 -2 0.03 0.11
-5 -3 2 3.7 0.64
5 3 -2 3.5 0.68
-5 -3 2 3.31 0.61
5 3 -2 3.67 0.81
-5 -3 2 4.83 0.78
-5 -3 2 3.28 0.62
-5 -3 2 3.1 0.63
-5 -4 2 12.44 0.99
-5 -4 2 14.05 1.26
5 4 -2 12.65 1.3
-5 -4 2 12.77 1.07
-5 -4 2 11.76 0.94
-5 -4 2 10.94 1.18
5 4 -2 11.35 1.37
-5 -4 2 10.63 1.27
5 4 -2 12.84 1.49
-5 -4 2 12.04 1.17
-5 -4 2 12.29 1.19
-5 -5 2 12.16 1.27
-5 -5 2 12.5 0.92
-5 -5 2 12.24 1.28
5 5 -2 12.87 1.53
-5 -5 2 11.83 1.17
5 5 -2 11.58 1.31
5 6 -2 0.16 0.2
-5 -6 2 2.06 0.56
-5 -6 2 1.97 0.53
5 6 -2 1.99 0.68
5 7 -2 2.37 0.77
-5 -7 2 0.8 0.17
-5 -7 2 1.78 0.6
5 7 -2 1.44 0.42
-5 -7 2 2.61 0.69
5 7 -2 2.43 0.78
-5 -8 2 1.02 0.55
-5 -8 2 -0.03 0.29
5 8 -2 1.01 0.69
5 8 -2 0.8 0.38
5 8 -2 1.51 0.77
-5 -9 2 4.24 0.95
5 9 -2 3.81 0.66
-5 -9 2 4.34 0.84
5 9 -2 4.53 1.04
5 9 -2 4.96 1.21
-5 -10 2 -0.19 0.4
-5 -10 2 0.84 0.45
5 10 -2 0.81 0.66
-5 -11 2 1.28 0.57
5 11 -2 0.52 0.45
5 12 -2 0.21 0.45
5 -8 -1 1.29 0.8
5 -7 -1 1.91 0.76
5 -7 -1 0.95 0.73
5 -7 -1 0.78 0.47
-5 7 1 0.33 0.5
-5 7 1 1.59 0.65
5 -6 -1 0.69 0.46
5 -6 -1 0.19 0.31
-5 6 1 0.69 0.41
5 -6 -1 0.92 0.52
-5 6 1 0.46 0.4
5 -5 -1 0.38 0.5
5 -5 -1 0.78 0.59
5 -5 -1 0.51 0.35
-5 5 1 0.03 0.31
5 -5 -1 0.54 0.33
-5 5 1 1.25 0.45
-5 5 1 0.06 0.4
5 -4 -1 15.47 1.52
-5 4 1 17.79 1.52
5 -4 -1 17.71 1.37
5 -4 -1 15.73 1.56
-5 4 1 13.99 1.35
-5 4 1 17.32 1.72
5 -4 -1 16.64 1.77
5 -3 -1 14.52 1.4
5 -3 -1 15.14 1.49
5 -3 -1 14 1.13
-5 3 1 15.64 1.52
-5 3 1 15.66 1.35
-5 3 1 15.48 1.34
-5 3 1 14.74 1.55
5 -3 -1 17.07 1.67
-5 2 1 1.16 0.48
-5 2 1 0.35 0.33
5 -2 -1 0.82 0.45
-5 2 1 0.33 0.37
5 -2 -1 -0.55 0.43
5 -2 -1 -0.09 0.4
5 -2 -1 0.43 0.26
-5 2 1 0.76 0.43
-5 2 1 0.47 0.22
5 -2 -1 0.92 0.48
5 -2 -1 0.56 0.28
-5 1 1 7.49 1.04
-5 1 1 9.46 1.23
-5 1 1 7.42 0.81
5 -1 -1 6.3 0.97
-5 1 1 7.92 0.7
5 -1 -1 7.06 0.74
-5 1 1 7.55 1.08
-5 1 1 7.94 0.83
-5 1 1 8.38 1.09
5 -1 -1 6.74 0.88
5 0 -1 65.74 2.57
5 0 -1 63.86 2.27
5 0 -1 63.83 2.71
-5 0 1 67.59 3.12
-5 0 1 67.47 2.31
-5 0 1 70.47 2.31
-5 0 1 69.91 3.1
5 0 -1 64.28 3.06
-5 0 1 72.53 2.39
5 0 -1 67.35 2.42
-5 0 1 68.1 3.15
5 0 -1 66.01 2.66
-5 0 1 67.34 2.89
-5 -1 1 5.53 0.64
-5 -1 1 6.35 0.68
-5 -1 1 6.73 0.78
-5 -1 1 5.9 0.57
-5 -1 1 8.21 0.96
-5 -1 1 6.37 0.77
5 1 -1 6.19 0.85
5 1 -1 6.07 0.71
-5 -1 1 6.53 0.75
5 1 -1 5.97 0.64
5 1 -1 5.58 0.93
-5 -1 1 6.42 0.94
5 1 -1 6.67 0.76
-5 -1 1 6.35 0.83
5 1 -1 7.17 0.76
5 2 -1 18.61 1.28
-5 -2 1 18.46 1.18
-5 -2 1 20.64 1.27
-5 -2 1 21.55 1.37
-5 -2 1 20.4 1.37
-5 -2 1 19.78 0.93
5 2 -1 18.97 1.59
-5 -2 1 18.2 1.38
-5 -2 1 16.7 1.3
5 2 -1 17.77 1.57
5 2 -1 17.91 1.2
-5 -2 1 18.63 1.31
-5 -3 1 48.09 1.99
-5 -3 1 52.28 2.17
-5 -3 1 50.94 2.14
-5 -3 1 52.77 2
-5 -3 1 50.3 1.31
-5 -3 1 51.45 2.47
5 3 -1 49.1 2.67
-5 -3 1 51.08 2.15
-5 -3 1 47.32 2.34
-5 -4 1 48.09 2.12
-5 -4 1 55.5 2.43
-5 -4 1 45.65 2.29
5 4 -1 53.03 2.64
-5 -4 1 57.42 2.37
-5 -4 1 50.95 1.88
5 4 -1 50.38 2.17
-5 -4 1 48.63 1.17
-5 -4 1 54.87 2.81
5 4 -1 54.41 2.84
-5 -4 1 52.5 2.46
-5 -4 1 54.82 2.28
-5 -5 1 9.22 1.08
-5 -5 1 8.27 0.43
5 5 -1 8.65 1.1
-5 -5 1 8.02 0.92
-5 -5 1 8.03 0.66
5 5 -1 9.81 0.95
-5 -5 1 9.36 1.14
-5 -5 1 9.76 1.3
5 5 -1 9.74 1.19
-5 -5 1 8.45 0.99
-5 -5 1 5.54 0.42
5 5 -1 8.75 1.19
-5 -5 1 7.63 0.84
-5 -6 1 8.06 0.53
5 6 -1 8.83 0.86
-5 -6 1 8.46 1.1
-5 -6 1 8.44 1.13
5 6 -1 9.58 1.34
5 6 -1 10.77 1.36
-5 -7 1 -0.05 0.28
-5 -7 1 0.11 0.14
-5 -7 1 -0.47 0.45
5 7 -1 0.53 0.51
5 7 -1 0.21 0.37
-5 -8 1 2.29 0.67
-5 -8 1 1.59 0.35
-5 -8 1 1.95 0.57
5 8 -1 1.31 0.5
5 8 -1 1.22 0.67
-5 -9 1 -0.62 0.51
-5 -9 1 -0.46 0.41
5 9 -1 1.72 0.73
5 9 -1 0.86 0.58
-5 -10 1 0.48 0.5
5 10 -1 0.49 0.44
5 10 -1 0.27 0.59
-5 -11 1 -0.94 0.59
-5 -11 1 0.88 0.43
5 11 -1 0.85 0.61
5 11 -1 0.57 0.72
5 12 -1 0.34 0.7
5 -8 0 2.47 0.99
5 -8 0 1.66 0.91
5 -7 0 0.05 0.58
5 -7 0 0.83 0.49
5 -7 0 0.67 0.77
-5 7 0 -0.47 0.5
5 -6 0 18.05 1.97
5 -6 0 15.71 1.68
-5 6 0 17.05 1.72
-5 6 0 15.9 1.57
5 -6 0 14.14 1.88
5 -5 0 19.83 1.92
5 -5 0 18.3 1.79
-5 5 0 18.34 1.76
5 -5 0 17.98 1.39
-5 5 0 16.87 1.5
5 -5 0 17.43 2.01
5 -4 0 0.63 0.44
5 -4 0 0.13 0.31
5 -4 0 0.1 0.41
-5 4 0 0.12 0.32
5 -4 0 0.22 0.21
-5 4 0 0.18 0.29
5 -3 0 1.37 0.41
5 -3 0 1.8 0.56
-5 3 0 1.97 0.54
5 -3 0 1.69 0.58
-5 3 0 1.86 0.49
5 -3 0 2.1 0.42
-5 3 0 1.5 0.52
-5 3 0 1.49 0.4
5 -2 0 19.01 1.57
-5 2 0 20.39 1.68
-5 2 0 18.7 1.44
-5 2 0 19.06 1.23
-5 2 0 19.86 1.86
-5 2 0 18.8 1.19
5 -2 0 18.77 1.1
5 -2 0 19.69 1.5
-5 2 0 19.64 0.94
-5 2 0 19 1.72
5 -2 0 18.51 1.57
5 -2 0 20.99 1.66
-5 2 0 20.78 1.74
5 -1 0 4.39 0.78
-5 1 0 4.67 0.57
-5 1 0 4.78 0.84
-5 1 0 4.65 0.89
-5 1 0 4.54 0.67
5 -1 0 4.19 0.85
-5 1 0 4.41 0.53
-5 1 0 4.23 0.8
-5 1 0 4.72 0.75
5 -1 0 4.93 0.54
5 -1 0 6.14 0.79
-5 0 0 28.9 1.55
-5 0 0 27.59 1.27
5 0 0 28.19 1.89
-5 0 0 29.17 1.98
-5 0 0 29.59 1.5
-5 0 0 30.03 1.57
5 0 0 27.81 1.27
-5 0 0 27.32 1.97
5 0 0 26.39 1.54
-5 0 0 28.61 1.72
-5 -1 0 14.03 1.07
5 1 0 16.58 1.04
5 1 0 15.69 1.23
5 1 0 15.66 1.38
-5 -1 0 16.09 0.95
-5 -1 0 15.53 1.33
-5 -1 0 15.42 1.01
-5 -1 0 19.31 1.38
-5 -1 0 14.52 1.02
5 1 0 15.37 1.08
5 1 0 16.01 1.08
-5 -1 0 16.46 1.18
-5 -2 0 -0.03 0.22
-5 -2 0 0.12 0.16
5 2 0 0.36 0.23
-5 -2 0 0.23 0.22
-5 -2 0 0.35 0.29
5 2 0 -0.18 0.27
-5 -2 0 0.08 0.16
-5 -2 0 -0.27 0.34
5 2 0 0.33 0.3
5 2 0 0.65 0.25
-5 -2 0 -0.11 0.16
-5 -2 0 -0.1 0.18
-5 -3 0 1.8 0.42
-5 -3 0 2.83 0.59
-5 -3 0 2.39 0.41
-5 -3 0 2.55 0.47
5 3 0 1.21 0.4
-5 -3 0 2.54 0.54
5 3 0 2.13 0.56
-5 -3 0 2.04 0.36
-5 -3 0 1.42 0.41
-5 -3 0 2.79 0.47
-5 -4 0 15.35 1.2
-5 -4 0 14.59 1.28
5 4 0 15.16 1.36
-5 -4 0 15.31 1.23
-5 -4 0 14.68 1.22
-5 -4 0 13.36 0.84
5 4 0 14.88 1.06
-5 -4 0 13.2 1.34
5 4 0 13.1 1.37
-5 -4 0 14.12 1.26
-5 -4 0 14.17 0.84
-5 -4 0 15.33 1.05
-5 -5 0 9.95 1.07
-5 -5 0 9.67 1
5 5 0 10.99 1.25
-5 -5 0 11.47 1.08
-5 -5 0 10.69 0.67
5 5 0 10.96 0.87
-5 -5 0 10.56 1.24
-5 -5 0 13.02 1.45
5 5 0 11.26 1.28
5 5 0 9.74 1.19
-5 -5 0 12.33 1.14
-5 -5 0 9.61 0.87
-5 -6 0 4.63 0.7
-5 -6 0 6.02 0.81
5 6 0 6.38 0.64
-5 -6 0 7.28 1.1
-5 -6 0 6.56 0.83
5 6 0 5.58 0.92
-5 -6 0 6.04 1.1
-5 -6 0 5.3 0.52
5 6 0 4.76 0.95
-5 -7 0 -0.08 0.17
5 7 0 0.25 0.19
-5 -7 0 -0.06 0.29
5 7 0 -0.16 0.36
5 7 0 -0.12 0.34
-5 -8 0 0.36 0.26
5 8 0 0.2 0.17
-5 -8 0 0.04 0.33
5 8 0 -0.5 0.45
5 8 0 0.15 0.5
-5 -9 0 2.84 0.6
5 9 0 3.36 0.46
-5 -9 0 0.98 0.38
5 9 0 3.31 0.85
5 9 0 1.61 0.71
-5 -10 0 -0.25 0.41
5 10 0 0.84 0.57
5 10 0 0.02 0.45
-5 -11 0 -0.12 0.29
5 11 0 0.14 0.33
5 11 0 0.01 0.47
-5 -12 0 1.01 0.54
5 -8 1 0.45 0.53
5 -8 1 -0.18 0.39
-5 7 -1 -0.21 0.39
5 -7 1 0.77 0.53
5 -7 1 -0.03 0.48
5 -7 1 0.22 0.42
5 -6 1 6.88 1.32
5 -6 1 5.81 1.27
5 -6 1 5.82 1.13
-5 6 -1 6.56 1.09
-5 6 -1 5.81 0.92
5 -5 1 -0.39 0.5
5 -5 1 0.12 0.39
-5 5 -1 0.23 0.36
5 -5 1 -0.06 0.48
5 -5 1 -0.09 0.27
-5 5 -1 0.11 0.25
5 -4 1 4.36 0.95
-5 4 -1 2.67 0.64
5 -4 1 3.75 0.89
5 -4 1 3.8 0.58
-5 4 -1 3.89 0.6
5 -3 1 12.23 1.39
5 -3 1 14.39 0.94
-5 3 -1 13.72 1.35
-5 3 -1 14.43 1.39
-5 3 -1 14.26 1
-5 3 -1 16.13 0.62
5 -3 1 13.71 1.45
5 -3 1 14.55 1.5
5 -2 1 0.87 0.44
5 -2 1 0.01 0.27
-5 2 -1 -0.28 0.42
-5 2 -1 -0.02 0.45
-5 2 -1 0.23 0.26
-5 2 -1 0.07 0.18
5 -2 1 0.49 0.18
5 -2 1 0 0.32
5 -2 1 0.26 0.33
-5 2 -1 0.03 0.12
5 -1 1 70.28 1.78
5 -1 1 69.13 3.04
-5 1 -1 70.93 3.04
-5 1 -1 67.2 1.89
-5 1 -1 74.57 3.42
-5 1 -1 70.77 2.62
-5 1 -1 68.05 1.72
-5 1 -1 71.45 2.33
5 -1 1 69.05 2.67
-5 1 -1 70.09 2.82
-5 0 -1 4.21 0.65
-5 0 -1 3.23 0.54
5 0 1 2.89 0.67
5 0 1 2.91 0.35
-5 0 -1 3.86 0.76
-5 0 -1 3.68 0.58
-5 0 -1 3.74 0.42
-5 0 -1 2.9 0.35
-5 0 -1 2.86 0.56
5 0 1 3.18 0.52
-5 -1 -1 175.92 4.37
-5 -1 -1 168.74 3.14
5 1 1 174.26 4.71
-5 -1 -1 177.68 4.74
-5 -1 -1 174.39 3.94
-5 -1 -1 177.6 4.51
-5 -1 -1 163.26 3.54
5 1 1 166.33 3.99
5 1 1 169.03 3.58
-5 -1 -1 170.22 3.85
-5 -2 -1 51.74 2.29
5 2 1 53.94 2.39
5 2 1 52.03 2.44
-5 -2 -1 51.04 2.34
-5 -2 -1 50.01 2.14
5 2 1 50.22 2.24
-5 -2 -1 46.64 2.32
-5 -2 -1 49.67 2.03
-5 -2 -1 53.62 1.95
-5 -2 -1 49.44 1.68
5 2 1 51.55 1.61
-5 -2 -1 50.05 1.74
-5 -3 -1 31.42 1.49
-5 -3 -1 33.1 1.89
-5 -3 -1 31.05 1.88
-5 -3 -1 32.2 1.52
5 3 1 31.31 1.56
-5 -3 -1 30.81 1.82
5 3 1 32.21 1.71
5 3 1 30.79 2.02
-5 -3 -1 32.18 1.51
-5 -3 -1 31.23 1.29
-5 -4 -1 89.58 3.23
-5 -4 -1 86.35 3.15
-5 -4 -1 86.47 2.05
5 4 1 86.99 2.47
-5 -4 -1 89.64 3.47
5 4 1 95.22 3.53
-5 -4 -1 82.17 2.26
5 5 1 22.98 1.9
-5 -5 -1 18.68 0.72
5 5 1 14.87 0.89
-5 -5 -1 16.57 1.67
5 5 1 13.64 1.34
5 5 1 20.85 1.68
-5 -5 -1 18.51 1.36
5 6 1 0.99 0.54
-5 -6 -1 1.54 0.46
-5 -6 -1 1.96 0.49
5 6 1 1.5 0.25
-5 -6 -1 1.75 0.58
5 6 1 2.32 0.62
-5 -6 -1 1.7 0.36
-5 -6 -1 2.19 0.49
-5 -6 -1 2.4 0.75
5 6 1 2.37 0.71
-5 -7 -1 8.94 0.84
-5 -7 -1 8.93 0.93
-5 -7 -1 9.57 1.11
5 7 1 6.89 0.47
-5 -7 -1 10.92 1.37
5 7 1 9.89 1.39
5 7 1 10.53 1.24
-5 -7 -1 11.4 1.03
5 8 1 0.13 0.09
-5 -8 -1 0.68 0.51
-5 -8 -1 0.38 0.28
5 8 1 0.45 0.39
5 8 1 0.09 0.35
-5 -8 -1 0.15 0.22
-5 -9 -1 3.42 0.64
-5 -9 -1 2.04 0.49
5 9 1 1.99 0.29
-5 -9 -1 2.14 0.82
5 9 1 2.76 0.74
5 9 1 2.13 0.27
5 9 1 1.89 0.86
-5 -10 -1 1.21 0.54
5 10 1 2.12 0.68
5 10 1 1.24 0.63
-5 -11 -1 0.08 0.37
5 11 1 -0.5 0.31
-5 -12 -1 -0.8 0.82
-5 -12 -1 0.24 0.43
5 -8 2 1.2 0.77
5 -8 2 0.97 0.65
5 -7 2 7.51 1.47
5 -7 2 6.4 1.31
-5 7 -2 5.43 1.07
5 -7 2 6.62 1.21
5 -6 2 8.58 1.47
5 -6 2 8.33 1.41
-5 6 -2 9.52 1.31
5 -6 2 8.47 1.35
-5 6 -2 7.63 0.93
5 -5 2 0.31 0.35
5 -5 2 1.25 0.59
-5 5 -2 0.75 0.6
5 -5 2 0.68 0.48
5 -5 2 0 0.25
-5 5 -2 0.54 0.29
5 -4 2 130.75 4.98
5 -4 2 118.77 4.78
5 -4 2 125.62 3.1
-5 4 -2 125.62 4.46
-5 4 -2 121.16 3.07
5 -4 2 123.77 4.84
5 -3 2 16.93 1.66
5 -3 2 17.4 0.9
5 -3 2 16.05 1.6
-5 3 -2 17.82 1.53
-5 3 -2 17.25 0.81
-5 3 -2 15.53 0.82
5 -3 2 17.38 1.64
5 -2 2 96.53 3.91
5 -2 2 94.52 3.77
-5 2 -2 96.08 3.53
-5 2 -2 93.34 4.07
-5 2 -2 95.14 3.39
-5 2 -2 92.17 2.6
5 -2 2 95.45 1.95
5 -2 2 98.77 3.67
5 -2 2 98.37 3.59
-5 1 -2 9.6 1.04
5 -1 2 11.17 1.22
5 -1 2 10.18 0.48
-5 1 -2 10.81 1.16
5 -1 2 7.12 1.02
-5 1 -2 10.15 1.03
-5 1 -2 9.64 1.18
5 -1 2 11.22 1.15
5 -1 2 9.84 0.96
-5 0 -2 11.58 1.1
5 0 2 11.13 1.21
-5 0 -2 10.13 0.5
-5 0 -2 9.77 1.13
-5 0 -2 11.27 1.02
-5 0 -2 9.29 0.44
5 0 2 10.88 0.89
-5 -1 -2 1.94 0.49
-5 -1 -2 2.23 0.35
5 1 2 2.44 0.57
-5 -1 -2 1.83 0.47
-5 -1 -2 2.16 0.25
-5 -1 -2 2.34 0.49
-5 -1 -2 1.76 0.3
5 1 2 1.84 0.31
-5 -2 -2 10.16 1.05
-5 -2 -2 9.64 0.66
5 2 2 8.56 0.98
-5 -2 -2 9.78 1.08
-5 -2 -2 9.64 0.83
5 2 2 8.82 0.76
-5 -2 -2 10.12 0.92
5 2 2 9 0.5
-5 -2 -2 9.06 0.58
-5 -2 -2 8.69 0.9
-5 -3 -2 46.79 2.32
5 3 2 48.37 2.22
-5 -3 -2 47.55 2.31
-5 -3 -2 45.61 1.77
-5 -3 -2 47.06 2.12
5 3 2 47.67 2.03
-5 -3 -2 43.41 1.22
-5 -4 -2 56.59 2.72
-5 -4 -2 53.4 2.37
-5 -4 -2 55.74 1.53
-5 -4 -2 46.88 2.38
-5 -4 -2 50.36 1.42
-5 -5 -2 92.96 2.96
-5 -5 -2 93.33 3.7
5 5 2 95.74 3.42
-5 -6 -2 15.2 1.21
5 6 2 15.11 1.48
-5 -6 -2 18.33 1.73
5 6 2 17.03 1.65
5 6 2 13.85 1.35
-5 -6 -2 16.92 1.37
-5 -7 -2 1.29 0.45
-5 -7 -2 1.53 0.45
-5 -7 -2 0.73 0.52
5 7 2 1.72 0.55
-5 -7 -2 1.3 0.36
-5 -7 -2 0.43 0.25
5 7 2 1.07 0.56
-5 -8 -2 -0.18 0.24
-5 -8 -2 0.27 0.32
-5 -8 -2 -0.11 0.45
5 8 2 -0.01 0.33
5 8 2 0.51 0.44
-5 -8 -2 0.11 0.26
-5 -9 -2 0.18 0.19
-5 -9 -2 -0.19 0.45
5 9 2 -0.09 0.31
5 9 2 0.94 0.61
-5 -10 -2 0.67 0.49
-5 -10 -2 0.65 0.34
5 10 2 -0.06 0.4
5 10 2 0.53 0.45
-5 -11 -2 0.51 0.56
-5 -11 -2 0.17 0.54
5 11 2 1.28 0.9
-5 -12 -2 1.66 0.85
-5 -12 -2 0.3 0.46
-5 -13 -2 1.7 0.91
5 -8 3 0.47 0.63
5 -8 3 -0.13 0.41
5 -7 3 0 0.43
5 -7 3 -0.59 0.61
5 -7 3 0.38 0.41
5 -6 3 10.43 1.7
5 -6 3 7.09 1.35
-5 6 -3 10.43 1.43
5 -6 3 9.75 1.57
5 -5 3 3.3 0.93
5 -5 3 4.77 1.04
-5 5 -3 3.23 0.74
5 -5 3 1.99 0.59
5 -5 3 3.52 0.54
-5 5 -3 3.46 0.48
5 -4 3 198.5 6.19
5 -4 3 204.38 6.37
5 -4 3 189.91 3.55
-5 4 -3 212.18 5.78
5 -4 3 203.62 6.26
5 -3 3 34.81 2.43
5 -3 3 35.49 1.13
-5 3 -3 38.25 2.26
5 -3 3 38.48 2.39
5 -2 3 0.19 0.31
5 -2 3 0.24 0.35
-5 2 -3 -0.21 0.29
-5 2 -3 0.33 0.28
-5 2 -3 0.08 0.37
5 -2 3 0.99 0.52
-5 1 -3 9.3 1.06
-5 1 -3 7.05 0.9
5 -1 3 8.47 1.08
-5 1 -3 7.61 0.93
5 -1 3 9.55 1.09
5 -1 3 7.72 0.89
5 -1 3 5.08 0.92
-5 0 -3 13.64 1.27
5 0 3 12.68 1.31
-5 0 -3 14.27 1.24
5 0 3 10.61 1.08
5 0 3 14.22 0.97
5 1 3 1.49 0.26
-5 -1 -3 1.3 0.5
-5 -1 -3 1.28 0.14
-5 -1 -3 1.77 0.44
5 1 3 1.22 0.46
-5 -1 -3 1.28 0.4
-5 -1 -3 1.03 0.18
-5 -2 -3 33.38 2.03
-5 -2 -3 33.9 1.89
5 2 3 32.08 1.92
-5 -2 -3 29.86 1.66
-5 -2 -3 30.45 1.35
5 2 3 31.65 1.38
-5 -2 -3 33.66 1.84
-5 -3 -3 102.81 3.67
5 3 3 106.65 3.45
-5 -3 -3 106.2 3.39
-5 -3 -3 99.51 2.82
-5 -3 -3 97.25 3.05
5 3 3 107.8 3.16
-5 -4 -3 207.31 5.51
5 4 3 210.2 4.72
-5 -4 -3 199.98 4.69
-5 -4 -3 192.75 3.38
-5 -4 -3 211.61 5.17
-5 -4 -3 172.73 2.53
-5 -4 -3 183.66 2.82
-5 -5 -3 9.53 1.2
-5 -5 -3 8.8 1.06
-5 -5 -3 7.33 0.82
-5 -5 -3 8.19 1.15
-5 -5 -3 8.26 0.68
-5 -6 -3 -0.02 0.28
-5 -6 -3 0.84 0.35
-5 -6 -3 0.63 0.32
-5 -6 -3 0.96 0.56
5 6 3 0.99 0.49
-5 -7 -3 5.66 0.83
-5 -7 -3 5.88 0.7
-5 -7 -3 4.99 0.8
5 7 3 5.32 0.84
5 7 3 4.33 0.99
-5 -8 -3 2.42 0.65
-5 -8 -3 2.12 0.6
-5 -8 -3 3.29 0.49
5 8 3 3.14 0.69
-5 -8 -3 2.94 0.6
5 8 3 3.14 0.93
-5 -9 -3 0.44 0.3
-5 -9 -3 0.38 0.22
-5 -9 -3 0.11 0.46
5 9 3 0.57 0.34
5 9 3 1.24 0.68
-5 -10 -3 1.22 0.58
-5 -10 -3 0.31 0.4
5 10 3 0.6 0.39
5 10 3 0.92 0.69
-5 -11 -3 0.04 0.49
-5 -11 -3 0.47 0.36
5 11 3 0.17 0.43
-5 -12 -3 0.58 0.52
-5 -12 -3 0.75 0.53
-5 -13 -3 0.25 0.69
5 -8 4 3.26 1.06
5 -7 4 10.18 1.8
5 -7 4 10.17 1.8
-5 7 -4 10.7 1.61
5 -7 4 10.17 1.68
5 -6 4 9.43 1.56
5 -6 4 11.41 1.71
5 -6 4 11.41 1.64
-5 6 -4 11.8 1.58
5 -5 4 0.01 0.44
5 -5 4 1.31 0.64
5 -5 4 0.27 0.2
5 -5 4 1.09 0.62
-5 5 -4 0.43 0.35
5 -4 4 13.28 1.55
5 -4 4 17.24 0.88
5 -4 4 17.06 0.9
-5 4 -4 15.96 1.58
5 -4 4 17.76 1.92
5 -4 4 17.09 1.77
5 -3 4 5.3 0.33
5 -3 4 8.24 1.34
5 -3 4 4.74 0.31
5 -3 4 5.59 0.91
5 -3 4 3.35 0.74
-5 3 -4 7.91 1.09
5 -2 4 4.11 0.91
5 -2 4 3.46 0.66
5 -2 4 3.3 0.7
-5 2 -4 3.26 0.7
-5 1 -4 41.62 2.33
5 -1 4 44.7 2.67
5 -1 4 46.33 2.58
-5 1 -4 41.47 2.28
5 -1 4 45.48 2.48
5 -1 4 39.84 2.02
5 0 4 129.14 4.35
-5 0 -4 131.23 4.25
-5 0 -4 136.94 4.2
5 0 4 124.23 3.21
-5 -1 -4 8.62 1.09
5 1 4 10.12 1.14
-5 -1 -4 9.9 1
5 1 4 7.91 0.5
-5 -1 -4 8.88 1.01
5 1 4 7.5 0.55
-5 -2 -4 66.45 2.57
-5 -2 -4 71.01 3.09
5 2 4 69.35 2.86
-5 -2 -4 61.97 1.7
5 2 4 65.59 2.14
-5 -2 -4 68.35 2.78
-5 -3 -4 19.04 1.61
5 3 4 23.13 1.54
-5 -3 -4 22.14 1.41
-5 -3 -4 23.26 1.37
5 3 4 19.6 1.31
-5 -4 -4 7.11 1
-5 -4 -4 6.07 0.89
-5 -4 -4 6.54 0.74
5 4 4 6.18 0.76
-5 -4 -4 6.59 0.89
-5 -5 -4 12.1 1.37
5 5 4 14 1.06
-5 -5 -4 11.61 0.95
-5 -5 -4 14.55 1.32
-5 -5 -4 12 1.26
-5 -5 -4 12.19 0.7
-5 -6 -4 13.05 1.27
-5 -6 -4 14.36 1.02
-5 -6 -4 13.63 1.46
5 6 4 12.96 1.48
-5 -6 -4 13.76 1.15
-5 -6 -4 13.11 1
-5 -7 -4 -0.46 0.33
-5 -7 -4 -0.08 0.14
-5 -7 -4 0.04 0.25
-5 -7 -4 0.03 0.2
5 7 4 0.23 0.36
-5 -8 -4 0.67 0.38
-5 -8 -4 0.91 0.4
-5 -8 -4 0.92 0.22
5 8 4 1.08 0.6
-5 -9 -4 0.35 0.27
-5 -9 -4 0.76 0.4
5 9 4 0.17 0.44
-5 -10 -4 0.11 0.37
5 10 4 0.03 0.71
-5 -11 -4 -0.54 0.56
-5 -11 -4 0.59 0.52
5 11 4 -0.59 0.53
-5 -12 -4 0.77 0.77
-5 -12 -4 0.71 0.49
-5 -13 -4 -0.19 0.68
5 -8 5 1.69 0.79
5 -7 5 4.16 1.23
5 -7 5 3.79 1.18
-5 7 -5 4.49 1.07
5 -7 5 3.27 0.98
5 -6 5 1.03 0.6
5 -6 5 1.18 0.56
5 -6 5 2.86 0.89
-5 6 -5 1.24 0.59
5 -5 5 13.04 1.82
5 -5 5 10.61 1.65
-5 5 -5 12.82 1.55
5 -5 5 11.34 1.57
5 -4 5 1.52 0.61
5 -4 5 1.35 0.7
5 -4 5 1.27 0.39
5 -4 5 1.82 0.27
-5 4 -5 1.43 0.49
5 -4 5 1.58 0.28
5 -3 5 7.19 1.26
5 -3 5 6.88 1.12
-5 3 -5 9.71 1.24
-5 2 -5 3.46 0.7
5 -2 5 3.51 0.8
5 -2 5 4.56 0.99
5 -1 5 0.82 0.46
5 -1 5 1.17 0.46
-5 1 -5 0.53 0.31
-5 0 -5 98.81 3.77
5 0 5 94.3 4
5 0 5 98.03 3.81
-5 0 -5 103.97 3.8
5 1 5 93.7 3.78
5 1 5 101.37 3.69
5 1 5 88.14 2.2
-5 -1 -5 93.76 3.7
-5 -1 -5 97.94 3.64
-5 -2 -5 42.71 2.44
5 2 5 40.74 2.48
5 2 5 41.1 2.29
-5 -2 -5 40.13 1.31
5 2 5 39.29 1.72
-5 -2 -5 39.98 2.23
5 2 5 35.25 0.85
5 2 5 32.59 0.84
-5 -3 -5 7.27 1.03
5 3 5 8.09 0.94
-5 -3 -5 7.64 0.72
5 3 5 7.18 0.86
-5 -4 -5 0.39 0.3
-5 -4 -5 -0.12 0.4
5 4 5 0.6 0.36
-5 -4 -5 0.72 0.33
-5 -4 -5 0.12 0.2
-5 -5 -5 3.26 0.78
-5 -5 -5 2.44 0.59
-5 -5 -5 3.66 0.32
5 5 5 3.98 0.62
-5 -5 -5 3.47 0.7
5 5 5 4.08 0.82
-5 -5 -5 3.68 0.36
5 6 5 7.55 0.75
-5 -6 -5 8.61 1.06
-5 -6 -5 6.78 0.81
-5 -6 -5 7.06 1.13
5 6 5 7.53 1.22
-5 -6 -5 7.04 0.67
-5 -7 -5 3.04 0.6
-5 -7 -5 2.34 0.6
-5 -7 -5 2.85 0.47
5 7 5 3.29 0.82
-5 -8 -5 0.4 0.38
-5 -8 -5 0.58 0.38
-5 -8 -5 1.58 0.37
5 8 5 1.07 0.55
-5 -9 -5 3.1 0.77
-5 -9 -5 2.3 0.57
5 9 5 2.72 0.92
-5 -10 -5 0.36 0.45
5 10 5 -0.08 0.52
-5 -11 -5 -0.42 0.56
5 11 5 -0.05 0.77
-5 -12 -5 0.42 0.48
-5 -12 -5 0.07 0.41
5 -7 6 -0.02 0.52
5 -7 6 0.58 0.53
5 -6 6 -1.28 0.8
5 -6 6 -0.63 0.71
-5 6 -6 0.39 0.45
5 -6 6 0.34 0.61
5 -5 6 0.22 0.44
5 -5 6 0.87 0.54
-5 5 -6 0.08 0.36
5 -4 6 10.64 1.6
5 -4 6 10.27 1.5
-5 4 -6 11.33 1.43
5 -3 6 -0.29 0.49
5 -3 6 -0.49 0.57
5 -3 6 0.38 0.14
5 -3 6 0.4 0.09
-5 3 -6 0.94 0.42
5 -3 6 0.33 0.09
-5 2 -6 3.74 0.8
5 -2 6 3.88 0.93
5 -2 6 3.58 0.79
5 -2 6 2.88 0.31
5 -1 6 2.9 0.79
5 -1 6 2.73 0.71
5 -1 6 2.29 0.29
5 -1 6 2.21 0.29
-5 1 -6 1.7 0.5
5 0 6 0.2 0.35
-5 0 -6 0.14 0.4
5 0 6 -0.06 0.38
5 0 6 -0.01 0.14
-5 -1 -6 2.59 0.27
-5 -1 -6 4.01 0.82
5 1 6 3.07 0.81
-5 -1 -6 3.47 0.76
5 1 6 3.12 0.69
5 1 6 2.34 0.39
5 1 6 3.11 0.43
-5 -2 -6 4.28 0.83
5 2 6 4.02 0.86
-5 -2 -6 2.97 0.63
5 2 6 4.04 0.73
-5 -2 -6 3.35 0.41
5 2 6 3.65 0.57
5 2 6 4.5 0.41
-5 -3 -6 3.99 0.86
5 3 6 5.03 0.81
-5 -3 -6 3.58 0.52
5 3 6 4.17 0.34
5 4 6 7.25 0.9
-5 -4 -6 6.07 0.56
-5 -4 -6 5.97 0.76
-5 -5 -6 3.42 0.68
-5 -5 -6 3.77 0.42
5 5 6 4.45 0.67
5 5 6 4.64 0.88
-5 -5 -6 4.37 0.41
-5 -5 -6 4.15 0.74
-5 -6 -6 0.09 0.28
5 6 6 -0.16 0.23
-5 -6 -6 0.57 0.2
-5 -6 -6 -0.02 0.2
5 6 6 0 0.38
-5 -6 -6 -0.23 0.4
-5 -6 -6 0.18 0.16
-5 -7 -6 -0.29 0.42
-5 -7 -6 0.63 0.28
5 7 6 0.47 0.63
-5 -7 -6 0.31 0.29
-5 -8 -6 0.25 0.27
-5 -8 -6 0.23 0.26
-5 -8 -6 0.37 0.19
5 8 6 -0.21 0.43
-5 -9 -6 0.43 0.31
-5 -9 -6 0.07 0.25
5 9 6 0.19 0.41
-5 -10 -6 0.31 0.4
5 10 6 0.59 0.62
-5 -11 -6 -0.09 0.45
5 11 6 1.6 1.14
-5 -12 -6 0.4 0.41
5 -6 7 1.11 0.73
5 -6 7 -0.02 0.54
-5 6 -7 0.49 0.51
5 -5 7 1.28 0.66
5 -5 7 0.03 0.52
-5 5 -7 0.17 0.43
5 -4 7 15.64 2.01
5 -4 7 14.45 1.85
-5 4 -7 13.38 1.59
5 -3 7 12.54 1.7
5 -3 7 15.52 1.86
-5 3 -7 13.96 1.63
5 -2 7 1.98 0.79
-5 2 -7 0.53 0.42
5 -2 7 1.61 0.75
5 -2 7 0.99 0.29
5 -2 7 1.08 0.19
5 -1 7 5.63 1.06
5 -1 7 3.85 0.36
5 -1 7 4.16 0.84
5 -1 7 4.52 0.55
-5 1 -7 2.85 0.69
5 0 7 8.89 1.32
-5 0 -7 8.51 1.18
5 0 7 8.44 1.15
5 0 7 7.65 0.73
5 1 7 18.33 1.85
-5 -1 -7 16.48 0.85
5 1 7 19 1.67
5 1 7 17.36 1.23
-5 -1 -7 18.82 1.83
5 1 7 16.42 1.07
5 2 7 0.34 0.46
5 2 7 0.05 0.38
-5 -2 -7 0.85 0.25
5 2 7 0.7 0.25
5 3 7 10.69 1.16
-5 -3 -7 9.49 0.86
-5 -3 -7 9.7 0.84
5 3 7 9.77 0.72
5 4 7 13.91 1.32
-5 -4 -7 12.51 1.12
-5 -4 -7 9.42 0.8
5 4 7 12.45 1.38
5 4 7 11.59 0.81
-5 -5 -7 11 1.27
5 5 7 11.87 1.13
-5 -5 -7 12.23 1.26
-5 -5 -7 11.66 0.87
5 5 7 12.89 1.52
-5 -5 -7 12.38 0.77
-5 -6 -7 1.04 0.48
5 6 7 1.54 0.41
-5 -6 -7 1.52 0.33
-5 -6 -7 1.33 0.39
5 6 7 2.84 0.86
-5 -6 -7 1.87 0.37
-5 -7 -7 0.87 0.4
5 7 7 1.3 0.31
-5 -7 -7 0.81 0.22
-5 -7 -7 1.22 0.36
5 7 7 0.66 0.55
-5 -7 -7 0.93 0.36
-5 -8 -7 2.32 0.63
5 8 7 1.88 0.77
-5 -8 -7 1.93 0.55
-5 -9 -7 0.75 0.39
5 9 7 0.94 0.64
-5 -9 -7 0.78 0.45
5 10 7 -0.63 0.55
-5 -10 -7 0.75 0.58
5 11 7 0.36 0.56
-5 -11 -7 0.28 0.45
5 -5 8 3.4 1.06
5 -5 8 1.5 0.79
-5 5 -8 1.47 0.71
5 -4 8 3.17 1.07
5 -4 8 4 1.04
-5 4 -8 4.62 1.02
5 -3 8 3.81 0.99
5 -3 8 2.76 0.91
-5 3 -8 5.13 1.08
5 -2 8 14.83 1.9
5 -2 8 19.65 2.02
5 -2 8 15.52 0.88
-5 2 -8 17.26 1.82
5 -1 8 13 1.7
5 -1 8 16.3 1.83
5 -1 8 14.22 0.89
-5 1 -8 17.61 1.79
5 -1 8 15.43 1.16
5 -1 8 15.24 1.33
-5 0 -8 5.53 0.56
5 0 8 7.84 1.4
5 0 8 5.3 0.64
-5 0 -8 6.76 1.16
5 0 8 5.37 1.03
5 1 8 1.63 0.76
-5 -1 -8 0.73 0.52
5 1 8 1.75 0.59
-5 -1 -8 1.31 0.32
-5 -2 -8 2.23 0.7
-5 -2 -8 3.36 0.6
5 2 8 1.94 0.63
-5 -2 -8 2.61 0.44
5 2 8 0.07 0.11
5 2 8 2.96 0.53
-5 -3 -8 9.77 0.95
5 3 8 10.36 1.23
-5 -3 -8 9.72 0.93
5 3 8 10.21 1.24
5 3 8 9.73 0.86
5 4 8 3.29 0.53
-5 -4 -8 2.58 0.51
5 4 8 3.36 0.7
5 4 8 3.06 0.76
-5 -4 -8 3.93 0.66
-5 -5 -8 4.37 0.81
5 5 8 6.02 0.85
-5 -5 -8 4.47 0.63
5 5 8 4.86 0.96
-5 -5 -8 5.34 0.85
5 5 8 4.27 0.64
-5 -5 -8 4.26 0.52
-5 -6 -8 7.72 1.1
5 6 8 7.53 0.89
-5 -6 -8 7.99 0.8
5 6 8 7.96 1.29
-5 -6 -8 8.3 0.81
-5 -7 -8 2.64 0.66
5 7 8 3.39 0.53
-5 -7 -8 2.31 0.46
5 7 8 1.65 0.72
-5 -7 -8 2.54 0.55
-5 -8 -8 0.23 0.34
5 8 8 0.31 0.65
-5 -8 -8 -0.23 0.23
-5 -9 -8 0.66 0.41
5 9 8 1.08 0.74
-5 -9 -8 -0.74 0.43
5 10 8 -0.07 0.68
5 -5 9 0.58 0.62
-5 5 -9 0.16 0.44
5 -4 9 0 0.66
5 -4 9 0.39 0.53
-5 4 -9 0.9 0.48
-5 3 -9 3.12 0.88
5 -3 9 1.08 0.6
5 -3 9 2.22 0.8
5 -2 9 0.13 0.46
5 -2 9 0.49 0.51
-5 2 -9 -0.19 0.33
5 -1 9 4.06 1.03
5 -1 9 4.63 1.05
-5 1 -9 5.28 1.09
5 -1 9 3.55 0.51
5 0 9 0.12 0.48
-5 0 -9 0.25 0.38
5 0 9 0.42 0.36
5 0 9 -0.1 0.23
5 0 9 0.44 0.34
5 1 9 16.1 1.92
-5 -1 -9 18.64 1.2
5 1 9 19.49 1.87
-5 -1 -9 17.5 1.45
5 1 9 16.39 1.48
-5 -1 -9 17.42 1.92
5 1 9 16.06 1.31
-5 -2 -9 63.03 2.4
5 2 9 63.83 3.31
-5 -2 -9 63.53 2.72
5 2 9 66.63 3.16
-5 -2 -9 63.43 3.58
-5 -3 -9 1.53 0.45
5 3 9 1.58 0.66
-5 -3 -9 1.74 0.42
5 3 9 2.47 0.64
-5 -4 -9 8.14 1.01
-5 -4 -9 7.44 0.87
5 4 9 8.44 1.16
5 4 9 9.04 1.29
-5 -5 -9 1.1 0.5
5 5 9 1.15 0.48
-5 -5 -9 0.55 0.32
5 5 9 0.7 0.47
-5 -6 -9 -0.23 0.34
5 6 9 0.19 0.32
-5 -6 -9 -0.38 0.32
5 6 9 -0.06 0.48
-5 -6 -9 0.14 0.21
-5 -7 -9 -0.19 0.32
-5 -7 -9 -0.17 0.29
5 7 9 0.32 0.47
-5 -7 -9 0.06 0.19
-5 -8 -9 -0.17 0.29
5 8 9 -0.65 0.44
-5 -8 -9 0.21 0.31
-5 -9 -9 2.73 0.68
5 9 9 0.45 0.51
5 -4 10 0.36 0.53
-5 4 -10 2.22 0.92
5 -3 10 0.84 0.69
-5 3 -10 0.77 0.54
5 -2 10 0.45 0.56
-5 2 -10 -0.27 0.34
5 -2 10 -0.07 0.57
5 -1 10 -0.07 0.58
-5 1 -10 0.29 0.35
5 -1 10 1.13 0.68
-5 1 -10 -0.42 0.55
5 0 10 4.16 1.05
-5 0 -10 4.42 1.07
-5 0 -10 4.79 0.89
5 0 10 5.26 1.12
5 0 10 4.18 0.81
-5 -1 -10 1.7 0.73
-5 -1 -10 1.57 0.57
5 1 10 1.12 0.57
5 1 10 1.09 0.43
5 1 10 1 0.41
5 2 10 17.8 1.82
-5 -2 -10 16.71 1.49
5 2 10 16.66 1.72
-5 -2 -10 19.05 2.01
-5 -3 -10 6.8 0.96
5 3 10 7.19 1.19
5 3 10 6.68 1.16
-5 -4 -10 1.72 0.47
5 4 10 1.97 0.6
5 4 10 2.83 0.85
-5 -5 -10 0.59 0.36
5 5 10 -0.04 0.3
-5 -6 -10 0.74 0.43
5 6 10 1.14 0.46
-5 -6 -10 0.55 0.26
5 6 10 0.6 0.45
-5 -6 -10 0.63 0.32
-5 -7 -10 0.71 0.39
5 7 10 0.33 0.43
5 8 10 0.94 0.77
5 9 10 0.34 0.47
-5 3 -11 1.01 0.64
5 -3 11 1.22 0.79
5 -2 11 2.63 1.06
-5 2 -11 2.74 0.85
5 -1 11 1.09 0.61
-5 1 -11 2.79 0.83
5 -1 11 4.31 1.25
-5 1 -11 2.97 0.95
5 0 11 1.73 0.71
-5 0 -11 0.98 0.49
5 0 11 1.21 0.65
-5 0 -11 0.39 0.36
-5 -1 -11 3.42 0.82
5 1 11 2.39 0.88
5 1 11 1.72 0.64
-5 -1 -11 2.94 0.91
-5 -2 -11 1.66 0.51
-5 -2 -11 1.62 0.69
5 2 11 3.63 0.95
5 2 11 3.51 0.88
-5 -3 -11 0.3 0.34
5 3 11 0.45 0.4
5 3 11 0.37 0.52
-5 -4 -11 0.25 0.34
5 4 11 0.21 0.32
5 4 11 -0.16 0.4
-5 -5 -11 0.18 0.38
-5 -5 -11 -0.25 0.32
5 5 11 0.48 0.42
5 5 11 0.44 0.48
-5 -6 -11 0.74 0.46
-5 -6 -11 0.27 0.37
5 6 11 1.59 0.75
5 7 11 0.42 0.61
5 8 11 0.07 0.62
5 -1 12 -0.19 0.69
-5 1 -12 -0.52 0.56
-5 0 -12 -0.35 0.43
-5 -1 -12 0.27 0.4
5 1 12 0.54 0.41
-5 -1 -12 -0.82 0.57
-5 -2 -12 0.29 0.39
5 2 12 -0.18 0.43
5 2 12 0.74 0.45
-5 -2 -12 0.58 0.65
-5 -3 -12 3.08 0.75
5 3 12 2.81 0.82
-5 -3 -12 2.87 1.01
5 3 12 2.03 0.86
5 4 12 0.65 0.55
5 4 12 -0.16 0.49
-5 -5 -12 -0.13 0.35
5 5 12 -0.14 0.51
5 6 12 -0.06 0.44
-5 -3 -13 1.05 0.71
5 3 13 0.32 0.58
5 3 13 0.53 0.51
-5 -4 -13 1.26 0.59
5 4 13 -0.06 0.52
5 4 13 0.05 0.43
5 5 13 -0.66 0.66
6 0 -9 -0.29 0.57
6 1 -9 -0.07 0.55
6 -1 -8 1.88 0.77
6 0 -8 3.69 1.06
6 1 -8 1.1 0.65
6 2 -8 1.57 0.86
6 2 -8 1.42 0.72
6 3 -8 1.05 0.8
6 3 -8 -0.15 0.52
-6 4 7 2.48 0.96
-6 3 7 -0.05 0.41
6 -2 -7 2.17 1.01
-6 2 7 1.6 0.72
6 -2 -7 1.97 0.84
6 -1 -7 1.31 0.8
6 -1 -7 0.98 0.61
-6 1 7 2.53 0.86
6 -1 -7 3.83 1.08
6 0 -7 4.64 1.29
6 0 -7 2.46 0.89
-6 0 7 3.41 0.92
6 0 -7 4.21 1.05
6 1 -7 4.23 1.2
6 1 -7 4.81 1.26
-6 -1 7 2.25 0.83
6 1 -7 3.56 0.91
6 2 -7 0.06 0.56
-6 -2 7 1.84 0.71
6 2 -7 0.45 0.5
6 3 -7 1.87 0.86
-6 -3 7 2.7 0.77
6 3 -7 3.18 1.05
6 4 -7 0.85 0.63
-6 -4 7 0.81 0.52
6 4 -7 0.77 0.63
6 5 -7 0.01 0.5
-6 -5 7 0.2 0.4
6 5 -7 -0.44 0.57
6 6 -7 -0.64 0.58
6 7 -7 0.75 0.52
-6 6 6 -0.11 0.55
-6 5 6 1.16 0.74
6 -4 -6 1.11 0.92
-6 4 6 -0.01 0.4
6 -4 -6 0.25 0.58
-6 4 6 0.84 0.58
6 -3 -6 -0.97 0.63
-6 3 6 0.14 0.36
6 -3 -6 -0.11 0.37
6 -2 -6 5.45 1.34
-6 2 6 6.05 1.28
6 -2 -6 6.16 1.2
-6 1 6 13.82 1.67
6 -1 -6 15.16 2.13
6 -1 -6 14.8 1.86
6 -1 -6 17.32 2.05
6 0 -6 0.16 0.5
6 0 -6 -0.08 0.56
-6 0 6 0.19 0.43
6 0 -6 -0.49 0.49
6 1 -6 3.22 1.04
6 1 -6 3.29 0.99
-6 -1 6 3.11 0.82
6 1 -6 3.41 0.85
6 2 -6 1.52 0.75
-6 -2 6 0.5 0.52
6 2 -6 0.25 0.49
6 3 -6 0.76 0.56
-6 -3 6 1.4 0.61
6 3 -6 0.44 0.61
6 4 -6 0.85 0.61
-6 -4 6 -0.2 0.31
6 4 -6 0.75 0.79
6 5 -6 1.08 0.62
-6 -5 6 0.87 0.48
6 5 -6 0.47 0.49
6 6 -6 -0.24 0.6
-6 -6 6 -0.32 0.54
6 6 -6 0.23 0.45
6 7 -6 -0.78 0.62
-6 -7 6 -0.24 0.53
6 8 -6 -0.67 0.64
-6 6 5 0.17 0.42
6 -5 -5 2.86 0.84
6 -5 -5 2.4 1
-6 5 5 2.3 0.88
6 -5 -5 3.62 1.16
6 -4 -5 -0.35 0.38
6 -4 -5 1.18 0.8
-6 4 5 0 0.38
6 -4 -5 1.34 0.75
-6 4 5 -0.03 0.44
6 -3 -5 3.33 0.78
6 -3 -5 1.78 0.68
-6 3 5 3.05 0.83
6 -3 -5 4.35 1.02
6 -2 -5 0.07 0.44
-6 2 5 -0.08 0.42
6 -2 -5 -0.28 0.43
6 -1 -5 4.53 0.61
6 -1 -5 6.51 1.37
6 -1 -5 4.32 1.02
-6 1 5 5.64 1.06
6 -1 -5 5.36 1.09
6 -1 -5 3.87 0.77
6 0 -5 1.6 0.75
6 0 -5 1.33 0.59
-6 0 5 2.09 0.64
6 0 -5 1.43 0.57
6 1 -5 4.32 1.05
6 1 -5 5.16 1.16
-6 -1 5 4.82 0.92
6 1 -5 4.2 0.93
6 2 -5 4.99 1.17
-6 -2 5 6.39 1.09
6 2 -5 7.5 1.37
6 2 -5 7.57 1.22
6 3 -5 0.71 0.55
-6 -3 5 1.28 0.51
6 3 -5 1.01 0.65
6 4 -5 0.39 0.42
-6 -4 5 1.22 0.55
6 4 -5 1.14 0.68
6 5 -5 1.55 0.57
-6 -5 5 1.1 0.5
6 5 -5 2.24 0.92
6 6 -5 -0.05 0.49
-6 -6 5 0.7 0.43
6 6 -5 0.89 0.53
6 7 -5 -0.33 0.47
-6 -7 5 0.53 0.55
6 7 -5 -0.02 0.67
6 8 -5 0.98 0.6
-6 -8 5 0.67 0.58
6 8 -5 0.65 0.56
6 9 -5 0.06 0.46
6 -7 -4 -0.23 0.6
6 -6 -4 -0.5 0.47
-6 6 4 -0.25 0.61
-6 6 4 -0.13 0.31
6 -5 -4 -0.02 0.37
6 -5 -4 0.75 0.58
-6 5 4 0.46 0.48
-6 5 4 0.03 0.3
6 -5 -4 -0.01 0.39
6 -4 -4 1.54 0.58
6 -4 -4 2.15 0.91
-6 4 4 2.28 0.76
-6 4 4 2.75 0.66
6 -4 -4 2.24 0.74
-6 4 4 2.79 0.91
6 -3 -4 4.47 0.82
6 -3 -4 3.25 1.04
-6 3 4 4.87 0.86
-6 3 4 3.54 0.77
6 -3 -4 4.8 1.09
6 -2 -4 3.92 0.79
-6 2 4 3.37 0.41
6 -2 -4 3.57 1.05
-6 2 4 3.65 0.67
-6 2 4 3.57 0.85
6 -2 -4 5.72 1.08
6 -1 -4 4.9 0.72
-6 1 4 4.55 0.51
6 -1 -4 4.42 1.07
-6 1 4 4.4 0.67
-6 1 4 4.97 0.87
6 -1 -4 5.18 1
6 0 -4 5.97 0.67
-6 0 4 6.43 0.65
6 0 -4 7.01 1.39
6 0 -4 7.66 1.36
-6 0 4 5.61 0.9
6 0 -4 6.86 1.19
-6 -1 4 1.46 0.38
6 1 -4 1.79 0.77
6 1 -4 0.76 0.28
-6 -1 4 1.03 0.45
6 1 -4 0.48 0.43
6 1 -4 1.94 0.68
6 2 -4 0.66 0.18
6 2 -4 0.7 0.55
-6 -2 4 0.84 0.47
6 2 -4 0.65 0.47
6 2 -4 -0.69 0.58
6 3 -4 0.04 0.34
6 3 -4 0.02 0.41
6 4 -4 1.29 0.61
-6 -4 4 1.32 0.53
6 4 -4 0.76 0.45
6 5 -4 -0.29 0.43
-6 -5 4 0.15 0.31
6 5 -4 0.46 0.42
6 6 -4 -0.57 0.66
-6 -6 4 -0.3 0.39
6 6 -4 0.55 0.62
6 7 -4 1 0.56
-6 -7 4 -0.32 0.48
6 7 -4 0.36 0.47
6 8 -4 0.3 0.33
-6 -8 4 0.51 0.45
6 8 -4 0.54 0.52
6 9 -4 -0.16 0.41
-6 -9 4 0.26 0.48
6 9 -4 0.3 0.43
6 -7 -3 0.33 0.52
6 -6 -3 0.7 0.57
-6 6 3 1.58 0.69
-6 6 3 1.47 0.59
6 -6 -3 2.28 0.91
6 -5 -3 0.01 0.35
-6 5 3 1.08 0.53
-6 5 3 -0.24 0.36
6 -5 -3 0.72 0.6
6 -4 -3 0.29 0.53
6 -4 -3 1.7 0.83
-6 4 3 1.25 0.56
-6 4 3 1.44 0.57
6 -4 -3 1.75 0.69
6 -3 -3 3.53 0.8
6 -3 -3 4.31 1.08
6 -3 -3 3.86 0.75
-6 3 3 5.42 1
-6 3 3 4.81 0.81
-6 3 3 5.88 1.01
6 -3 -3 5.95 1.13
-6 2 3 -0.07 0.19
6 -2 -3 0.32 0.46
6 -2 -3 0.77 0.45
-6 2 3 -0.65 0.38
-6 2 3 0.35 0.27
6 -2 -3 -0.09 0.26
6 -2 -3 -0.09 0.36
-6 1 3 18.49 1.24
-6 1 3 14.31 1.38
-6 1 3 17.15 1.28
6 -1 -3 18.32 2.02
6 -1 -3 16.84 1.37
6 -1 -3 17.81 1.68
6 -1 -3 18.24 1.78
6 0 -3 85.17 2.94
-6 0 3 90.97 2.74
-6 0 3 82.94 2.72
-6 0 3 92.73 3.47
6 0 -3 93.86 4.43
6 0 -3 88.65 4.12
6 0 -3 91.64 3.85
-6 -1 3 66.64 2.04
6 1 -3 62.71 2.24
-6 -1 3 75.23 2.55
-6 -1 3 67.04 2.87
6 1 -3 64.17 3.51
6 1 -3 63.8 2.28
6 1 -3 64.59 3.61
6 1 -3 66.29 3.12
-6 -2 3 2.74 0.48
6 2 -3 3.51 0.82
-6 -2 3 4.36 0.76
-6 -2 3 3.33 0.71
6 2 -3 3.77 0.45
6 2 -3 3.67 0.87
6 2 -3 2.46 0.54
-6 -3 3 10.37 0.7
-6 -3 3 11.45 1.23
-6 -3 3 11.15 0.99
6 3 -3 10.22 1.35
-6 -3 3 12.92 1.25
6 3 -3 10.04 1.5
-6 -4 3 1.62 0.37
6 4 -3 1.9 0.59
6 4 -3 2.35 0.66
-6 -4 3 1.47 0.5
-6 -4 3 1.87 0.53
6 4 -3 2 0.75
-6 -5 3 0.41 0.25
6 5 -3 0.31 0.31
-6 -5 3 0.7 0.39
-6 -5 3 0.51 0.36
6 5 -3 1.32 0.65
-6 -6 3 0.23 0.3
6 6 -3 -0.32 0.46
-6 -6 3 0.81 0.48
-6 -6 3 -0.56 0.37
6 6 -3 -0.04 0.39
6 7 -3 1.74 0.5
-6 -7 3 1.61 0.64
-6 -7 3 2.83 0.73
6 7 -3 2.41 0.79
6 8 -3 5.82 0.94
-6 -8 3 8.14 1.35
-6 -8 3 7.55 1.17
6 8 -3 6.33 1.34
6 9 -3 1.06 0.46
-6 -9 3 1.34 0.7
-6 -9 3 2.14 0.79
6 9 -3 1.05 0.76
-6 -10 3 1.61 0.83
6 10 -3 0.08 0.48
6 -7 -2 0.51 0.42
6 -6 -2 3.59 0.96
-6 6 2 4.79 1.08
-6 6 2 5.44 1.08
6 -6 -2 4.93 1.21
6 -5 -2 7.98 1.27
-6 5 2 5.94 1.06
-6 5 2 6.73 1.07
6 -5 -2 7.14 1.37
-6 4 2 7.02 1.1
6 -4 -2 7.33 1.14
-6 4 2 7.88 1.08
6 -4 -2 7.25 1.33
6 -3 -2 0.53 0.38
6 -3 -2 1.86 0.87
-6 3 2 1.8 0.61
-6 3 2 1.79 0.57
-6 3 2 0.81 0.41
6 -3 -2 1.51 0.6
6 -2 -2 17.61 1.6
-6 2 2 17.98 1.43
-6 2 2 15.78 1.42
6 -2 -2 14.49 1.78
6 -2 -2 16 1.34
6 -2 -2 15.75 1.68
6 -1 -2 9.33 1.01
-6 1 2 8.86 0.96
-6 1 2 7.48 0.95
6 -1 -2 7.18 1.27
6 -1 -2 8.37 0.98
6 -1 -2 8.18 1.05
-6 1 2 8.54 0.88
6 -1 -2 8.61 1.13
-6 0 2 4.74 0.83
-6 0 2 4.67 0.6
-6 0 2 2.76 0.59
6 0 -2 5.69 0.8
6 0 -2 5.49 1.06
-6 0 2 6.2 0.79
6 0 -2 3.79 0.78
-6 0 2 4.99 0.77
6 0 -2 5.51 0.9
-6 -1 2 4.93 0.9
-6 -1 2 4.2 0.73
-6 -1 2 4.3 0.52
6 1 -2 4.26 0.59
6 1 -2 3.83 0.64
-6 -1 2 5.18 0.72
6 1 -2 4.48 0.7
6 1 -2 4.45 0.85
6 1 -2 4.12 0.82
-6 -1 2 5.36 0.75
-6 -1 2 5.55 0.78
6 1 -2 4.31 0.92
6 1 -2 4.86 0.77
-6 -2 2 12.02 0.9
6 2 -2 13.01 1.25
-6 -2 2 13.79 1.21
-6 -2 2 11.66 0.73
-6 -2 2 11.71 1.03
-6 -2 2 13.52 1.28
6 2 -2 11.41 1.39
6 2 -2 13.19 1.5
-6 -2 2 15.07 1.29
-6 -2 2 11.42 1.24
6 2 -2 11.63 1.46
6 2 -2 13.32 1.28
-6 -2 2 12.47 1.32
-6 -3 2 15.02 1.06
-6 -3 2 15.35 0.63
-6 -3 2 16.79 1.35
-6 -3 2 16.02 1.3
-6 -3 2 17.25 1.39
6 3 -2 14.82 1.5
-6 -3 2 15.52 1.46
-6 -3 2 13.22 1.37
6 3 -2 15.98 1.74
-6 -3 2 14.86 1.39
-6 -4 2 14.74 1.12
-6 -4 2 15.45 1.37
-6 -4 2 14.33 1.21
-6 -4 2 15.11 1.19
6 4 -2 13.55 1.39
-6 -4 2 14.55 1.46
6 4 -2 14.97 1.7
-6 -4 2 15.67 1.41
-6 -5 2 0.75 0.36
-6 -5 2 1.84 0.59
-6 -5 2 2.28 0.45
6 5 -2 1.17 0.47
-6 -5 2 1.8 0.56
-6 -5 2 0.39 0.31
6 5 -2 0.83 0.53
-6 -5 2 1.12 0.48
6 6 -2 2.95 0.68
-6 -6 2 3.24 0.78
-6 -6 2 2.9 0.73
6 6 -2 2.1 0.73
-6 -6 2 1.84 0.48
6 7 -2 0.71 0.34
-6 -7 2 1.82 0.62
-6 -7 2 1.89 0.62
6 7 -2 0.74 0.52
-6 -8 2 0.23 0.44
6 8 -2 0.23 0.27
-6 -8 2 0.08 0.41
6 8 -2 0.52 0.46
-6 -9 2 2.1 0.78
6 9 -2 2.7 0.64
6 9 -2 2.75 1.08
-6 -9 2 2.14 0.64
6 9 -2 4.27 1.06
6 10 -2 1.69 0.83
-6 -10 2 1.04 0.63
-6 -10 2 1.15 0.62
6 10 -2 1.36 0.84
-6 -11 2 0.2 0.42
6 11 -2 0.58 0.5
6 -7 -1 0.43 0.61
6 -7 -1 2.42 0.93
6 -6 -1 -0.1 0.39
6 -6 -1 1.2 0.54
6 -6 -1 0.92 0.51
-6 6 1 1.54 0.58
6 -5 -1 4.34 1.1
6 -5 -1 2.31 0.75
6 -5 -1 3.01 0.87
-6 5 1 3.93 0.86
-6 5 1 3.91 0.88
-6 4 1 0.29 0.36
6 -4 -1 -0.28 0.6
6 -4 -1 0.27 0.38
6 -4 -1 0.89 0.39
-6 4 1 0.52 0.32
6 -4 -1 1.02 0.57
6 -3 -1 45.7 2.77
6 -3 -1 47.32 2.88
6 -3 -1 44.18 2.14
-6 3 1 48.12 2.6
-6 3 1 44.05 2.38
6 -3 -1 47.41 2.97
6 -2 -1 32.17 2.25
6 -2 -1 29.55 1.66
-6 2 1 35.36 2.07
-6 2 1 32.13 1.88
6 -2 -1 31.43 2.66
6 -2 -1 31.02 2.25
6 -1 -1 13.3 1.36
-6 1 1 15.03 1.24
-6 1 1 14.42 1.21
6 -1 -1 12.55 1.57
-6 1 1 14.23 1.04
6 -1 -1 14.03 1.32
-6 1 1 16.03 1.7
6 -1 -1 15.19 1.45
-6 1 1 14.45 1.55
6 -1 -1 14.76 1.17
-6 0 1 2.32 0.55
-6 0 1 2.53 0.49
6 0 -1 3.19 0.54
6 0 -1 3.21 0.8
-6 0 1 2.93 0.52
-6 0 1 2.58 0.65
-6 0 1 2.27 0.43
6 0 -1 -0.01 0.12
6 0 -1 1.39 0.42
-6 -1 1 48.66 2.1
6 1 -1 52.49 2.26
-6 -1 1 51.19 2.4
-6 -1 1 50.88 2.11
-6 -1 1 48.64 1.91
-6 -1 1 52.8 2.75
6 1 -1 46.56 2.74
-6 -1 1 49.95 2.31
-6 -1 1 42.51 2.06
6 1 -1 48.45 2.07
-6 -1 1 50.08 2.88
6 1 -1 50.7 2.36
-6 -1 1 47.8 2.47
6 2 -1 29.56 1.72
-6 -2 1 25.69 1.47
6 2 -1 26.16 1.63
-6 -2 1 28.79 1.59
-6 -2 1 27.53 2.07
-6 -2 1 28.62 1.76
-6 -2 1 28.5 1.83
-6 -2 1 28.41 1.3
6 2 -1 25.89 1.94
-6 -2 1 27.57 1.82
-6 -2 1 23.35 1.62
6 2 -1 26.32 2.18
-6 -2 1 28.55 2.13
6 2 -1 27.81 1.67
-6 -2 1 27.34 1.78
-6 -3 1 -0.34 0.42
-6 -3 1 -0.11 0.22
-6 -3 1 0.79 0.42
-6 -3 1 0.07 0.28
6 3 -1 -0.24 0.21
-6 -3 1 0.19 0.27
-6 -3 1 0.4 0.17
-6 -3 1 -0.24 0.43
6 3 -1 -0.13 0.35
-6 -3 1 0.12 0.25
-6 -3 1 0.16 0.19
-6 -4 1 46.77 2.25
-6 -4 1 51.56 2.41
-6 -4 1 45.21 2.5
-6 -4 1 47.84 2.31
-6 -4 1 48.3 1.99
-6 -4 1 49.19 1.29
-6 -4 1 51.06 2.74
-6 -4 1 54.46 2.89
6 4 -1 52.03 3.02
-6 -4 1 49.35 2.31
-6 -5 1 33.88 1.98
-6 -5 1 40.28 2.26
-6 -5 1 39.84 2.13
-6 -5 1 31.78 0.85
-6 -5 1 35.99 1.59
-6 -5 1 31.14 0.92
-6 -5 1 40.84 2.52
6 5 -1 36.03 2.58
-6 -5 1 36.4 1.99
6 6 -1 4.11 0.96
-6 -6 1 2.83 0.59
-6 -6 1 3.96 0.31
-6 -6 1 3.94 0.84
-6 -6 1 3.59 0.77
-6 -6 1 2.47 0.27
-6 -6 1 4.78 0.83
6 6 -1 4.21 0.91
-6 -6 1 3.21 0.61
-6 -7 1 0.03 0.09
-6 -7 1 -0.12 0.32
-6 -7 1 -0.98 0.54
6 7 -1 -0.11 0.37
6 7 -1 0.37 0.45
-6 -8 1 1.02 0.47
-6 -8 1 1.59 0.55
6 8 -1 1.68 0.63
6 8 -1 1.98 0.71
-6 -9 1 0.86 0.49
-6 -9 1 1.4 0.66
6 9 -1 0.56 0.52
6 9 -1 1.57 0.71
-6 -10 1 -0.77 0.66
-6 -10 1 -0.33 0.42
6 10 -1 0.26 0.47
6 10 -1 0.06 0.43
-6 -11 1 1.17 0.57
6 11 -1 0.43 0.45
-6 -12 1 0.89 0.51
6 12 -1 1.14 0.9
6 -7 0 -0.11 0.42
6 -7 0 -0.11 0.51
6 -7 0 0.1 0.36
-6 6 0 2.02 0.7
6 -6 0 0.92 0.65
6 -6 0 -0.37 0.6
6 -6 0 0.71 0.5
6 -5 0 4.1 1.02
6 -5 0 3.8 0.94
-6 5 0 3.06 0.82
6 -5 0 2.91 0.82
-6 5 0 3.43 0.74
6 -4 0 -0.21 0.48
-6 4 0 0.07 0.34
6 -4 0 -0.55 0.55
6 -4 0 -0.75 0.56
6 -4 0 0.07 0.18
-6 4 0 -0.14 0.27
6 -3 0 3.52 0.85
6 -3 0 3.53 0.85
-6 3 0 4.31 0.82
6 -3 0 3.94 0.9
6 -3 0 1.7 0.4
-6 3 0 3.72 0.67
6 -2 0 4.27 0.86
-6 2 0 4.51 0.92
6 -2 0 5.02 0.99
-6 2 0 4.56 0.81
6 -2 0 5.15 0.64
-6 2 0 3.57 0.5
-6 2 0 3.67 0.61
-6 2 0 4.25 0.63
6 -2 0 5.95 0.97
6 -1 0 27.17 2
6 -1 0 25.29 1.35
-6 1 0 22.94 1.39
-6 1 0 25.32 1.65
-6 1 0 22.92 1.35
6 -1 0 24.74 2.02
6 -1 0 26.66 1.81
-6 1 0 26.07 2.17
6 -1 0 24.75 1.79
-6 1 0 23.21 1.86
-6 0 0 5.97 0.81
6 0 0 0.73 0.45
6 0 0 11.84 1.43
-6 0 0 6.98 0.73
6 0 0 0.16 0.28
-6 0 0 7.8 1.16
-6 0 0 10.76 1.03
6 0 0 12.8 1.54
6 0 0 4.03 0.57
-6 0 0 7.84 1.17
-6 0 0 8.29 0.94
-6 0 0 6.19 0.67
-6 0 0 8.79 1.27
6 0 0 9.41 1.06
-6 0 0 9.18 1.15
-6 -1 0 13.37 1.14
6 1 0 12.92 1
-6 -1 0 14.37 1.01
-6 -1 0 13.58 1.45
-6 -1 0 13.53 1.39
6 1 0 14.33 1.47
-6 -1 0 12.92 1.02
-6 -1 0 13.94 1.25
-6 -1 0 12.46 1.01
-6 -1 0 15.13 1.59
6 1 0 12.57 1.07
-6 -1 0 13.1 1.2
-6 -2 0 6.21 0.8
-6 -2 0 6.05 0.84
-6 -2 0 5.59 0.9
-6 -2 0 5.75 0.64
-6 -2 0 6.29 0.88
-6 -2 0 3.37 0.55
-6 -2 0 5.89 0.87
-6 -2 0 6.11 1.01
6 2 0 6.19 0.72
-6 -2 0 6.23 0.78
-6 -2 0 5.11 0.71
-6 -3 0 0.52 0.24
-6 -3 0 0.84 0.26
-6 -3 0 1.01 0.41
-6 -3 0 0.63 0.32
-6 -3 0 0.32 0.26
-6 -3 0 0.42 0.22
-6 -3 0 0.54 0.32
6 3 0 0.35 0.32
-6 -3 0 1.11 0.46
-6 -3 0 0.48 0.31
-6 -3 0 0.3 0.21
-6 -4 0 3.52 0.64
-6 -4 0 3.65 0.63
-6 -4 0 3.91 0.73
-6 -4 0 4.72 0.59
-6 -4 0 4 0.67
-6 -4 0 5.32 0.54
-6 -4 0 5.58 0.99
6 4 0 3.28 0.81
-6 -4 0 3.81 0.71
-6 -4 0 4.36 0.8
-6 -4 0 3.75 0.57
-6 -5 0 0.14 0.23
-6 -5 0 0.86 0.4
-6 -5 0 1.31 0.46
-6 -5 0 0.78 0.25
-6 -5 0 0.24 0.26
6 5 0 0.39 0.22
-6 -5 0 1.93 0.65
6 5 0 0.34 0.38
-6 -5 0 0.38 0.33
-6 -5 0 0.7 0.51
-6 -5 0 0.91 0.34
-6 -5 0 0.53 0.23
6 5 0 1.11 0.45
-6 -6 0 11.35 0.71
-6 -6 0 11.01 1.23
-6 -6 0 9.03 1.08
-6 -6 0 11.7 1.2
6 6 0 11.15 0.97
-6 -6 0 13.5 1.52
6 6 0 14.03 1.55
-6 -6 0 8.96 1.07
6 6 0 9.02 1.31
-6 -6 0 9.17 0.93
-6 -7 0 9.4 0.75
-6 -7 0 8.11 1
-6 -7 0 12.28 1.23
6 7 0 9.97 0.88
-6 -7 0 8.47 1.2
-6 -7 0 10.02 1.37
6 7 0 9.63 1.36
-6 -7 0 7.31 0.85
6 7 0 10.36 1.47
-6 -8 0 0.79 0.44
-6 -8 0 0.36 0.38
6 8 0 1.36 0.37
-6 -8 0 0.92 0.33
-6 -8 0 1.16 0.56
6 8 0 0.15 0.41
6 8 0 1.07 0.63
6 9 0 0.37 0.2
6 9 0 0.21 0.36
6 9 0 0.08 0.43
-6 -10 0 -0.55 0.62
6 10 0 -0.39 0.51
6 10 0 0.83 0.62
-6 -11 0 0 0.33
6 11 0 -0.48 0.65
6 11 0 0.54 0.62
-6 -12 0 -0.37 0.36
6 -7 1 6.99 1.48
6 -7 1 9.25 1.7
6 -7 1 6.8 1.37
6 -6 1 5.77 1.24
6 -6 1 4.78 1.18
-6 6 -1 6.6 1.23
6 -6 1 3.87 0.94
6 -5 1 2.4 0.95
6 -5 1 1.42 0.56
-6 5 -1 1.98 0.65
6 -5 1 1.09 0.53
6 -4 1 50.62 3.17
6 -4 1 47.42 3.1
6 -4 1 48.99 1.99
-6 4 -1 50.87 2.89
-6 4 -1 50.01 2.16
6 -4 1 49.19 3.16
6 -3 1 -0.45 0.52
6 -3 1 0.38 0.42
6 -3 1 0.12 0.32
-6 3 -1 -0.58 0.43
6 -3 1 0.04 0.14
-6 3 -1 0.15 0.25
6 -2 1 14.19 0.91
6 -2 1 11.81 1.41
-6 2 -1 14.39 1.4
6 -2 1 16.47 1.68
-6 2 -1 14.44 0.93
-6 2 -1 12.79 0.89
6 -2 1 14.25 1.46
6 -1 1 0.74 0.33
6 -1 1 0.75 0.45
6 -1 1 0.81 0.39
6 -1 1 1.19 0.29
-6 1 -1 0.92 0.42
-6 1 -1 0.28 0.22
-6 1 -1 1.06 0.42
-6 1 -1 1.12 0.27
-6 1 -1 0.92 0.45
-6 1 -1 0.37 0.19
-6 1 -1 0.82 0.21
6 -1 1 0.97 0.39
-6 0 -1 114.41 3.69
6 0 1 106.91 2.61
6 0 1 112.54 4.08
-6 0 -1 108.1 4.24
-6 0 -1 107 2.62
-6 0 -1 110.88 4.35
-6 0 -1 113.57 3.48
-6 0 -1 98.5 2.5
-6 0 -1 112.35 4.48
6 0 1 114.45 3.78
6 0 1 108.96 4.14
6 0 1 107.41 3.32
-6 0 -1 107.61 3.57
-6 -1 -1 99.79 3.28
6 1 1 103.68 3.86
-6 -1 -1 101.71 2.29
-6 -1 -1 104.7 3.87
-6 -1 -1 109.53 3.12
-6 -1 -1 105.98 3.49
-6 -1 -1 98.83 2.64
-6 -1 -1 107.21 4.22
6 1 1 103.62 2.78
-6 -1 -1 102.18 3.07
-6 -2 -1 2.32 0.47
-6 -2 -1 4.6 0.83
-6 -2 -1 3.43 0.7
6 2 1 3.51 0.83
-6 -2 -1 4.04 0.83
-6 -2 -1 4.26 0.61
-6 -2 -1 2.97 0.65
-6 -2 -1 3.2 0.46
-6 -2 -1 1.96 0.54
-6 -2 -1 2.94 0.54
6 2 1 3.64 0.51
-6 -3 -1 11.69 1.24
-6 -3 -1 7.49 0.76
-6 -3 -1 7.85 1.05
-6 -3 -1 10.32 1.05
-6 -3 -1 7.54 1.07
6 3 1 11.18 1.18
-6 -3 -1 7.6 0.94
-6 -3 -1 7.06 1.08
-6 -3 -1 8.1 0.82
-6 -3 -1 8.3 1.18
-6 -3 -1 7.23 0.71
-6 -4 -1 0.71 0.42
-6 -4 -1 0.2 0.31
-6 -4 -1 0.34 0.25
-6 -4 -1 0.12 0.21
-6 -4 -1 0.06 0.18
6 4 1 0.41 0.31
-6 -4 -1 0.21 0.3
6 4 1 -0.1 0.31
-6 -4 -1 0.1 0.26
-6 -4 -1 0.36 0.36
-6 -4 -1 0.25 0.18
-6 -4 -1 0.04 0.16
-6 -5 -1 1.61 0.49
-6 -5 -1 0.81 0.35
-6 -5 -1 1.21 0.45
-6 -5 -1 0.95 0.38
-6 -5 -1 1.33 0.3
6 5 1 1.44 0.33
-6 -5 -1 0.34 0.37
6 5 1 1.25 0.53
-6 -5 -1 1.15 0.47
-6 -5 -1 0.68 0.39
-6 -5 -1 1.28 0.33
6 5 1 1.71 0.57
-6 -6 -1 0.39 0.39
-6 -6 -1 0.19 0.32
-6 -6 -1 -0.24 0.25
6 6 1 -0.03 0.17
-6 -6 -1 -0.46 0.5
6 6 1 -0.3 0.38
-6 -6 -1 0.2 0.27
-6 -6 -1 0.28 0.2
6 6 1 0.01 0.37
-6 -7 -1 0.39 0.37
-6 -7 -1 -0.06 0.3
6 7 1 0.2 0.15
-6 -7 -1 0.19 0.35
6 7 1 0.14 0.32
-6 -7 -1 0.46 0.27
6 7 1 0.26 0.49
-6 -8 -1 1.48 0.59
-6 -8 -1 1.69 0.47
6 8 1 0.73 0.16
-6 -8 -1 1.71 0.65
6 8 1 0.75 0.48
-6 -8 -1 1.51 0.41
6 8 1 1.98 0.81
-6 -9 -1 0.02 0.26
-6 -9 -1 0.25 0.31
-6 -9 -1 0.27 0.35
6 9 1 -0.15 0.45
6 9 1 1.11 0.69
-6 -10 -1 1.11 0.6
6 10 1 0.69 0.5
6 10 1 0.11 0.4
-6 -11 -1 -0.89 0.66
6 11 1 0.94 0.63
6 11 1 -1.65 0.8
-6 -12 -1 -0.28 0.36
6 -7 2 2.68 0.95
6 -7 2 2.32 0.85
6 -6 2 10.52 1.78
6 -6 2 10.71 1.82
-6 6 -2 14.18 1.74
6 -6 2 9.37 1.53
6 -5 2 0.4 0.63
6 -5 2 -0.35 0.55
-6 5 -2 -0.28 0.46
6 -5 2 0.33 0.52
6 -4 2 3.33 0.86
6 -4 2 1.5 0.52
6 -4 2 2.77 0.82
-6 4 -2 2.08 0.61
6 -4 2 2.64 0.43
-6 4 -2 1.53 0.3
6 -3 2 38.49 2.79
6 -3 2 37.82 1.35
6 -3 2 33.98 2.53
-6 3 -2 43.34 2.53
-6 3 -2 35.36 1.22
-6 3 -2 30.27 1
6 -3 2 39.99 2.61
6 -2 2 0.21 0.3
6 -2 2 0.97 0.58
6 -2 2 -0.45 0.57
6 -2 2 0.12 0.1
-6 2 -2 0.25 0.21
-6 2 -2 0.8 0.5
-6 1 -2 87.47 3.38
6 -1 2 86.98 3.83
6 -1 2 75.79 1.73
6 -1 2 82.87 3.73
-6 1 -2 82.11 3.23
-6 1 -2 82.54 2.85
6 -1 2 87.18 3.51
6 -1 2 81.05 3.11
-6 0 -2 0.21 0.36
6 0 2 0.15 0.32
6 0 2 -0.09 0.42
-6 0 -2 0.09 0.29
-6 0 -2 0.14 0.35
-6 0 -2 -0.39 0.41
-6 0 -2 -0.02 0.36
6 0 2 0.35 0.32
-6 0 -2 0.03 0.08
-6 0 -2 0.18 0.14
6 0 2 0.41 0.27
-6 0 -2 0.41 0.34
-6 -1 -2 39.13 2.17
6 1 2 39.03 2.34
6 1 2 32.73 2.24
-6 -1 -2 36.82 1.2
-6 -1 -2 36.27 2.29
-6 -1 -2 37.89 2.33
-6 -1 -2 37.24 2.15
-6 -1 -2 34.9 1.88
-6 -1 -2 37.35 1.45
6 1 2 37.48 1.54
-6 -1 -2 36.85 1.69
-6 -2 -2 45.02 2.42
-6 -2 -2 39.9 1.43
6 2 2 37.6 2.3
-6 -2 -2 43.01 2.45
-6 -2 -2 41.63 2.22
-6 -2 -2 41.47 1.84
-6 -2 -2 40.68 2.02
6 2 2 42.12 1.4
-6 -2 -2 41.08 1.56
-6 -3 -2 43.55 2.41
-6 -3 -2 39.83 1.68
6 3 2 40.26 2.32
-6 -3 -2 43.95 2.42
-6 -3 -2 42.26 2.44
-6 -3 -2 41.7 2
-6 -3 -2 41.28 2.05
6 3 2 43.62 1.98
-6 -3 -2 43.7 2.6
-6 -3 -2 41.73 2.02
-6 -3 -2 40.28 1.4
-6 -4 -2 3.86 0.74
-6 -4 -2 5.28 0.9
-6 -4 -2 4.77 0.61
-6 -4 -2 3.84 0.79
-6 -4 -2 1.87 0.47
-6 -4 -2 3.83 0.64
-6 -4 -2 4.81 0.92
-6 -4 -2 2.61 0.58
-6 -4 -2 3.88 0.43
-6 -5 -2 3.71 0.88
-6 -5 -2 2.72 0.94
-6 -5 -2 2.68 0.41
-6 -5 -2 1.27 0.5
-6 -5 -2 1.74 0.86
-6 -5 -2 2.22 0.69
-6 -5 -2 0.82 0.49
-6 -5 -2 1.15 0.3
6 5 2 2.08 0.73
-6 -6 -2 4.89 0.9
-6 -6 -2 4.62 0.83
-6 -6 -2 3.67 0.76
-6 -6 -2 6.79 1.2
6 6 2 5.35 0.97
-6 -6 -2 4.64 0.8
-6 -6 -2 4.9 0.95
6 6 2 3.57 0.92
-6 -7 -2 1.37 0.47
-6 -7 -2 1.19 0.39
-6 -7 -2 1.12 0.56
6 7 2 1.26 0.5
-6 -7 -2 1.94 0.51
6 7 2 2.02 0.68
-6 -8 -2 2.47 0.68
-6 -8 -2 2.99 0.62
-6 -8 -2 2.92 0.88
6 8 2 2.52 0.73
-6 -8 -2 4.03 0.69
-6 -8 -2 2.84 0.56
6 8 2 2.51 0.77
-6 -9 -2 1.03 0.43
-6 -9 -2 0.56 0.4
6 9 2 2.28 0.7
6 9 2 1.59 0.84
-6 -9 -2 1.71 0.53
-6 -10 -2 0.66 0.51
6 10 2 1.09 0.57
6 10 2 -0.04 0.43
-6 -11 -2 0.95 0.54
-6 -11 -2 1.89 0.78
6 11 2 1.23 0.56
6 11 2 0.73 0.78
-6 -12 -2 0.39 0.5
-6 -12 -2 0.12 0.61
-6 -13 -2 0.33 0.81
6 -8 3 -0.36 0.66
6 -7 3 1.83 0.78
6 -7 3 1.25 0.81
6 -6 3 0.87 0.68
6 -6 3 0.16 0.55
-6 6 -3 0.84 0.59
6 -6 3 0.79 0.54
6 -5 3 9.41 1.49
-6 5 -3 13.01 1.58
6 -5 3 10.57 1.58
6 -5 3 11.93 1.73
6 -4 3 1.3 0.62
6 -4 3 0.5 0.49
6 -4 3 1.12 0.5
-6 4 -3 1.58 0.63
6 -3 3 144.17 5.56
6 -3 3 118.87 2.12
6 -3 3 137.06 5.29
-6 3 -3 137.82 4.81
-6 3 -3 131.81 3.05
6 -3 3 135.18 4.92
6 -2 3 54.55 3.24
6 -2 3 50.91 3.08
-6 2 -3 52.13 2.73
6 -2 3 50.74 2.68
6 -1 3 0.35 0.28
6 -1 3 -0.12 0.41
6 -1 3 0.58 0.3
-6 1 -3 0.08 0.28
6 0 3 1.75 0.41
-6 0 -3 1.02 0.46
6 0 3 1.04 0.38
-6 0 -3 1.23 0.46
6 0 3 1.05 0.46
-6 0 -3 1.23 0.5
-6 0 -3 1.01 0.44
6 0 3 1.33 0.51
-6 -1 -3 19.89 1.65
6 1 3 20.44 1.75
6 1 3 19.09 1.72
-6 -1 -3 17.64 0.6
-6 -1 -3 18.96 1.61
-6 -1 -3 18.66 1.59
-6 -1 -3 17.08 0.7
-6 -1 -3 20.42 1.54
6 1 3 19.09 1
6 2 3 0.51 0.34
6 2 3 0.31 0.34
-6 -2 -3 -0.12 0.24
-6 -2 -3 0.06 0.4
-6 -2 -3 0.11 0.13
-6 -2 -3 -0.06 0.23
-6 -2 -3 -0.04 0.38
-6 -2 -3 0.13 0.15
-6 -2 -3 -0.07 0.27
6 2 3 0.29 0.11
6 2 3 0.24 0.17
-6 -3 -3 7.65 0.7
-6 -3 -3 7.62 1.04
6 3 3 8.96 1.13
-6 -3 -3 8.2 1.06
-6 -3 -3 7.91 0.87
-6 -3 -3 8.3 0.88
6 3 3 7.24 0.79
-6 -3 -3 7.6 0.94
-6 -3 -3 7.28 1.08
-6 -4 -3 12.09 1.33
6 4 3 13.42 1.3
-6 -4 -3 14.37 1.35
-6 -4 -3 12.85 0.93
-6 -4 -3 13.66 1.28
-6 -4 -3 13.94 1.38
-6 -5 -3 47.29 2.69
-6 -5 -3 51.27 2.7
-6 -5 -3 52.43 2.52
-6 -5 -3 45.1 1.2
-6 -5 -3 50.4 2.69
-6 -5 -3 51.97 2.66
-6 -5 -3 43.24 1.21
-6 -6 -3 42.06 2.48
-6 -6 -3 45.52 2.34
-6 -6 -3 44.63 2.77
-6 -6 -3 38.72 2.25
-6 -7 -3 2.7 0.7
-6 -7 -3 3.07 0.66
-6 -7 -3 3.13 0.64
6 7 3 2.83 0.83
-6 -8 -3 0.59 0.41
-6 -8 -3 0.88 0.37
-6 -8 -3 0.08 0.44
-6 -8 -3 0.81 0.42
6 8 3 0.92 0.46
-6 -8 -3 2.24 0.58
-6 -8 -3 1.11 0.42
6 8 3 1.02 0.4
-6 -9 -3 4.52 0.9
-6 -9 -3 4.19 0.88
-6 -9 -3 3.11 0.89
6 9 3 2.85 0.71
6 9 3 5.05 1.2
-6 -10 -3 0.43 0.47
-6 -10 -3 0.36 0.56
6 10 3 0.41 0.4
6 10 3 0.46 0.57
-6 -11 -3 0.55 0.44
-6 -11 -3 0.04 0.57
6 11 3 0.67 0.87
-6 -12 -3 1.47 0.8
-6 -12 -3 0.76 0.58
-6 -13 -3 0.68 0.83
6 -7 4 0.25 0.54
6 -7 4 0.34 0.46
6 -6 4 2.03 0.89
6 -6 4 2.48 0.95
-6 6 -4 1.74 0.76
6 -6 4 1.74 0.73
6 -5 4 4.11 1.11
6 -5 4 3.72 1.22
6 -5 4 4.64 1.13
-6 5 -4 3.37 0.84
6 -4 4 6.28 1.15
6 -4 4 6.97 1.45
6 -4 4 4.8 1.05
-6 4 -4 4.88 0.99
6 -3 4 2.39 0.68
6 -3 4 3.13 1
6 -3 4 3.07 0.93
-6 3 -4 3.9 0.92
6 -2 4 2.49 0.66
6 -2 4 2.91 0.88
6 -2 4 2.8 0.8
-6 2 -4 3.13 0.82
6 -1 4 15.41 1.73
6 -1 4 14.12 1.59
-6 1 -4 13.65 1.39
6 -1 4 13.94 1.24
6 0 4 39.22 2.62
6 0 4 41.4 2.62
-6 0 -4 43.82 2.45
6 0 4 42.55 1.88
-6 -1 -4 20.25 1.76
6 1 4 19.14 1.79
6 1 4 19.33 1.73
-6 -1 -4 19.26 1.61
-6 -1 -4 22.2 1.71
6 1 4 19.1 0.95
-6 -2 -4 -0.08 0.32
6 2 4 0.06 0.32
6 2 4 -0.02 0.3
-6 -2 -4 0.25 0.12
-6 -2 -4 0.23 0.24
-6 -2 -4 0.02 0.21
-6 -2 -4 0.47 0.21
-6 -2 -4 -0.15 0.3
6 2 4 0.36 0.19
-6 -3 -4 9.53 1.24
6 3 4 9.19 1.11
-6 -3 -4 7.81 0.96
-6 -3 -4 8.11 0.87
-6 -3 -4 8.61 0.85
6 3 4 10.07 0.94
-6 -3 -4 8.12 1.13
-6 -3 -4 9.08 1.08
-6 -4 -4 0.08 0.29
6 4 4 0.04 0.29
-6 -4 -4 0 0.27
-6 -4 -4 0.05 0.17
-6 -4 -4 0.11 0.26
-6 -4 -4 0.45 0.34
-6 -5 -4 4.67 0.87
6 5 4 5.13 0.79
-6 -5 -4 4.33 0.7
-6 -5 -4 3.26 0.37
-6 -5 -4 5.02 0.88
-6 -5 -4 3.37 0.71
-6 -6 -4 40.57 2.41
-6 -6 -4 37 1.92
-6 -6 -4 36.74 2.48
6 6 4 40.19 2.59
-6 -6 -4 37.52 1.43
-6 -7 -4 52.99 2.75
-6 -7 -4 47.36 2.09
6 7 4 57 3.38
-6 -7 -4 48.2 2.07
-6 -8 -4 3.17 0.64
-6 -8 -4 3.3 0.73
-6 -8 -4 2.6 0.49
-6 -8 -4 2.12 0.43
6 8 4 2.97 0.87
-6 -9 -4 0.84 0.42
-6 -9 -4 1.53 0.59
6 9 4 0.92 0.68
-6 -10 -4 0.46 0.43
-6 -10 -4 -0.22 0.57
6 10 4 -0.15 0.55
-6 -11 -4 0.56 0.51
-6 -11 -4 -0.51 0.49
6 11 4 0.45 0.54
-6 -12 -4 -0.62 0.56
-6 -12 -4 0.24 0.56
6 -7 5 0.68 0.8
6 -7 5 1.43 0.83
6 -6 5 2.69 1.07
6 -6 5 1.48 0.77
-6 6 -5 0.23 0.5
6 -6 5 1.4 0.83
6 -5 5 3.33 0.94
6 -5 5 2.67 0.97
6 -5 5 4.4 1.16
-6 5 -5 3.1 0.85
6 -4 5 6.44 1.17
6 -4 5 8.22 1.62
6 -4 5 6.82 1.29
-6 4 -5 5 0.97
6 -3 5 0.19 0.28
6 -3 5 -0.12 0.46
6 -3 5 -0.92 0.67
-6 3 -5 0.27 0.36
6 -2 5 0.72 0.42
6 -2 5 0.53 0.43
6 -2 5 0.53 0.37
-6 2 -5 0.83 0.47
6 -1 5 0.63 0.33
-6 1 -5 -0.3 0.47
6 -1 5 0.88 0.44
6 -1 5 0.63 0.41
6 0 5 0.22 0.22
6 0 5 0.25 0.33
6 0 5 0.42 0.46
-6 0 -5 0.56 0.36
6 1 5 0.52 0.19
6 1 5 1.71 0.62
-6 -1 -5 1.43 0.57
6 1 5 1.03 0.56
6 2 5 1.53 0.61
-6 -2 -5 0.99 0.51
6 2 5 0.88 0.44
-6 -2 -5 1.33 0.52
-6 -2 -5 1.02 0.17
6 2 5 1.19 0.29
6 3 5 10.06 1.17
-6 -3 -5 10.42 1.08
-6 -3 -5 8.78 0.75
6 3 5 9.47 0.96
-6 -3 -5 9.74 1.16
6 4 5 0.15 0.25
-6 -4 -5 0.23 0.24
-6 -4 -5 0.26 0.21
-6 -4 -5 -0.14 0.3
-6 -5 -5 0.48 0.3
6 5 5 0.38 0.24
-6 -5 -5 0.92 0.19
-6 -5 -5 0.61 0.28
-6 -5 -5 0.41 0.17
-6 -5 -5 0.93 0.45
-6 -5 -5 1.18 0.46
6 5 5 0.47 0.31
-6 -6 -5 6.63 1.01
6 6 5 6.2 0.82
-6 -6 -5 4.92 0.66
-6 -6 -5 6.64 1.13
6 6 5 3.41 0.75
-6 -6 -5 5.74 0.45
-6 -7 -5 5.93 0.64
-6 -7 -5 4.68 0.86
6 7 5 5.92 1.1
-6 -7 -5 6.69 0.7
-6 -8 -5 1.09 0.41
-6 -8 -5 1.17 0.48
6 8 5 0.83 0.57
-6 -9 -5 0.89 0.42
-6 -9 -5 0.52 0.42
6 9 5 -0.16 0.39
-6 -10 -5 0.09 0.38
-6 -10 -5 1.68 0.63
6 10 5 0.72 0.68
-6 -11 -5 0.63 0.51
6 11 5 0.61 0.76
-6 -12 -5 -0.5 0.54
6 -6 6 -0.32 0.54
6 -6 6 0.64 0.64
6 -5 6 1.54 0.73
6 -5 6 1.48 0.72
-6 5 -6 0.83 0.52
6 -5 6 0.87 0.79
6 -4 6 0.46 0.72
6 -4 6 0.06 0.35
6 -4 6 1.73 0.72
-6 4 -6 -0.15 0.41
6 -3 6 4.62 0.97
6 -3 6 2.91 1.07
6 -3 6 3.95 0.96
-6 3 -6 5.39 1.05
6 -2 6 4.45 0.84
-6 2 -6 4.68 0.93
6 -2 6 4.1 1.03
6 -2 6 3.79 0.83
6 -1 6 3.42 0.66
6 -1 6 1.78 0.63
-6 1 -6 2.61 0.72
6 -1 6 2.42 0.76
6 0 6 8 1.32
6 0 6 10.39 1.38
-6 0 -6 9.17 1.26
6 0 6 8.84 0.94
6 1 6 6.27 1.11
6 1 6 8.46 1.18
-6 -1 -6 7.54 1.14
6 1 6 6.53 0.53
6 1 6 7.14 0.56
6 1 6 7.18 0.66
6 2 6 6.62 1.13
-6 -2 -6 5.7 0.42
6 2 6 5.83 0.96
6 2 6 5.19 0.61
-6 -2 -6 5.66 1.01
6 2 6 5.04 0.31
6 2 6 4.69 0.32
6 3 6 12.97 1.39
-6 -3 -6 12.14 0.87
6 3 6 12.39 1.12
6 4 6 0.76 0.36
-6 -4 -6 1.03 0.32
-6 -5 -6 -0.2 0.49
6 5 6 0.81 0.37
-6 -5 -6 0.67 0.18
-6 -5 -6 0.73 0.39
-6 -5 -6 0.73 0.45
6 5 6 0.5 0.44
-6 -5 -6 0.54 0.31
6 6 6 12.91 1.2
-6 -6 -6 11.04 1.3
-6 -6 -6 9.28 0.51
-6 -6 -6 11.5 1.3
6 6 6 14.73 1.6
-6 -6 -6 8.6 0.47
-6 -7 -6 1.91 0.56
6 7 6 1.39 0.41
6 7 6 1.91 0.63
-6 -7 -6 1.17 0.29
-6 -8 -6 -0.41 0.41
-6 -8 -6 0.31 0.22
-6 -9 -6 1.9 0.54
-6 -9 -6 0.96 0.53
6 9 6 2.53 0.94
-6 -10 -6 0.13 0.3
-6 -10 -6 0.7 0.43
6 10 6 0.4 0.5
6 11 6 -0.27 0.47
6 -6 7 -0.41 0.47
6 -5 7 0 0.53
6 -5 7 0.3 0.65
6 -5 7 0.16 0.51
-6 5 -7 -0.62 0.7
6 -4 7 0.82 0.44
6 -4 7 1.12 0.58
-6 4 -7 1.04 0.41
6 -3 7 0.8 0.62
6 -3 7 -0.08 0.46
-6 3 -7 1.29 0.66
6 -2 7 -0.43 0.43
-6 2 -7 0.02 0.35
6 -2 7 0.36 0.48
6 -1 7 6.63 1.27
6 -1 7 5.48 1.08
-6 1 -7 6.85 1.14
6 0 7 0.12 0.37
6 0 7 0.85 0.5
6 0 7 0.38 0.13
6 0 7 0.16 0.1
6 1 7 0.71 0.49
6 1 7 0.17 0.36
6 1 7 0.49 0.23
6 1 7 0.24 0.18
-6 -2 -7 7.77 0.55
6 2 7 8.63 1.33
6 2 7 8.49 1.21
6 2 7 7.76 0.87
-6 -2 -7 8.08 1.25
6 2 7 7.99 0.58
6 3 7 1.32 0.52
-6 -3 -7 0.49 0.23
-6 -4 -7 -0.1 0.2
6 4 7 0.32 0.37
6 4 7 0.33 0.36
-6 -4 -7 0 0.2
-6 -5 -7 0.5 0.42
6 5 7 0.68 0.41
-6 -5 -7 0.54 0.23
6 5 7 0.58 0.36
-6 -5 -7 0.57 0.32
-6 -6 -7 1.72 0.6
6 6 7 1.87 0.5
-6 -6 -7 1.89 0.33
-6 -6 -7 1.05 0.37
6 6 7 0.81 0.48
-6 -6 -7 1.54 0.22
-6 -7 -7 1.54 0.54
6 7 7 1.33 0.39
-6 -7 -7 0.83 0.17
6 7 7 2.34 0.83
-6 -7 -7 1.08 0.27
-6 -8 -7 0.49 0.39
6 8 7 1.38 0.71
-6 -8 -7 0.51 0.28
-6 -9 -7 0.21 0.35
6 9 7 0.6 0.5
-6 -9 -7 0.62 0.35
-6 -10 -7 0.94 0.52
6 10 7 0.85 0.67
6 11 7 0.4 0.75
6 -6 8 0.73 0.64
6 -5 8 0.2 0.46
6 -4 8 0.22 0.45
6 -4 8 1.04 0.69
-6 4 -8 0.08 0.47
6 -3 8 8.8 1.67
6 -3 8 8.03 1.49
-6 3 -8 11.01 1.55
6 -2 8 0.91 0.71
-6 2 -8 0.71 0.63
6 -2 8 1.13 0.72
6 -1 8 5.63 1.18
-6 1 -8 5.44 1.1
6 0 8 4.32 1
6 0 8 4.77 1.05
6 0 8 2.94 0.45
-6 0 -8 4.18 0.94
6 1 8 0.85 0.62
-6 -1 -8 0.39 0.16
6 1 8 -0.31 0.51
-6 -1 -8 0.16 0.34
6 1 8 0.51 0.24
6 1 8 0.59 0.22
6 2 8 1.88 0.69
6 2 8 -0.01 0.5
-6 -2 -8 1.28 0.28
-6 -2 -8 1.07 0.64
6 2 8 0.94 0.23
6 3 8 0.66 0.22
-6 -3 -8 1.42 0.41
6 3 8 0.59 0.39
-6 -3 -8 0.95 0.33
6 3 8 0.2 0.22
6 4 8 0.65 0.17
-6 -4 -8 1.29 0.37
6 4 8 1.49 0.57
6 4 8 1.87 0.64
-6 -4 -8 0.88 0.35
-6 -5 -8 5.1 0.96
6 5 8 5.15 0.91
-6 -5 -8 3.88 0.56
6 5 8 6.17 1.07
-6 -5 -8 5.36 0.81
-6 -6 -8 0.53 0.36
6 6 8 0.9 0.41
-6 -6 -8 0.8 0.27
-6 -6 -8 0.92 0.44
6 6 8 0.9 0.54
-6 -7 -8 4.27 0.88
6 7 8 3.03 0.6
-6 -7 -8 3.78 0.5
6 7 8 3.86 0.98
-6 -7 -8 3.36 0.46
-6 -8 -8 0.64 0.5
6 8 8 1.48 0.9
-6 -9 -8 0.2 0.34
6 9 8 -0.18 0.49
-6 -10 -8 0.4 0.48
6 10 8 -0.19 0.69
6 -4 9 2 0.99
6 -3 9 3.38 1.06
6 -3 9 1.37 0.75
-6 3 -9 2.2 0.75
6 -2 9 0.32 0.47
-6 2 -9 0.81 0.61
6 -2 9 0.62 0.57
6 -1 9 0.03 0.42
-6 1 -9 -0.69 0.71
6 -1 9 0.03 0.44
6 0 9 -0.14 0.48
6 0 9 0.32 0.44
-6 0 -9 0.28 0.44
6 1 9 9.7 1.53
6 1 9 11.66 1.58
-6 -1 -9 8.83 1.38
-6 -2 -9 1.13 0.4
6 2 9 0.98 0.55
-6 -2 -9 0.79 0.57
6 2 9 0.93 0.41
-6 -3 -9 8.44 0.84
-6 -3 -9 9.96 1.02
6 3 9 9.82 1.37
6 3 9 8.64 1.18
-6 -4 -9 0.68 0.35
6 4 9 0.78 0.54
-6 -4 -9 0.95 0.38
6 4 9 1.18 0.57
-6 -5 -9 0.63 0.43
6 5 9 0.71 0.44
-6 -5 -9 0.84 0.34
6 5 9 1.03 0.61
-6 -6 -9 1 0.56
6 6 9 0.73 0.39
-6 -6 -9 0.83 0.35
6 6 9 0.08 0.34
-6 -7 -9 0.39 0.44
6 7 9 0.19 0.29
6 7 9 0.35 0.5
-6 -8 -9 -0.12 0.38
6 8 9 -0.24 0.53
-6 -9 -9 0.72 0.51
6 9 9 0.85 0.75
-6 -10 -9 0.82 0.54
6 10 9 -0.11 0.87
6 -3 10 -0.23 0.58
6 -2 10 1.17 0.72
-6 2 -10 0.47 0.4
6 -2 10 1.19 0.61
6 -1 10 1.96 0.83
6 -1 10 2.6 0.97
-6 1 -10 2.5 0.81
6 0 10 0.44 0.49
6 0 10 1.53 0.72
-6 0 -10 0.81 0.47
6 1 10 2.84 1.01
-6 -1 -10 4.08 0.84
6 1 10 2.6 0.86
-6 -1 -10 3.08 0.91
6 1 10 3.42 0.75
-6 -2 -10 4.09 0.77
6 2 10 4.16 1.02
-6 -2 -10 4.61 1.11
6 2 10 3.06 0.76
-6 -3 -10 1.71 0.59
6 3 10 2.11 0.81
-6 -3 -10 -0.08 0.49
6 3 10 0.39 0.47
-6 -4 -10 -0.27 0.27
6 4 10 0.04 0.49
6 4 10 0.2 0.44
-6 -5 -10 1 0.53
6 5 10 2.07 0.66
-6 -5 -10 1.5 0.47
6 5 10 1.05 0.56
-6 -6 -10 1.31 0.54
6 6 10 1.38 0.55
-6 -6 -10 2.01 0.54
6 6 10 2.43 0.84
-6 -7 -10 0.41 0.42
6 7 10 0.4 0.63
-6 -8 -10 0.32 0.31
6 8 10 -0.1 0.44
6 9 10 0.4 0.48
6 -2 11 1.82 0.97
6 -1 11 0.16 0.6
-6 1 -11 0.74 0.44
-6 1 -11 0.94 0.69
6 0 11 0.54 0.55
-6 0 -11 0.79 0.54
6 0 11 1.71 0.76
-6 -1 -11 0 0.31
6 1 11 -0.12 0.58
-6 -1 -11 0.43 0.54
-6 -2 -11 -0.12 0.45
-6 -2 -11 0.69 0.49
6 2 11 -0.86 0.44
6 2 11 -0.02 0.3
-6 -3 -11 0.06 0.45
-6 -3 -11 -0.42 0.41
6 3 11 0.01 0.35
6 3 11 0.16 0.39
-6 -4 -11 0.18 0.28
6 4 11 0.87 0.64
6 4 11 0.69 0.53
-6 -5 -11 -0.47 0.49
6 5 11 0.21 0.34
6 5 11 -0.53 0.43
-6 -6 -11 0.17 0.4
6 6 11 -0.17 0.47
-6 -7 -11 -0.32 0.41
6 7 11 0.6 0.66
6 8 11 1.18 0.93
6 -1 12 0.97 0.79
-6 -1 -12 -0.37 0.37
6 1 12 1.36 0.74
-6 -2 -12 -0.14 0.37
6 2 12 -0.16 0.42
-6 -2 -12 0.13 0.59
-6 -3 -12 0.41 0.31
-6 -3 -12 0.55 0.68
6 3 12 0.09 0.43
6 4 12 0.12 0.4
6 4 12 0.41 0.38
-6 -5 -12 -0.5 0.57
6 5 12 0.81 0.53
6 5 12 0.16 0.55
6 6 12 -1.74 0.83
6 7 12 0.6 0.48
-6 -3 -13 -0.5 0.45
6 3 13 -0.16 0.42
-6 -4 -13 0.34 0.58
6 4 13 -0.64 0.6
6 5 13 0.34 0.72
7 0 -8 2.03 0.95
7 1 -8 -0.99 0.8
7 0 -7 1.02 0.79
-7 0 7 1.24 0.67
7 1 -7 4.69 1.3
7 1 -7 4.13 1.23
-7 -1 7 4.42 1.08
7 1 -7 5.89 1.27
7 2 -7 2.6 1.03
7 2 -7 3.48 1.15
-7 -2 7 3.97 1.1
7 3 -7 -0.34 0.58
7 3 -7 0.49 0.79
7 4 -7 0.75 0.69
7 5 -7 1.39 0.98
-7 4 6 -0.04 0.52
-7 3 6 -0.84 0.72
-7 2 6 0.67 0.54
7 -2 -6 -0.08 0.47
7 -1 -6 1.98 0.91
-7 1 6 1.96 0.73
7 -1 -6 1.63 1.1
7 0 -6 2.9 1.11
7 0 -6 2.22 0.8
-7 0 6 2.34 0.81
7 0 -6 2.37 0.85
7 1 -6 0.96 0.69
7 1 -6 0.18 0.7
-7 -1 6 -0.64 0.47
7 1 -6 0.26 0.39
7 2 -6 1.67 0.86
-7 -2 6 2.36 0.91
7 2 -6 0.83 0.76
7 3 -6 3.16 1.11
-7 -3 6 3.28 0.89
7 3 -6 4.72 1.3
7 4 -6 0.88 0.68
-7 -4 6 1.29 0.65
7 4 -6 1.2 0.79
7 5 -6 0.65 0.59
-7 -5 6 0.76 0.57
7 5 -6 0.3 0.51
7 6 -6 1.45 0.72
7 7 -6 0.77 0.67
7 8 -6 1.34 0.9
-7 5 5 -0.43 0.53
-7 4 5 1.58 0.84
-7 4 5 0.93 0.61
7 -3 -5 2.52 1.09
-7 3 5 2.1 0.75
-7 3 5 2.66 0.86
7 -3 -5 1.16 0.74
7 -2 -5 -0.07 0.56
-7 2 5 -0.06 0.41
7 -2 -5 0.57 0.36
7 -1 -5 1.73 0.83
-7 1 5 2.27 0.77
7 -1 -5 1.14 0.61
7 0 -5 3.73 1.11
7 0 -5 3.29 0.94
-7 0 5 3.4 0.84
7 0 -5 3.59 0.98
7 1 -5 -0.12 0.48
-7 -1 5 0.42 0.43
7 1 -5 0.58 0.47
7 2 -5 6.89 1.44
-7 -2 5 5.94 1.04
7 2 -5 6.68 1.36
7 2 -5 7.31 1.27
7 3 -5 4.41 1.15
-7 -3 5 4.07 0.93
7 3 -5 5.28 1.28
7 4 -5 0.58 0.61
-7 -4 5 0.64 0.45
7 4 -5 0.07 0.5
7 5 -5 0.46 0.46
-7 -5 5 0.42 0.54
7 5 -5 0.18 0.44
7 6 -5 -0.09 0.44
-7 -6 5 -0.06 0.32
7 6 -5 0.55 0.58
7 7 -5 0.93 0.68
-7 -7 5 0.56 0.6
7 7 -5 0.61 0.83
7 8 -5 1.31 0.75
7 -5 -4 2.88 0.94
-7 5 4 3.15 0.84
7 -4 -4 1.02 0.7
7 -4 -4 0.51 0.73
-7 4 4 -0.15 0.37
-7 4 4 0.14 0.37
7 -4 -4 -0.04 0.42
-7 4 4 0.04 0.38
7 -3 -4 1.53 0.62
7 -3 -4 3.09 1.05
-7 3 4 2.04 0.74
-7 3 4 3.05 0.71
-7 3 4 2.44 0.73
7 -3 -4 2.86 0.87
7 -2 -4 4.44 0.84
7 -2 -4 5.09 1.26
-7 2 4 4.65 0.8
-7 2 4 3.63 0.89
7 -2 -4 5.01 1.06
7 -1 -4 0.43 0.28
7 -1 -4 2.44 0.84
-7 1 4 2.82 0.59
-7 1 4 3.04 0.82
7 -1 -4 1.66 0.56
7 0 -4 7.13 0.81
-7 0 4 6.93 0.72
7 0 -4 6.33 1.38
-7 0 4 6.36 1.03
7 0 -4 7.23 1.22
-7 -1 4 1.24 0.35
7 1 -4 2.53 0.9
7 1 -4 2.84 0.84
-7 -1 4 1.38 0.58
7 1 -4 2.2 0.7
7 2 -4 -0.11 0.38
-7 -2 4 0.65 0.43
7 2 -4 -0.06 0.5
7 2 -4 0.5 0.37
7 3 -4 1.15 0.64
-7 -3 4 0.95 0.48
7 3 -4 0.63 0.45
7 4 -4 0.55 0.65
-7 -4 4 -0.31 0.35
7 4 -4 0.23 0.49
7 5 -4 4.49 0.98
-7 -5 4 3.78 0.89
7 5 -4 4.14 1.18
7 6 -4 3.25 0.83
-7 -6 4 3.78 0.95
7 6 -4 4.37 1.21
7 7 -4 0.58 0.52
-7 -7 4 0.07 0.4
7 7 -4 0.85 0.72
7 8 -4 1.22 0.7
-7 -8 4 0.45 0.48
7 8 -4 -0.56 0.77
7 -6 -3 0.17 0.45
7 -5 -3 1.16 0.67
-7 5 3 0.87 0.59
7 -5 -3 0.1 0.41
7 -4 -3 0.51 0.49
-7 4 3 0.34 0.44
-7 4 3 0 0.29
7 -4 -3 0.1 0.41
7 -3 -3 11.02 1.48
-7 3 3 12.41 1.38
-7 3 3 11.06 1.41
-7 3 3 12.3 1.5
7 -3 -3 10.72 1.85
7 -3 -3 11.83 1.67
7 -2 -3 0.5 0.43
-7 2 3 0.73 0.35
7 -2 -3 0.06 0.5
-7 2 3 0.28 0.34
-7 2 3 0.62 0.42
7 -2 -3 0.41 0.38
-7 1 3 0.23 0.26
7 -1 -3 0.03 0.25
7 -1 -3 -0.18 0.47
-7 1 3 0.61 0.38
-7 1 3 0.34 0.29
7 -1 -3 0.83 0.57
-7 0 3 0.96 0.33
7 0 -3 1.19 0.42
-7 0 3 1.11 0.38
-7 0 3 1.35 0.4
7 0 -3 1.65 0.61
7 1 -3 25.87 1.61
-7 -1 3 29.19 1.44
-7 -1 3 25.52 1.58
-7 -1 3 25.4 1.89
7 1 -3 27.36 2.47
7 1 -3 25.74 2.43
7 1 -3 28.55 2.16
-7 -2 3 28.26 1.16
-7 -2 3 27.11 1.93
-7 -2 3 28.71 1.74
7 2 -3 25.21 2.39
-7 -2 3 26.85 1.88
7 2 -3 26.72 2.55
7 2 -3 24.84 1.98
-7 -3 3 1.83 0.47
7 3 -3 1.83 0.69
-7 -3 3 2.65 0.7
-7 -3 3 3.39 0.75
7 3 -3 1.5 0.57
-7 -4 3 5.38 0.58
-7 -4 3 5.48 0.84
7 4 -3 5.61 1.13
-7 -4 3 6.17 1
-7 -4 3 6.82 1.03
7 4 -3 6.1 1.25
7 5 -3 1.31 0.59
-7 -5 3 1.34 0.55
-7 -5 3 1.16 0.53
7 5 -3 0.86 0.56
7 6 -3 0.26 0.37
-7 -6 3 0.24 0.4
-7 -6 3 0.74 0.53
7 6 -3 -0.35 0.58
7 7 -3 0.24 0.39
-7 -7 3 0.8 0.55
-7 -7 3 0.32 0.39
7 7 -3 0.69 0.53
7 8 -3 1.09 0.51
-7 -8 3 1.63 0.74
-7 -8 3 1.53 0.66
7 8 -3 1.33 0.77
-7 -9 3 1 0.73
-7 -9 3 1.75 0.66
7 9 -3 0.31 0.44
7 10 -3 -0.1 0.69
7 -6 -2 0.45 0.46
7 -5 -2 1.32 0.56
-7 5 2 2.12 0.72
7 -5 -2 1.92 0.81
7 -4 -2 0.32 0.44
-7 4 2 0.16 0.31
-7 4 2 0.43 0.39
7 -4 -2 -0.06 0.54
7 -3 -2 4.91 1
-7 3 2 4.65 0.91
-7 3 2 4.56 0.89
7 -3 -2 5.38 1.14
-7 3 2 3.25 0.79
7 -2 -2 1.57 0.62
7 -2 -2 1.42 0.69
-7 2 2 2.04 0.59
7 -2 -2 2.42 0.76
-7 2 2 1.53 0.5
-7 1 2 5.95 0.82
7 -1 -2 5.42 0.99
-7 1 2 5.42 0.82
7 -1 -2 5.89 1.24
-7 1 2 4.81 0.81
7 -1 -2 4.51 0.96
-7 0 2 24.74 1.54
-7 0 2 25.27 1.73
-7 0 2 24.16 1.75
7 0 -2 21.67 2.21
-7 0 2 21.8 1.49
7 0 -2 23.48 1.69
7 0 -2 25.35 1.99
-7 -1 2 3.75 0.49
-7 -1 2 5.28 0.82
7 1 -2 3.19 0.9
-7 -1 2 5.91 0.87
-7 -1 2 4.37 0.79
7 1 -2 5.13 0.92
-7 -1 2 4.07 0.75
-7 -2 2 7.81 0.85
-7 -2 2 7.53 0.65
-7 -2 2 7.71 1.03
-7 -2 2 6.51 0.87
7 2 -2 8.41 1.27
-7 -2 2 10.02 1.13
7 2 -2 9.28 1.47
7 2 -2 8.11 1.09
-7 -3 2 9.32 0.89
-7 -3 2 9.98 0.62
-7 -3 2 10.36 1.18
-7 -3 2 9.38 1.07
7 3 -2 8.66 1.28
-7 -3 2 11.19 1.28
7 3 -2 9.04 1.46
-7 -4 2 10.4 0.99
-7 -4 2 10.5 1.22
-7 -4 2 9.51 1.11
7 4 -2 10.12 1.33
-7 -4 2 8.59 1.23
7 4 -2 11.16 1.52
-7 -5 2 0.69 0.35
-7 -5 2 0.82 0.34
-7 -5 2 0.55 0.32
7 5 -2 0.29 0.37
-7 -5 2 0.68 0.37
-7 -5 2 0.86 0.47
7 5 -2 -0.34 0.49
-7 -6 2 0.56 0.38
-7 -6 2 0.08 0.21
7 6 -2 -0.43 0.41
-7 -6 2 0.19 0.42
-7 -6 2 -0.24 0.34
7 6 -2 0.2 0.57
7 7 -2 0.7 0.35
-7 -7 2 1.2 0.59
-7 -7 2 0.19 0.4
7 7 -2 0.44 0.45
7 8 -2 0.17 0.27
-7 -8 2 -0.26 0.46
-7 -8 2 0.19 0.45
7 8 -2 -0.14 0.45
-7 -9 2 0.71 0.63
-7 -9 2 1.02 0.6
7 9 -2 1.01 0.74
-7 -10 2 1.89 0.72
7 10 -2 0.69 0.82
7 11 -2 0.62 0.67
7 -6 -1 1.02 0.64
7 -6 -1 1.97 0.89
7 -5 -1 0.58 0.5
-7 5 1 1.14 0.65
7 -5 -1 1.66 0.73
7 -4 -1 15.88 1.89
-7 4 1 14.87 1.61
-7 4 1 16.29 1.55
7 -4 -1 14.03 1.86
7 -3 -1 11.45 1.55
-7 3 1 9.72 1.22
-7 3 1 10.66 1.21
7 -3 -1 9.74 1.46
7 -2 -1 7.89 0.93
7 -2 -1 8.76 1.27
-7 2 1 10.89 1.27
-7 2 1 10.1 1.13
-7 2 1 7.55 0.98
7 -2 -1 8.89 1.28
7 -1 -1 3.14 0.75
-7 1 1 4.89 0.79
7 -1 -1 4.31 0.71
7 -1 -1 3.77 1.06
-7 1 1 3.62 0.61
-7 1 1 3.37 0.64
7 -1 -1 4.67 0.89
7 0 -1 1.72 0.57
-7 0 1 1.09 0.41
7 0 -1 1.69 0.56
-7 0 1 2 0.54
7 0 -1 1.64 0.46
7 0 -1 2 0.74
-7 0 1 2.27 0.5
-7 0 1 1.41 0.44
7 0 -1 1.76 0.57
-7 0 1 1.52 0.44
-7 -1 1 0.51 0.3
-7 -1 1 1.19 0.42
7 1 -1 -0.05 0.14
7 1 -1 0.07 0.16
-7 -1 1 0.88 0.42
-7 -1 1 1.28 0.41
7 1 -1 1.25 0.44
7 1 -1 -0.59 0.54
-7 -1 1 0.93 0.33
-7 -1 1 1.64 0.47
7 1 -1 0.5 0.28
-7 -1 1 1.34 0.46
7 2 -1 14.54 1.3
-7 -2 1 13.64 1.17
-7 -2 1 16.26 1.3
-7 -2 1 15.7 1.46
-7 -2 1 14.65 1.05
7 2 -1 13.75 1.54
-7 -2 1 12.46 1.32
-7 -2 1 11.93 1.23
7 2 -1 15.14 1.33
-7 -2 1 13.92 1.39
-7 -3 1 0.32 0.28
-7 -3 1 -0.09 0.29
-7 -3 1 -0.07 0.19
-7 -3 1 -0.17 0.28
7 3 -1 -0.15 0.31
-7 -3 1 0 0.22
-7 -3 1 -0.4 0.51
7 3 -1 0.08 0.54
-7 -3 1 -0.34 0.39
-7 -3 1 0.19 0.28
-7 -4 1 0.18 0.29
-7 -4 1 0.06 0.29
-7 -4 1 0.43 0.37
7 4 -1 -0.03 0.27
-7 -4 1 0.01 0.12
-7 -4 1 -0.3 0.35
-7 -4 1 -0.49 0.5
7 4 -1 0.85 0.62
-7 -4 1 -0.02 0.25
-7 -5 1 0.07 0.27
-7 -5 1 0.71 0.39
-7 -5 1 0.16 0.24
7 5 -1 0.77 0.44
-7 -5 1 1.01 0.48
-7 -5 1 0.37 0.12
-7 -5 1 0.43 0.39
7 5 -1 0.77 0.49
-7 -5 1 0.72 0.37
-7 -6 1 2.25 0.58
-7 -6 1 3.02 0.7
-7 -6 1 1.62 0.38
-7 -6 1 2.7 0.73
7 6 -1 1.01 0.39
-7 -6 1 1.78 0.6
7 6 -1 2.31 0.82
-7 -6 1 1.79 0.49
-7 -7 1 0.6 0.45
-7 -7 1 1.35 0.5
-7 -7 1 0.6 0.43
7 7 -1 0 0.19
-7 -7 1 0.53 0.35
7 7 -1 -0.26 0.49
7 8 -1 -0.22 0.49
-7 -8 1 -0.32 0.36
7 8 -1 0.06 0.13
-7 -8 1 -0.22 0.42
7 8 -1 -1.16 0.8
-7 -9 1 0.74 0.6
-7 -9 1 -0.11 0.51
7 9 -1 -0.69 0.57
7 9 -1 0.31 0.56
-7 -10 1 0.08 0.42
-7 -10 1 -0.46 0.44
7 10 -1 1.7 0.76
7 10 -1 0.84 0.79
-7 -11 1 1.05 0.71
7 11 -1 0.89 0.68
7 12 -1 -0.05 0.55
7 -6 0 -0.8 0.72
7 -6 0 0.22 0.65
7 -6 0 0.51 0.4
-7 6 0 0.11 0.52
7 -5 0 0.08 0.38
-7 5 0 0.14 0.4
7 -5 0 -0.09 0.44
7 -5 0 0.07 0.34
7 -4 0 6.36 1.26
-7 4 0 6.63 1.19
7 -4 0 5.47 1.16
7 -4 0 4.8 1.13
7 -3 0 2.44 0.75
-7 3 0 2.14 0.62
7 -3 0 0.77 0.47
7 -3 0 1.7 0.42
-7 3 0 1.2 0.37
7 -3 0 2.94 0.86
7 -2 0 7.28 1.21
7 -2 0 5.43 1.1
-7 2 0 6.22 1.03
-7 2 0 5.51 0.78
7 -2 0 5.5 0.69
-7 2 0 4.69 0.68
-7 2 0 4.9 0.73
7 -2 0 4.49 0.94
7 -1 0 5.39 0.69
-7 1 0 5.64 1.02
7 -1 0 6.97 1.12
7 -1 0 6 1.19
-7 1 0 6.57 0.94
-7 1 0 6.3 0.74
-7 1 0 5.76 0.74
7 -1 0 5.15 0.88
7 0 0 18.06 1.69
7 0 0 15.72 1.19
7 0 0 27.63 2.25
-7 0 0 17.08 1.23
-7 0 0 23.19 1.63
-7 0 0 20.37 1.48
-7 0 0 12.61 1.03
7 0 0 17.03 1.54
7 0 0 18.16 1.52
-7 0 0 20.37 1.78
7 1 0 5.75 0.74
-7 -1 0 6.02 0.91
-7 -1 0 6.91 0.9
7 1 0 7.5 1.07
-7 -1 0 6.15 0.73
-7 -1 0 5.18 0.84
7 1 0 6.38 1.09
-7 -1 0 6.43 0.79
-7 -1 0 5.41 0.83
7 1 0 5.92 0.79
-7 -1 0 4.57 0.68
7 1 0 4.95 0.79
-7 -2 0 3.06 0.63
-7 -2 0 2.76 0.6
7 2 0 1.19 0.44
-7 -2 0 2.73 0.64
-7 -2 0 3.74 0.78
7 2 0 2.62 0.73
-7 -2 0 3.44 0.72
-7 -2 0 3.42 0.57
-7 -2 0 2.97 0.52
7 2 0 2.1 0.48
-7 -2 0 2.28 0.52
-7 -3 0 6.95 0.95
-7 -3 0 5.42 0.88
-7 -3 0 6.19 0.88
-7 -3 0 6.36 0.7
7 3 0 6.2 0.98
-7 -3 0 6.09 0.76
-7 -3 0 6.7 1.05
-7 -3 0 5 0.82
-7 -3 0 6.41 0.82
-7 -4 0 0.08 0.18
-7 -4 0 -0.14 0.34
-7 -4 0 -0.63 0.46
-7 -4 0 0.41 0.32
7 4 0 0.1 0.18
-7 -4 0 0.2 0.25
-7 -4 0 0.29 0.38
7 4 0 -0.06 0.49
-7 -4 0 -0.06 0.27
-7 -4 0 0.24 0.25
-7 -5 0 7.7 1.01
-7 -5 0 6.41 0.97
-7 -5 0 7.97 1.07
-7 -5 0 6.76 0.72
-7 -5 0 8.18 0.72
-7 -5 0 8.93 1.31
7 5 0 7.43 1.32
-7 -5 0 7.2 0.87
7 6 0 4.03 0.91
-7 -6 0 2.7 0.63
-7 -6 0 2.45 0.41
-7 -6 0 3.59 0.75
-7 -6 0 2.88 0.44
-7 -6 0 2.37 0.63
-7 -6 0 4.01 1
7 6 0 2.45 0.88
-7 -6 0 2.78 0.57
-7 -7 0 1.36 0.51
-7 -7 0 0.48 0.24
-7 -7 0 0.76 0.47
7 7 0 1.3 0.4
-7 -7 0 0.84 0.66
7 7 0 1.66 0.72
-7 -7 0 1.15 0.28
-7 -7 0 0.88 0.36
7 7 0 2.1 0.77
-7 -8 0 0.48 0.37
7 8 0 0.21 0.23
-7 -8 0 -0.01 0.37
7 8 0 0.51 0.37
7 8 0 1.25 0.68
-7 -9 0 0.02 0.37
-7 -9 0 -0.38 0.66
7 9 0 -0.92 0.61
7 9 0 0.71 0.65
-7 -10 0 -0.28 0.49
-7 -10 0 -0.93 0.65
7 10 0 -0.33 0.62
7 10 0 0.37 0.6
-7 -11 0 1.02 0.58
7 11 0 0.65 0.52
-7 -12 0 0.49 0.49
7 12 0 0.92 0.79
7 -7 1 0.62 0.62
7 -6 1 1.98 0.78
-7 6 -1 1.56 0.72
7 -6 1 1.64 0.93
7 -6 1 -0.02 0.44
7 -5 1 0.39 0.44
7 -5 1 0.05 0.49
-7 5 -1 -0.33 0.49
7 -5 1 0.48 0.52
7 -4 1 5.97 1.24
7 -4 1 3.48 0.97
-7 4 -1 3.7 0.91
7 -4 1 3.02 0.89
7 -3 1 7.38 1.24
7 -3 1 8.57 1.41
7 -3 1 7.05 1.26
-7 3 -1 7.43 1.2
-7 3 -1 6.63 0.72
7 -2 1 1.8 0.67
7 -2 1 1.18 0.6
-7 2 -1 1.49 0.49
7 -2 1 1.38 0.31
-7 2 -1 2.04 0.4
-7 2 -1 0.85 0.26
7 -2 1 1.28 0.5
7 -1 1 1.01 0.54
-7 1 -1 1.57 0.53
7 -1 1 1.46 0.61
7 -1 1 1.61 0.36
-7 1 -1 1.59 0.54
-7 1 -1 2.43 0.49
-7 1 -1 2.06 0.41
-7 1 -1 1.88 0.41
-7 1 -1 1.26 0.28
7 -1 1 1.77 0.5
-7 0 -1 3.4 0.71
-7 0 -1 2.97 0.63
7 0 1 3.02 0.78
7 0 1 3.36 0.71
7 0 1 2.51 0.65
7 0 1 2.98 0.45
-7 0 -1 2.96 0.63
-7 0 -1 3.12 0.62
-7 0 -1 2.81 0.45
-7 0 -1 2.5 0.43
7 0 1 2.38 0.53
-7 -1 -1 2.63 0.61
-7 -1 -1 2.55 0.56
7 1 1 2.92 0.69
7 1 1 3.2 0.8
-7 -1 -1 3.88 0.81
-7 -1 -1 3.21 0.7
-7 -1 -1 2.7 0.45
-7 -1 -1 3.11 0.58
7 1 1 2.88 0.64
-7 -1 -1 2.85 0.51
7 1 1 2.01 0.43
-7 -2 -1 3.12 0.59
-7 -2 -1 2.97 0.59
-7 -2 -1 3.18 0.66
7 2 1 3.69 0.8
-7 -2 -1 1.93 0.66
7 2 1 3.84 0.9
-7 -2 -1 3.58 0.75
-7 -2 -1 4.24 0.83
-7 -2 -1 2.3 0.44
-7 -2 -1 2.83 0.55
7 2 1 2.79 0.48
-7 -3 -1 -0.05 0.2
-7 -3 -1 0.68 0.39
-7 -3 -1 1.09 0.52
-7 -3 -1 0.02 0.2
-7 -3 -1 0.33 0.33
7 3 1 -0.02 0.14
-7 -3 -1 0.08 0.21
-7 -3 -1 0.29 0.31
-7 -3 -1 0.08 0.2
-7 -4 -1 0.98 0.49
-7 -4 -1 1.19 0.47
-7 -4 -1 0.36 0.29
-7 -4 -1 0.58 0.3
-7 -4 -1 -0.56 0.46
-7 -4 -1 0.62 0.32
-7 -4 -1 1 0.45
-7 -4 -1 0.47 0.24
-7 -5 -1 -0.02 0.26
-7 -5 -1 -0.66 0.48
-7 -5 -1 0 0.17
-7 -5 -1 0.01 0.28
7 5 1 0.22 0.24
-7 -5 -1 0.43 0.42
-7 -5 -1 0.25 0.26
7 5 1 -0.09 0.44
-7 -5 -1 0.79 0.5
-7 -5 -1 0.6 0.31
7 5 1 0.93 0.45
-7 -6 -1 -0.26 0.35
-7 -6 -1 -0.14 0.41
-7 -6 -1 0.14 0.15
-7 -6 -1 0.2 0.27
7 6 1 0.38 0.28
-7 -6 -1 -0.22 0.36
7 6 1 0.06 0.39
-7 -6 -1 0.42 0.28
-7 -6 -1 0.48 0.31
7 6 1 0.22 0.37
-7 -7 -1 1.06 0.47
-7 -7 -1 0.42 0.36
7 7 1 0.71 0.27
-7 -7 -1 -0.2 0.47
7 7 1 0.84 0.53
-7 -7 -1 0.54 0.28
7 7 1 0.72 0.32
-7 -8 -1 0.45 0.36
-7 -8 -1 0.47 0.42
7 8 1 0.32 0.14
-7 -8 -1 0.09 0.38
7 8 1 0.6 0.49
-7 -8 -1 0.63 0.32
-7 -8 -1 0.31 0.19
7 8 1 0.7 0.63
-7 -9 -1 0.46 0.54
7 9 1 0.25 0.38
7 9 1 0.66 0.59
-7 -10 -1 0.12 0.45
7 10 1 -0.07 0.38
7 10 1 0.63 0.66
-7 -11 -1 0.24 0.48
7 11 1 -0.28 0.37
7 11 1 0.64 0.71
-7 -12 -1 -0.12 0.53
7 -7 2 1.43 0.73
7 -6 2 0.6 0.67
7 -6 2 -0.14 0.47
7 -6 2 0.4 0.64
7 -5 2 0.76 0.62
7 -5 2 -0.04 0.51
-7 5 -2 0.38 0.53
7 -5 2 1.17 0.72
7 -4 2 5.46 1.12
7 -4 2 6.66 1.33
7 -4 2 6.94 1.32
-7 4 -2 6.78 1.18
7 -3 2 3.86 0.89
7 -3 2 3.13 0.96
7 -3 2 2.08 0.77
-7 3 -2 3.59 0.77
-7 3 -2 1.67 0.31
7 -2 2 0.51 0.41
7 -2 2 0.34 0.4
7 -2 2 -0.09 0.5
7 -2 2 0.65 0.2
-7 2 -2 1.33 0.57
-7 2 -2 0.18 0.21
7 -1 2 4.37 0.42
7 -1 2 6.08 1.17
7 -1 2 6.01 1.05
-7 1 -2 5.5 0.77
-7 1 -2 4.33 0.83
7 -1 2 4.23 0.71
7 0 2 4.54 0.93
7 0 2 2.76 0.75
-7 0 -2 3.87 0.44
-7 0 -2 3.15 0.36
-7 0 -2 2.91 0.6
-7 0 -2 4.29 0.76
7 0 2 3.55 0.61
-7 -1 -2 4.22 0.72
-7 -1 -2 4.28 0.8
-7 -1 -2 3.35 0.59
7 1 2 5.08 1.01
-7 -1 -2 4.05 0.44
7 1 2 4.39 0.9
-7 -1 -2 4.34 0.89
-7 -1 -2 4.58 0.82
-7 -1 -2 4.19 0.53
7 1 2 3.73 0.57
-7 -2 -2 0.53 0.31
-7 -2 -2 0.9 0.51
7 2 2 1.47 0.6
7 2 2 0.99 0.53
-7 -2 -2 0.31 0.27
-7 -2 -2 0.49 0.39
-7 -2 -2 0.2 0.27
-7 -2 -2 0.28 0.22
-7 -2 -2 0.43 0.3
7 2 2 0.19 0.17
-7 -3 -2 6.34 0.69
-7 -3 -2 6.52 0.99
7 3 2 8.83 1.2
-7 -3 -2 6.39 1.06
7 3 2 7.64 1.15
-7 -3 -2 6.82 0.95
-7 -3 -2 6.1 0.86
-7 -3 -2 6.25 1.03
-7 -3 -2 6.93 0.9
-7 -3 -2 6.28 0.64
-7 -4 -2 13.84 1.46
-7 -4 -2 12.63 1.08
-7 -4 -2 15.57 1.61
-7 -4 -2 13.8 1.54
-7 -4 -2 13.74 1.14
-7 -4 -2 15.31 1.68
-7 -4 -2 12.89 1.3
-7 -4 -2 13.72 1.21
-7 -4 -2 12.38 0.85
-7 -5 -2 7.68 0.92
-7 -5 -2 6.16 1.02
-7 -5 -2 8.18 1.19
-7 -5 -2 6.74 0.64
-7 -5 -2 7.07 1.08
-7 -5 -2 6.41 1.15
-7 -5 -2 6.75 0.85
-7 -5 -2 7.3 1.11
-7 -5 -2 6.57 0.63
7 5 2 7.16 0.99
-7 -6 -2 2.76 0.67
-7 -6 -2 2.5 0.66
-7 -6 -2 1.83 0.25
-7 -6 -2 2.61 0.76
7 6 2 2.52 0.7
-7 -6 -2 1.79 0.39
7 6 2 1.95 0.57
-7 -7 -2 2.65 0.79
-7 -7 -2 2.39 0.68
-7 -7 -2 3.61 0.95
7 7 2 3.69 0.93
-7 -7 -2 1.21 0.32
7 7 2 0.84 0.53
-7 -8 -2 0.25 0.38
-7 -8 -2 0.07 0.31
-7 -8 -2 -0.27 0.51
7 8 2 0.17 0.36
-7 -8 -2 0.23 0.24
7 8 2 0.16 0.47
-7 -9 -2 0.96 0.49
-7 -9 -2 -0.04 0.35
7 9 2 1.18 0.57
7 9 2 0.27 0.51
-7 -10 -2 -0.39 0.57
7 10 2 -0.16 0.35
7 10 2 0.28 0.42
-7 -11 -2 1.12 0.71
7 11 2 -0.28 0.43
7 11 2 0.17 0.49
-7 -12 -2 -0.04 0.43
-7 -12 -2 0.9 0.6
7 -7 3 -0.2 0.71
7 -6 3 0.41 0.65
7 -6 3 -0.2 0.55
7 -5 3 2.7 0.9
7 -5 3 2.36 0.98
-7 5 -3 3.23 0.87
7 -5 3 2.4 0.87
7 -4 3 9.27 1.41
7 -4 3 10.86 1.72
7 -4 3 7.96 1.41
-7 4 -3 9.52 1.38
7 -3 3 2.23 0.67
7 -3 3 1.97 0.77
7 -3 3 2.47 0.8
-7 3 -3 2.87 0.76
-7 3 -3 2.46 0.41
7 -2 3 19.8 2.12
7 -2 3 19.48 2.07
-7 2 -3 21.06 1.83
-7 2 -3 18.42 1.3
7 -2 3 19.19 1.75
7 -1 3 2.99 0.69
7 -1 3 2.77 0.79
7 -1 3 1.88 0.7
-7 1 -3 2.77 0.57
-7 1 -3 3.46 0.82
7 0 3 7.67 1.21
7 0 3 8.32 1.31
-7 0 -3 8.76 1.13
7 0 3 7.46 0.86
7 1 3 0.73 0.55
7 1 3 1.12 0.59
-7 -1 -3 0.32 0.31
-7 -1 -3 0.7 0.44
-7 -1 -3 0.35 0.1
-7 -1 -3 0.44 0.11
7 1 3 0.66 0.24
-7 -2 -3 4.37 0.42
7 2 3 4.74 0.94
7 2 3 4.52 0.91
-7 -2 -3 5.28 0.89
-7 -2 -3 5.65 0.87
-7 -2 -3 4.86 0.58
7 2 3 4.92 0.45
-7 -3 -3 6.61 0.64
-7 -3 -3 6.12 1.02
7 3 3 7.03 1.1
7 3 3 7.89 1.09
-7 -3 -3 6.9 1.13
-7 -3 -3 7.67 0.97
-7 -3 -3 7.18 0.84
7 3 3 7.01 0.79
-7 -3 -3 7.4 0.99
-7 -4 -3 0.04 0.07
-7 -4 -3 0.19 0.39
-7 -4 -3 0.22 0.36
7 4 3 0.35 0.41
-7 -4 -3 -0.09 0.28
-7 -4 -3 0.12 0.21
-7 -4 -3 0 0.32
-7 -4 -3 0.01 0.21
-7 -4 -3 0.46 0.29
-7 -5 -3 2.31 0.67
-7 -5 -3 2.77 0.77
-7 -5 -3 2.58 0.41
-7 -5 -3 2.65 0.7
7 5 3 3.1 0.73
-7 -5 -3 1.85 0.26
-7 -6 -3 3.16 0.86
-7 -6 -3 2 0.22
-7 -6 -3 4.12 0.84
-7 -6 -3 4.45 0.98
7 6 3 3.4 0.79
-7 -6 -3 2.85 0.38
-7 -7 -3 2.12 0.71
-7 -7 -3 3.34 0.78
-7 -7 -3 3.69 1.12
-7 -7 -3 2.58 0.4
7 7 3 4.79 1.02
-7 -8 -3 1.61 0.57
-7 -8 -3 1.69 0.49
-7 -8 -3 0.46 0.54
7 8 3 1.21 0.65
-7 -9 -3 1.15 0.6
-7 -9 -3 -0.37 0.47
7 9 3 -0.17 0.48
-7 -10 -3 0.75 0.57
-7 -10 -3 -0.46 0.56
7 10 3 -0.06 0.37
7 10 3 -0.17 0.65
-7 -11 -3 -0.14 0.4
-7 -11 -3 0.86 0.65
7 11 3 -0.92 0.9
-7 -12 -3 1.02 0.72
7 -6 4 0.9 0.68
7 -6 4 1.39 0.73
7 -5 4 0.26 0.4
7 -5 4 -0.5 0.61
7 -5 4 -0.26 0.42
-7 5 -4 0.43 0.58
7 -4 4 1.46 0.73
7 -4 4 1.22 0.67
7 -4 4 0.67 0.77
-7 4 -4 0.25 0.45
7 -3 4 2.47 0.81
7 -3 4 1.72 0.8
7 -3 4 1.22 0.54
-7 3 -4 0.73 0.31
-7 3 -4 1.33 0.62
7 -2 4 87.21 4.58
7 -2 4 82.3 4.24
-7 2 -4 87.66 3.89
7 -2 4 85.57 3.71
7 -1 4 42.32 3.08
7 -1 4 39.66 2.87
-7 1 -4 43.24 2.63
7 -1 4 44.02 2.34
7 0 4 0.38 0.23
7 0 4 0.02 0.56
-7 0 -4 0.84 0.38
7 0 4 1.46 0.61
7 1 4 18.52 1.86
7 1 4 18.27 1.89
-7 -1 -4 15.01 1.57
-7 -1 -4 18.42 1.65
7 1 4 18.23 1.03
-7 -2 -4 2.86 0.7
-7 -2 -4 2.67 0.26
7 2 4 2.62 0.76
7 2 4 4.44 0.89
-7 -2 -4 2.38 0.61
-7 -2 -4 3.05 0.37
7 2 4 2.88 0.25
7 3 4 2.15 0.79
7 3 4 1.4 0.56
-7 -3 -4 1.89 0.33
-7 -3 -4 0.82 0.36
-7 -3 -4 1.83 0.42
-7 -3 -4 1.14 0.46
7 3 4 2.11 0.44
-7 -4 -4 6.39 1.05
7 4 4 5.34 0.92
-7 -4 -4 6.01 0.94
-7 -4 -4 5.38 0.74
-7 -4 -4 5.96 0.96
-7 -4 -4 5.17 0.8
7 5 4 16.19 1.51
-7 -5 -4 16.78 1.67
-7 -5 -4 17.53 1.59
-7 -5 -4 15.31 1.01
-7 -5 -4 17.59 1.59
7 5 4 15.47 1.46
-7 -5 -4 17.34 1.78
-7 -6 -4 26.23 2.17
-7 -6 -4 24.33 1.8
-7 -6 -4 23.82 2.06
7 6 4 26.2 2.11
-7 -6 -4 25.95 2.11
-7 -6 -4 17 0.58
-7 -6 -4 20.06 0.73
-7 -7 -4 1.47 0.34
-7 -7 -4 1.11 0.5
-7 -7 -4 1.25 0.47
-7 -7 -4 2.39 0.74
7 7 4 0.71 0.58
-7 -7 -4 0.97 0.23
-7 -8 -4 0.35 0.25
-7 -8 -4 0.29 0.42
-7 -8 -4 0.34 0.27
-7 -8 -4 -0.26 0.31
7 8 4 0.2 0.37
-7 -9 -4 0.67 0.37
-7 -9 -4 1.49 0.67
7 9 4 0.66 0.38
-7 -10 -4 -0.25 0.32
-7 -10 -4 1.23 0.55
-7 -10 -4 -0.21 0.47
7 10 4 -0.49 0.71
-7 -11 -4 0.39 0.44
7 11 4 1.33 0.84
-7 -12 -4 0.21 0.42
7 -6 5 0.35 0.59
7 -5 5 4.13 1.15
7 -5 5 5.61 1.52
7 -5 5 5.36 1.37
-7 5 -5 4.15 0.98
7 -4 5 4.04 0.97
7 -4 5 4.26 1.2
7 -4 5 3.87 1.13
-7 4 -5 4.04 0.94
7 -3 5 0.18 0.32
7 -3 5 0.01 0.49
7 -3 5 0.12 0.42
-7 3 -5 0.75 0.67
7 -2 5 11.37 1.73
7 -2 5 8.87 1.45
-7 2 -5 14.1 1.63
7 -2 5 11.1 1.33
-7 1 -5 9.63 1.33
7 -1 5 5.75 1.06
7 -1 5 6.74 1.19
7 -1 5 8.13 1.02
7 0 5 5.65 0.73
7 0 5 5.89 1.16
7 0 5 6.37 1.18
-7 0 -5 5.99 0.96
7 1 5 10.08 1.5
7 1 5 11.37 1.48
-7 -1 -5 11.14 1.38
7 1 5 11.09 0.76
7 2 5 26.11 2.32
7 2 5 24.99 2.14
-7 -2 -5 23.8 1.83
7 2 5 25.28 1.05
-7 -2 -5 26.44 2.03
7 3 5 -0.07 0.38
-7 -3 -5 0.08 0.33
7 3 5 0.41 0.32
-7 -3 -5 0.75 0.38
7 3 5 0.6 0.33
-7 -3 -5 0.39 0.22
7 4 5 14.21 1.5
-7 -4 -5 16.39 1.45
-7 -4 -5 11.62 1.11
-7 -4 -5 13.68 1.24
-7 -4 -5 13.92 1.46
-7 -5 -5 0.84 0.34
7 5 5 1.51 0.5
-7 -5 -5 1.63 0.5
-7 -5 -5 1.5 0.38
-7 -5 -5 1.41 0.55
-7 -5 -5 0.58 0.48
7 5 5 0.8 0.41
-7 -6 -5 0.7 0.5
7 6 5 0.59 0.38
-7 -6 -5 -0.01 0.24
-7 -6 -5 0.28 0.1
-7 -6 -5 0.04 0.25
-7 -6 -5 0.23 0.37
7 6 5 0.34 0.39
-7 -7 -5 2.05 0.74
-7 -7 -5 0.77 0.31
-7 -7 -5 1.97 0.67
7 7 5 2.5 0.81
-7 -7 -5 1.18 0.17
-7 -7 -5 1.35 0.24
-7 -8 -5 1.1 0.35
-7 -8 -5 1.61 0.62
-7 -8 -5 2.02 0.49
-7 -8 -5 1.51 0.43
7 8 5 1.35 0.62
-7 -9 -5 -0.43 0.24
-7 -9 -5 0.1 0.32
7 9 5 0.15 0.43
-7 -10 -5 1.2 0.52
7 10 5 1.22 0.73
-7 -11 -5 -0.66 0.76
7 11 5 0.57 0.87
-7 -12 -5 -0.28 0.51
7 -6 6 0.68 0.61
7 -5 6 3.61 0.99
7 -5 6 4.59 1.23
7 -4 6 0.76 0.52
7 -4 6 -0.61 0.6
7 -4 6 0.67 0.47
-7 4 -6 0.57 0.36
7 -3 6 3.51 0.88
7 -3 6 4.39 1.25
7 -3 6 3.33 0.95
-7 3 -6 6 1.18
7 -2 6 -0.48 0.35
7 -2 6 -0.84 0.67
7 -2 6 -0.89 0.73
-7 2 -6 1.07 0.6
7 -1 6 5.19 0.82
7 -1 6 3.66 1.01
-7 1 -6 5.37 1.01
7 -1 6 3.97 1
7 0 6 2.63 0.52
7 0 6 1.97 0.76
7 0 6 2.2 0.75
-7 0 -6 1.55 0.56
7 1 6 0.22 0.15
7 1 6 0.73 0.54
7 1 6 0.79 0.46
-7 -1 -6 0.39 0.45
7 2 6 15.99 1.91
7 2 6 18.85 1.87
7 2 6 15.97 0.92
-7 -2 -6 19.05 1.85
7 3 6 23.49 2.23
7 3 6 21.23 1.99
-7 -3 -6 21.89 1.06
7 3 6 24.49 1.51
-7 -3 -6 23.87 2.03
7 4 6 10.74 1.32
-7 -4 -6 8.58 0.85
-7 -5 -6 -0.17 0.47
7 5 6 -0.2 0.3
-7 -5 -6 0.63 0.31
-7 -5 -6 0.15 0.19
-7 -5 -6 0.66 0.35
7 5 6 0.08 0.29
-7 -5 -6 0.4 0.22
-7 -6 -6 1.39 0.64
7 6 6 0 0.25
-7 -6 -6 0.06 0.08
-7 -6 -6 0.79 0.36
-7 -6 -6 0.64 0.22
-7 -6 -6 -0.07 0.31
-7 -6 -6 0.09 0.29
7 6 6 0.58 0.46
-7 -6 -6 -0.05 0.31
-7 -7 -6 0.35 0.38
7 7 6 0.54 0.4
-7 -7 -6 0.05 0.32
7 7 6 -0.24 0.5
-7 -8 -6 -0.02 0.44
-7 -8 -6 0.5 0.33
7 8 6 0.4 0.51
-7 -8 -6 -0.08 0.14
-7 -9 -6 0.53 0.55
7 9 6 -0.58 0.62
-7 -10 -6 0.13 0.39
7 10 6 0.36 0.52
-7 -11 -6 1.59 0.61
7 11 6 0.81 0.7
-7 -12 -6 -0.27 0.56
7 -5 7 -0.11 0.41
7 -4 7 0.67 0.52
7 -4 7 -0.89 0.79
7 -4 7 0.43 0.56
-7 4 -7 -0.69 0.64
7 -3 7 0.03 0.38
7 -3 7 0.45 0.48
7 -3 7 0.26 0.49
-7 3 -7 1.04 0.64
-7 2 -7 -0.18 0.41
7 -2 7 0.9 0.5
7 -2 7 0.08 0.5
7 -2 7 0.87 0.59
7 -1 7 0.61 0.42
7 -1 7 -0.55 0.57
-7 1 -7 0.46 0.39
7 -1 7 0.57 0.5
7 0 7 4.58 0.71
7 0 7 4.6 1.18
7 0 7 5.87 1.2
-7 0 -7 3.58 0.89
-7 -1 -7 0.18 0.42
7 1 7 0 0.15
7 1 7 0.11 0.37
7 1 7 0.04 0.45
7 1 7 0.32 0.2
7 2 7 1.39 0.72
7 2 7 1.66 0.73
-7 -2 -7 0.83 0.64
7 2 7 1.01 0.33
-7 -3 -7 0.04 0.4
7 3 7 -0.1 0.4
-7 -3 -7 0.44 0.19
7 3 7 0.32 0.2
7 4 7 1.16 0.53
7 4 7 0.12 0.18
-7 -4 -7 0.99 0.31
-7 -5 -7 -0.25 0.49
7 5 7 0.11 0.27
-7 -5 -7 0.55 0.22
7 5 7 0.76 0.35
-7 -5 -7 0.54 0.38
-7 -6 -7 0.14 0.45
7 6 7 0.41 0.26
-7 -6 -7 -0.08 0.13
-7 -6 -7 -0.1 0.36
7 6 7 -1.01 0.64
-7 -6 -7 -0.2 0.28
7 7 7 8.82 1.06
-7 -7 -7 6.69 1.18
-7 -7 -7 4.89 0.94
7 7 7 8.13 1.38
-7 -8 -7 0.02 0.43
7 8 7 0.07 0.57
-7 -9 -7 0.43 0.42
7 9 7 0.32 0.64
-7 -10 -7 0.86 0.52
7 10 7 -0.13 0.51
-7 -11 -7 0.79 0.51
7 11 7 0.57 0.51
7 -4 8 0.14 0.52
7 -3 8 0.42 0.39
7 -3 8 0.58 0.51
7 -3 8 0.03 0.47
-7 3 -8 -0.37 0.5
7 -2 8 13.24 2.06
7 -2 8 12.55 1.88
-7 2 -8 13.35 1.76
7 -2 8 10.6 1.42
7 -1 8 4.04 0.81
7 -1 8 5.06 1.27
-7 1 -8 3.93 0.95
7 -1 8 3.3 1
7 0 8 1.13 0.45
7 0 8 1.43 0.8
7 0 8 0.99 0.59
-7 0 -8 1.31 0.62
-7 -1 -8 1.31 0.7
7 1 8 1.3 0.38
7 1 8 1.75 0.84
7 1 8 1.46 0.69
7 2 8 4.92 1.18
7 2 8 4.05 0.94
7 2 8 3.94 0.6
-7 -2 -8 3.07 0.85
7 2 8 2.95 0.38
-7 -3 -8 4.17 1.03
7 3 8 4.79 1.04
7 4 8 0.32 0.4
-7 -4 -8 0.26 0.23
-7 -4 -8 0.12 0.19
7 4 8 0.41 0.39
-7 -5 -8 -0.3 0.4
7 5 8 0.5 0.31
-7 -5 -8 0.54 0.3
7 5 8 0.38 0.28
-7 -5 -8 0.4 0.26
-7 -6 -8 1.19 0.58
7 6 8 1.81 0.62
-7 -6 -8 2.01 0.38
7 6 8 1.25 0.65
-7 -7 -8 0.61 0.51
7 7 8 1.15 0.44
7 7 8 0.41 0.41
-7 -8 -8 0.31 0.32
7 8 8 1.11 0.78
-7 -9 -8 0.21 0.35
7 9 8 -0.5 0.62
-7 -10 -8 0.45 0.4
7 10 8 -2.37 0.97
-7 -11 -8 0.26 0.51
-7 2 -9 0.06 0.42
7 -2 9 0.36 0.48
7 -2 9 1.29 0.9
7 -1 9 3.97 1.2
7 -1 9 5.97 1.34
-7 1 -9 4.82 1.11
7 0 9 6.38 1.37
7 0 9 6.16 1.32
-7 0 -9 5.74 1.19
-7 -1 -9 6.73 1.3
7 1 9 4.66 1.2
7 1 9 6.19 1.31
7 2 9 0.75 0.65
7 2 9 2.24 0.85
-7 -2 -9 1.18 0.67
-7 -3 -9 0.94 0.68
-7 -3 -9 0.69 0.35
7 3 9 0.37 0.48
7 3 9 0.27 0.35
-7 -4 -9 1.47 0.44
7 4 9 1.48 0.68
7 4 9 2.13 0.65
7 5 9 1.07 0.54
-7 -5 -9 1.11 0.42
7 5 9 0.79 0.48
-7 -6 -9 0.71 0.57
7 6 9 -0.04 0.31
-7 -6 -9 0.67 0.31
7 6 9 -0.47 0.44
-7 -7 -9 0.85 0.58
7 7 9 0.32 0.27
7 7 9 0.56 0.41
-7 -8 -9 0.93 0.48
7 8 9 0.59 0.62
-7 -9 -9 0.15 0.34
7 9 9 1.82 0.88
-7 -10 -9 0.66 0.55
7 10 9 0.72 0.81
-7 -11 -9 0 0.37
7 -2 10 0.2 0.57
7 -1 10 1.25 0.62
7 -1 10 0.73 0.63
-7 1 -10 0.66 0.6
7 0 10 -0.11 0.44
7 0 10 0.74 0.57
-7 0 -10 0.65 0.61
-7 -1 -10 -0.22 0.45
7 1 10 0.92 0.73
7 1 10 1.17 0.76
-7 -2 -10 1.66 0.55
7 2 10 1.22 0.71
-7 -2 -10 0.61 0.57
-7 -3 -10 4.4 0.77
7 3 10 6.09 1.27
7 3 10 4.56 0.94
-7 -3 -10 4.27 1.16
-7 -4 -10 5.32 0.8
7 4 10 6.62 1.27
7 4 10 5.16 1.04
-7 -4 -10 7.04 1.46
7 5 10 -0.02 0.4
7 5 10 -0.41 0.41
-7 -6 -10 0.67 0.52
7 6 10 0.54 0.53
7 6 10 -0.24 0.39
-7 -7 -10 0.29 0.39
7 7 10 1.35 0.74
-7 -8 -10 0.03 0.46
7 8 10 0.55 0.5
-7 -9 -10 0.22 0.35
7 9 10 -0.29 0.49
7 0 11 0.11 0.53
-7 0 -11 0.1 0.33
-7 -1 -11 1.4 0.89
-7 -1 -11 0.21 0.35
7 1 11 0.19 0.53
7 2 11 -0.48 0.45
-7 -2 -11 -0.89 0.66
-7 -3 -11 1.14 0.49
7 3 11 -0.46 0.53
-7 -3 -11 0.71 0.66
-7 -4 -11 2.19 0.57
7 4 11 2.98 0.93
-7 -4 -11 3.52 1.06
7 4 11 2.61 0.86
7 5 11 1.28 0.56
7 5 11 1.12 0.67
-7 -6 -11 0.43 0.55
7 6 11 -0.56 0.43
-7 -7 -11 0.44 0.49
7 7 11 0.36 0.51
-7 -8 -11 1.1 0.71
7 8 11 0.09 0.59
-7 -2 -12 0.37 0.43
7 2 12 -0.31 0.49
-7 -3 -12 1.01 0.59
7 3 12 0.45 0.55
-7 -4 -12 1.89 0.64
7 4 12 1.4 0.67
7 5 12 1.28 0.63
-7 -6 -12 0.84 0.57
7 6 12 -0.2 0.56
7 7 12 0.54 0.68
7 4 13 0.34 0.63
-8 0 6 1.35 0.65
8 1 -6 2.14 0.92
-8 -1 6 1.71 0.79
8 1 -6 2.1 0.81
8 2 -6 -0.69 0.66
8 2 -6 0.32 0.65
-8 -2 6 0.77 0.54
8 3 -6 -0.13 0.52
-8 -3 6 0.75 0.6
8 3 -6 1.02 0.73
8 4 -6 -0.5 0.59
8 5 -6 0.19 0.49
8 6 -6 0.11 0.51
8 7 -6 -1.17 0.76
-8 3 5 -0.32 0.51
-8 3 5 -0.58 0.67
-8 2 5 -0.22 0.43
-8 1 5 -0.04 0.47
8 -1 -5 -0.7 0.59
8 0 -5 0.92 0.66
-8 0 5 1.13 0.62
8 0 -5 1.34 0.74
8 1 -5 5.7 1.49
8 1 -5 3.64 1.13
-8 -1 5 2.29 0.73
8 1 -5 4.01 1.01
8 2 -5 -0.15 0.49
8 2 -5 1.04 0.74
-8 -2 5 0.41 0.42
8 2 -5 -0.45 0.5
8 3 -5 1.79 0.94
-8 -3 5 2.31 0.75
8 3 -5 2.31 0.94
8 4 -5 0.98 0.85
-8 -4 5 0.62 0.43
8 4 -5 -0.04 0.59
8 5 -5 -0.13 0.61
-8 -5 5 0.28 0.57
8 5 -5 0.41 0.49
8 6 -5 -0.34 0.55
8 7 -5 0.43 0.63
-8 4 4 -0.1 0.4
-8 3 4 0.79 0.64
-8 3 4 2.16 0.66
8 -3 -4 1.37 0.73
-8 3 4 1.4 0.71
8 -2 -4 0.03 0.47
-8 2 4 1.02 0.54
-8 2 4 0.41 0.39
8 -2 -4 0.47 0.52
8 -1 -4 2.12 0.98
-8 1 4 2.47 0.62
-8 1 4 0.83 0.57
8 -1 -4 0.48 0.4
8 0 -4 0.68 0.8
-8 0 4 -0.29 0.54
8 0 -4 0.4 0.34
8 1 -4 4.24 1.21
-8 -1 4 3.35 0.85
8 1 -4 4.04 0.95
-8 -2 4 0.72 0.38
8 2 -4 0.65 0.55
8 2 -4 -0.14 0.48
-8 -2 4 0.69 0.55
8 2 -4 0.55 0.48
8 3 -4 -0.55 0.51
-8 -3 4 0.13 0.39
8 3 -4 0.84 0.61
8 4 -4 2.09 0.94
-8 -4 4 1.27 0.52
8 4 -4 2.98 0.99
8 5 -4 -0.82 0.5
-8 -5 4 0.27 0.5
8 6 -4 0.75 0.61
-8 -6 4 -0.28 0.44
8 6 -4 -0.19 0.46
8 7 -4 0.58 0.57
-8 -7 4 0.73 0.58
8 7 -4 -0.62 0.55
8 -4 -3 -0.32 0.41
-8 4 3 0.18 0.44
8 -3 -3 -0.39 0.47
-8 3 3 0.12 0.38
8 -3 -3 0.52 0.48
-8 3 3 0.14 0.49
8 -2 -3 1.81 0.67
8 -2 -3 3.15 1.09
-8 2 3 2.82 0.69
-8 2 3 2.7 0.78
8 -2 -3 2.2 0.8
8 -1 -3 0.86 0.36
8 -1 -3 0.72 0.76
-8 1 3 0.95 0.47
-8 1 3 1.9 0.52
8 -1 -3 1.47 0.66
8 0 -3 1.74 0.6
-8 0 3 1.04 0.34
8 0 -3 0.85 0.6
-8 0 3 0.51 0.38
-8 0 3 2.21 0.56
8 0 -3 1.62 0.63
-8 -1 3 5.17 0.78
8 1 -3 5.02 1.21
-8 -1 3 4.67 0.87
-8 -1 3 5 0.68
8 1 -3 5.04 1.01
-8 -2 3 1 0.44
8 2 -3 1.66 0.76
8 2 -3 0.81 0.56
-8 -2 3 1.55 0.58
8 2 -3 1.42 0.53
-8 -3 3 0.49 0.35
8 3 -3 0.2 0.4
-8 -3 3 0.52 0.41
-8 -3 3 0.65 0.45
8 3 -3 1.25 0.7
-8 -4 3 0.11 0.24
8 4 -3 -0.04 0.4
-8 -4 3 0.41 0.46
-8 -4 3 0.4 0.36
8 4 -3 -0.51 0.59
8 5 -3 0.41 0.4
-8 -5 3 0.19 0.4
-8 -5 3 0.48 0.45
8 5 -3 -0.11 0.52
8 6 -3 -0.12 0.41
-8 -6 3 0.5 0.43
-8 -6 3 1.29 0.64
8 6 -3 1.95 0.89
8 7 -3 -0.14 0.47
-8 -7 3 -0.07 0.35
-8 -7 3 0.41 0.43
8 7 -3 0.36 0.65
8 8 -3 0.25 0.46
-8 -8 3 0.55 0.56
-8 -8 3 1.3 0.66
8 8 -3 0.65 0.68
8 -5 -2 1.54 0.78
8 -4 -2 -0.02 0.68
-8 4 2 -0.17 0.41
8 -4 -2 0.33 0.5
8 -3 -2 0.42 0.56
-8 3 2 0.38 0.44
8 -3 -2 0.13 0.37
8 -2 -2 1.19 0.61
-8 2 2 0.5 0.28
-8 2 2 0.31 0.43
-8 2 2 1.33 0.62
8 -2 -2 0.03 0.4
-8 2 2 0.59 0.38
8 -1 -2 2.23 0.69
-8 1 2 2.46 0.66
8 -1 -2 2.71 0.93
-8 1 2 1.89 0.6
8 -1 -2 2.82 0.89
-8 1 2 2.39 0.58
8 0 -2 -0.09 0.31
-8 0 2 0.37 0.44
8 0 -2 0.15 0.52
-8 0 2 -0.62 0.38
8 0 -2 -0.34 0.55
-8 0 2 -0.27 0.31
8 1 -2 8.53 1.13
-8 -1 2 8.06 0.87
-8 -1 2 9.53 1.16
8 1 -2 7.2 0.95
8 1 -2 4.93 1.18
-8 -1 2 7.61 1.05
-8 -1 2 6.61 0.97
8 1 -2 7.13 1.07
-8 -2 2 21.5 1.28
-8 -2 2 16.75 1.51
-8 -2 2 19.73 1.67
8 2 -2 17.6 2.04
-8 -2 2 22.75 1.77
8 2 -2 18.67 1.68
-8 -3 2 16.73 0.94
-8 -3 2 16.58 1.55
-8 -3 2 17.46 1.56
8 3 -2 17.87 1.98
-8 -3 2 19.04 1.7
8 3 -2 19.98 2.33
-8 -4 2 0.77 0.37
8 4 -2 0.28 0.39
-8 -4 2 0.22 0.26
-8 -4 2 -0.07 0.31
-8 -5 2 1.27 0.5
8 5 -2 2.17 0.73
-8 -5 2 1.63 0.6
-8 -5 2 1.74 0.71
8 5 -2 0.79 0.65
-8 -6 2 -0.09 0.26
8 6 -2 0.02 0.41
-8 -6 2 -0.31 0.36
-8 -6 2 -0.38 0.44
8 6 -2 0.43 0.52
8 7 -2 -0.14 0.33
-8 -7 2 -0.48 0.42
-8 -7 2 0.43 0.41
8 7 -2 0.36 0.44
8 8 -2 -0.52 0.37
-8 -8 2 0.53 0.47
-8 -8 2 -0.49 0.52
8 8 -2 -0.86 0.76
-8 -9 2 2.5 0.87
-8 -9 2 1.44 0.81
8 10 -2 0.41 0.55
8 -5 -1 1.13 0.67
8 -5 -1 0.6 0.55
8 -4 -1 4 1.05
8 -4 -1 2.37 0.95
-8 4 1 3.63 0.93
-8 3 1 8.79 1.26
8 -3 -1 8.79 1.45
8 -3 -1 10.01 1.53
-8 2 1 4.94 0.95
8 -2 -1 4.15 0.99
-8 2 1 5.58 0.88
-8 2 1 4.39 0.81
8 -2 -1 5.11 1.07
8 -1 -1 0.39 0.3
-8 1 1 0.6 0.36
-8 1 1 0.28 0.3
8 -1 -1 -0.12 0.34
8 0 -1 5.01 0.96
-8 0 1 4.75 0.82
-8 0 1 4.07 0.83
8 0 -1 4.08 0.73
8 0 -1 4.19 1.08
-8 0 1 5.69 0.79
-8 0 1 3.94 0.68
8 0 -1 5.35 0.96
-8 0 1 3.51 0.64
8 1 -1 2.35 0.63
8 1 -1 3.56 0.8
-8 -1 1 2.64 0.69
-8 -1 1 2.54 0.57
8 1 -1 3.05 0.66
8 1 -1 1.86 0.72
-8 -1 1 2.97 0.61
-8 -1 1 2.74 0.6
8 1 -1 2.14 0.56
-8 -1 1 2.6 0.59
-8 -2 1 2.51 0.59
8 2 -1 3.04 0.78
-8 -2 1 2.59 0.68
-8 -2 1 2.39 0.5
8 2 -1 1.27 0.45
-8 -2 1 2.1 0.66
-8 -2 1 3.26 0.65
8 2 -1 3.24 0.7
-8 -2 1 2.28 0.58
-8 -3 1 12.05 1.2
-8 -3 1 14.85 1.34
-8 -3 1 13.31 1.43
-8 -3 1 12.96 0.98
8 3 -1 13.52 1.63
-8 -3 1 13.15 1.51
-8 -3 1 12.25 1.39
-8 -4 1 5.64 0.89
-8 -4 1 4.11 0.8
-8 -4 1 5.18 0.53
8 4 -1 6.2 1.08
-8 -4 1 4.4 0.82
-8 -4 1 4.6 0.94
8 4 -1 5.1 1.21
-8 -4 1 4.66 0.85
-8 -5 1 1.32 0.51
-8 -5 1 2.79 0.71
-8 -5 1 2.04 0.27
-8 -5 1 2.32 0.56
8 5 -1 2.28 0.68
-8 -5 1 1.98 0.54
-8 -5 1 1.01 0.43
8 5 -1 2.07 0.77
-8 -6 1 0.41 0.34
-8 -6 1 1.92 0.65
-8 -6 1 0.94 0.35
8 6 -1 1.08 0.49
-8 -6 1 0.38 0.4
-8 -6 1 0.47 0.47
8 6 -1 1.01 0.65
-8 -7 1 1.56 0.64
-8 -7 1 0.57 0.54
8 7 -1 -0.21 0.26
-8 -7 1 0.35 0.48
8 7 -1 0.04 0.49
-8 -8 1 -0.04 0.41
8 8 -1 0.29 0.36
-8 -8 1 0.84 0.55
8 8 -1 0.42 0.45
-8 -9 1 0.83 0.53
-8 -9 1 -0.23 0.42
8 9 -1 -0.62 0.63
-8 -10 1 0.11 0.47
-8 -10 1 0.08 0.49
8 10 -1 -0.13 0.5
8 11 -1 0.69 0.61
8 -6 0 0.55 0.62
8 -5 0 -0.13 0.54
8 -5 0 0.36 0.57
8 -5 0 0.37 0.5
-8 4 0 2.16 0.7
8 -4 0 0.96 0.67
8 -4 0 0.68 0.47
8 -4 0 0.84 0.54
8 -3 0 0.89 0.67
-8 3 0 0.62 0.52
8 -3 0 0.28 0.51
8 -3 0 -0.07 0.43
8 -2 0 0.82 0.54
-8 2 0 0.51 0.39
8 -2 0 1.3 0.79
-8 2 0 0.34 0.31
8 -2 0 1.24 0.52
8 -1 0 12.42 1.61
8 -1 0 14.13 1.2
-8 1 0 15.78 1.55
-8 1 0 14.12 1.23
-8 1 0 16.12 1.22
8 -1 0 14.6 1.6
8 0 0 13.17 1.16
8 0 0 12.88 1.56
-8 0 0 12.81 1.15
-8 0 0 16.24 1.44
-8 0 0 15.88 1.36
-8 0 0 10.39 1.01
8 0 0 13.27 1.36
8 1 0 0.09 0.28
-8 -1 0 1.03 0.48
-8 -1 0 0.68 0.39
8 1 0 0.91 0.5
-8 -1 0 0.01 0.32
8 1 0 0.34 0.25
-8 -1 0 0.24 0.34
8 1 0 1.32 0.64
-8 -1 0 0.6 0.41
-8 -1 0 0.71 0.32
-8 -1 0 0.44 0.3
8 1 0 0.5 0.36
-8 -2 0 -0.17 0.37
-8 -2 0 -0.5 0.39
8 2 0 0.11 0.34
-8 -2 0 -0.37 0.44
8 2 0 0.63 0.36
-8 -2 0 0.09 0.25
-8 -2 0 -0.28 0.45
-8 -2 0 -0.16 0.21
-8 -2 0 0.14 0.26
8 2 0 0.08 0.23
-8 -3 0 2.01 0.55
-8 -3 0 1.97 0.57
-8 -3 0 2.92 0.71
8 3 0 0.79 0.46
-8 -3 0 2.21 0.52
-8 -3 0 1.07 0.41
-8 -3 0 2.04 0.45
-8 -3 0 1.78 0.52
8 3 0 2.84 0.58
-8 -4 0 3.88 0.8
-8 -4 0 3.78 0.86
-8 -4 0 2.77 0.59
8 4 0 2.88 0.75
-8 -4 0 3.05 0.63
-8 -4 0 2.74 0.8
-8 -4 0 2.76 0.5
-8 -4 0 2.62 0.6
-8 -5 0 1.43 0.57
-8 -5 0 1.76 0.56
-8 -5 0 2.97 0.56
8 5 0 1.45 0.52
-8 -5 0 1.99 0.48
-8 -5 0 2.98 0.83
8 5 0 2.39 0.84
-8 -5 0 1.74 0.37
-8 -5 0 1.27 0.4
-8 -6 0 9.67 1.3
-8 -6 0 8.62 1.18
-8 -6 0 10.07 1.29
-8 -6 0 8.89 0.85
-8 -6 0 9.34 0.73
-8 -6 0 12.93 1.68
8 6 0 9.79 1.6
-8 -6 0 8.84 1.05
-8 -7 0 7.27 1.15
-8 -7 0 6.08 1.1
-8 -7 0 4.15 0.56
-8 -7 0 6.01 1.25
8 7 0 6.76 1.31
-8 -7 0 5.06 0.83
8 8 0 1.5 0.73
-8 -8 0 2.04 0.65
-8 -8 0 0.32 0.56
-8 -8 0 0.04 0.4
8 8 0 0.5 0.47
-8 -9 0 0.46 0.41
-8 -9 0 -0.53 0.4
8 9 0 -0.64 0.57
8 9 0 0.9 0.6
-8 -10 0 0.09 0.38
-8 -10 0 -0.44 0.5
8 10 0 -0.31 0.54
8 10 0 1.05 0.76
-8 -11 0 -0.16 0.48
8 11 0 0.24 0.48
8 12 0 1.15 0.65
8 -6 1 1.07 0.68
8 -5 1 0.71 0.61
8 -5 1 1 0.71
8 -5 1 0.88 0.7
8 -4 1 -0.14 0.44
-8 4 -1 0 0.37
8 -4 1 0.11 0.45
8 -4 1 0.05 0.38
8 -3 1 3.53 0.96
-8 3 -1 2.22 0.73
8 -3 1 2.67 0.89
8 -3 1 3.42 0.96
8 -2 1 1.75 0.7
8 -2 1 1.4 0.67
-8 2 -1 2.37 0.7
-8 2 -1 1.91 0.45
8 -2 1 1.88 0.66
8 -1 1 0.55 0.56
8 -1 1 0.4 0.4
-8 1 -1 0.78 0.44
-8 1 -1 -0.17 0.26
-8 1 -1 0 0.16
-8 1 -1 -0.03 0.2
8 -1 1 -0.02 0.28
-8 0 -1 0.74 0.44
8 0 1 0.26 0.43
8 0 1 0.78 0.6
-8 0 -1 0.13 0.29
-8 0 -1 -0.6 0.51
-8 0 -1 0.13 0.28
-8 0 -1 0.38 0.23
8 0 1 -0.05 0.3
-8 -1 -1 2.92 0.68
8 1 1 2.71 0.72
8 1 1 3.47 0.88
-8 -1 -1 3.58 0.76
-8 -1 -1 2.97 0.59
-8 -1 -1 2.18 0.45
-8 -1 -1 1.93 0.44
8 1 1 2.95 0.61
-8 -2 -1 4.83 0.79
8 2 1 3.23 0.81
-8 -2 -1 4.22 0.89
-8 -2 -1 4.53 0.91
-8 -2 -1 4.26 0.6
-8 -2 -1 3.72 0.69
-8 -2 -1 3.78 0.68
8 2 1 4.93 0.7
-8 -3 -1 2.84 0.55
-8 -3 -1 3.29 0.81
-8 -3 -1 3.27 0.8
-8 -3 -1 3.15 0.75
-8 -3 -1 2.77 0.53
-8 -3 -1 1.38 0.55
-8 -3 -1 2.87 0.66
-8 -3 -1 2.95 0.58
-8 -4 -1 4.13 0.85
-8 -4 -1 2.4 0.67
-8 -4 -1 2.82 0.57
-8 -4 -1 2.99 0.66
-8 -4 -1 3.35 0.62
8 4 1 2.82 0.7
-8 -4 -1 4.02 0.94
-8 -4 -1 3.53 0.78
-8 -4 -1 3.33 0.59
-8 -5 -1 -0.16 0.5
-8 -5 -1 0.72 0.37
-8 -5 -1 0.73 0.38
8 5 1 0.08 0.17
-8 -5 -1 0.01 0.42
-8 -5 -1 -0.11 0.28
-8 -5 -1 0.31 0.23
8 6 1 0.04 0.45
-8 -6 -1 -0.12 0.2
-8 -6 -1 -0.86 0.56
-8 -6 -1 -0.29 0.23
-8 -6 -1 0.43 0.42
8 6 1 0.16 0.5
-8 -6 -1 0.62 0.33
-8 -7 -1 0.37 0.27
-8 -7 -1 0.33 0.36
-8 -7 -1 0.73 0.47
8 7 1 0.11 0.23
-8 -7 -1 -0.04 0.39
8 7 1 0.63 0.58
-8 -7 -1 0.74 0.36
8 7 1 1.63 0.7
-8 -8 -1 2.69 0.81
-8 -8 -1 1.26 0.56
-8 -8 -1 0.7 0.63
8 8 1 2.3 0.82
8 8 1 1.8 0.92
-8 -9 -1 0.43 0.56
-8 -9 -1 1.23 0.76
8 9 1 0.84 0.57
8 9 1 2.21 0.84
-8 -10 -1 0.62 0.51
-8 -10 -1 -0.25 0.61
8 10 1 0.15 0.53
8 10 1 0.71 0.5
-8 -11 -1 -1.18 0.84
8 11 1 0.33 0.51
8 -6 2 1.15 0.75
8 -5 2 2.72 0.92
8 -5 2 3.62 1.14
8 -5 2 4.52 1.16
8 -4 2 0.35 0.61
8 -4 2 0.16 0.51
-8 4 -2 0.74 0.67
8 -4 2 1.21 0.69
8 -3 2 1.29 0.61
8 -3 2 2.02 0.86
8 -3 2 0.56 0.49
-8 3 -2 1.04 0.51
8 -2 2 15.79 2.08
8 -2 2 14.72 1.91
-8 2 -2 15.69 1.65
-8 2 -2 14.96 1.1
8 -2 2 13.58 1.56
8 -1 2 1.72 0.66
8 -1 2 1.78 0.72
-8 1 -2 0.96 0.32
-8 1 -2 1.51 0.53
8 -1 2 0.94 0.35
8 0 2 6.47 1.19
8 0 2 7.23 1.28
-8 0 -2 7.03 0.63
-8 0 -2 5.78 0.47
-8 0 -2 7.04 0.56
-8 0 -2 7.41 1.03
-8 0 -2 7.26 1.05
8 0 2 7.37 0.95
-8 -1 -2 1.1 0.45
8 1 2 1.94 0.79
-8 -1 -2 1.95 0.61
-8 -1 -2 0.65 0.24
-8 -1 -2 1.16 0.35
-8 -1 -2 1.4 0.55
8 1 2 0.55 0.3
-8 -2 -2 5.34 0.82
-8 -2 -2 4.21 0.68
8 2 2 4 0.95
8 2 2 5.07 1.04
-8 -2 -2 4.78 0.92
-8 -2 -2 3.85 0.8
-8 -2 -2 3.71 0.51
-8 -2 -2 2.79 0.57
8 2 2 4.57 0.63
8 3 2 12.98 1.6
-8 -3 -2 11.74 0.97
8 3 2 15.24 1.68
-8 -3 -2 10.42 1.44
-8 -3 -2 12.23 1.44
-8 -3 -2 12.66 1.54
-8 -3 -2 10.87 1.19
-8 -3 -2 10.96 1.19
-8 -3 -2 11.5 0.99
-8 -4 -2 0.46 0.26
-8 -4 -2 0.5 0.45
-8 -4 -2 0.98 0.51
-8 -4 -2 0.45 0.32
-8 -4 -2 0.46 0.4
-8 -4 -2 0.31 0.33
-8 -4 -2 0.39 0.36
-8 -5 -2 1.08 0.46
-8 -5 -2 1.84 0.57
-8 -5 -2 1.2 0.35
-8 -5 -2 1.55 0.47
-8 -5 -2 1.55 0.67
-8 -5 -2 1.65 0.54
-8 -5 -2 1.37 0.34
8 5 2 1.29 0.53
-8 -6 -2 -0.04 0.55
-8 -6 -2 0.74 0.39
-8 -6 -2 0.18 0.21
-8 -6 -2 0.47 0.32
-8 -6 -2 -0.13 0.5
-8 -6 -2 0.61 0.24
8 6 2 0.72 0.57
-8 -7 -2 0.7 0.37
-8 -7 -2 0.27 0.31
-8 -7 -2 -0.19 0.57
-8 -7 -2 0.46 0.24
8 7 2 0.41 0.45
-8 -8 -2 0.69 0.53
-8 -8 -2 0.1 0.33
-8 -8 -2 0.01 0.47
8 8 2 0.16 0.48
8 8 2 -0.29 0.49
-8 -9 -2 0.8 0.52
-8 -9 -2 -0.31 0.51
8 9 2 -0.48 0.52
8 9 2 1.18 0.71
-8 -10 -2 0.6 0.73
8 10 2 0.85 0.58
8 10 2 -0.44 0.53
-8 -11 -2 0.74 0.74
8 11 2 0.07 0.43
8 11 2 0.7 0.76
8 -6 3 0.56 0.76
8 -5 3 1.75 0.72
8 -5 3 1.09 0.61
8 -4 3 9.68 1.58
8 -4 3 9.42 1.66
8 -4 3 7.74 1.49
-8 4 -3 11.23 1.64
8 -3 3 0.29 0.4
8 -3 3 0.2 0.47
8 -3 3 0.81 0.61
-8 3 -3 0.75 0.48
8 -2 3 8.44 1.22
8 -2 3 8.94 1.66
8 -2 3 8.63 1.46
-8 2 -3 8.67 0.93
-8 2 -3 8.35 1.28
8 -1 3 2.87 0.94
8 -1 3 2.92 0.9
-8 1 -3 4.04 0.75
-8 1 -3 3.86 0.9
8 -1 3 2.04 0.54
8 0 3 2.82 0.86
8 0 3 2.29 0.79
-8 0 -3 2.08 0.56
-8 0 -3 2.59 0.67
8 0 3 2.86 0.6
8 1 3 17.11 1.9
8 1 3 18.55 1.98
-8 -1 -3 15.17 0.72
-8 -1 -3 19.02 1.68
-8 -1 -3 12.92 0.52
-8 -1 -3 20.41 1.83
8 1 3 16.53 1.16
8 2 3 0.67 0.53
8 2 3 1.71 0.68
-8 -2 -3 1.56 0.57
-8 -2 -3 0.76 0.46
-8 -2 -3 1.44 0.59
-8 -2 -3 1.15 0.24
-8 -2 -3 1.63 0.35
8 2 3 1.14 0.29
8 3 3 15.67 1.78
-8 -3 -3 18 1.08
8 3 3 16.79 1.82
-8 -3 -3 14.95 1.67
-8 -3 -3 17.48 1.61
-8 -3 -3 20.35 1.97
-8 -3 -3 18.76 1.42
-8 -3 -3 19.74 1.69
-8 -4 -3 7.11 0.78
-8 -4 -3 6.12 0.95
-8 -4 -3 6.41 1.14
8 4 3 7.14 1.14
-8 -4 -3 5.39 0.82
-8 -4 -3 5.92 1.12
-8 -4 -3 7.07 0.99
-8 -4 -3 5.43 0.46
-8 -5 -3 0.23 0.13
-8 -5 -3 1.16 0.6
-8 -5 -3 0.34 0.27
-8 -5 -3 0.26 0.26
-8 -5 -3 0.34 0.35
-8 -5 -3 0.26 0.3
8 5 3 0.3 0.36
-8 -5 -3 0.46 0.35
-8 -6 -3 -0.02 0.25
-8 -6 -3 1.07 0.58
-8 -6 -3 0.68 0.44
-8 -6 -3 0.28 0.19
-8 -6 -3 0.73 0.52
8 6 3 0.1 0.33
-8 -6 -3 -0.07 0.12
-8 -7 -3 -0.86 0.47
-8 -7 -3 -0.06 0.66
-8 -7 -3 0.29 0.22
8 7 3 0.17 0.46
-8 -8 -3 0.54 0.48
-8 -8 -3 0.93 0.66
8 8 3 1.97 0.73
-8 -9 -3 -0.09 0.56
8 9 3 -0.33 0.49
-8 -10 -3 -0.01 0.39
-8 -10 -3 0.75 0.61
8 10 3 -0.72 0.58
-8 -11 -3 0.91 0.73
8 11 3 0.41 0.68
8 -6 4 0.71 0.72
8 -5 4 0.75 0.67
8 -5 4 0.31 0.66
8 -4 4 -0.14 0.38
8 -4 4 0.86 0.56
8 -4 4 -0.09 0.63
-8 4 -4 0.43 0.62
8 -3 4 2.67 0.81
8 -3 4 1.79 0.81
8 -3 4 2.03 0.84
-8 3 -4 2.51 0.9
8 -2 4 0.74 0.43
8 -2 4 1.25 0.8
8 -2 4 1.01 0.63
-8 2 -4 0.05 0.22
-8 2 -4 0.04 0.35
8 -1 4 39.06 3.21
8 -1 4 39.22 3.15
-8 1 -4 39.98 2.67
-8 1 -4 38.34 2.35
8 -1 4 37.84 2.25
8 0 4 13.2 1.79
8 0 4 15.53 1.94
-8 0 -4 14.36 1.61
8 0 4 12.34 1.14
8 1 4 0.43 0.46
-8 -1 -4 0.21 0.34
8 1 4 0.65 0.54
8 1 4 0.35 0.24
8 2 4 -0.03 0.49
8 2 4 0.53 0.54
-8 -2 -4 1.23 0.59
-8 -2 -4 0.68 0.44
-8 -2 -4 0.68 0.18
-8 -2 -4 0.49 0.13
8 2 4 0.55 0.18
8 3 4 0.97 0.52
8 3 4 0.65 0.46
-8 -3 -4 0.95 0.48
-8 -3 -4 0.58 0.16
-8 -3 -4 0.97 0.34
-8 -3 -4 1.56 0.58
-8 -4 -4 5.9 0.68
-8 -4 -4 5.98 1.11
8 4 4 6.14 1.07
-8 -4 -4 5.09 0.82
-8 -4 -4 6.25 1.01
-8 -4 -4 5.34 0.81
-8 -5 -4 1.38 0.5
-8 -5 -4 2.37 0.74
8 5 4 1.85 0.67
-8 -5 -4 1.06 0.39
-8 -5 -4 1.86 0.42
-8 -5 -4 1.37 0.48
8 5 4 1.85 0.58
-8 -6 -4 3.4 0.88
-8 -6 -4 1.99 0.31
-8 -6 -4 3.1 0.87
8 6 4 2.61 0.71
-8 -7 -4 9.76 1.36
-8 -7 -4 7.63 0.56
8 7 4 7.02 1.24
-8 -8 -4 7.65 1.22
-8 -8 -4 10.9 1.77
8 8 4 12.82 1.74
-8 -8 -4 10.33 0.9
-8 -9 -4 0.08 0.52
-8 -9 -4 -0.95 0.72
8 9 4 0.81 0.68
-8 -10 -4 0.72 0.57
-8 -10 -4 0.39 0.58
8 10 4 0.78 0.7
-8 -11 -4 -0.38 0.6
8 11 4 -0.25 0.5
8 -5 5 0.96 0.62
8 -4 5 0.49 0.4
8 -4 5 2.1 0.97
8 -4 5 0.3 0.5
-8 4 -5 2.17 0.75
8 -3 5 6.86 1.19
8 -3 5 6.76 1.5
8 -3 5 2.54 0.77
-8 3 -5 5.09 1.13
8 -2 5 2.14 0.68
8 -2 5 0.81 0.65
8 -2 5 2.73 0.92
-8 2 -5 4.12 1.02
8 -1 5 4.7 0.83
8 -1 5 6.25 1.33
8 -1 5 7.32 1.42
-8 1 -5 6.06 1.15
8 0 5 0.54 0.32
8 0 5 2.54 1.04
-8 0 -5 -0.53 0.55
8 0 5 2.41 0.91
8 1 5 6.8 1.32
8 1 5 5.73 1.2
-8 -1 -5 6.48 1.1
8 1 5 5.49 0.56
8 2 5 1.56 0.64
8 2 5 2.24 0.75
-8 -2 -5 2.63 0.78
8 3 5 -0.42 0.37
8 3 5 0.76 0.55
-8 -3 -5 0.56 0.38
-8 -3 -5 0.11 0.13
-8 -3 -5 -0.22 0.29
-8 -3 -5 -0.08 0.14
8 3 5 0.08 0.16
-8 -4 -5 -0.23 0.43
8 4 5 0.04 0.33
-8 -4 -5 0.16 0.21
-8 -4 -5 -0.03 0.27
-8 -4 -5 0.25 0.27
-8 -5 -5 2.19 0.74
-8 -5 -5 0.69 0.45
8 5 5 2.56 0.73
-8 -5 -5 2.08 0.46
-8 -5 -5 1.79 0.58
8 5 5 1.65 0.53
-8 -6 -5 0.36 0.45
8 6 5 0.78 0.51
-8 -6 -5 0.4 0.21
-8 -6 -5 0.38 0.41
8 6 5 -0.09 0.38
-8 -7 -5 2.52 0.78
-8 -7 -5 1.8 0.6
8 7 5 1.82 0.68
-8 -8 -5 1.54 0.68
8 8 5 2.58 0.86
-8 -9 -5 3.05 0.81
8 9 5 4.19 1.28
-8 -10 -5 1.56 0.63
-8 -10 -5 -0.57 0.56
8 10 5 1.7 0.8
-8 -11 -5 -0.02 0.41
-8 -11 -5 0.12 0.51
8 11 5 0.18 0.47
8 -4 6 0.88 0.55
8 -3 6 0.26 0.47
8 -3 6 0.33 0.48
8 -3 6 1.21 0.83
-8 3 -6 0.6 0.58
8 -2 6 2.49 0.69
8 -2 6 0.43 0.46
8 -2 6 2.23 0.92
-8 2 -6 1.18 0.7
-8 1 -6 0.45 0.39
8 -1 6 -0.28 0.37
8 -1 6 0.36 0.6
8 -1 6 0.12 0.61
8 0 6 0.11 0.21
8 0 6 0.38 0.6
-8 0 -6 0.13 0.4
8 0 6 -0.4 0.51
8 1 6 1.66 0.82
8 1 6 0.86 0.56
-8 -1 -6 -0.24 0.63
8 1 6 1.25 0.28
8 2 6 0.68 0.7
8 2 6 0.71 0.56
-8 -2 -6 -0.16 0.39
8 3 6 1.88 0.8
8 3 6 2.27 0.74
-8 -3 -6 0.92 0.18
-8 -3 -6 0.97 0.53
-8 -3 -6 1.41 0.68
-8 -3 -6 1.08 0.21
8 3 6 1.25 0.34
8 4 6 1.46 0.6
-8 -4 -6 1.07 0.42
-8 -4 -6 0.69 0.44
-8 -4 -6 0.97 0.33
-8 -5 -6 -0.41 0.49
8 5 6 0.08 0.34
-8 -5 -6 0.09 0.25
-8 -5 -6 0.08 0.32
8 5 6 0.38 0.43
-8 -5 -6 0.37 0.43
-8 -5 -6 0.76 0.34
-8 -6 -6 0.3 0.45
8 6 6 0.22 0.3
-8 -6 -6 0.49 0.16
-8 -6 -6 0.01 0.33
8 6 6 0.72 0.57
-8 -7 -6 -0.08 0.35
8 7 6 0.33 0.4
-8 -7 -6 0.4 0.33
8 7 6 -0.01 0.4
-8 -8 -6 -0.32 0.48
8 8 6 0.45 0.38
-8 -9 -6 2.04 0.68
8 9 6 0.6 0.63
-8 -10 -6 0.33 0.48
8 10 6 -0.37 0.4
-8 -11 -6 1.18 0.6
8 11 6 -0.75 0.64
8 -3 7 -0.31 0.58
8 -2 7 0.93 0.77
8 -2 7 1.16 0.61
-8 2 -7 0.54 0.44
8 -1 7 -0.01 0.32
-8 1 -7 -0.45 0.44
8 -1 7 -0.17 0.45
8 -1 7 -0.42 0.58
8 0 7 1.19 0.37
8 0 7 1.67 0.82
8 0 7 0.25 0.43
-8 0 -7 0.56 0.54
8 1 7 1.1 0.76
8 1 7 1.42 0.68
-8 -1 -7 1 0.47
-8 -2 -7 -0.58 0.5
8 2 7 -0.47 0.48
8 2 7 -0.39 0.45
8 3 7 0.53 0.55
8 3 7 -0.29 0.45
-8 -3 -7 0.41 0.54
8 3 7 0.07 0.16
8 4 7 0.03 0.36
-8 -4 -7 0.44 0.49
-8 -5 -7 1.65 0.64
8 5 7 1.26 0.58
8 5 7 0.91 0.45
-8 -5 -7 0.61 0.32
-8 -6 -7 0.23 0.33
8 6 7 0.49 0.43
-8 -6 -7 0.36 0.17
8 6 7 0.57 0.35
-8 -6 -7 -0.1 0.3
-8 -7 -7 0.3 0.43
8 7 7 0.05 0.26
8 7 7 0.27 0.35
-8 -8 -7 1.82 0.7
8 8 7 0.89 0.61
-8 -9 -7 0.18 0.49
8 9 7 -0.03 0.49
-8 -10 -7 0.15 0.42
8 10 7 0.29 0.89
-8 -11 -7 0.74 0.53
8 -2 8 0.51 0.63
8 -2 8 0.14 0.63
-8 2 -8 0.22 0.48
8 -1 8 0.7 0.76
-8 1 -8 0.51 0.62
8 -1 8 -0.33 0.46
8 0 8 1.72 0.83
8 0 8 1.39 0.74
-8 0 -8 1.25 0.66
8 1 8 0.75 0.67
8 1 8 2.04 0.85
-8 -1 -8 1.03 0.65
8 2 8 0.79 0.54
-8 -2 -8 0.04 0.5
8 2 8 0.99 0.59
8 3 8 -0.3 0.38
8 3 8 0.1 0.23
-8 -3 -8 -0.29 0.49
-8 -4 -8 0.53 0.44
8 4 8 0.59 0.5
8 4 8 0.05 0.16
-8 -5 -8 -0.3 0.46
8 5 8 0.09 0.38
-8 -5 -8 0.87 0.33
8 5 8 0.13 0.34
-8 -6 -8 -0.24 0.47
8 6 8 0.1 0.35
8 6 8 0 0.36
-8 -7 -8 1.18 0.61
8 7 8 -0.02 0.27
8 7 8 0.32 0.49
-8 -8 -8 1.6 0.72
8 8 8 2.21 0.81
-8 -9 -8 -0.13 0.45
8 9 8 -0.02 0.48
-8 -10 -8 0.3 0.58
8 10 8 0.12 0.49
-8 -11 -8 0.77 0.5
8 -1 9 2.15 0.95
-8 1 -9 2.78 0.94
8 -1 9 3.05 1.03
8 0 9 0.62 0.65
8 0 9 1.03 0.63
-8 0 -9 0.42 0.53
8 1 9 0.64 0.64
8 1 9 0.53 0.58
-8 -1 -9 0.43 0.5
-8 -2 -9 -0.33 0.4
8 2 9 1.51 0.69
8 3 9 0.2 0.41
-8 -3 -9 0.17 0.46
-8 -4 -9 0.62 0.55
8 4 9 0.63 0.55
-8 -4 -9 0.58 0.33
8 4 9 0.85 0.45
8 5 9 0.94 0.48
-8 -5 -9 0.19 0.3
8 5 9 0.44 0.5
-8 -6 -9 -0.19 0.53
8 6 9 0.79 0.54
8 6 9 0.6 0.56
-8 -7 -9 0.89 0.66
8 7 9 1.33 0.58
8 7 9 2.09 0.75
-8 -8 -9 0.76 0.59
8 8 9 -0.47 0.43
-8 -9 -9 -0.5 0.5
8 9 9 1.49 0.98
-8 -10 -9 0.78 0.51
8 10 9 0.41 0.89
8 0 10 1.58 0.9
8 1 10 -0.14 0.59
8 1 10 0.4 0.6
-8 -1 -10 0.43 0.63
-8 -2 -10 0.3 0.56
8 2 10 0.44 0.56
-8 -3 -10 1.05 0.45
8 3 10 0.92 0.64
-8 -3 -10 1.28 0.81
-8 -4 -10 -0.3 0.24
-8 -4 -10 -0.71 0.52
-8 -5 -10 3.24 1.15
8 5 10 2.86 0.91
8 5 10 2.74 0.83
-8 -6 -10 0.04 0.4
8 6 10 0.35 0.53
8 6 10 0.41 0.48
-8 -7 -10 2.09 0.81
8 7 10 0.09 0.45
-8 -8 -10 0.83 0.55
8 8 10 0.46 0.54
-8 -9 -10 -0.32 0.42
8 9 10 0.67 0.6
-8 -10 -10 0.32 0.42
-8 -2 -11 0.24 0.32
8 2 11 0.34 0.42
-8 -3 -11 2.2 0.64
8 3 11 3.59 1.09
8 4 11 0.92 0.61
-8 -4 -11 1.93 0.59
8 5 11 0.72 0.6
-8 -6 -11 0.05 0.37
-8 -7 -11 1.06 0.79
8 7 11 -0.08 0.56
-8 -8 -11 1.23 0.8
8 8 11 0.53 0.68
-8 -2 -12 0.42 0.5
-8 -3 -12 0.15 0.39
8 4 12 0.24 0.66
8 5 12 0.51 0.48
-8 -6 -12 -0.02 0.45
-9 1 5 0.42 0.46
-9 0 5 0.62 0.58
-9 -1 5 0.65 0.45
9 1 -5 1.07 0.65
9 2 -5 2.06 1.04
-9 -2 5 1.1 0.65
9 3 -5 0.31 0.6
-9 -3 5 0.51 0.51
9 4 -5 0.61 0.74
9 5 -5 -0.18 0.51
9 6 -5 -0.68 0.89
-9 2 4 -0.17 0.4
-9 1 4 0.2 0.46
9 -1 -4 1.05 0.66
-9 0 4 -0.06 0.33
9 0 -4 0.04 0.54
9 1 -4 0.84 0.66
-9 -1 4 0.5 0.51
9 1 -4 1.26 0.65
9 2 -4 0.62 0.65
-9 -2 4 0.24 0.49
9 2 -4 0.01 0.34
9 3 -4 -0.02 0.47
-9 -3 4 0.1 0.44
9 3 -4 0.02 0.49
9 4 -4 0.45 0.6
-9 -4 4 0.4 0.55
9 4 -4 0.62 0.58
9 5 -4 0.09 0.53
-9 -5 4 0.45 0.55
9 5 -4 -0.68 0.8
9 6 -4 0.23 0.49
-9 -6 4 -0.12 0.4
9 7 -4 -0.21 0.5
-9 3 3 1.06 0.61
-9 2 3 0.77 0.54
-9 2 3 -0.11 0.41
9 -2 -3 0.55 0.48
9 -1 -3 3.4 1.21
-9 1 3 2.72 0.82
9 -1 -3 3.46 0.91
9 0 -3 2.76 1.03
-9 0 3 2.21 0.68
9 0 -3 1.32 0.62
9 1 -3 -0.11 0.55
-9 -1 3 0.17 0.34
9 1 -3 0.7 0.59
-9 -2 3 1.57 0.55
9 2 -3 2.78 1.1
-9 -2 3 1.48 0.61
9 2 -3 1.97 0.7
-9 -3 3 2.35 0.65
9 3 -3 1.12 0.64
-9 -3 3 1.9 0.68
-9 -3 3 1.64 0.63
9 3 -3 0.56 0.51
-9 -4 3 0.02 0.26
9 4 -3 0.3 0.53
-9 -4 3 -0.28 0.37
-9 -4 3 0.22 0.49
9 4 -3 -0.36 0.47
9 5 -3 0.42 0.49
-9 -5 3 -0.05 0.31
-9 -5 3 0.4 0.47
9 5 -3 0.29 0.56
9 6 -3 0.29 0.67
-9 -6 3 -0.11 0.42
-9 -6 3 0.72 0.5
9 6 -3 1.21 0.74
9 7 -3 0.24 0.52
-9 -7 3 0.46 0.52
9 -3 -2 0.96 0.73
-9 3 2 0.14 0.42
9 -3 -2 -0.54 0.41
9 -2 -2 0.25 0.38
-9 2 2 -0.28 0.35
9 -2 -2 0.07 0.46
9 -1 -2 1.21 0.51
-9 1 2 1.22 0.54
9 -1 -2 0.53 0.47
-9 1 2 0.18 0.3
9 0 -2 0.55 0.45
-9 0 2 0.58 0.45
9 0 -2 0.49 0.51
-9 0 2 -0.03 0.39
9 0 -2 -0.11 0.33
-9 0 2 -0.15 0.28
9 1 -2 0.21 0.34
-9 -1 2 1.1 0.48
9 1 -2 0.38 0.46
-9 -1 2 1.39 0.52
-9 -1 2 0.31 0.38
9 1 -2 -0.09 0.33
-9 -1 2 0.65 0.42
-9 -2 2 -0.34 0.39
9 2 -2 -0.15 0.59
-9 -2 2 0.43 0.51
-9 -2 2 -0.18 0.3
9 2 -2 -0.32 0.34
-9 -3 2 1.31 0.53
9 3 -2 1.49 0.87
-9 -3 2 1.5 0.58
-9 -3 2 1.83 0.62
-9 -4 2 3.28 0.79
9 4 -2 2.89 0.94
-9 -4 2 2.84 0.81
-9 -4 2 3.29 0.77
9 4 -2 2.69 1
-9 -5 2 0.17 0.37
9 5 -2 0.35 0.43
-9 -5 2 0.27 0.41
-9 -5 2 1.09 0.59
9 5 -2 0.3 0.51
-9 -6 2 1.21 0.55
9 6 -2 0.22 0.38
-9 -6 2 0.49 0.4
-9 -6 2 1 0.67
9 6 -2 0.7 0.49
9 7 -2 0.2 0.38
-9 -7 2 -0.16 0.37
-9 -7 2 0.23 0.49
9 7 -2 0.23 0.49
-9 -8 2 0.16 0.47
9 8 -2 0.47 0.67
9 -4 -1 1.06 0.79
9 -4 -1 0.79 0.59
9 -3 -1 0.97 0.7
9 -3 -1 1.02 0.6
-9 3 1 1.14 0.54
-9 2 1 0.11 0.35
9 -2 -1 0.05 0.54
9 -2 -1 0.05 0.45
-9 1 1 0.28 0.33
9 -1 -1 0.55 0.57
-9 1 1 1.25 0.55
-9 1 1 1.39 0.51
9 -1 -1 0.38 0.39
-9 0 1 -0.24 0.31
9 0 -1 -0.17 0.4
-9 0 1 -0.08 0.33
-9 0 1 0.95 0.45
-9 0 1 -0.08 0.31
9 0 -1 -0.47 0.46
-9 -1 1 3.19 0.69
9 1 -1 2.01 0.72
-9 -1 1 1.83 0.55
9 1 -1 2.25 0.83
-9 -1 1 1.31 0.51
-9 -1 1 1.91 0.57
9 1 -1 1.99 0.69
-9 -2 1 5.48 0.77
-9 -2 1 4.51 0.95
9 2 -1 5.94 1.23
-9 -2 1 6.02 1
-9 -2 1 5.31 0.87
9 2 -1 4.38 0.86
-9 -3 1 0.32 0.32
-9 -3 1 0.36 0.38
9 3 -1 0.48 0.47
-9 -3 1 0.99 0.54
-9 -3 1 1.57 0.55
-9 -4 1 3.22 0.77
9 4 -1 2.01 0.78
-9 -4 1 2.98 0.76
-9 -4 1 2.5 0.79
-9 -5 1 1.08 0.53
9 5 -1 1.35 0.67
-9 -5 1 1.04 0.48
-9 -5 1 2 0.74
9 5 -1 0.27 0.78
-9 -6 1 0.2 0.38
9 6 -1 0.24 0.44
-9 -6 1 0.26 0.32
-9 -6 1 0.25 0.36
9 6 -1 0.5 0.52
-9 -7 1 0.42 0.47
9 7 -1 0.83 0.51
-9 -7 1 0.15 0.34
-9 -7 1 0.14 0.38
9 7 -1 -0.47 0.56
-9 -8 1 -0.01 0.35
-9 -8 1 -0.79 0.58
9 8 -1 -0.97 0.77
-9 -9 1 0.81 0.58
9 9 -1 -0.14 0.71
9 -4 0 -0.35 0.75
9 -4 0 -0.35 0.5
-9 3 0 2.66 0.83
9 -3 0 1.25 0.86
9 -3 0 1.96 0.79
9 -2 0 2.96 0.94
-9 2 0 2.52 0.79
9 -2 0 2.28 0.76
9 -1 0 1.78 0.71
-9 1 0 3.5 0.81
-9 1 0 2.12 0.58
9 -1 0 3.11 0.81
9 0 0 2.02 0.67
-9 0 0 1.75 0.65
-9 0 0 2.55 0.61
-9 0 0 2.74 0.61
-9 0 0 2.28 0.55
9 0 0 2.39 0.68
9 1 0 0.57 0.4
-9 -1 0 1.86 0.69
-9 -1 0 1.08 0.49
-9 -1 0 1.24 0.5
-9 -1 0 1.59 0.45
9 1 0 0.8 0.4
9 2 0 -0.32 0.46
-9 -2 0 0.59 0.48
-9 -2 0 -0.21 0.29
-9 -2 0 0.25 0.38
-9 -2 0 0.04 0.23
9 2 0 -0.38 0.31
-9 -3 0 -0.21 0.36
-9 -3 0 0.74 0.55
-9 -3 0 0.32 0.26
9 3 0 0.54 0.41
-9 -3 0 -0.86 0.54
-9 -3 0 0.36 0.31
-9 -4 0 0.88 0.45
-9 -4 0 1.17 0.58
9 4 0 0.2 0.35
-9 -4 0 0.48 0.36
-9 -4 0 0.19 0.25
-9 -4 0 -0.65 0.62
-9 -5 0 0.26 0.38
9 5 0 0.36 0.4
-9 -5 0 0.04 0.29
-9 -5 0 0.74 0.32
-9 -6 0 1.21 0.62
9 6 0 -0.04 0.45
-9 -6 0 0.39 0.37
-9 -6 0 0.59 0.47
9 6 0 0.81 0.69
-9 -7 0 0.47 0.45
-9 -7 0 0.71 0.5
9 7 0 -0.09 0.34
-9 -7 0 0.22 0.53
9 7 0 0.75 0.63
-9 -8 0 0.41 0.5
-9 -8 0 -0.22 0.47
9 8 0 -1 0.73
-9 -9 0 -0.5 0.42
-9 -9 0 -0.13 0.53
9 9 0 -0.15 0.64
9 10 0 0.14 0.67
9 11 0 -0.27 0.66
9 -4 1 0.67 0.52
9 -4 1 0.28 0.47
9 -4 1 0.05 0.44
9 -3 1 -0.68 0.54
-9 3 -1 0.12 0.48
9 -3 1 -0.71 0.54
9 -3 1 -0.51 0.63
9 -2 1 3.51 0.95
9 -2 1 3.97 1.07
-9 2 -1 3.28 0.86
9 -2 1 3.86 0.88
9 -1 1 2.53 0.91
9 -1 1 4.44 1.1
-9 1 -1 1.18 0.58
-9 1 -1 3.15 0.62
9 -1 1 3.91 0.86
9 0 1 0.92 0.63
-9 0 -1 1.99 0.65
-9 0 -1 0.52 0.34
-9 0 -1 1.22 0.33
9 0 1 1.62 0.5
9 1 1 1.01 0.68
-9 -1 -1 -0.11 0.32
-9 -1 -1 0.67 0.36
-9 -1 -1 1.41 0.52
-9 -1 -1 1.27 0.39
9 1 1 0.35 0.25
-9 -2 -1 3.3 0.71
9 2 1 2.32 0.74
-9 -2 -1 1.82 0.61
-9 -2 -1 3.11 0.77
-9 -2 -1 3.06 0.68
-9 -2 -1 2.28 0.51
9 2 1 2.53 0.56
-9 -3 -1 2.06 0.57
-9 -3 -1 2.2 0.75
-9 -3 -1 2.04 0.68
-9 -3 -1 2.79 0.58
-9 -3 -1 2.54 0.63
-9 -3 -1 2.7 0.72
-9 -4 -1 0.28 0.31
-9 -4 -1 0.2 0.33
-9 -4 -1 0.43 0.3
-9 -4 -1 0.19 0.43
-9 -4 -1 0.22 0.36
-9 -4 -1 -0.11 0.21
-9 -5 -1 0.34 0.32
-9 -5 -1 0.61 0.61
-9 -5 -1 0.66 0.38
-9 -5 -1 0.31 0.25
-9 -5 -1 -0.7 0.6
-9 -6 -1 -0.64 0.52
-9 -6 -1 0.26 0.26
-9 -6 -1 0.67 0.41
-9 -6 -1 0.68 0.5
-9 -7 -1 0.06 0.39
-9 -7 -1 0.14 0.39
-9 -7 -1 -0.63 0.53
9 7 1 -0.99 0.59
9 8 1 -0.55 0.51
-9 -8 -1 -0.37 0.4
-9 -8 -1 0.29 0.48
-9 -8 -1 0.94 0.66
9 8 1 0.7 0.65
-9 -9 -1 0.02 0.35
-9 -9 -1 0.98 0.73
9 9 1 -0.28 0.6
9 9 1 0.09 0.49
-9 -10 -1 0.55 0.5
-9 -10 -1 -1.14 0.81
9 10 1 0.34 0.49
9 10 1 1.32 0.78
9 11 1 1.12 0.79
9 -5 2 1.05 0.7
9 -4 2 0.32 0.45
9 -4 2 0.05 0.46
9 -3 2 0.37 0.46
9 -3 2 -0.15 0.43
-9 3 -2 0.43 0.45
9 -3 2 0.19 0.36
9 -2 2 0.33 0.68
9 -2 2 1.21 0.77
-9 2 -2 -0.52 0.46
9 -2 2 0.29 0.33
9 -1 2 2 0.91
9 -1 2 2.58 0.87
-9 1 -2 2.02 0.64
-9 1 -2 1.05 0.38
9 -1 2 1.56 0.65
9 0 2 0.24 0.43
9 0 2 0.05 0.44
-9 0 -2 0.66 0.39
-9 0 -2 0.31 0.32
9 0 2 0.81 0.38
9 1 2 2.37 0.83
9 1 2 2.74 0.96
-9 -1 -2 3.5 0.86
-9 -1 -2 3.26 0.72
-9 -1 -2 3.07 0.47
9 1 2 3.62 0.64
-9 -2 -2 0.38 0.38
9 2 2 0.63 0.66
-9 -2 -2 0.64 0.39
9 2 2 0.14 0.46
-9 -2 -2 -0.12 0.33
-9 -2 -2 -0.01 0.19
-9 -2 -2 -0.47 0.33
9 2 2 0.33 0.29
-9 -3 -2 0 0.33
-9 -3 -2 0.08 0.28
9 3 2 0.35 0.48
-9 -3 -2 -0.25 0.36
-9 -3 -2 0.55 0.52
-9 -3 -2 0.21 0.19
-9 -3 -2 0.66 0.48
-9 -4 -2 1.34 0.63
-9 -4 -2 0.73 0.35
-9 -4 -2 0.3 0.33
-9 -4 -2 0.92 0.36
-9 -4 -2 0.14 0.34
-9 -4 -2 0.41 0.41
-9 -5 -2 0 0.35
-9 -5 -2 -0.06 0.24
-9 -5 -2 0.26 0.27
-9 -5 -2 0.39 0.45
-9 -5 -2 -0.35 0.31
-9 -6 -2 -0.37 0.45
-9 -6 -2 0.44 0.36
-9 -6 -2 -0.11 0.4
-9 -6 -2 0.43 0.29
-9 -7 -2 0.04 0.37
-9 -7 -2 -0.09 0.31
-9 -7 -2 -0.03 0.29
-9 -7 -2 0.42 0.52
9 7 2 1.13 0.61
-9 -8 -2 0.22 0.4
-9 -8 -2 -0.11 0.28
-9 -8 -2 -0.05 0.26
-9 -8 -2 0.8 0.72
9 8 2 0.31 0.41
-9 -9 -2 -0.29 0.39
-9 -9 -2 -0.07 0.4
-9 -9 -2 0.43 0.72
9 9 2 0.25 0.45
-9 -10 -2 0.67 0.52
-9 -10 -2 -0.3 0.4
-9 -10 -2 0.27 0.52
9 10 2 -0.65 0.62
9 10 2 -0.22 0.47
9 11 2 0.28 0.51
9 -5 3 2.24 0.97
9 -4 3 0.07 0.44
9 -3 3 -0.44 0.57
9 -3 3 -0.5 0.58
-9 3 -3 -0.18 0.38
9 -3 3 -0.23 0.34
9 -2 3 1.04 0.64
9 -2 3 1.35 0.73
-9 2 -3 -0.02 0.43
9 -2 3 0.1 0.31
9 -1 3 1.24 0.64
9 -1 3 2.23 0.84
-9 1 -3 1.93 0.56
-9 1 -3 3.07 0.8
9 -1 3 2.83 0.68
9 0 3 1 0.61
9 0 3 -0.2 0.5
-9 0 -3 -0.1 0.31
-9 0 -3 -0.07 0.37
9 0 3 0.4 0.36
9 1 3 -0.66 0.53
9 1 3 0.33 0.48
-9 -1 -3 0.21 0.41
-9 -1 -3 -0.04 0.4
9 1 3 -0.19 0.19
-9 -2 -3 4.2 0.82
9 2 3 4.7 1.13
-9 -2 -3 3.95 0.47
9 2 3 3.44 0.96
-9 -2 -3 3.23 0.81
9 2 3 4.43 0.57
9 3 3 3.01 0.92
-9 -3 -3 2.74 0.86
9 3 3 2.33 0.87
-9 -3 -3 2.38 0.66
-9 -3 -3 1.93 0.67
-9 -3 -3 1.91 0.39
-9 -3 -3 2.77 0.58
-9 -4 -3 0.18 0.43
9 4 3 0.19 0.46
-9 -4 -3 -0.2 0.29
-9 -4 -3 -0.13 0.17
-9 -4 -3 0.28 0.53
-9 -4 -3 0.33 0.4
-9 -4 -3 -0.14 0.27
-9 -5 -3 -0.3 0.49
-9 -5 -3 0.27 0.3
-9 -5 -3 0.18 0.33
-9 -5 -3 -0.13 0.41
-9 -5 -3 -0.39 0.45
-9 -5 -3 0.11 0.35
-9 -6 -3 1.54 0.72
-9 -6 -3 0.87 0.4
-9 -6 -3 1.86 0.86
-9 -6 -3 2.23 0.59
9 6 3 0.71 0.51
-9 -7 -3 -0.43 0.54
-9 -7 -3 0.39 0.39
-9 -7 -3 0.86 0.63
-9 -7 -3 0.19 0.26
9 7 3 0.34 0.38
-9 -8 -3 -0.1 0.29
-9 -8 -3 -0.22 0.49
-9 -8 -3 -0.27 0.36
-9 -8 -3 -0.61 0.61
9 8 3 -0.3 0.47
-9 -9 -3 2.07 0.79
-9 -9 -3 0.46 0.4
-9 -9 -3 1.67 0.89
9 9 3 1.76 0.73
-9 -10 -3 0.65 0.49
-9 -10 -3 0.83 0.65
9 10 3 0.02 0.49
9 -4 4 0.29 0.6
9 -3 4 0.3 0.49
9 -3 4 -0.28 0.44
-9 3 -4 0.74 0.47
9 -2 4 3.71 1.23
9 -2 4 4.47 1.14
-9 2 -4 4.04 0.95
9 -2 4 3.23 0.82
9 -1 4 4.35 1.16
9 -1 4 6.01 1.34
-9 1 -4 3.7 0.79
-9 1 -4 4.32 0.98
9 -1 4 4.94 0.88
9 0 4 -0.09 0.68
9 0 4 1.43 0.81
-9 0 -4 0.13 0.31
-9 0 -4 0.12 0.41
9 0 4 0.42 0.36
9 1 4 0.25 0.49
9 1 4 0.8 0.67
-9 -1 -4 0.09 0.42
9 1 4 -0.12 0.28
9 2 4 0.02 0.44
9 2 4 0.6 0.54
-9 -2 -4 0.74 0.49
-9 -2 -4 0.38 0.45
9 2 4 -0.13 0.14
9 3 4 0.14 0.35
-9 -3 -4 -0.27 0.33
-9 -3 -4 0.28 0.15
-9 -4 -4 0.92 0.59
9 4 4 1.24 0.65
-9 -4 -4 0.71 0.36
-9 -4 -4 1.02 0.33
-9 -4 -4 0.66 0.33
-9 -4 -4 1.21 0.53
-9 -5 -4 2.28 0.86
9 5 4 2.95 0.85
-9 -5 -4 2.64 0.54
-9 -5 -4 2.93 0.63
-9 -5 -4 3.15 0.83
-9 -5 -4 2.95 0.73
9 5 4 2.78 0.68
-9 -6 -4 0.76 0.67
-9 -6 -4 0.35 0.37
-9 -6 -4 0.41 0.34
-9 -6 -4 -0.83 0.66
9 6 4 -0.05 0.3
-9 -7 -4 1.4 0.66
-9 -7 -4 0.32 0.38
-9 -7 -4 0.59 0.43
-9 -7 -4 0.02 0.41
9 7 4 0.19 0.32
-9 -8 -4 -0.41 0.53
-9 -8 -4 0.54 0.51
9 8 4 0.13 0.37
-9 -9 -4 0.37 0.46
-9 -9 -4 0.1 0.6
9 9 4 0.16 0.53
-9 -10 -4 0.4 0.44
-9 -10 -4 -0.14 0.54
9 10 4 0.78 0.62
9 11 4 0.12 0.72
9 -2 5 0.84 0.64
9 -2 5 1.38 0.8
-9 2 -5 -0.03 0.39
9 -1 5 5.58 1.48
9 -1 5 7.64 1.59
-9 1 -5 5.82 1.01
-9 1 -5 7.31 1.3
9 -1 5 6.36 0.99
9 0 5 14.31 2.06
9 0 5 18.58 2.28
-9 0 -5 16.97 1.91
9 0 5 12.44 1.16
9 1 5 11.62 1.83
-9 -1 -5 10.91 1.5
9 1 5 12.14 1.8
9 2 5 -0.04 0.45
9 2 5 -0.01 0.39
-9 -2 -5 -0.64 0.6
9 3 5 4.76 1.16
9 3 5 8.02 1.43
-9 -3 -5 5.36 1.05
-9 -4 -5 0.51 0.44
-9 -4 -5 0.65 0.45
9 4 5 0.33 0.37
-9 -4 -5 1.12 0.32
-9 -4 -5 0.41 0.41
-9 -5 -5 0.21 0.42
9 5 5 0.88 0.55
-9 -5 -5 0.21 0.2
-9 -5 -5 0.1 0.26
-9 -5 -5 0.73 0.46
9 5 5 0.1 0.25
-9 -6 -5 0.07 0.56
9 6 5 0.09 0.36
-9 -6 -5 -0.04 0.25
-9 -6 -5 0.05 0.35
9 6 5 0.75 0.42
-9 -7 -5 2.08 0.81
9 7 5 1.33 0.59
-9 -8 -5 1.33 0.61
9 8 5 1.93 0.74
-9 -9 -5 -0.5 0.48
-9 -9 -5 -0.07 0.45
9 9 5 -0.4 0.54
-9 -10 -5 -0.78 0.56
-9 -10 -5 -0.18 0.43
9 10 5 0.48 0.43
9 11 5 0.73 0.76
9 -2 6 0.67 0.85
9 -2 6 1.57 0.86
-9 2 -6 1.08 0.76
9 -1 6 0.65 0.63
9 -1 6 0.75 0.7
-9 1 -6 1.99 0.8
-9 0 -6 3.32 0.93
9 0 6 4.58 1.27
9 0 6 4.12 1.08
9 1 6 11.26 1.92
9 1 6 11.16 1.77
-9 -1 -6 9.35 1.46
9 2 6 2.91 0.92
9 2 6 2.98 0.95
-9 -2 -6 1.59 0.54
9 3 6 2.12 0.82
9 3 6 2.37 0.86
-9 -3 -6 2.48 0.8
9 4 6 3.15 0.95
-9 -4 -6 2.71 0.71
-9 -5 -6 -0.87 0.68
9 5 6 -0.3 0.46
-9 -5 -6 0.33 0.36
-9 -5 -6 0.23 0.24
9 5 6 0.31 0.28
-9 -6 -6 2.48 0.85
9 6 6 2.85 0.82
9 6 6 0.95 0.54
-9 -6 -6 0.36 0.46
-9 -7 -6 -0.1 0.45
9 7 6 0.83 0.51
-9 -8 -6 0.7 0.42
9 8 6 0.42 0.41
-9 -9 -6 0.48 0.52
9 9 6 0.27 0.63
-9 -10 -6 1.09 0.66
9 10 6 0.7 0.73
9 -1 7 -0.4 0.61
9 -1 7 0.44 0.48
-9 1 -7 -0.6 0.51
9 0 7 -0.3 0.56
-9 0 -7 0.21 0.46
9 0 7 0.72 0.64
9 1 7 0.54 0.63
9 1 7 0.04 0.4
-9 -1 -7 -0.16 0.47
9 2 7 0.54 0.51
-9 -2 -7 0.35 0.54
-9 -3 -7 1.37 0.6
9 3 7 0.73 0.6
9 3 7 0.53 0.65
9 4 7 3.68 0.98
-9 -4 -7 3.04 0.85
-9 -5 -7 0.71 0.56
9 5 7 1.13 0.58
-9 -5 -7 0.63 0.5
9 5 7 1.17 0.47
-9 -6 -7 -0.34 0.35
9 6 7 0.27 0.33
9 6 7 0.18 0.32
-9 -6 -7 0.26 0.41
-9 -7 -7 0.04 0.38
9 7 7 0.65 0.48
9 7 7 -0.58 0.45
-9 -8 -7 0.13 0.56
9 8 7 0.11 0.39
-9 -9 -7 0.24 0.4
9 9 7 0.6 0.53
-9 -10 -7 0.37 0.51
9 10 7 1.46 0.81
9 0 8 0.4 0.72
-9 0 -8 -0.48 0.49
9 0 8 0.21 0.61
9 1 8 0 0.49
9 1 8 0.18 0.47
-9 -1 -8 -0.06 0.51
9 2 8 0.84 0.57
9 2 8 0.59 0.59
-9 -2 -8 0.11 0.47
-9 -3 -8 0.74 0.61
9 3 8 0.76 0.58
9 4 8 0.19 0.4
-9 -4 -8 0.26 0.47
-9 -5 -8 1.07 0.71
9 5 8 -0.11 0.34
-9 -5 -8 0.25 0.51
9 5 8 0.37 0.36
-9 -6 -8 0.1 0.46
-9 -6 -8 0.87 0.49
9 6 8 0.3 0.55
9 6 8 0.02 0.36
-9 -7 -8 0.42 0.52
9 7 8 0.25 0.38
9 7 8 -0.1 0.37
-9 -8 -8 0.92 0.66
9 8 8 -0.15 0.39
-9 -9 -8 -1.01 0.66
9 9 8 -0.34 0.49
9 10 8 0.66 0.68
9 1 9 2.08 0.96
9 1 9 1.33 0.7
-9 -1 -9 0.7 0.59
9 2 9 0.51 0.6
9 2 9 0.56 0.62
-9 -2 -9 -0.56 0.64
-9 -3 -9 0.92 0.7
9 3 9 1.19 0.75
9 4 9 -0.55 0.49
-9 -4 -9 0.24 0.66
9 5 9 -0.39 0.54
-9 -5 -9 0.79 0.62
-9 -6 -9 0.76 0.6
9 6 9 1.4 0.61
-9 -6 -9 0.87 0.54
-9 -7 -9 0.17 0.47
9 7 9 -0.64 0.4
9 7 9 0.81 0.49
-9 -8 -9 0.34 0.63
9 8 9 0.36 0.53
-9 -9 -9 0.13 0.42
9 9 9 0.21 0.55
9 10 9 -0.51 0.72
9 2 10 1.18 0.91
9 3 10 0.76 0.65
9 4 10 0.06 0.47
-9 -4 -10 -0.14 0.51
9 5 10 0.05 0.39
-9 -5 -10 0.41 0.54
-9 -6 -10 -0.34 0.53
9 6 10 -0.16 0.47
-9 -7 -10 0.42 0.61
-9 -8 -10 -0.02 0.45
9 8 10 0.21 0.54
9 9 10 -0.51 0.6
9 3 11 -0.43 0.59
-9 -3 -11 -0.12 0.31
9 4 11 0.24 0.57
9 5 11 1.11 0.71
-10 -1 4 0.42 0.51
10 1 -4 0.96 0.52
-10 -2 4 0.22 0.39
-10 -3 4 -0.31 0.45
10 4 -4 0.35 0.85
10 5 -4 0.82 0.79
10 6 -4 0.34 0.57
10 0 -3 -0.16 0.37
-10 -1 3 -0.59 0.52
10 1 -3 -0.14 0.33
10 2 -3 0.06 0.51
-10 -2 3 0.31 0.42
10 2 -3 0.42 0.49
10 3 -3 1.25 0.84
-10 -3 3 1.73 0.74
-10 -4 3 0.26 0.36
10 4 -3 0.34 0.47
-10 -4 3 1.03 0.58
10 5 -3 0.63 0.71
-10 -5 3 0.62 0.53
10 6 -3 -0.25 0.49
-10 -6 3 0.09 0.45
10 -2 -2 0.39 0.47
10 -1 -2 0.3 0.4
10 0 -2 1.76 0.68
10 1 -2 -0.37 0.73
-10 -1 2 0.56 0.44
10 1 -2 0.14 0.34
-10 -2 2 -0.32 0.4
10 2 -2 0.1 0.54
-10 -2 2 0.55 0.5
-10 -2 2 0.22 0.34
10 2 -2 -0.26 0.4
-10 -3 2 1.55 0.57
10 3 -2 2.21 0.91
-10 -3 2 1.94 0.67
-10 -3 2 1.31 0.63
-10 -4 2 0.3 0.47
10 4 -2 0.51 0.68
-10 -4 2 0.88 0.64
-10 -4 2 0.29 0.4
-10 -5 2 0.67 0.49
10 5 -2 0.26 0.49
-10 -5 2 0.87 0.49
-10 -5 2 0.48 0.44
10 5 -2 0.78 0.72
-10 -6 2 0.2 0.45
10 6 -2 -0.22 0.46
-10 -6 2 0.43 0.48
-10 -7 2 -0.59 0.59
10 -2 -1 1.94 0.8
10 -2 -1 0.34 0.61
-10 2 1 0.16 0.51
-10 1 1 0.01 0.41
10 -1 -1 -0.08 0.55
10 -1 -1 0.52 0.46
-10 0 1 -0.24 0.44
10 0 -1 0.82 0.59
-10 0 1 -0.73 0.42
10 0 -1 0.36 0.37
10 1 -1 0.58 0.46
-10 -1 1 0.97 0.53
-10 -1 1 -0.09 0.24
-10 -1 1 -0.23 0.32
10 1 -1 1.02 0.56
-10 -2 1 0.58 0.64
10 2 -1 -0.25 0.54
-10 -2 1 0.39 0.35
-10 -2 1 0.9 0.45
10 2 -1 0.13 0.33
-10 -3 1 2.12 0.7
10 3 -1 2.54 0.89
-10 -3 1 2.84 0.8
-10 -3 1 2.81 0.7
-10 -4 1 1.67 0.64
10 4 -1 2.92 1.04
-10 -4 1 1.68 0.66
-10 -4 1 1.23 0.53
-10 -5 1 2.58 0.77
10 5 -1 2.6 0.99
-10 -5 1 1.25 0.57
-10 -5 1 2.2 0.87
-10 -6 1 0.57 0.45
10 6 -1 0.34 0.46
-10 -6 1 0.3 0.39
-10 -6 1 0.03 0.42
10 6 -1 0.08 0.49
-10 -7 1 0.45 0.48
-10 -7 1 0.6 0.5
-10 -7 1 0.24 0.58
10 7 -1 0.48 0.77
-10 -8 1 1.66 0.67
-10 -8 1 0.14 0.42
10 -3 0 0.18 0.61
10 -3 0 1.2 0.82
-10 2 0 1.55 0.64
10 -2 0 1.57 0.82
10 -2 0 0.97 0.6
10 -1 0 2.58 0.97
-10 1 0 1.12 0.59
-10 1 0 2.39 0.8
10 -1 0 2.21 0.85
10 0 0 0.58 0.59
-10 0 0 1.8 0.62
-10 0 0 0.62 0.51
-10 0 0 1.92 0.59
10 0 0 0.46 0.39
10 1 0 -0.45 0.49
-10 -1 0 0.72 0.46
-10 -1 0 -0.31 0.39
-10 -1 0 0.79 0.49
10 1 0 0.6 0.52
10 2 0 0.29 0.51
-10 -2 0 0.11 0.34
-10 -2 0 1.25 0.47
-10 -2 0 0.59 0.46
-10 -2 0 0.54 0.36
10 2 0 0.9 0.47
-10 -3 0 0.01 0.44
-10 -3 0 -0.06 0.26
-10 -3 0 -0.49 0.51
-10 -3 0 -0.01 0.34
-10 -4 0 0.64 0.58
10 4 0 1.06 0.64
-10 -4 0 0.7 0.54
-10 -4 0 1.1 0.52
-10 -5 0 5.42 1.08
10 5 0 5.19 1.14
-10 -5 0 5.69 0.96
-10 -5 0 7.68 1.4
-10 -6 0 2.05 0.77
10 6 0 2 0.72
-10 -6 0 0.63 0.42
-10 -6 0 2.19 0.81
-10 -7 0 -0.3 0.49
-10 -7 0 0.06 0.44
-10 -7 0 0.27 0.48
-10 -8 0 0.03 0.33
-10 -8 0 -0.1 0.35
-10 -9 0 0.47 0.54
10 9 0 0.51 0.7
10 -3 1 0.16 0.42
-10 2 -1 0.32 0.43
10 -2 1 0.86 0.62
10 -1 1 0.55 0.7
-10 1 -1 -0.09 0.36
10 -1 1 0.53 0.35
10 0 1 0.9 0.74
-10 0 -1 1.11 0.53
-10 0 -1 0.99 0.48
10 0 1 0.93 0.44
10 1 1 2.31 0.74
-10 -1 -1 2.25 0.76
-10 -1 -1 2.23 0.62
-10 -1 -1 1.14 0.49
10 1 1 1.6 0.54
10 2 1 2.25 0.83
-10 -2 -1 0.95 0.51
-10 -2 -1 1.91 0.53
-10 -2 -1 1.43 0.59
-10 -2 -1 2.04 0.53
10 2 1 1.89 0.57
-10 -3 -1 0.32 0.44
-10 -3 -1 -0.62 0.54
-10 -3 -1 0.12 0.28
-10 -3 -1 0.56 0.28
-10 -4 -1 0.18 0.4
-10 -4 -1 0.36 0.58
-10 -4 -1 0.53 0.33
-10 -4 -1 0.26 0.27
-10 -5 -1 -0.13 0.45
-10 -5 -1 -0.3 0.33
-10 -5 -1 0.09 0.41
-10 -6 -1 -1.04 0.63
-10 -6 -1 -0.98 0.6
-10 -6 -1 0.83 0.64
-10 -7 -1 0.76 0.51
-10 -7 -1 0.55 0.44
-10 -7 -1 1.22 0.75
-10 -8 -1 2.15 0.72
-10 -8 -1 1 0.54
-10 -8 -1 1.72 0.88
-10 -9 -1 0.51 0.49
10 10 1 -0.17 0.65
10 -2 2 0.71 0.54
-10 2 -2 -0.77 0.49
10 -2 2 0.76 0.56
10 -1 2 1.89 0.83
10 -1 2 -0.23 0.4
-10 1 -2 1.11 0.53
10 -1 2 0.67 0.38
10 0 2 1.33 0.8
10 0 2 1.29 0.69
-10 0 -2 1.01 0.45
-10 0 -2 0.68 0.4
10 0 2 0.65 0.4
10 1 2 0.42 0.43
10 1 2 0.73 0.63
-10 -1 -2 -0.02 0.32
-10 -1 -2 0.65 0.53
10 1 2 0.85 0.37
10 2 2 2.33 0.85
-10 -2 -2 0.22 0.37
-10 -2 -2 2.11 0.82
-10 -2 -2 1.75 0.68
10 2 2 0.79 0.38
-10 -3 -2 -0.34 0.5
-10 -3 -2 0.46 0.29
-10 -3 -2 0.19 0.26
-10 -4 -2 1.46 0.69
-10 -4 -2 1.61 0.69
-10 -4 -2 1.11 0.41
-10 -4 -2 0.94 0.54
-10 -5 -2 0.37 0.3
-10 -5 -2 0.68 0.63
-10 -5 -2 0.11 0.24
-10 -5 -2 0.99 0.72
-10 -6 -2 -0.41 0.58
-10 -6 -2 0.62 0.41
-10 -6 -2 0.13 0.26
-10 -6 -2 0.48 0.54
-10 -7 -2 0.11 0.37
-10 -7 -2 0.43 0.43
-10 -7 -2 -0.01 0.6
-10 -8 -2 -0.3 0.4
-10 -8 -2 -0.23 0.3
-10 -8 -2 0.1 0.52
-10 -9 -2 1.34 0.66
-10 -9 -2 1.37 0.63
-10 -9 -2 0.4 0.71
10 9 2 0.8 0.59
-10 -10 -2 0.61 0.5
10 10 2 0.51 0.68
10 -2 3 0.31 0.54
-10 2 -3 -0.7 0.66
10 -1 3 -0.67 0.69
10 -1 3 0.03 0.5
-10 1 -3 0.6 0.54
10 0 3 0.44 0.7
10 0 3 0.79 0.5
-10 0 -3 0.63 0.39
-10 0 -3 0.49 0.35
10 1 3 -0.37 0.49
10 1 3 0.31 0.51
-10 -1 -3 0.86 0.44
-10 -1 -3 0.08 0.37
10 2 3 1.35 0.76
10 2 3 0.11 0.44
-10 -2 -3 0.37 0.36
-10 -2 -3 0.74 0.4
-10 -3 -3 0.14 0.37
10 3 3 0.59 0.64
-10 -3 -3 -0.14 0.41
10 3 3 1.56 0.81
-10 -3 -3 -0.45 0.55
-10 -4 -3 0.81 0.63
-10 -4 -3 -0.05 0.28
-10 -4 -3 -0.12 0.46
-10 -4 -3 0.24 0.27
-10 -5 -3 0.99 0.62
-10 -5 -3 0.03 0.28
-10 -5 -3 -0.36 0.4
-10 -5 -3 0.57 0.53
-10 -6 -3 1.15 0.62
-10 -6 -3 0.11 0.22
-10 -6 -3 0.47 0.59
-10 -6 -3 0.2 0.4
10 7 3 -0.53 0.46
-10 -7 -3 0.63 0.42
-10 -7 -3 -0.48 0.55
-10 -7 -3 0.59 0.41
-10 -7 -3 -0.95 0.67
-10 -8 -3 -0.02 0.39
-10 -8 -3 0.48 0.37
-10 -8 -3 1.44 0.85
10 8 3 0.42 0.64
-10 -9 -3 0.13 0.62
-10 -9 -3 -0.28 0.45
-10 -9 -3 0.55 0.6
10 9 3 -0.15 0.4
-10 -10 -3 -0.27 0.33
10 10 3 0.63 0.65
10 -1 4 0.08 0.62
10 -1 4 0.27 0.58
-10 1 -4 0.78 0.54
10 0 4 1.56 0.93
10 0 4 0.57 0.72
-10 0 -4 2.54 0.78
-10 0 -4 1.36 0.77
10 1 4 0.27 0.49
10 1 4 -0.98 0.66
-10 -1 -4 -0.48 0.48
-10 -1 -4 0.75 0.48
-10 -2 -4 0.99 0.54
10 2 4 0.46 0.56
10 2 4 0.29 0.42
-10 -2 -4 -0.04 0.4
10 3 4 1.02 0.59
-10 -3 -4 0.74 0.55
-10 -3 -4 0.21 0.37
10 3 4 0.97 0.72
-10 -3 -4 -0.28 0.56
-10 -4 -4 1.66 0.72
10 4 4 0.15 0.39
-10 -4 -4 1.63 0.69
-10 -4 -4 -0.26 0.46
-10 -5 -4 2.43 0.91
-10 -5 -4 2.64 0.53
-10 -5 -4 1.84 0.72
-10 -5 -4 2.19 0.72
10 6 4 1.49 0.6
-10 -6 -4 0.7 0.45
-10 -6 -4 1.47 0.45
-10 -6 -4 0.55 0.65
-10 -7 -4 1.11 0.74
-10 -7 -4 0.02 0.24
-10 -7 -4 0.77 0.72
-10 -7 -4 -0.4 0.28
10 7 4 1.12 0.61
-10 -8 -4 -0.21 0.49
-10 -8 -4 -0.17 0.3
-10 -8 -4 0.23 0.3
-10 -8 -4 0.11 0.42
10 8 4 0.65 0.53
-10 -9 -4 0.1 0.43
-10 -9 -4 -0.16 0.39
-10 -9 -4 0.04 0.28
-10 -9 -4 -0.94 0.8
10 9 4 -0.46 0.52
-10 -10 -4 -0.28 0.37
10 10 4 -0.13 0.56
10 -1 5 0.48 0.5
-10 1 -5 -0.17 0.4
10 0 5 0.33 0.64
10 0 5 1.53 0.94
-10 0 -5 0.41 0.43
-10 0 -5 0.52 0.57
10 1 5 2.21 0.92
10 1 5 3.56 1.17
-10 -1 -5 2.83 0.82
-10 -1 -5 3.33 0.94
10 2 5 1.59 0.76
-10 -2 -5 2.16 0.85
10 2 5 2.61 1
-10 -2 -5 1.15 0.57
10 3 5 -0.08 0.74
10 3 5 -0.66 0.64
-10 -3 -5 -0.04 0.34
-10 -4 -5 -0.01 0.41
10 4 5 0.66 0.65
-10 -4 -5 0.89 0.6
-10 -5 -5 0.06 0.39
-10 -5 -5 -0.19 0.47
10 5 5 1.17 0.68
-10 -6 -5 0.83 0.6
-10 -6 -5 0.8 0.4
-10 -6 -5 1.14 0.59
10 6 5 2.3 0.69
-10 -7 -5 0.6 0.67
-10 -7 -5 -0.36 0.33
-10 -7 -5 0.18 0.26
-10 -7 -5 0.57 0.5
10 7 5 0.45 0.31
-10 -8 -5 0.21 0.4
-10 -8 -5 -0.34 0.29
-10 -8 -5 -0.21 0.47
-10 -8 -5 0.72 0.47
10 8 5 0.03 0.36
-10 -9 -5 0.35 0.74
-10 -9 -5 0.57 0.7
10 9 5 1.01 0.67
10 10 5 1.37 0.71
10 0 6 1.07 0.89
10 0 6 0.55 0.64
-10 0 -6 1.23 0.55
-10 -1 -6 0.81 0.56
10 1 6 1.37 0.8
10 1 6 1.25 0.62
10 2 6 0.23 0.63
10 2 6 1.43 0.85
-10 -2 -6 1.62 0.78
10 3 6 0.72 0.64
10 3 6 1.66 0.86
-10 -3 -6 -0.09 0.38
10 4 6 0.66 0.59
-10 -4 -6 1.17 0.64
-10 -5 -6 -0.53 0.53
10 5 6 0.36 0.59
-10 -5 -6 -0.26 0.38
-10 -6 -6 0.94 0.77
10 6 6 0.8 0.51
-10 -6 -6 0.33 0.43
10 6 6 -0.32 0.34
-10 -7 -6 0.29 0.51
-10 -7 -6 0.13 0.23
-10 -7 -6 0.26 0.42
10 7 6 -0.02 0.33
-10 -8 -6 1.07 0.75
10 8 6 -0.26 0.38
-10 -8 -6 1.13 0.58
-10 -9 -6 0.03 0.42
10 9 6 0.46 0.56
10 10 6 1.59 0.84
10 1 7 0.13 0.65
-10 -1 -7 0.29 0.47
10 1 7 -0.24 0.48
10 2 7 -0.44 0.68
10 2 7 0.45 0.55
-10 -2 -7 -1.25 0.64
10 3 7 -0.55 0.49
10 3 7 1.85 0.89
-10 -3 -7 2.38 0.88
-10 -4 -7 0.7 0.63
10 4 7 0.29 0.43
-10 -5 -7 -0.13 0.54
10 5 7 0.74 0.57
-10 -5 -7 0.79 0.59
-10 -6 -7 1.85 0.83
-10 -6 -7 0.5 0.54
10 6 7 0.24 0.51
10 7 7 -0.1 0.45
-10 -7 -7 -0.31 0.44
10 7 7 -0.2 0.3
-10 -8 -7 0.11 0.37
10 8 7 0 0.38
10 9 7 2.32 0.89
10 10 7 1.8 0.87
10 2 8 0.02 0.57
10 2 8 -0.47 0.44
-10 -2 -8 -0.44 0.54
10 3 8 0.84 0.68
-10 -3 -8 0.18 0.41
-10 -4 -8 0.28 0.6
10 4 8 0.03 0.58
-10 -5 -8 -0.26 0.51
10 5 8 -0.54 0.49
-10 -5 -8 -0.27 0.49
-10 -6 -8 -0.08 0.52
10 6 8 0.13 0.43
-10 -6 -8 -0.26 0.37
-10 -7 -8 0.63 0.47
10 7 8 0.59 0.51
-10 -7 -8 0.05 0.4
-10 -8 -8 0.68 0.61
10 8 8 0.46 0.54
10 9 8 0.78 0.6
10 10 8 0.54 0.59
10 3 9 -0.47 0.54
-10 -4 -9 -0.19 0.39
10 4 9 0.72 0.66
-10 -5 -9 0 0.36
10 5 9 -0.16 0.39
-10 -5 -9 -0.43 0.49
-10 -6 -9 0.26 0.44
10 6 9 0.25 0.47
-10 -6 -9 0.52 0.54
10 7 9 -0.08 0.46
10 4 10 -0.25 0.43
10 5 10 0.42 0.54
10 6 10 2.62 0.96
10 5 11 0.09 0.62
11 3 -2 -0.08 0.45
-11 -3 2 0.94 0.74
-11 -3 2 0.36 0.46
11 4 -2 0.14 0.66
-11 -4 2 0.42 0.52
-11 -5 2 1.33 0.62
11 5 -2 0.6 0.73
-11 -5 2 -0.08 0.36
-11 -6 2 0.64 0.63
-11 -2 1 0.1 0.34
-11 -3 1 -0.46 0.66
-11 -3 1 0.09 0.28
-11 -4 1 -0.23 0.4
11 4 -1 1.22 0.78
-11 -4 1 1.12 0.74
-11 -4 1 0.27 0.35
-11 -5 1 0.14 0.4
11 5 -1 0.36 0.63
-11 -5 1 -0.23 0.38
-11 -6 1 0.91 0.7
-11 -6 1 0.47 0.47
-11 -7 1 1.18 0.56
11 0 0 0.57 0.69
-11 -1 0 0.14 0.43
-11 -1 0 -0.12 0.34
-11 -2 0 -0.62 0.63
-11 -2 0 0.84 0.48
-11 -3 0 0.98 0.69
-11 -3 0 -0.42 0.31
-11 -4 0 -0.21 0.54
-11 -4 0 0.56 0.56
-11 -4 0 0.2 0.33
-11 -5 0 -0.2 0.4
-11 -5 0 0.15 0.41
-11 -5 0 0.24 0.38
-11 -6 0 0.69 0.47
-11 -6 0 0.74 0.53
-11 -7 0 1.68 0.74
-11 -7 0 0.13 0.46
-11 -8 0 -0.01 0.48
11 -1 1 0.38 0.59
-11 1 -1 0.7 0.63
11 0 1 0.37 0.56
-11 0 -1 1.57 0.67
-11 0 -1 1.09 0.62
11 1 1 -0.24 0.44
-11 -1 -1 0.49 0.51
-11 -1 -1 0.15 0.33
-11 -1 -1 0.47 0.52
11 2 1 1.09 0.82
-11 -2 -1 0.18 0.47
-11 -2 -1 0.5 0.4
-11 -2 -1 0.28 0.32
-11 -3 -1 0.34 0.53
-11 -3 -1 -0.28 0.45
-11 -4 -1 0.14 0.5
-11 -4 -1 -0.3 0.55
-11 -5 -1 0.2 0.4
-11 -5 -1 0.38 0.48
-11 -5 -1 0.43 0.41
-11 -6 -1 -0.35 0.68
-11 -6 -1 0.66 0.47
-11 -6 -1 0.36 0.46
-11 -7 -1 0.5 0.52
-11 -7 -1 0.25 0.45
-11 -8 -1 0.26 0.34
-11 -9 -1 0.75 0.64
-11 1 -2 0.51 0.57
11 0 2 1.87 0.94
-11 0 -2 0.6 0.52
11 1 2 1.28 0.82
-11 -1 -2 -0.03 0.41
-11 -1 -2 1.16 0.56
-11 -1 -2 0.81 0.42
11 2 2 0.32 0.63
-11 -2 -2 0.37 0.42
-11 -2 -2 0.24 0.39
-11 -2 -2 0.14 0.43
-11 -3 -2 0.34 0.51
-11 -3 -2 0.73 0.63
-11 -3 -2 -0.59 0.41
-11 -4 -2 0.06 0.51
-11 -4 -2 0.47 0.39
-11 -5 -2 0.18 0.55
-11 -5 -2 -0.13 0.4
-11 -6 -2 -0.28 0.51
-11 -6 -2 0.02 0.33
-11 -6 -2 0.56 0.61
-11 -7 -2 -0.24 0.49
-11 -7 -2 -0.53 0.42
-11 -8 -2 -0.01 0.29
-11 -9 -2 0.14 0.49
11 0 3 -0.22 0.57
-11 0 -3 0.14 0.36
11 1 3 0.15 0.6
-11 -1 -3 0.24 0.37
-11 -1 -3 -0.05 0.43
11 2 3 0.27 0.43
-11 -2 -3 -0.55 0.57
11 2 3 0.44 0.4
-11 -2 -3 0.05 0.46
-11 -2 -3 0.04 0.42
-11 -3 -3 0.68 0.52
-11 -3 -3 0.83 0.48
-11 -3 -3 0.95 0.53
-11 -4 -3 0.21 0.51
-11 -4 -3 0.55 0.51
-11 -4 -3 -0.09 0.38
-11 -5 -3 0.1 0.34
-11 -5 -3 0.2 0.48
-11 -6 -3 -0.02 0.4
-11 -6 -3 0.02 0.44
-11 -7 -3 -0.09 0.51
-11 -7 -3 0.05 0.28
-11 -8 -3 0.35 0.41
-11 -9 -3 -0.32 0.41
-11 -10 -3 -0.17 0.47
-11 0 -4 -0.11 0.38
11 1 4 0.62 0.71
-11 -1 -4 0.29 0.39
-11 -1 -4 0.12 0.47
11 2 4 0.42 0.59
-11 -2 -4 0.15 0.44
-11 -2 -4 0.09 0.39
11 3 4 0.19 0.7
-11 -3 -4 -0.37 0.55
11 3 4 1.29 0.84
-11 -3 -4 -0.06 0.41
-11 -3 -4 0.32 0.45
-11 -4 -4 1.46 0.64
-11 -4 -4 0.16 0.44
-11 -4 -4 1.02 0.6
-11 -5 -4 0.25 0.42
-11 -5 -4 0.07 0.36
-11 -5 -4 0.99 0.68
-11 -6 -4 0.57 0.58
-11 -6 -4 0.62 0.5
-11 -6 -4 -0.13 0.44
-11 -7 -4 0.19 0.56
-11 -7 -4 0.76 0.83
-11 -7 -4 1.05 0.59
-11 -8 -4 0.39 0.31
11 8 4 0.46 0.54
-11 -9 -4 0.15 0.35
11 9 4 0.42 0.48
-11 -10 -4 -0.26 0.39
11 10 4 0.42 0.64
11 1 5 1.65 0.92
-11 -1 -5 0.64 0.5
-11 -1 -5 1.36 0.74
11 2 5 0.42 0.66
11 2 5 0 0.73
-11 -2 -5 -0.56 0.58
-11 -2 -5 -0.59 0.56
-11 -3 -5 1.69 0.79
11 3 5 1.57 1
11 3 5 1.32 0.79
-11 -3 -5 -0.18 0.41
-11 -4 -5 -0.11 0.38
11 4 5 1.03 0.8
-11 -4 -5 -0.5 0.49
-11 -4 -5 -0.56 0.66
-11 -5 -5 -0.02 0.47
11 5 5 -0.03 0.4
-11 -5 -5 0.44 0.56
-11 -5 -5 0.74 0.61
-11 -6 -5 0.23 0.57
-11 -6 -5 -0.43 0.5
-11 -6 -5 0.31 0.51
-11 -7 -5 0.48 0.55
-11 -7 -5 -0.46 0.41
-11 -7 -5 0.33 0.47
-11 -8 -5 0.14 0.35
11 8 5 0.16 0.43
-11 -9 -5 0.38 0.42
11 9 5 0.51 0.45
-11 -10 -5 0.19 0.34
11 10 5 -0.58 0.57
-11 -1 -6 2.43 0.83
-11 -2 -6 2.42 0.92
11 2 6 2.33 1.02
-11 -2 -6 1.27 0.76
11 3 6 1.78 0.88
11 3 6 1.25 0.78
-11 -3 -6 0.98 0.61
-11 -3 -6 1.24 0.69
-11 -4 -6 -1.13 0.63
11 4 6 0.59 0.61
-11 -4 -6 -0.1 0.43
-11 -5 -6 0.42 0.44
11 5 6 0.28 0.41
-11 -5 -6 0.43 0.53
-11 -6 -6 -0.27 0.39
-11 -6 -6 0.71 0.63
11 6 6 0.05 0.39
-11 -7 -6 1.44 0.92
-11 -7 -6 -0.2 0.44
-11 -8 -6 -0.28 0.39
-11 -9 -6 -0.33 0.42
11 9 6 1.23 0.69
11 10 6 -0.12 0.51
11 3 7 1.94 0.83
-11 -3 -7 1.77 0.78
11 4 7 0.92 0.67
-11 -4 -7 1.73 0.69
11 5 7 -0.53 0.59
-11 -5 -7 0.36 0.44
11 6 7 0.36 0.48
-11 -6 -7 0.68 0.58
11 7 7 0.49 0.52
-11 -7 -7 0.16 0.44
-11 -8 -7 -0.19 0.39
-11 -9 -7 0.7 0.51
11 4 8 -0.39 0.5
-11 -5 -8 0.67 0.57
11 5 8 0.07 0.47
11 6 8 0.2 0.47
-11 -6 -8 0.9 0.54
11 7 8 1.08 0.62
-11 -7 -8 -0.72 0.47
11 5 9 1 0.73
11 6 9 1.3 0.61
11 7 9 -0.69 0.63
11 6 10 -0.32 0.62
-12 -4 0 -0.72 0.83
-12 -2 -1 -1.32 0.71
-12 -3 -1 0.08 0.6
-12 -3 -1 0.99 0.72
-12 -4 -1 1.17 0.74
12 2 2 0.55 0.66
-12 -2 -2 0.35 0.57
-12 -2 -2 0.23 0.43
-12 -3 -2 0.39 0.54
-12 -3 -2 0.3 0.42
-12 -4 -2 0.47 0.7
-12 -4 -2 -0.75 0.68
-12 -1 -3 0.31 0.49
12 2 3 1 0.85
-12 -2 -3 -0.02 0.45
-12 -3 -3 0.97 0.62
-12 -3 -3 0.74 0.53
-12 -4 -3 0.33 0.57
-12 -2 -4 -0.11 0.42
-12 -2 -4 -0.35 0.48
-12 -3 -4 0.09 0.56
-12 -3 -4 -0.15 0.38
-12 -4 -4 0.65 0.58
-12 -4 -4 0.77 0.56
-12 -5 -4 0.55 0.39
-12 -5 -4 0.24 0.56
-12 -3 -5 -0.11 0.5
-12 -3 -5 0.02 0.42
-12 -4 -5 -0.22 0.42
-12 -4 -5 -0.11 0.45
-12 -5 -5 0.17 0.52
-12 -6 -5 -0.22 0.49
-12 -3 -6 0.23 0.51
-12 -4 -6 0.21 0.46
-12 -4 -6 -0.13 0.39
-12 -5 -6 0.29 0.49
-12 -6 -6 -0.61 0.54
-12 -7 -6 -0.94 0.51
-12 -3 -7 -0.35 0.56
-12 -6 -7 -0.14 0.53
-12 -7 -7 0.06 0.41
loop_
_geom_angle_atom_site_label_1
_geom_angle_atom_site_label_2
_geom_angle_atom_site_label_3
_geom_angle
_geom_angle_site_symmetry_1
_geom_angle_site_symmetry_3
_geom_angle_publ_flag
C1 S1 C9 101.78(16) . . ?
C2 N1 H1 120.5 . . ?
C1 N1 H1 120.5 . . ?
C1 N1 C2 119.0(2) . . ?
C1 N4 C3 114.9(2) . . ?
O3 N6 O1 120.0(3) . . ?
O2 N6 O1 119.5(3) . . ?
O2 N6 O3 120.5(3) . . ?
C2 N3 C3 115.4(2) . . ?
C2 N2 H2 117.9 . . ?
C2 N2 C6 124.2(2) . . ?
C6 N2 H2 117.9 . . ?
N3 C2 N1 121.5(2) . . ?
N3 C2 N2 120.8(2) . . ?
N2 C2 N1 117.7(2) . . ?
N1 C1 S1 115.03(19) . . ?
N4 C1 S1 122.3(2) . . ?
N4 C1 N1 122.7(2) . . ?
N3 C3 N4 126.0(2) . . ?
N3 C3 N5A 119.2(5) . . ?
N3 C3 N5B 117.2(5) . . ?
N5A C3 N4 113.4(5) . . ?
N5B C3 N4 114.9(4) . . ?
C3 N5A H5A 118.1 . . ?
C3 N5A C4B 123.9(8) . . ?
C4B N5A H5A 118.1 . . ?
N2 C6 H6 107.9 . . ?
N2 C6 C8 108.4(3) . . ?
N2 C6 C7 111.7(3) . . ?
C8 C6 H6 107.9 . . ?
C7 C6 H6 107.9 . . ?
C7 C6 C8 113.0(3) . . ?
S1 C9 H9A 109.5 . . ?
S1 C9 H9B 109.5 . . ?
S1 C9 H9C 109.5 . . ?
H9A C9 H9B 109.5 . . ?
H9A C9 H9C 109.5 . . ?
H9B C9 H9C 109.5 . . ?
C6 C8 H8A 109.5 . . ?
C6 C8 H8B 109.5 . . ?
C6 C8 H8C 109.5 . . ?
H8A C8 H8B 109.5 . . ?
H8A C8 H8C 109.5 . . ?
H8B C8 H8C 109.5 . . ?
C6 C7 H7A 109.5 . . ?
C6 C7 H7B 109.5 . . ?
C6 C7 H7C 109.5 . . ?
H7A C7 H7B 109.5 . . ?
H7A C7 H7C 109.5 . . ?
H7B C7 H7C 109.5 . . ?
H5AA C5A H5AB 109.5 . . ?
H5AA C5A H5AC 109.5 . . ?
H5AB C5A H5AC 109.5 . . ?
C4A C5A H5AA 109.5 . . ?
C4A C5A H5AB 109.5 . . ?
C4A C5A H5AC 109.5 . . ?
H5BA C5B H5BB 109.5 . . ?
H5BA C5B H5BC 109.5 . . ?
H5BB C5B H5BC 109.5 . . ?
C4B C5B H5BA 109.5 . . ?
C4B C5B H5BB 109.5 . . ?
C4B C5B H5BC 109.5 . . ?
C5A C4A H4AA 110.9 . . ?
C5A C4A H4AB 110.9 . . ?
C5A C4A N5B 104.1(10) . . ?
H4AA C4A H4AB 109.0 . . ?
N5B C4A H4AA 110.9 . . ?
N5B C4A H4AB 110.9 . . ?
N5A C4B C5B 117.6(7) . . ?
N5A C4B H4BA 107.9 . . ?
N5A C4B H4BB 107.9 . . ?
C5B C4B H4BA 107.9 . . ?
C5B C4B H4BB 107.9 . . ?
H4BA C4B H4BB 107.2 . . ?
C3 N5B C4A 126.3(8) . . ?
C3 N5B H5B 116.8 . . ?
C4A N5B H5B 116.8 . . ?
loop_
_geom_bond_atom_site_label_1
_geom_bond_atom_site_label_2
_geom_bond_distance
_geom_bond_site_symmetry_2
_geom_bond_publ_flag
S1 C1 1.732(3) . ?
S1 C9 1.781(4) . ?
N1 H1 0.8600 . ?
N1 C2 1.359(3) . ?
N1 C1 1.349(3) . ?
N4 C1 1.288(3) . ?
N4 C3 1.368(3) . ?
N6 O1 1.226(3) . ?
N6 O3 1.216(3) . ?
N6 O2 1.210(3) . ?
N3 C2 1.311(3) . ?
N3 C3 1.336(3) . ?
N2 H2 0.8600 . ?
N2 C2 1.315(3) . ?
N2 C6 1.462(4) . ?
C3 N5A 1.351(8) . ?
C3 N5B 1.337(8) . ?
N5A H5A 0.8600 . ?
N5A C4B 1.463(9) . ?
C6 H6 0.9800 . ?
C6 C8 1.507(4) . ?
C6 C7 1.478(5) . ?
C9 H9A 0.9600 . ?
C9 H9B 0.9600 . ?
C9 H9C 0.9600 . ?
C8 H8A 0.9600 . ?
C8 H8B 0.9600 . ?
C8 H8C 0.9600 . ?
C7 H7A 0.9600 . ?
C7 H7B 0.9600 . ?
C7 H7C 0.9600 . ?
C5A H5AA 0.9600 . ?
C5A H5AB 0.9600 . ?
C5A H5AC 0.9600 . ?
C5A C4A 1.461(10) . ?
C5B H5BA 0.9600 . ?
C5B H5BB 0.9600 . ?
C5B H5BC 0.9600 . ?
C5B C4B 1.510(10) . ?
C4A H4AA 0.9700 . ?
C4A H4AB 0.9700 . ?
C4A N5B 1.499(10) . ?
C4B H4BA 0.9700 . ?
C4B H4BB 0.9700 . ?
N5B H5B 0.8600 . ?
loop_
_geom_torsion_atom_site_label_1
_geom_torsion_atom_site_label_2
_geom_torsion_atom_site_label_3
_geom_torsion_atom_site_label_4
_geom_torsion
_geom_torsion_site_symmetry_1
_geom_torsion_site_symmetry_2
_geom_torsion_site_symmetry_3
_geom_torsion_site_symmetry_4
_geom_torsion_publ_flag
N4 C3 N5A C4B 177.9(6) . . . . ?
N4 C3 N5B C4A -172.8(7) . . . . ?
N3 C3 N5A C4B 10.8(9) . . . . ?
N3 C3 N5B C4A -7.6(10) . . . . ?
C2 N1 C1 S1 173.7(2) . . . . ?
C2 N1 C1 N4 -4.8(4) . . . . ?
C2 N3 C3 N4 -7.7(5) . . . . ?
C2 N3 C3 N5A 157.7(4) . . . . ?
C2 N3 C3 N5B -171.0(4) . . . . ?
C2 N2 C6 C8 -155.2(3) . . . . ?
C2 N2 C6 C7 79.7(4) . . . . ?
C1 N1 C2 N3 3.6(4) . . . . ?
C1 N1 C2 N2 -175.6(2) . . . . ?
C1 N4 C3 N3 6.5(5) . . . . ?
C1 N4 C3 N5A -159.6(4) . . . . ?
C1 N4 C3 N5B 170.2(4) . . . . ?
C3 N4 C1 S1 -178.3(2) . . . . ?
C3 N4 C1 N1 0.1(4) . . . . ?
C3 N3 C2 N1 2.3(4) . . . . ?
C3 N3 C2 N2 -178.6(3) . . . . ?
C3 N5A C4B C5B 80.3(9) . . . . ?
C6 N2 C2 N1 177.5(3) . . . . ?
C6 N2 C2 N3 -1.7(5) . . . . ?
C9 S1 C1 N1 -179.7(2) . . . . ?
C9 S1 C1 N4 -1.2(3) . . . . ?
C5A C4A N5B C3 -90.3(10) . . . . ?
