#------------------------------------------------------------------------------
#$Date: 2021-09-06 13:34:05 +0300 (Mon, 06 Sep 2021) $
#$Revision: 268695 $
#$URL: file:///home/coder/svn-repositories/cod/cif/7/24/25/7242548.cif $
#------------------------------------------------------------------------------
#
# This file is available in the Crystallography Open Database (COD),
# http://www.crystallography.net/
#
# All data on this site have been placed in the public domain by the
# contributors.
#
data_7242548
loop_
_publ_author_name
'Shu, Yuanhong'
'Ye, Kaiqi'
'Yue, Yuan'
'Sun, Jingbo'
'Wang, Haoran'
'Zhong, Jiangbin'
'Yang, Xiqiao'
'Gao, Hongqiang'
'Lu, Ran'
_publ_section_title
;
 Fluorine as a robust balancer for tuning the reactivity of
 topo-photoreactions of chalcones and the photomechanical effects of
 molecular crystals
;
_journal_issue                   34
_journal_name_full               CrystEngComm
_journal_page_first              5856
_journal_page_last               5868
_journal_paper_doi               10.1039/D1CE00086A
_journal_volume                  23
_journal_year                    2021
_chemical_formula_moiety         'C15 H10 Br F O'
_chemical_formula_sum            'C15 H10 Br F O'
_chemical_formula_weight         305.14
_space_group_crystal_system      triclinic
_space_group_IT_number           2
_space_group_name_Hall           '-P 1'
_space_group_name_H-M_alt        'P -1'
_atom_sites_solution_hydrogens   geom
_atom_sites_solution_primary     direct
_audit_creation_date             2019-11-18
_audit_creation_method
;
Olex2 1.2
(compiled 2018.05.29 svn.r3508 for OlexSys, GUI svn.r5506)
;
_audit_update_record
;
2019-12-30 deposited with the CCDC.	2021-03-26 downloaded from the CCDC.
;
_cell_angle_alpha                90.767(5)
_cell_angle_beta                 97.082(4)
_cell_angle_gamma                92.597(4)
_cell_formula_units_Z            2
_cell_length_a                   5.8739(7)
_cell_length_b                   7.4217(9)
_cell_length_c                   14.0384(18)
_cell_measurement_reflns_used    9903
_cell_measurement_temperature    100(2)
_cell_measurement_theta_max      27.481
_cell_measurement_theta_min      2.925
_cell_volume                     606.59(13)
_computing_cell_refinement       'SAINT V8.38A (?, 2016)'
_computing_data_reduction        'SAINT V8.38A (?, 2016)'
_computing_molecular_graphics    'Olex2 (Dolomanov et al., 2009)'
_computing_publication_material  'Olex2 (Dolomanov et al., 2009)'
_computing_structure_refinement  'XL (Sheldrick, 2008)'
_computing_structure_solution    'XS (Sheldrick, 2008)'
_diffrn_ambient_temperature      100.01
_diffrn_measured_fraction_theta_full 0.995
_diffrn_measured_fraction_theta_max 0.994
_diffrn_measurement_device_type  'Bruker APEX-II CCD'
_diffrn_measurement_method       '\f and \w scans'
_diffrn_radiation_type           MoK\a
_diffrn_radiation_wavelength     0.71073
_diffrn_reflns_av_R_equivalents  0.0342
_diffrn_reflns_av_unetI/netI     0.0319
_diffrn_reflns_Laue_measured_fraction_full 0.995
_diffrn_reflns_Laue_measured_fraction_max 0.994
_diffrn_reflns_limit_h_max       7
_diffrn_reflns_limit_h_min       -7
_diffrn_reflns_limit_k_max       9
_diffrn_reflns_limit_k_min       -9
_diffrn_reflns_limit_l_max       18
_diffrn_reflns_limit_l_min       -18
_diffrn_reflns_number            11507
_diffrn_reflns_point_group_measured_fraction_full 0.995
_diffrn_reflns_point_group_measured_fraction_max 0.994
_diffrn_reflns_theta_full        25.242
_diffrn_reflns_theta_max         27.480
_diffrn_reflns_theta_min         2.925
_diffrn_standards_number         0
_exptl_absorpt_coefficient_mu    3.384
_exptl_absorpt_correction_T_max  1
_exptl_absorpt_correction_T_min  0.1
_exptl_absorpt_correction_type   analytical
_exptl_crystal_colour            colourless
_exptl_crystal_colour_primary    colourless
_exptl_crystal_density_diffrn    1.671
_exptl_crystal_description       plate
_exptl_crystal_F_000             304
_exptl_crystal_size_max          0.31
_exptl_crystal_size_mid          0.23
_exptl_crystal_size_min          0.16
_refine_diff_density_max         0.711
_refine_diff_density_min         -0.909
_refine_diff_density_rms         0.101
_refine_ls_extinction_method     none
_refine_ls_goodness_of_fit_ref   1.060
_refine_ls_hydrogen_treatment    constr
_refine_ls_matrix_type           full
_refine_ls_number_parameters     163
_refine_ls_number_reflns         2776
_refine_ls_number_restraints     0
_refine_ls_restrained_S_all      1.060
_refine_ls_R_factor_all          0.0330
_refine_ls_R_factor_gt           0.0317
_refine_ls_shift/su_max          0.000
_refine_ls_shift/su_mean         0.000
_refine_ls_structure_factor_coef Fsqd
_refine_ls_weighting_details
'w=1/[\s^2^(Fo^2^)+(0.0482P)^2^+0.8526P] where P=(Fo^2^+2Fc^2^)/3'
_refine_ls_weighting_scheme      calc
_refine_ls_wR_factor_gt          0.0876
_refine_ls_wR_factor_ref         0.0886
_reflns_Friedel_coverage         0.000
_reflns_number_gt                2676
_reflns_number_total             2776
_reflns_threshold_expression     'I > 2\s(I)'
_iucr_refine_instructions_details
;

    1.res created by SHELXL-2014/7

TITL 1_a.res in P-1
CELL 0.71073 5.8739 7.4217 14.0384 90.767 97.082 92.597
ZERR 2 0.0007 0.0009 0.0018 0.005 0.004 0.004
LATT 1
SFAC C H O F Br
UNIT 30 20 2 2 2
 
L.S. 64
PLAN  3 0 0
TEMP -173.14
HTAB
BOND $H
CONF
fmap 2
ACTA
REM <olex2.extras>
REM <HklSrc "%.\\1.hkl">
REM </olex2.extras>
 
WGHT    0.048200    0.852600
FVAR       1.10461
BR1   5    0.200135    0.873834    0.079878    11.00000    0.01883    0.02628 =
         0.01418    0.00355   -0.00200   -0.00051
F1    4    1.262555    0.473659    0.913041    11.00000    0.02626    0.03700 =
         0.02017    0.00322   -0.00423    0.00634
O1    3    0.271879    0.777300    0.467848    11.00000    0.01393    0.02955 =
         0.01700    0.00110    0.00153    0.00161
C1    1    1.108893    0.528148    0.840769    11.00000    0.01992    0.01686 =
         0.02009    0.00231   -0.00157   -0.00031
C2    1    0.908225    0.600029    0.862307    11.00000    0.02272    0.01985 =
         0.01601    0.00059    0.00352   -0.00078
AFIX  43
H2    2    0.877912    0.612687    0.926925    11.00000   -1.20000
AFIX   0
C3    1    0.751863    0.653328    0.786649    11.00000    0.01706    0.01477 =
         0.01852    0.00078    0.00499    0.00017
AFIX  43
H3    2    0.611852    0.701683    0.799908    11.00000   -1.20000
AFIX   0
C4    1    0.796293    0.637279    0.691749    11.00000    0.01611    0.01073 =
         0.01648    0.00112    0.00114   -0.00136
C5    1    0.626816    0.698733    0.614682    11.00000    0.01387    0.01297 =
         0.01817    0.00056    0.00088    0.00015
AFIX  43
H5    2    0.478240    0.720542    0.631115    11.00000   -1.20000
AFIX   0
C6    1    0.661597    0.726801    0.523941    11.00000    0.01599    0.01675 =
         0.01896   -0.00067    0.00100    0.00251
AFIX  43
H6    2    0.809136    0.710292    0.504984    11.00000   -1.20000
AFIX   0
C7    1    0.472383    0.783638    0.451976    11.00000    0.01580    0.01294 =
         0.01741   -0.00097    0.00280    0.00105
C8    1    0.534807    0.848339    0.357960    11.00000    0.01385    0.01151 =
         0.01492   -0.00084    0.00150    0.00265
C9    1    0.752638    0.925824    0.348777    11.00000    0.01266    0.01394 =
         0.01910   -0.00167   -0.00128    0.00127
AFIX  43
H9    2    0.866474    0.936078    0.403096    11.00000   -1.20000
AFIX   0
C10   1    0.802520    0.987613    0.260565    11.00000    0.01266    0.01477 =
         0.02182    0.00096    0.00372   -0.00056
AFIX  43
H10   2    0.949698    1.042173    0.255137    11.00000   -1.20000
AFIX   0
C11   1    0.639363    0.970533    0.179999    11.00000    0.01758    0.01521 =
         0.01942    0.00346    0.00448    0.00248
AFIX  43
H11   2    0.674134    1.011247    0.119333    11.00000   -1.20000
AFIX   0
C12   1    1.002641    0.562689    0.672734    11.00000    0.01737    0.01570 =
         0.01484    0.00137    0.00307   -0.00030
AFIX  43
H12   2    1.035304    0.550972    0.608387    11.00000   -1.20000
AFIX   0
C13   1    1.158113    0.506359    0.747355    11.00000    0.01516    0.01454 =
         0.02080    0.00021    0.00159    0.00160
AFIX  43
H13   2    1.296053    0.453718    0.734767    11.00000   -1.20000
AFIX   0
C14   1    0.424338    0.892638    0.190101    11.00000    0.01367    0.01545 =
         0.01356    0.00014   -0.00092    0.00238
C15   1    0.367674    0.832597    0.277254    11.00000    0.01257    0.01198 =
         0.01637   -0.00035    0.00094    0.00166
AFIX  43
H15   2    0.218541    0.781638    0.282510    11.00000   -1.20000
AFIX   0
HKLF 4
 
REM  1_a.res in P-1
REM R1 =  0.0317 for    2676 Fo > 4sig(Fo)  and  0.0330 for all    2776 data
REM    163 parameters refined using      0 restraints
 
END  
     
WGHT      0.0482      0.8526 

REM Instructions for potential hydrogen bonds
EQIV $1 -x+2, -y+1, -z+2
HTAB C2 F1_$1
EQIV $2 -x+1, -y+2, -z
HTAB C11 Br1_$2

REM Highest difference peak  0.711,  deepest hole -0.909,  1-sigma level  0.101
Q1    1   0.1945  0.8124  0.0192  11.00000  0.05    0.71
Q2    1   0.2138  0.9117  0.0256  11.00000  0.05    0.57
Q3    1   0.1423  1.0391  0.0018  11.00000  0.05    0.52

  REM The information below was added by Olex2.
  REM
  REM R1 = 0.0317 for 2676 Fo > 4sig(Fo) and 0.0330 for all 11507 data
  REM n/a parameters refined using n/a restraints
  REM Highest difference peak 0.71, deepest hole -0.91
  REM Mean Shift 0, Max Shift 0.000.

  REM +++ Tabular Listing of Refinement Information +++
  REM R1_all = 0.0330
  REM R1_gt = 0.0317
  REM wR_ref = 0.0886
  REM GOOF = 1.060
  REM Shift_max = 0.000
  REM Shift_mean = 0
  REM Reflections_all = 11507
  REM Reflections_gt = 2676
  REM Parameters = n/a
  REM Hole = -0.91
  REM Peak = 0.71
  REM Flack = n/a

  
;
_cod_data_source_file            d1ce00086a31.cif
_cod_data_source_block           1FChBr-3
_cod_depositor_comments
'Adding full bibliography for 7242537--7242549.cif.'
_cod_database_code               7242548
_shelx_shelxl_version_number     2014/7
_shelx_space_group_comment
;
The symmetry employed for this shelxl refinement is uniquely defined
by the following loop, which should always be used as a source of
symmetry information in preference to the above space-group names.
They are only intended as comments.
;
_olex2_refinement_description
;
1. Fixed Uiso
 At 1.2 times of:
  All C(H) groups
2.a Aromatic/amide H refined with riding coordinates:
 C2(H2), C3(H3), C5(H5), C6(H6), C9(H9), C10(H10), C11(H11), C12(H12),
 C13(H13), C15(H15)
;
_olex2_submission_special_instructions 'No special instructions were received'
loop_
_space_group_symop_operation_xyz
'x, y, z'
'-x, -y, -z'
loop_
_atom_site_label
_atom_site_type_symbol
_atom_site_fract_x
_atom_site_fract_y
_atom_site_fract_z
_atom_site_U_iso_or_equiv
_atom_site_adp_type
_atom_site_occupancy
_atom_site_site_symmetry_order
_atom_site_calc_flag
_atom_site_refinement_flags_posn
_atom_site_refinement_flags_adp
_atom_site_refinement_flags_occupancy
_atom_site_disorder_assembly
_atom_site_disorder_group
Br1 Br 0.20013(4) 0.87383(3) 0.07988(2) 0.02012(10) Uani 1 1 d . . . . .
F1 F 1.2626(3) 0.4737(2) 0.91304(12) 0.0282(4) Uani 1 1 d . . . . .
O1 O 0.2719(3) 0.7773(2) 0.46785(13) 0.0202(4) Uani 1 1 d . . . . .
C1 C 1.1089(4) 0.5281(3) 0.84077(19) 0.0193(5) Uani 1 1 d . . . . .
C2 C 0.9082(4) 0.6000(3) 0.86231(19) 0.0195(5) Uani 1 1 d . . . . .
H2 H 0.8779 0.6127 0.9269 0.023 Uiso 1 1 calc R . . . .
C3 C 0.7519(4) 0.6533(3) 0.78665(18) 0.0166(4) Uani 1 1 d . . . . .
H3 H 0.6119 0.7017 0.7999 0.020 Uiso 1 1 calc R . . . .
C4 C 0.7963(4) 0.6373(3) 0.69175(17) 0.0146(4) Uani 1 1 d . . . . .
C5 C 0.6268(4) 0.6987(3) 0.61468(18) 0.0151(4) Uani 1 1 d . . . . .
H5 H 0.4782 0.7205 0.6311 0.018 Uiso 1 1 calc R . . . .
C6 C 0.6616(4) 0.7268(3) 0.52394(18) 0.0173(5) Uani 1 1 d . . . . .
H6 H 0.8091 0.7103 0.5050 0.021 Uiso 1 1 calc R . . . .
C7 C 0.4724(4) 0.7836(3) 0.45198(18) 0.0153(4) Uani 1 1 d . . . . .
C8 C 0.5348(4) 0.8483(3) 0.35796(17) 0.0134(4) Uani 1 1 d . . . . .
C9 C 0.7526(4) 0.9258(3) 0.34878(18) 0.0155(4) Uani 1 1 d . . . . .
H9 H 0.8665 0.9361 0.4031 0.019 Uiso 1 1 calc R . . . .
C10 C 0.8025(4) 0.9876(3) 0.26057(18) 0.0163(4) Uani 1 1 d . . . . .
H10 H 0.9497 1.0422 0.2551 0.020 Uiso 1 1 calc R . . . .
C11 C 0.6394(4) 0.9705(3) 0.18000(18) 0.0171(5) Uani 1 1 d . . . . .
H11 H 0.6741 1.0112 0.1193 0.021 Uiso 1 1 calc R . . . .
C12 C 1.0026(4) 0.5627(3) 0.67273(18) 0.0159(4) Uani 1 1 d . . . . .
H12 H 1.0353 0.5510 0.6084 0.019 Uiso 1 1 calc R . . . .
C13 C 1.1581(4) 0.5064(3) 0.74735(18) 0.0169(5) Uani 1 1 d . . . . .
H13 H 1.2961 0.4537 0.7348 0.020 Uiso 1 1 calc R . . . .
C14 C 0.4243(4) 0.8926(3) 0.19010(17) 0.0144(4) Uani 1 1 d . . . . .
C15 C 0.3677(4) 0.8326(3) 0.27725(17) 0.0137(4) Uani 1 1 d . . . . .
H15 H 0.2185 0.7816 0.2825 0.016 Uiso 1 1 calc R . . . .
loop_
_atom_site_aniso_label
_atom_site_aniso_U_11
_atom_site_aniso_U_22
_atom_site_aniso_U_33
_atom_site_aniso_U_23
_atom_site_aniso_U_13
_atom_site_aniso_U_12
Br1 0.01883(15) 0.02628(15) 0.01418(15) 0.00355(9) -0.00200(9) -0.00051(9)
F1 0.0263(8) 0.0370(9) 0.0202(8) 0.0032(7) -0.0042(6) 0.0063(7)
O1 0.0139(8) 0.0295(9) 0.0170(9) 0.0011(7) 0.0015(6) 0.0016(7)
C1 0.0199(12) 0.0169(11) 0.0201(12) 0.0023(9) -0.0016(9) -0.0003(9)
C2 0.0227(12) 0.0199(11) 0.0160(12) 0.0006(9) 0.0035(9) -0.0008(9)
C3 0.0171(11) 0.0148(10) 0.0185(12) 0.0008(8) 0.0050(9) 0.0002(8)
C4 0.0161(11) 0.0107(9) 0.0165(11) 0.0011(8) 0.0011(9) -0.0014(8)
C5 0.0139(10) 0.0130(10) 0.0182(12) 0.0006(8) 0.0009(8) 0.0001(8)
C6 0.0160(11) 0.0167(10) 0.0190(12) -0.0007(9) 0.0010(9) 0.0025(8)
C7 0.0158(11) 0.0129(9) 0.0174(11) -0.0010(8) 0.0028(9) 0.0011(8)
C8 0.0138(10) 0.0115(9) 0.0149(11) -0.0008(8) 0.0015(8) 0.0026(7)
C9 0.0127(10) 0.0139(10) 0.0191(12) -0.0017(8) -0.0013(8) 0.0013(8)
C10 0.0127(10) 0.0148(10) 0.0218(12) 0.0010(9) 0.0037(9) -0.0006(8)
C11 0.0176(11) 0.0152(10) 0.0194(12) 0.0035(9) 0.0045(9) 0.0025(8)
C12 0.0174(11) 0.0157(10) 0.0148(11) 0.0014(8) 0.0031(9) -0.0003(8)
C13 0.0152(11) 0.0145(10) 0.0208(12) 0.0002(9) 0.0016(9) 0.0016(8)
C14 0.0137(10) 0.0154(10) 0.0136(11) 0.0001(8) -0.0009(8) 0.0024(8)
C15 0.0126(10) 0.0120(9) 0.0164(11) -0.0003(8) 0.0009(8) 0.0017(7)
loop_
_atom_type_symbol
_atom_type_description
_atom_type_scat_dispersion_real
_atom_type_scat_dispersion_imag
_atom_type_scat_source
C C 0.0033 0.0016 'International Tables Vol C Tables 4.2.6.8 and 6.1.1.4'
H H 0.0000 0.0000 'International Tables Vol C Tables 4.2.6.8 and 6.1.1.4'
O O 0.0106 0.0060 'International Tables Vol C Tables 4.2.6.8 and 6.1.1.4'
F F 0.0171 0.0103 'International Tables Vol C Tables 4.2.6.8 and 6.1.1.4'
Br Br -0.2901 2.4595 'International Tables Vol C Tables 4.2.6.8 and 6.1.1.4'
loop_
_geom_angle_atom_site_label_1
_geom_angle_atom_site_label_2
_geom_angle_atom_site_label_3
_geom_angle
_geom_angle_site_symmetry_1
_geom_angle_site_symmetry_3
_geom_angle_publ_flag
F1 C1 C2 119.1(2) . . ?
F1 C1 C13 118.3(2) . . ?
C2 C1 C13 122.6(2) . . ?
C1 C2 H2 121.0 . . ?
C1 C2 C3 118.0(2) . . ?
C3 C2 H2 121.0 . . ?
C2 C3 H3 119.3 . . ?
C2 C3 C4 121.3(2) . . ?
C4 C3 H3 119.3 . . ?
C3 C4 C5 119.1(2) . . ?
C3 C4 C12 118.9(2) . . ?
C12 C4 C5 122.0(2) . . ?
C4 C5 H5 116.9 . . ?
C6 C5 C4 126.2(2) . . ?
C6 C5 H5 116.9 . . ?
C5 C6 H6 119.6 . . ?
C5 C6 C7 120.8(2) . . ?
C7 C6 H6 119.6 . . ?
O1 C7 C6 122.1(2) . . ?
O1 C7 C8 120.5(2) . . ?
C6 C7 C8 117.5(2) . . ?
C9 C8 C7 121.9(2) . . ?
C9 C8 C15 119.7(2) . . ?
C15 C8 C7 118.5(2) . . ?
C8 C9 H9 119.9 . . ?
C10 C9 C8 120.1(2) . . ?
C10 C9 H9 119.9 . . ?
C9 C10 H10 119.7 . . ?
C9 C10 C11 120.7(2) . . ?
C11 C10 H10 119.7 . . ?
C10 C11 H11 120.7 . . ?
C14 C11 C10 118.6(2) . . ?
C14 C11 H11 120.7 . . ?
C4 C12 H12 119.8 . . ?
C13 C12 C4 120.3(2) . . ?
C13 C12 H12 119.8 . . ?
C1 C13 H13 120.6 . . ?
C12 C13 C1 118.8(2) . . ?
C12 C13 H13 120.6 . . ?
C11 C14 Br1 118.27(18) . . ?
C15 C14 Br1 119.46(17) . . ?
C15 C14 C11 122.3(2) . . ?
C8 C15 H15 120.6 . . ?
C14 C15 C8 118.7(2) . . ?
C14 C15 H15 120.6 . . ?
loop_
_geom_bond_atom_site_label_1
_geom_bond_atom_site_label_2
_geom_bond_distance
_geom_bond_site_symmetry_2
_geom_bond_publ_flag
Br1 C14 1.903(2) . ?
F1 C1 1.351(3) . ?
O1 C7 1.224(3) . ?
C1 C2 1.381(4) . ?
C1 C13 1.386(4) . ?
C2 H2 0.9500 . ?
C2 C3 1.390(4) . ?
C3 H3 0.9500 . ?
C3 C4 1.393(3) . ?
C4 C5 1.469(3) . ?
C4 C12 1.408(3) . ?
C5 H5 0.9500 . ?
C5 C6 1.332(4) . ?
C6 H6 0.9500 . ?
C6 C7 1.487(3) . ?
C7 C8 1.492(3) . ?
C8 C9 1.400(3) . ?
C8 C15 1.405(3) . ?
C9 H9 0.9500 . ?
C9 C10 1.386(3) . ?
C10 H10 0.9500 . ?
C10 C11 1.390(3) . ?
C11 H11 0.9500 . ?
C11 C14 1.389(3) . ?
C12 H12 0.9500 . ?
C12 C13 1.384(3) . ?
C13 H13 0.9500 . ?
C14 C15 1.381(3) . ?
C15 H15 0.9500 . ?
loop_
_geom_torsion_atom_site_label_1
_geom_torsion_atom_site_label_2
_geom_torsion_atom_site_label_3
_geom_torsion_atom_site_label_4
_geom_torsion
_geom_torsion_site_symmetry_1
_geom_torsion_site_symmetry_2
_geom_torsion_site_symmetry_3
_geom_torsion_site_symmetry_4
_geom_torsion_publ_flag
Br1 C14 C15 C8 -179.68(16) . . . . ?
F1 C1 C2 C3 -179.3(2) . . . . ?
F1 C1 C13 C12 -179.6(2) . . . . ?
O1 C7 C8 C9 153.8(2) . . . . ?
O1 C7 C8 C15 -25.3(3) . . . . ?
C1 C2 C3 C4 -0.8(4) . . . . ?
C2 C1 C13 C12 1.6(4) . . . . ?
C2 C3 C4 C5 -178.9(2) . . . . ?
C2 C3 C4 C12 1.0(3) . . . . ?
C3 C4 C5 C6 165.5(2) . . . . ?
C3 C4 C12 C13 0.0(3) . . . . ?
C4 C5 C6 C7 178.0(2) . . . . ?
C4 C12 C13 C1 -1.3(3) . . . . ?
C5 C4 C12 C13 180.0(2) . . . . ?
C5 C6 C7 O1 -12.7(4) . . . . ?
C5 C6 C7 C8 167.8(2) . . . . ?
C6 C7 C8 C9 -26.7(3) . . . . ?
C6 C7 C8 C15 154.3(2) . . . . ?
C7 C8 C9 C10 -178.7(2) . . . . ?
C7 C8 C15 C14 179.85(19) . . . . ?
C8 C9 C10 C11 -1.2(3) . . . . ?
C9 C8 C15 C14 0.7(3) . . . . ?
C9 C10 C11 C14 0.9(3) . . . . ?
C10 C11 C14 Br1 178.86(16) . . . . ?
C10 C11 C14 C15 0.2(3) . . . . ?
C11 C14 C15 C8 -1.1(3) . . . . ?
C12 C4 C5 C6 -14.4(4) . . . . ?
C13 C1 C2 C3 -0.5(4) . . . . ?
C15 C8 C9 C10 0.4(3) . . . . ?
loop_
_refln_index_h
_refln_index_k
_refln_index_l
_refln_F_squared_meas
_refln_F_squared_sigma
-1 0 0 18.2 1.5
-1 0 0 19.5 1.4
1 0 0 18.5 1.5
1 0 0 16.3 1.5
-2 0 0 7142.19 357.86
-2 0 0 6939.41 357.96
2 0 0 7059.39 357.86
2 0 0 7021.5 358.06
-3 0 0 1536.45 78.29
-3 0 0 1534.95 78.39
3 0 0 1470.05 78.19
3 0 0 1565.54 78.09
3 0 0 1518.15 78.39
-4 0 0 504.35 28
-4 0 0 508.15 27.7
4 0 0 563.34 28.4
-5 0 0 1292.47 68.29
-5 0 0 1321.27 67.89
5 0 0 1328.47 67.99
-6 0 0 24.8 4.8
6 0 0 19.4 5
-7 0 0 435.06 25
7 0 0 441.26 25.3
7 -1 0 642.34 35.3
-7 1 0 648.24 35.2
6 -1 0 28.5 4.9
-6 1 0 27.5 4.8
-5 1 0 650.43 35.3
-5 1 0 668.63 35.7
4 -1 0 1150.38 58.79
4 -1 0 1107.79 59.09
-4 1 0 1140.09 59.09
-4 1 0 1152.28 59.19
-4 1 0 1146.59 58.39
-4 1 0 1152.08 59.19
-4 1 0 1133.49 58.29
3 -1 0 79.49 5.4
3 -1 0 83.49 4.9
3 -1 0 77.89 5.8
-3 1 0 85.69 5.4
-3 1 0 83.09 5
-3 1 0 82.19 5.8
2 -1 0 2302.07 116.09
2 -1 0 2256.87 116.19
2 -1 0 2242.68 115.99
2 -1 0 2193.58 115.99
-2 1 0 2332.77 116.29
-2 1 0 2313.87 115.99
-2 1 0 2262.47 116.29
-2 1 0 2329.67 116.09
1 -1 0 3928.61 196.28
1 -1 0 3737.93 196.28
-1 1 0 3787.42 196.28
-1 1 0 4032.8 196.28
-1 1 0 3935.11 196.28
-1 1 0 3744.13 196.28
-1 -1 0 162.98 9.1
-1 -1 0 164.78 9
-1 -1 0 179.28 9.2
-1 -1 0 181.48 9.1
-1 -1 0 169.38 9.1
-1 -1 0 169.78 9.2
1 1 0 175.08 9.1
1 1 0 177.78 9.3
1 1 0 174.68 9.1
-2 -1 0 63.89 4.2
-2 -1 0 61.69 4.4
-2 -1 0 71.49 4.5
-2 -1 0 67.19 4.3
2 1 0 60.79 4.2
2 1 0 70.09 4.5
2 1 0 55.69 4.3
-3 -1 0 2112.49 107.79
-3 -1 0 2113.09 107.49
3 1 0 2091.09 107.79
3 1 0 2097.19 107.49
-4 -1 0 469.15 24.2
-4 -1 0 444.26 24.3
-4 -1 0 444.16 24.4
4 1 0 442.76 24.6
4 1 0 446.56 24.1
-5 -1 0 1086.69 56.99
-5 -1 0 990.7 57.89
-5 -1 0 1062.19 55.59
-5 -1 0 1043.3 56.09
5 1 0 1119.59 55.69
5 1 0 1098.79 56.29
-6 -1 0 321.77 18.8
6 1 0 321.77 19.1
-7 -1 0 73.99 9.2
7 -2 0 6.9 5.1
-6 2 0 882.71 47.6
-6 2 0 913.31 46.4
5 -2 0 10.8 3.6
-5 2 0 9 3.5
-5 2 0 9.8 3.5
4 -2 0 1235.08 64.99
4 -2 0 1247.58 64.99
4 -2 0 1287.67 65.29
-4 2 0 1269.07 65.59
-4 2 0 1319.87 65.19
-4 2 0 1296.47 65.69
-4 2 0 1279.07 65.19
-4 2 0 1218.18 66.99
3 -2 0 408.46 22.8
3 -2 0 428.06 22.7
3 -2 0 427.36 23
3 -2 0 439.66 22.7
-3 2 0 449.06 23.1
-3 2 0 447.86 23.1
-3 2 0 456.35 23.1
-3 2 0 424.36 22.8
2 -2 0 958.2 47.8
2 -2 0 937.71 48
2 -2 0 921.31 48
2 -2 0 899.31 48
-2 2 0 946.71 48
-2 2 0 961.6 48
-2 2 0 917.61 48
1 -2 0 2614.14 133.69
1 -2 0 2603.54 133.39
1 -2 0 2665.63 133.69
1 -2 0 2636.74 133.59
-1 2 0 2684.83 133.39
-1 2 0 2599.44 133.69
-1 2 0 2541.15 133.59
-1 2 0 2640.24 133.69
0 -2 0 423.76 22.2
0 -2 0 437.56 22.2
0 -2 0 423.26 22.2
0 2 0 435.36 22.2
0 2 0 423.06 22.2
0 2 0 423.76 22.2
-2 -2 0 219.08 12.2
-2 -2 0 224.18 12.1
-2 -2 0 226.28 11.8
-2 -2 0 223.78 11.8
2 2 0 226.18 12.2
2 2 0 229.68 12.1
2 2 0 218.58 11.7
2 2 0 214.28 12.4
-3 -2 0 1019.3 54.19
-3 -2 0 1065.49 54.29
-3 -2 0 1077.09 54.49
-3 -2 0 1067.09 54.79
3 2 0 1040.8 54.59
3 2 0 1039.6 54.39
-4 -2 0 1386.76 72.59
-4 -2 0 1413.76 72.29
-4 -2 0 1416.56 72.39
-4 -2 0 1401.56 72.69
4 2 0 1378.06 72.89
4 2 0 1427.76 72.39
-5 -2 0 31.4 5
-5 -2 0 39.1 6.5
-5 -2 0 36.4 5.1
5 2 0 29.8 4.5
5 2 0 35.2 5.8
-6 -2 0 756.92 40.4
6 2 0 748.53 40.8
-7 -2 0 126.19 11.3
7 -3 0 120.49 10.6
-7 3 0 114.49 9.6
-7 3 0 106.89 8.5
6 -3 0 570.14 29.7
-6 3 0 553.64 29.1
-6 3 0 536.95 29.7
-6 3 0 560.04 29
-6 3 0 510.05 29.9
5 -3 0 10 2.6
5 -3 0 7.8 2.7
5 -3 0 15.7 3.6
-5 3 0 11.1 3.7
-5 3 0 10.7 3.3
-5 3 0 10.7 3.6
-5 3 0 6.9 3.1
4 -3 0 101.89 7
4 -3 0 99.09 7.1
4 -3 0 100.89 7.2
4 -3 0 99.49 7.8
-4 3 0 106.79 7.4
-4 3 0 103.69 7.3
-4 3 0 100.09 7.6
-4 3 0 102.69 7.5
-4 3 0 96.49 7.3
3 -3 0 736.83 39.1
3 -3 0 720.23 39.1
3 -3 0 752.02 39.1
3 -3 0 755.42 38.9
-3 3 0 774.02 39.1
-3 3 0 754.32 39.2
-3 3 0 749.73 39.2
-3 3 0 779.22 39.2
2 -3 0 12.8 2.2
2 -3 0 9.9 2.2
2 -3 0 16 2.7
2 -3 0 15.8 1.9
-2 3 0 7.4 2
-2 3 0 12.7 2.2
-2 3 0 15.8 2.2
-2 3 0 10.4 1.7
1 -3 0 343.97 18.5
1 -3 0 344.27 18.5
1 -3 0 364.16 18.5
-1 3 0 339.67 18.5
-1 3 0 346.77 18.5
-1 3 0 347.27 18.4
0 -3 0 2929.21 147.09
0 -3 0 2877.11 147.09
0 -3 0 2855.01 147.09
0 3 0 2909.91 147.09
0 3 0 2795.72 147.09
0 3 0 2940.21 147.09
-1 -3 0 20.2 3.2
-1 -3 0 19 3.1
-1 -3 0 19.4 2.1
-1 -3 0 17.7 3
1 3 0 15.9 2.2
1 3 0 17.2 2.9
1 3 0 19.1 2.9
-2 -3 0 633.34 32.5
-2 -3 0 626.44 32.5
-2 -3 0 632.94 32.5
-2 -3 0 625.74 32.5
2 3 0 635.34 33
2 3 0 609.94 32.4
2 3 0 614.74 33.2
2 3 0 617.14 33.2
2 3 0 639.74 32.5
-3 -3 0 869.31 45.7
-3 -3 0 866.91 45.6
-3 -3 0 886.51 45.1
-3 -3 0 896.61 45.2
3 3 0 868.81 46.1
-4 -3 0 1214.08 64.29
-4 -3 0 1258.67 64.39
-4 -3 0 1251.97 64.19
4 3 0 1240.48 64.89
-5 -3 0 555.84 29.1
5 3 0 508.15 29.9
-6 -3 0 184.68 13.2
6 3 0 192.38 15.2
-7 -3 0 138.89 11.9
7 3 0 107.99 14.6
7 -4 0 110.39 10.6
-7 4 0 128.69 9.2
6 -4 0 84.19 7.1
6 -4 0 94.49 8.3
-6 4 0 77.29 8.2
-6 4 0 72.09 7.7
-6 4 0 76.59 8
-6 4 0 75.79 12.2
5 -4 0 1303.47 70.09
5 -4 0 1359.96 69.99
5 -4 0 1391.56 70.09
-5 4 0 1370.16 71.19
-5 4 0 1361.46 70.49
-5 4 0 1300.87 70.19
-5 4 0 1353.16 70.29
-5 4 0 1411.86 70.29
4 -4 0 118.99 7.9
4 -4 0 111.89 8.3
-4 4 0 117.39 8
-4 4 0 106.99 8.5
-4 4 0 116.09 8.8
-4 4 0 113.79 8.1
-4 4 0 123.49 8.4
3 -4 0 1004.4 53.19
3 -4 0 1008.6 52.79
3 -4 0 1049.79 52.99
-3 4 0 1040.7 53.39
-3 4 0 1076.89 53.39
-3 4 0 983.7 53.19
-3 4 0 1027.7 52.99
2 -4 0 144.29 8.8
2 -4 0 135.49 9
2 -4 0 132.29 8.8
2 -4 0 138.29 7.9
-2 4 0 139.19 8.7
-2 4 0 133.99 8.8
-2 4 0 141.59 9
1 -4 0 238.18 13.3
1 -4 0 231.88 13.1
-1 4 0 250.17 13.4
-1 4 0 222.68 13.5
-1 4 0 229.18 13.2
0 -4 0 866.11 44.7
0 -4 0 881.61 44.8
0 4 0 885.61 44.8
0 4 0 867.91 45.7
0 4 0 812.02 45.1
-1 -4 0 1535.95 77.89
-1 -4 0 1464.95 78.19
-1 -4 0 1627.94 79.29
1 4 0 1450.65 78.19
1 4 0 1537.95 78.19
-2 -4 0 794.92 42.3
-2 -4 0 784.32 42
-2 -4 0 805.92 42.6
-2 -4 0 808.12 42.2
2 4 0 846.02 42.3
2 4 0 804.92 42.5
2 4 0 797.02 42.1
2 4 0 873.51 42.8
-3 -4 0 1316.07 68.19
-3 -4 0 1337.77 68.19
-3 -4 0 1318.87 67.99
-3 -4 0 1332.67 68.59
-3 -4 0 1364.76 68.19
3 4 0 1376.46 67.99
3 4 0 1297.77 68.89
3 4 0 1314.07 68.49
3 4 0 1259.97 67.79
-4 -4 0 138.89 10.4
-4 -4 0 137.89 9.7
-4 -4 0 129.39 8.3
-4 -4 0 139.89 8.8
-4 -4 0 139.79 10.9
-4 -4 0 138.99 9.7
4 4 0 141.89 11
-5 -4 0 629.44 34.8
-5 -4 0 665.53 35.2
6 4 0 39.2 7.7
6 -5 0 351.36 19.7
6 -5 0 348.87 19.7
-6 5 0 315.87 19.7
-6 5 0 342.37 23.8
-6 5 0 365.46 20.2
-6 5 0 338.47 20.1
5 -5 0 667.73 34.1
5 -5 0 642.94 33.7
-5 5 0 611.64 34
-5 5 0 591.84 34.1
-5 5 0 621.64 34.3
-5 5 0 689.43 34.5
4 -5 0 170.08 11.4
4 -5 0 155.78 11.1
4 -5 0 168.38 11
-4 5 0 175.48 11.9
-4 5 0 166.58 11.4
-4 5 0 175.78 11
-4 5 0 180.18 11
3 -5 0 4.4 2.7
3 -5 0 3.2 2.2
-3 5 0 -2.9 3.5
-3 5 0 0.4 2.8
-3 5 0 3 3
2 -5 0 768.32 41.6
2 -5 0 778.12 41.7
2 -5 0 826.52 41.7
-2 5 0 806.52 41.8
-2 5 0 780.82 41.7
1 -5 0 617.64 32.8
1 -5 0 621.44 32.5
-1 5 0 604.64 32.5
-1 5 0 616.64 32.8
0 -5 0 789.32 42
0 -5 0 787.22 42
0 -5 0 814.22 42.1
0 5 0 831.02 42.8
0 5 0 792.32 42
-1 -5 0 1084.79 55.39
-1 -5 0 1050.79 54.79
-1 -5 0 1064.59 55.29
1 5 0 1045.2 55.29
1 5 0 1098.79 55.39
1 5 0 1053.59 55.39
-2 -5 0 412.86 22.6
-2 -5 0 404.36 22.4
-2 -5 0 426.46 22.1
-2 -5 0 404.06 22.9
2 5 0 402.56 22.3
2 5 0 430.16 23.1
2 5 0 416.06 22.5
-3 -5 0 824.62 43.6
-3 -5 0 823.12 43.7
-3 -5 0 869.61 44
-3 -5 0 826.02 43.8
3 5 0 844.12 44.7
3 5 0 818.12 43.5
3 5 0 859.41 43.7
3 5 0 841.62 44.3
-4 -5 0 150.88 11.2
-4 -5 0 186.08 11.2
-4 -5 0 169.88 11.1
-4 -5 0 190.88 12.5
-4 -5 0 174.98 10.6
4 5 0 169.48 10.3
4 5 0 180.38 13.3
-5 -5 0 75.39 7.8
-5 -5 0 73.99 9.9
5 5 0 74.19 10.8
-6 -5 0 401.76 24
6 5 0 382.86 25.1
6 -6 0 539.15 32
6 -6 0 569.44 30.2
-6 6 0 552.24 31.2
-6 6 0 582.54 31.3
5 -6 0 6 3.4
5 -6 0 0.3 4.6
-5 6 0 5.1 3.7
-5 6 0 2.8 4.9
-5 6 0 7.8 4.3
4 -6 0 916.91 50.89
4 -6 0 992 50.69
-4 6 0 935.51 51.29
-4 6 0 1033.8 50.99
-4 6 0 955.6 50.89
-4 6 0 926.01 51.29
3 -6 0 373.46 20.8
3 -6 0 352.16 21
-3 6 0 366.56 21.1
-3 6 0 349.77 20.2
2 -6 0 448.16 26.4
2 -6 0 482.45 25.8
2 -6 0 483.75 25.7
-2 6 0 455.45 25.6
-2 6 0 448.56 25.4
-2 6 0 478.85 26
1 -6 0 782.22 42.5
1 -6 0 829.72 42.8
-1 6 0 838.42 42.8
-1 6 0 788.82 42.6
-1 6 0 788.12 42.4
0 -6 0 109.99 8.3
0 -6 0 90.99 8.7
0 -6 0 96.69 8.1
0 6 0 101.99 8.3
0 6 0 100.59 8.8
0 6 0 98.79 8.1
-1 -6 0 1142.19 60.19
-1 -6 0 1173.58 61.09
-1 -6 0 1157.78 60.89
-1 -6 0 1207.28 61.09
1 6 0 1144.49 60.79
1 6 0 1153.18 60.99
1 6 0 1213.68 61.09
-2 -6 0 1388.06 70.79
-2 -6 0 1346.37 70.99
-2 -6 0 1360.36 70.19
-2 -6 0 1332.47 70.69
2 6 0 1369.46 70.99
2 6 0 1374.06 70.59
-3 -6 0 20.5 3.8
-3 -6 0 20.7 3.6
-3 -6 0 23.2 5.3
-3 -6 0 18.1 3.1
-3 -6 0 16.5 4.3
3 6 0 24.3 3.9
3 6 0 26.9 5.4
3 6 0 17 3.2
-4 -6 0 465.25 24
-4 -6 0 418.36 23.3
-4 -6 0 423.26 23.5
4 6 0 406.66 23
4 6 0 427.66 23.3
-5 -6 0 47.6 5.4
-5 -6 0 37.1 6
-5 -6 0 56.29 8.2
5 6 0 51.99 8.5
5 -7 0 459.55 26.6
-5 7 0 473.65 26.6
-5 7 0 416.16 25.4
-5 7 0 490.45 27
4 -7 0 485.85 27.7
-4 7 0 499.85 28
-4 7 0 482.15 27.7
3 -7 0 297.27 18
3 -7 0 268.17 15.3
3 -7 0 281.47 17.9
-3 7 0 274.17 16.8
-3 7 0 303.17 19.7
2 -7 0 7.2 4.9
2 -7 0 4.8 4.3
-2 7 0 5.4 3.9
-2 7 0 3.5 3.7
1 -7 0 559.84 30.5
1 -7 0 558.44 30.3
1 -7 0 559.04 30.3
-1 7 0 530.25 30.2
-1 7 0 543.25 30.1
0 -7 0 233.88 15.4
0 -7 0 254.67 15.5
0 -7 0 248.58 16.2
0 7 0 246.48 15.2
0 7 0 258.37 16.1
-1 -7 0 286.37 18
-1 -7 0 289.07 16.5
-1 -7 0 317.87 18.5
-1 -7 0 301.67 17.9
1 7 0 304.47 18.1
-2 -7 0 20.3 5.3
-2 -7 0 16.5 5.1
-2 -7 0 19.6 3.6
-2 -7 0 16.4 4.1
2 7 0 19.3 5.7
-3 -7 0 78.89 10.5
-3 -7 0 76.49 8.3
-3 -7 0 74.59 7.4
-3 -7 0 88.39 9.7
3 7 0 87.59 10.4
3 7 0 76.49 8.6
-4 -7 0 155.28 12.4
-4 -7 0 150.98 11
-4 -7 0 137.09 10.4
-4 -7 0 175.88 13.6
4 7 0 178.08 14.4
4 7 0 158.38 11.2
4 -8 0 3.7 5.8
-4 8 0 3.2 6.2
3 -8 0 103.09 11.7
3 -8 0 90.29 10.9
-3 8 0 101.09 11.6
2 -8 0 560.54 32.1
-2 8 0 580.14 32.5
1 -8 0 108.79 11.5
1 -8 0 111.79 14.2
-1 8 0 102.29 11.6
0 -8 0 630.94 35.9
0 -8 0 573.14 32.5
0 -8 0 608.54 34.8
0 -8 0 644.94 35.6
0 8 0 662.43 34.8
-1 -8 0 18 3.4
-1 -8 0 23.5 6
-1 -8 0 13.5 5.4
1 8 0 7.4 4.9
1 8 0 18.6 5.6
-2 -8 0 295.67 18.5
-2 -8 0 280.37 18.2
-2 -8 0 290.87 17.6
-2 -8 0 239.68 18.6
2 8 0 288.07 18.4
2 8 0 288.47 17.8
-3 -8 0 1148.79 63.79
-3 -8 0 1272.47 64.39
-3 -8 0 1268.67 64.29
-3 -8 0 1237.08 64.89
3 8 0 1163.28 64.89
3 8 0 1212.98 63.89
3 -9 0 40 7.1
-3 9 0 47 7.6
2 -9 0 281.47 19.4
-2 9 0 275.37 19.4
1 -9 0 18.5 6.5
-1 9 0 14.2 6
0 -9 0 100.59 7.6
0 -9 0 118.79 11.8
0 9 0 114.09 11.2
0 9 0 109.39 16.4
-1 -9 0 133.09 9.3
-1 -9 0 149.09 13.2
1 9 0 135.09 12.9
2 9 0 20.5 5.7
2 9 0 11 6.5
2 9 -1 17.5 5.6
2 9 -1 15.6 6.5
-2 -9 1 14.7 6.7
-2 -9 1 11.9 6.4
1 9 -1 246.08 17
1 9 -1 261.27 17.8
-1 -9 1 249.78 18
-1 -9 1 260.87 17.6
-1 -9 1 250.57 15.1
0 9 -1 4.4 7.2
0 9 -1 15.2 5.3
0 -9 1 8 3.1
0 -9 1 -2.1 5.7
0 -9 1 7.1 6.5
-1 9 -1 156.68 13.9
1 -9 1 142.09 13.6
1 -9 1 142.59 13.3
-2 9 -1 463.55 26.8
2 -9 1 422.36 26.3
2 -9 1 430.66 26.4
3 8 -1 374.26 22.5
-3 -8 1 392.76 23.7
-3 -8 1 377.96 22.5
-3 -8 1 404.96 23.3
2 8 -1 61.99 9.4
2 8 -1 76.59 9.8
-2 -8 1 73.59 10.3
-2 -8 1 63.09 8.9
1 8 -1 330.67 20.3
1 8 -1 353.36 20.7
-1 -8 1 338.77 20.4
-1 -8 1 360.46 20.8
-1 -8 1 318.97 18.9
-1 -8 1 347.47 20.9
0 8 -1 255.17 15.6
0 8 -1 261.47 16.5
0 -8 1 220.98 14
0 -8 1 240.48 18.1
0 -8 1 264.77 17
-1 8 -1 51.29 6.7
1 -8 1 64.59 10.4
1 -8 1 53.49 9.1
-2 8 -1 84.39 10.9
2 -8 1 94.19 10.7
2 -8 1 98.09 11.7
-3 8 -1 13.2 5.7
3 -8 1 13.1 5.9
3 -8 1 22.8 6.7
-4 8 -1 165.58 14.1
4 -8 1 160.48 13.8
4 7 -1 406.96 24.4
4 7 -1 393.86 22.3
-4 -7 1 415.56 23.1
-4 -7 1 379.66 22.4
3 7 -1 156.58 11.8
-3 -7 1 164.78 11.8
-3 -7 1 185.18 14.8
-3 -7 1 155.38 11.9
2 7 -1 309.57 18.7
2 7 -1 311.47 18.3
-2 -7 1 319.87 18.6
-2 -7 1 280.37 17.3
-2 -7 1 317.27 18.7
1 7 -1 7.5 4.3
1 7 -1 1.1 3.9
-1 -7 1 3.5 2.8
-1 -7 1 7.6 4.8
-1 -7 1 3.7 4
-1 -7 1 2.5 3.4
0 -7 1 559.84 30
0 -7 1 554.44 30.2
0 -7 1 526.25 30
-1 7 -1 351.86 20.8
-1 7 -1 345.67 20.9
1 -7 1 353.16 20.9
1 -7 1 397.36 21.2
-2 7 -1 384.96 21.9
-2 7 -1 368.56 21.5
-2 7 -1 339.87 21
2 -7 1 382.66 21.8
2 -7 1 371.86 21.7
-3 7 -1 1356.16 69.99
3 -7 1 1258.67 68.29
3 -7 1 1289.17 68.09
-4 7 -1 3.8 5
-4 7 -1 5.9 4.5
4 -7 1 4.9 3.1
4 -7 1 3.4 4.8
-5 7 -1 418.96 23.5
-5 7 -1 347.67 21.8
5 -7 1 392.76 22.9
5 -7 1 404.56 21.5
5 6 -1 115.59 12.6
-5 -6 1 100.79 9.4
-5 -6 1 104.09 8.3
-5 -6 1 136.09 12.2
-5 -6 1 107.19 9.2
4 6 -1 1104.89 59.89
4 6 -1 1112.79 57.89
4 6 -1 1064.49 57.79
-4 -6 1 1061.79 57.99
-4 -6 1 1166.88 59.19
-4 -6 1 1098.59 58.09
-4 -6 1 1216.38 58.39
3 6 -1 149.79 10.2
3 6 -1 164.78 10.5
-3 -6 1 149.39 13.4
-3 -6 1 155.88 9.7
-3 -6 1 153.28 11.7
-3 -6 1 168.78 10.8
2 6 -1 1335.67 69.19
2 6 -1 1305.37 69.29
2 6 -1 1310.67 70.49
2 6 -1 1374.46 68.89
-2 -6 1 1307.97 69.19
-2 -6 1 1377.76 68.99
-2 -6 1 1283.87 68.99
1 6 -1 964.7 49.3
1 6 -1 911.51 49.4
1 6 -1 1003.6 49.5
1 6 -1 858.71 49.2
-1 -6 1 971.4 49.4
-1 -6 1 926.01 49.5
-1 -6 1 956.3 48.7
0 6 -1 412.86 23.1
0 6 -1 410.96 23.1
0 -6 1 413.46 23.2
0 -6 1 419.86 23.3
0 -6 1 431.86 23.2
-1 6 -1 1519.85 78.99
-1 6 -1 1491.05 78.99
1 -6 1 1557.94 79.09
1 -6 1 1533.35 78.99
-2 6 -1 66.39 7.2
-2 6 -1 57.59 7.8
-2 6 -1 60.99 6.4
2 -6 1 58.69 7.5
2 -6 1 55.09 7.7
2 -6 1 60.49 7.7
-3 6 -1 102.59 9.1
-3 6 -1 112.09 9.6
-3 6 -1 118.19 9.7
3 -6 1 110.59 9.4
3 -6 1 110.79 9.7
-4 6 -1 62.89 8
-4 6 -1 72.89 8.9
-4 6 -1 61.49 7.2
4 -6 1 68.49 8.5
4 -6 1 63.09 6.3
-5 6 -1 17.3 5.4
-5 6 -1 27.6 5
-5 6 -1 20.5 4.1
5 -6 1 24 4.1
5 -6 1 18.6 4.6
-6 6 -1 4.2 5.3
-6 6 -1 14.5 4.7
-6 6 -1 10.4 4.3
6 -6 1 13.7 4.4
6 5 -1 228.08 17.7
-6 -5 1 224.78 16.1
5 5 -1 109.89 11.5
-5 -5 1 81.69 8.3
-5 -5 1 87.29 7.4
-5 -5 1 90.09 6.8
-5 -5 1 99.69 10.1
4 5 -1 160.78 9.9
4 5 -1 177.88 12.8
-4 -5 1 172.08 10.5
-4 -5 1 186.98 12.5
-4 -5 1 174.68 10.9
-4 -5 1 140.99 10.7
-4 -5 1 162.78 10.8
3 5 -1 1072.09 54.49
3 5 -1 1016.4 53.99
3 5 -1 990.5 53.39
3 5 -1 1042.6 53.39
-3 -5 1 1041.6 54.19
-3 -5 1 964.2 53.29
-3 -5 1 1068.29 53.69
-3 -5 1 1067.59 53.59
2 5 -1 525.65 27.9
2 5 -1 527.75 28
2 5 -1 503.75 27.5
2 5 -1 531.55 27.6
-2 -5 1 519.25 27.6
-2 -5 1 517.65 27.3
-2 -5 1 525.85 27.7
-2 -5 1 494.15 26.9
-2 -5 1 505.95 27.9
1 5 -1 1100.49 57.89
1 5 -1 1169.48 57.99
1 5 -1 1089.29 57.99
-1 -5 1 1116.99 57.99
-1 -5 1 1114.79 57.99
0 5 -1 362.86 20.8
0 5 -1 345.67 19.1
0 5 -1 339.17 19
0 -5 1 351.16 19
0 -5 1 336.87 19.2
0 -5 1 340.07 19.1
-1 5 -1 1199.78 63.19
-1 5 -1 1225.58 63.19
-1 5 -1 1190.78 63.09
-1 5 -1 1216.18 63.19
1 -5 1 1207.38 63.19
1 -5 1 1278.77 63.29
1 -5 1 1217.88 63.19
-2 5 -1 1144.49 59.79
-2 5 -1 1130.69 59.69
-2 5 -1 1157.48 59.89
2 -5 1 1129.49 59.79
2 -5 1 1191.78 59.79
-3 5 -1 24.1 3.9
-3 5 -1 11.7 3.8
-3 5 -1 15.8 2.6
3 -5 1 13.8 3.4
3 -5 1 12.2 4.5
-4 5 -1 2609.24 134.69
-4 5 -1 2652.93 134.79
-4 5 -1 2855.71 135.29
-4 5 -1 2689.13 135.19
4 -5 1 2409.16 134.89
4 -5 1 2579.14 134.49
-5 5 -1 -1.3 3.9
-5 5 -1 2.2 3.4
-5 5 -1 3.3 3.4
-5 5 -1 -3.1 3.4
5 -5 1 -1 3.5
5 -5 1 8.2 3.5
-6 5 -1 653.73 35.2
-6 5 -1 579.04 33.9
-6 5 -1 667.23 34.2
6 -5 1 654.03 33.9
6 -5 1 599.04 33.8
6 4 -1 414.06 26.4
-6 -4 1 444.86 24.9
5 4 -1 224.48 15.5
-5 -4 1 205.08 13.6
-5 -4 1 226.88 14.3
-4 -4 1 242.98 13.3
-4 -4 1 225.78 13.8
-4 -4 1 258.37 14.6
-4 -4 1 232.68 13.1
-4 -4 1 214.58 16.1
3 4 -1 827.02 44.2
3 4 -1 866.31 45.3
3 4 -1 884.51 45
-3 -4 1 815.72 44.7
-3 -4 1 873.41 45
-3 -4 1 854.41 44.4
-3 -4 1 882.51 44.5
2 4 -1 42.4 4.9
2 4 -1 42.6 4.5
2 4 -1 41.6 5.4
-2 -4 1 41.3 4.8
-2 -4 1 43.7 4.7
-2 -4 1 40.9 3.7
-2 -4 1 47.1 5.5
-2 -4 1 44.7 4.5
1 4 -1 3323.47 170.38
1 4 -1 3463.05 170.48
1 4 -1 3172.18 170.38
-1 -4 1 3223.58 170.38
-1 -4 1 3520.15 171.38
0 4 -1 2201.88 109.69
0 4 -1 2074.09 109.89
0 -4 1 2140.39 109.69
0 -4 1 2156.38 109.69
-1 4 -1 41.2 4.4
-1 4 -1 37.3 4.8
-1 4 -1 33.8 4.7
1 -4 1 34.1 4.5
1 -4 1 44.6 4.5
1 -4 1 36.2 4.6
-2 4 -1 2351.66 120.99
-2 4 -1 2286.17 121.39
-2 4 -1 2440.16 121.49
-2 4 -1 2413.76 121.59
-3 4 -1 368.36 20.3
-3 4 -1 365.66 20.7
-3 4 -1 393.76 20.8
-3 4 -1 385.46 20.8
3 -4 1 371.06 20.6
3 -4 1 389.86 20.2
3 -4 1 378.66 20.6
-4 4 -1 838.22 45.5
-4 4 -1 899.81 45.6
-4 4 -1 873.81 45.8
-4 4 -1 881.51 45.8
-4 4 -1 918.71 45.7
4 -4 1 854.61 45.5
4 -4 1 839.22 45.5
4 -4 1 875.71 45.3
-5 4 -1 714.33 43.5
-5 4 -1 766.12 41.7
-5 4 -1 828.12 41.6
-5 4 -1 790.72 41.6
-5 4 -1 850.51 41.5
5 -4 1 759.22 41.3
5 -4 1 798.12 41.3
5 -4 1 777.32 41.3
-6 4 -1 60.39 7.3
-6 4 -1 64.59 7.6
-6 4 -1 64.29 7.4
-6 4 -1 57.09 7.6
6 -4 1 65.39 7
6 -4 1 73.49 8.1
7 3 -1 272.17 20.8
-7 -3 1 296.27 19.6
6 3 -1 62.39 8.2
-6 -3 1 60.89 8.4
5 3 -1 397.46 23.2
-5 -3 1 422.96 22.5
-5 -3 1 376.56 22.3
-4 -3 1 448.36 23.7
-4 -3 1 423.76 23.2
-4 -3 1 412.36 23.3
-4 -3 1 431.46 23.4
3 3 -1 135.79 7.7
3 3 -1 138.69 8.8
3 3 -1 135.99 9.3
-3 -3 1 139.19 9
-3 -3 1 125.89 9.1
-3 -3 1 148.59 8
-3 -3 1 136.69 8.1
2 3 -1 6690.43 330.97
2 3 -1 6568.24 330.57
2 3 -1 6481.55 330.87
-2 -3 1 6475.95 330.67
-2 -3 1 6173.58 330.57
-2 -3 1 6603.94 330.67
-2 -3 1 6404.36 330.87
-2 -3 1 6607.84 330.67
1 3 -1 1039.1 50.69
1 3 -1 1029.2 50.69
1 3 -1 944.51 50.49
1 3 -1 958.4 50.49
-1 -3 1 978.6 50.59
-1 -3 1 950.1 50.59
0 3 -1 3197.18 162.88
0 3 -1 3264.67 162.88
0 3 -1 3217.98 162.88
0 -3 1 3101.79 162.88
-1 3 -1 584.44 30
1 -3 1 579.24 30
1 -3 1 567.44 30
1 -3 1 571.84 30
-2 3 -1 1165.28 60.89
-2 3 -1 1192.28 60.89
-2 3 -1 1224.38 60.59
2 -3 1 1147.29 61.29
2 -3 1 1184.28 60.99
-3 3 -1 1947.51 104.09
-3 3 -1 2066.29 104.69
-3 3 -1 1971.7 103.99
-3 3 -1 2057.09 104.09
-3 3 -1 2085.29 104.09
3 -3 1 2064.09 103.99
3 -3 1 1995 103.99
3 -3 1 2073.29 103.89
-4 3 -1 137.89 9.6
-4 3 -1 136.99 9.1
-4 3 -1 140.69 9.2
-4 3 -1 138.29 8.9
4 -3 1 138.39 8.8
4 -3 1 133.69 8.7
4 -3 1 133.19 8.6
-5 3 -1 2289.57 115.99
-5 3 -1 2240.08 116.09
-5 3 -1 2356.56 115.69
-5 3 -1 2028.6 117.59
5 -3 1 2340.37 115.39
5 -3 1 2250.97 115.69
5 -3 1 2281.07 115.39
-6 3 -1 36.6 9.4
-6 3 -1 39.1 5.5
-6 3 -1 38.5 5.8
6 -3 1 34 5.3
6 -3 1 35.3 4.1
7 -3 1 194.18 14.2
-7 -2 1 395.06 22.9
-6 -2 1 130.29 10.3
5 2 -1 359.46 20.9
-5 -2 1 382.26 20.1
-5 -2 1 344.87 21.1
-5 -2 1 334.67 20.4
-4 -2 1 1304.77 68.69
-4 -2 1 1362.46 68.69
-4 -2 1 1322.97 68.59
3 2 -1 71.29 6.5
3 2 -1 85.89 6
-3 -2 1 80.19 5.7
-3 -2 1 74.99 5.8
2 2 -1 1732.43 88.49
2 2 -1 1744.13 88.69
2 2 -1 1695.73 88.49
2 2 -1 1702.33 88.19
-2 -2 1 1787.22 88.49
-2 -2 1 1764.02 88.49
-2 -2 1 1746.43 88.29
-2 -2 1 1728.93 88.29
-2 -2 1 1681.53 88.59
1 2 -1 753.02 39.8
1 2 -1 725.83 39.7
1 2 -1 810.62 39.9
1 2 -1 806.52 39.6
-1 -2 1 725.73 39.6
-1 -2 1 804.72 39.7
-1 -2 1 792.42 39.7
0 2 -1 2694.83 133.59
0 2 -1 2660.33 133.59
0 -2 1 2621.24 133.49
0 -2 1 2621.24 133.59
0 -2 1 2511.05 133.49
-1 2 -1 504.25 26.5
-1 2 -1 521.05 26.2
-1 2 -1 527.55 26.5
-1 2 -1 493.55 26.4
1 -2 1 515.85 26.5
1 -2 1 496.35 26.4
1 -2 1 514.55 26.5
-2 2 -1 769.92 38.9
-2 2 -1 771.52 38.9
-2 2 -1 764.92 39.1
-2 2 -1 734.43 38.9
2 -2 1 730.03 38.9
2 -2 1 756.02 38.9
-3 2 -1 2016.6 100.89
-3 2 -1 2050.69 100.69
-3 2 -1 1867.01 100.49
-3 2 -1 1988.3 100.49
-3 2 -1 1946.51 100.89
3 -2 1 1933.21 100.49
3 -2 1 1967.7 100.39
-4 2 -1 789.02 41.1
-4 2 -1 781.62 40.8
-4 2 -1 804.22 40.2
-4 2 -1 783.62 40.3
-4 2 -1 749.92 40.6
4 -2 1 765.72 40.1
4 -2 1 765.42 40.1
-5 2 -1 1765.02 89.39
-5 2 -1 1775.62 88.79
-5 2 -1 1568.44 89.69
5 -2 1 1817.52 89.19
-6 2 -1 202.98 13.6
-6 2 -1 199.78 13.2
6 -2 1 202.38 13.3
7 -2 1 4.4 5
-7 -1 1 46.6 8.2
6 1 -1 1029.9 54.19
5 1 -1 77.69 8.2
5 1 -1 68.59 7.1
-5 -1 1 64.49 7.7
-5 -1 1 65.89 6.7
-5 -1 1 54.99 7.8
-5 -1 1 78.99 7.9
4 1 -1 1824.72 93.59
4 1 -1 1828.42 93.79
4 1 -1 1851.91 93.39
-4 -1 1 1799.02 93.29
-4 -1 1 1786.92 93.69
-4 -1 1 1829.52 93.59
3 1 -1 113.99 7.1
3 1 -1 109.79 7.3
3 1 -1 115.39 7.5
-3 -1 1 117.59 8.2
-3 -1 1 98.29 7.8
-3 -1 1 114.99 6.8
-3 -1 1 112.69 8.9
2 1 -1 429.16 22.2
2 1 -1 409.56 22.1
2 1 -1 420.16 22.3
-2 -1 1 436.66 22.4
-2 -1 1 430.66 22.1
-2 -1 1 419.16 22.1
-2 -1 1 430.06 22.2
1 1 -1 5411.06 273.27
1 1 -1 5224.58 273.27
1 1 -1 5413.36 273.17
1 1 -1 5301.17 273.17
-1 -1 1 5256.97 273.17
-1 -1 1 5408.06 273.27
-1 -1 1 5666.73 273.17
-1 -1 1 5325.87 273.17
0 1 -1 40.2 2.4
0 -1 1 38.1 2.4
0 -1 1 37.8 2.5
-1 1 -1 471.65 24.3
-1 1 -1 466.95 24.5
-1 1 -1 471.45 24.4
-1 1 -1 470.55 24.4
-1 1 -1 475.65 24.4
1 -1 1 483.45 24.4
1 -1 1 483.45 24.4
1 -1 1 467.05 24.4
-2 1 -1 927.71 46.3
-2 1 -1 870.61 46.1
-2 1 -1 934.91 46.3
-2 1 -1 942.61 46.1
2 -1 1 907.21 46.1
2 -1 1 926.21 46.1
2 -1 1 797.82 46.2
-3 1 -1 82.19 4.9
-3 1 -1 78.09 5.5
-3 1 -1 75.99 4.9
-3 1 -1 79.09 6.6
3 -1 1 72.59 4.8
3 -1 1 77.89 5.4
-4 1 -1 1107.69 57.39
-4 1 -1 1140.39 57.59
4 -1 1 1075.79 57.19
-5 1 -1 975.2 51.09
-6 1 -1 155.58 11.4
6 -1 1 162.58 11.6
7 -1 1 388.26 22.9
7 0 -1 131.09 11.8
-7 0 1 128.99 10.5
6 0 -1 286.07 17.3
-6 0 1 295.47 17
5 0 -1 865.21 45.6
5 0 -1 874.91 45.2
-5 0 1 856.71 45.1
-5 0 1 847.12 45
-5 0 1 866.81 46.1
4 0 -1 267.57 15
4 0 -1 263.47 15.3
-4 0 1 281.07 14.9
-4 0 1 264.17 15.2
-4 0 1 266.87 15.3
3 0 -1 1992.4 102.99
3 0 -1 2045.8 102.79
-3 0 1 1988.7 103.09
-3 0 1 2028.8 102.79
-3 0 1 2002.3 103.09
2 0 -1 2769.92 137.59
2 0 -1 2662.33 137.69
-2 0 1 2747.23 137.79
-2 0 1 2627.44 137.69
1 0 -1 5058.79 259.97
-1 0 1 5171.98 259.97
-1 0 -1 421.36 21.6
-1 0 -1 414.46 21.5
-1 0 -1 424.16 21.7
1 0 1 429.86 21.7
1 0 1 412.46 21.6
-2 0 -1 1740.13 91.19
-2 0 -1 1813.12 91.39
-2 0 -1 1810.22 91.59
-2 0 -1 1809.32 91.49
2 0 1 1778.82 91.39
2 0 1 1800.72 91.59
-3 0 -1 1039.6 52.49
-3 0 -1 1013.2 52.29
3 0 1 1001.9 52.19
3 0 1 999.9 52.39
-4 0 -1 488.05 26.2
-4 0 -1 482.55 26.3
-4 0 -1 506.85 25.8
4 0 1 466.75 25.9
4 0 1 490.35 26.4
-5 0 -1 686.73 36.8
5 0 1 674.73 37.2
5 0 1 706.03 36.6
6 0 1 337.17 19.7
-7 0 -1 192.78 14
7 0 1 183.98 14.1
7 0 1 182.38 14.1
7 -1 -1 481.95 27
-7 1 1 472.85 26.4
6 -1 -1 45.4 5.5
-6 1 1 47.4 7.7
5 -1 -1 2085.39 104.09
5 -1 -1 2033.7 104.49
-5 1 1 2067.89 104.69
-5 1 1 1990.5 103.99
-5 1 1 1962.6 104.49
4 -1 -1 432.86 23.3
-4 1 1 451.55 23.7
-4 1 1 425.96 23.5
3 -1 -1 458.85 23.2
3 -1 -1 433.96 23.4
-3 1 1 422.56 23.2
-3 1 1 465.65 23
-3 1 1 427.16 23.4
-3 1 1 450.75 23.6
2 -1 -1 593.44 30
2 -1 -1 557.44 29.9
2 -1 -1 587.54 29.9
2 -1 -1 587.64 30.2
-2 1 1 601.14 30
-2 1 1 563.54 30.1
-2 1 1 580.74 29.9
-2 1 1 590.44 29.9
1 -1 -1 2018.4 100.59
1 -1 -1 1945.41 100.59
1 -1 -1 1963.7 100.49
1 -1 -1 2010.5 100.69
1 -1 -1 1974.9 100.69
-1 1 1 1995.5 100.69
-1 1 1 1959.4 100.59
-1 1 1 1925.51 100.49
-1 1 1 1990.4 100.69
-1 1 1 1989.2 100.69
0 -1 -1 2051.99 104.39
-1 -1 -1 326.17 16.7
-1 -1 -1 328.67 16.9
-1 -1 -1 327.27 16.7
-1 -1 -1 319.17 16.7
1 1 1 337.87 16.9
1 1 1 300.57 16.7
1 1 1 327.47 16.7
1 1 1 321.87 16.7
-2 -1 -1 564.34 29.7
-2 -1 -1 591.44 29.7
-2 -1 -1 552.54 29.3
-2 -1 -1 576.44 29.5
-2 -1 -1 556.04 29.2
2 1 1 567.74 29.6
2 1 1 591.04 29.8
-3 -1 -1 1605.64 80.29
-3 -1 -1 1594.14 80.69
-3 -1 -1 1535.15 81.29
3 1 1 1530.25 80.39
3 1 1 1570.74 80.69
-4 -1 -1 114.09 8.3
-4 -1 -1 116.39 8.4
-4 -1 -1 114.99 7.8
-4 -1 -1 117.19 8.5
4 1 1 117.79 8.8
4 1 1 117.89 8.1
-5 -1 -1 1107.79 57.69
-5 -1 -1 1100.59 57.49
-5 -1 -1 1159.98 57.29
-5 -1 -1 975.1 56.89
5 1 1 1113.89 57.79
5 1 1 1099.99 57.09
5 1 1 1111.79 57.79
-6 -1 -1 1260.17 66.69
6 1 1 1280.17 67.49
6 1 1 1284.37 67.59
-7 -1 -1 70.79 9.9
7 1 1 77.59 10.1
7 -2 -1 337.67 20.1
6 -2 -1 592.54 30.2
-6 2 1 518.25 30.5
-6 2 1 560.14 30.1
5 -2 -1 105.19 8
5 -2 -1 110.09 8.9
-5 2 1 100.29 6.8
-5 2 1 105.19 8.5
-5 2 1 98.69 8.5
-5 2 1 102.49 7.2
4 -2 -1 1764.92 99.79
4 -2 -1 1976.9 100.49
4 -2 -1 2058.99 100.49
-4 2 1 1950.2 100.49
-4 2 1 1946.01 100.39
-4 2 1 1998.4 99.99
-4 2 1 1962.1 100.19
-4 2 1 1988.7 100.09
3 -2 -1 246.38 13.6
3 -2 -1 250.87 13.6
3 -2 -1 247.68 13.6
3 -2 -1 242.48 14
-3 2 1 251.57 13.8
-3 2 1 283.57 13.7
-3 2 1 252.67 13.7
2 -2 -1 5430.86 281.47
2 -2 -1 5618.64 281.47
2 -2 -1 5465.25 281.47
2 -2 -1 5577.14 281.27
-2 2 1 5424.16 281.47
-2 2 1 5442.76 281.47
-2 2 1 5677.23 281.37
-2 2 1 5634.54 281.47
-1 -2 -1 6649.73 345.37
-1 -2 -1 6871.31 345.27
-1 -2 -1 6739.53 345.17
-1 -2 -1 6945.5 345.17
1 2 1 7013.9 345.17
1 2 1 6531.25 345.17
1 2 1 6790.92 345.27
-2 -2 -1 2.4 1.4
-2 -2 -1 1.8 1.7
-2 -2 -1 3.5 1.2
-2 -2 -1 2.8 1.3
-2 -2 -1 3.1 1.8
2 2 1 6.4 2.1
2 2 1 1.4 1.5
2 2 1 2.8 1.3
-3 -2 -1 1783.82 90.09
-3 -2 -1 1729.13 90.29
-3 -2 -1 1757.32 90.29
3 2 1 1724.43 90.19
3 2 1 1802.32 90.59
-4 -2 -1 689.93 36.9
-4 -2 -1 691.93 36.6
-4 -2 -1 701.13 36.8
4 2 1 696.73 37.3
4 2 1 705.43 36.7
-5 -2 -1 252.77 15
-5 -2 -1 227.68 14.8
5 2 1 242.18 15.6
5 2 1 229.18 14.6
-6 -2 -1 472.65 26.4
6 2 1 461.15 26.3
-7 -2 -1 25.1 6.4
7 2 1 21.2 7.2
6 -3 -1 667.53 34.7
-6 3 1 584.14 35.1
-6 3 1 662.73 34.1
-6 3 1 688.13 34.2
-6 3 1 638.74 34.5
5 -3 -1 146.89 9.4
5 -3 -1 156.88 9.6
5 -3 -1 174.78 10.3
5 -3 -1 168.28 11.2
-5 3 1 171.18 10
-5 3 1 148.39 10
-5 3 1 150.58 10.7
-5 3 1 156.88 10.2
-5 3 1 157.88 10.9
4 -3 -1 1371.96 67.49
4 -3 -1 1318.57 67.39
4 -3 -1 1270.07 67.39
4 -3 -1 1300.07 67.79
-4 3 1 1390.06 67.59
-4 3 1 1329.77 67.59
-4 3 1 1306.97 67.89
-4 3 1 1193.78 68.39
-4 3 1 1316.87 67.69
3 -3 -1 1222.38 62.69
3 -3 -1 1208.58 62.69
3 -3 -1 1295.07 62.39
3 -3 -1 1205.68 62.69
3 -3 -1 1214.28 62.69
-3 3 1 1201.08 62.69
-3 3 1 1239.78 62.79
-3 3 1 1185.18 62.59
-3 3 1 1194.58 62.69
2 -3 -1 24.4 3.8
2 -3 -1 28.1 3.1
2 -3 -1 33.9 3.8
-2 3 1 27.5 3.4
-2 3 1 28.4 3.8
-2 3 1 29.3 3.3
1 -3 -1 5730.13 285.47
1 -3 -1 5380.26 285.47
1 -3 -1 5580.14 285.57
1 -3 -1 5598.54 285.07
-1 3 1 5662.13 285.37
-1 3 1 5708.73 285.57
0 -3 -1 306.57 16.2
0 -3 -1 307.17 16.3
0 -3 -1 300.07 16.2
0 -3 -1 323.27 15.7
0 3 1 309.47 16.2
0 3 1 296.97 16.3
0 3 1 282.87 16.2
-1 -3 -1 32.9 3.6
-1 -3 -1 31.2 3.4
-1 -3 -1 29.1 2.9
-1 -3 -1 27.7 3.4
1 3 1 37.6 3.3
1 3 1 29 3.3
-2 -3 -1 788.22 41.1
-2 -3 -1 802.52 41.2
-2 -3 -1 788.42 41.5
-2 -3 -1 824.42 41.2
-2 -3 -1 781.42 41.1
2 3 1 781.82 41
2 3 1 804.02 41.5
2 3 1 820.02 41.7
2 3 1 799.92 41.1
2 3 1 783.32 41.2
-3 -3 -1 234.68 13.5
-3 -3 -1 226.88 12.7
-3 -3 -1 224.28 12.5
-3 -3 -1 225.88 13.2
-3 -3 -1 229.28 13
3 3 1 242.48 13.9
3 3 1 217.68 12.3
3 3 1 243.18 13.2
-4 -3 -1 1473.45 74.79
-4 -3 -1 1464.05 74.29
-4 -3 -1 1426.26 74.49
4 3 1 1421.46 75.29
4 3 1 1441.96 74.69
-5 -3 -1 23.4 4.4
5 3 1 20.2 4.8
5 3 1 20.6 5.7
-6 -3 -1 365.76 21.8
6 3 1 367.36 23.1
7 3 1 231.48 18.6
7 -4 -1 259.77 15.6
-7 4 1 216.48 14.5
-7 4 1 248.28 14.6
-7 4 1 238.88 14.3
6 -4 -1 419.56 22.6
6 -4 -1 456.55 23.1
6 -4 -1 366.56 22.9
-6 4 1 397.46 22.8
-6 4 1 403.96 24
-6 4 1 428.16 22.9
-6 4 1 432.86 23.1
5 -4 -1 413.96 22.2
5 -4 -1 409.96 22.9
5 -4 -1 394.36 22.5
5 -4 -1 402.56 22
-5 4 1 376.46 22.6
-5 4 1 384.86 22.1
-5 4 1 430.96 22.5
-5 4 1 427.26 23.4
-5 4 1 405.66 22.3
4 -4 -1 67.19 5.6
4 -4 -1 74.29 6.8
4 -4 -1 72.69 6.1
4 -4 -1 67.09 6.6
-4 4 1 67.29 6
-4 4 1 73.59 7.1
-4 4 1 71.09 6.8
3 -4 -1 1473.95 74.69
3 -4 -1 1430.86 74.39
3 -4 -1 1457.65 74.59
3 -4 -1 1480.75 74.09
-3 4 1 1400.96 74.49
-3 4 1 1446.16 74.69
2 -4 -1 401.06 21.9
2 -4 -1 419.46 22.4
2 -4 -1 434.76 22.5
2 -4 -1 426.76 22.6
-2 4 1 411.76 22.6
1 -4 -1 3667.93 183.68
1 -4 -1 3435.16 183.78
-1 4 1 3561.54 183.78
-1 4 1 3737.33 183.78
0 -4 -1 2358.56 120.79
0 -4 -1 2485.85 120.19
0 -4 -1 2309.37 120.69
0 4 1 2315.37 121.49
0 4 1 2286.87 120.79
0 4 1 2400.76 120.79
-1 -4 -1 5638.74 280.87
-1 -4 -1 5504.25 280.77
-1 -4 -1 5980.3 281.87
-1 -4 -1 5419.46 281.17
-1 -4 -1 5506.25 281.87
1 4 1 5509.05 281.27
1 4 1 5367.06 281.17
1 4 1 5254.17 281.07
-2 -4 -1 2144.59 111.59
-2 -4 -1 2245.18 111.69
-2 -4 -1 2175.78 111.89
-2 -4 -1 2155.98 111.49
-2 -4 -1 2183.48 111.49
2 4 1 2199.98 112.09
2 4 1 2246.08 111.59
2 4 1 2157.18 111.49
2 4 1 2154.98 111.79
2 4 1 2154.48 111.49
-3 -4 -1 85.49 6.2
-3 -4 -1 82.89 6.5
-3 -4 -1 88.49 6.9
-3 -4 -1 96.49 7.7
3 4 1 79.19 8.1
3 4 1 82.39 5.9
3 4 1 85.59 6.4
-4 -4 -1 553.84 29.9
-4 -4 -1 576.34 31.2
-4 -4 -1 604.54 30.2
-4 -4 -1 547.55 32.1
-4 -4 -1 573.94 30.8
4 4 1 579.04 31.8
-5 -4 -1 368.96 22
-5 -4 -1 413.96 22.5
5 4 1 368.96 23.7
-6 -4 -1 62.59 9.9
6 4 1 74.49 11.8
6 -5 -1 120.39 9.8
6 -5 -1 147.39 9.6
-6 5 1 120.79 9.5
-6 5 1 117.49 11.6
-6 5 1 126.79 11.1
5 -5 -1 103.99 8.7
5 -5 -1 96.29 7.7
-5 5 1 106.39 9.4
-5 5 1 100.29 8
-5 5 1 94.79 8.6
4 -5 -1 347.67 19.7
4 -5 -1 372.26 19.6
4 -5 -1 350.26 20
4 -5 -1 344.07 18.8
-4 5 1 351.76 20
-4 5 1 342.67 19.5
3 -5 -1 219.48 12.3
3 -5 -1 216.78 13.4
3 -5 -1 195.08 12.9
-3 5 1 222.78 13.6
-3 5 1 217.38 13.2
2 -5 -1 550.04 29.5
2 -5 -1 562.84 29.3
2 -5 -1 523.55 29.3
2 -5 -1 535.65 28.5
-2 5 1 566.44 29.6
-2 5 1 555.24 29.2
-2 5 1 549.05 29.5
1 -5 -1 151.28 9.8
1 -5 -1 150.88 9.7
1 -5 -1 157.08 10.2
-1 5 1 153.38 10.3
-1 5 1 149.69 9.6
0 -5 -1 1448.06 77.69
0 -5 -1 1535.55 76.99
0 -5 -1 1440.96 77.69
0 5 1 1609.94 79.19
-1 -5 -1 886.91 47
-1 -5 -1 899.61 47
-1 -5 -1 886.81 46.8
-1 -5 -1 939.91 46.3
1 5 1 857.71 46.7
1 5 1 916.61 46.9
-2 -5 -1 70.09 6.9
-2 -5 -1 65.99 5.6
-2 -5 -1 70.29 5.4
-2 -5 -1 71.09 6.2
2 5 1 64.39 6.8
2 5 1 71.59 6.3
2 5 1 64.69 5.9
2 5 1 67.79 7.3
-3 -5 -1 1329.17 68.69
-3 -5 -1 1255.17 67.99
-3 -5 -1 1363.56 68.19
-3 -5 -1 1257.37 67.99
-3 -5 -1 1316.67 67.99
3 5 1 1315.67 68.99
3 5 1 1357.16 68.09
3 5 1 1397.16 69.59
3 5 1 1274.07 67.79
-4 -5 -1 3.8 2.7
-4 -5 -1 3.6 2.7
-4 -5 -1 8.6 3.4
-4 -5 -1 3.8 3.3
-4 -5 -1 14.7 3.7
-4 -5 -1 9.6 4.9
4 5 1 3.8 2.6
4 5 1 4.1 2.4
4 5 1 9.6 5.6
-5 -5 -1 551.34 29.4
-5 -5 -1 568.94 33.6
5 5 1 540.05 31.9
-6 -5 -1 59.69 8.3
6 5 1 61.89 9.8
6 -6 -1 373.16 22.3
6 -6 -1 381.36 21.2
-6 6 1 389.96 22.9
-6 6 1 381.76 22.3
5 -6 -1 95.39 9.6
5 -6 -1 105.09 7.6
-5 6 1 98.09 9.4
-5 6 1 89.39 8.6
-5 6 1 95.29 8.4
-5 6 1 108.39 10.3
4 -6 -1 299.07 17.6
-4 6 1 274.77 17.3
-4 6 1 283.47 16.6
-4 6 1 288.17 18
3 -6 -1 37.3 5.6
3 -6 -1 36.4 5
-3 6 1 38.6 4.8
-3 6 1 39.6 5.7
-3 6 1 33.2 5.1
2 -6 -1 62.19 8.6
2 -6 -1 78.49 7.7
2 -6 -1 77.79 8.5
-2 6 1 75.59 7.7
-2 6 1 77.59 7.1
-2 6 1 68.79 8.4
1 -6 -1 874.41 47
1 -6 -1 885.11 47
1 -6 -1 904.71 47.3
-1 6 1 884.21 47
-1 6 1 937.31 47.4
-1 6 1 883.41 47
0 -6 -1 7.1 4
0 -6 -1 15 3.4
0 -6 -1 16.3 2.3
0 -6 -1 18.6 4
0 6 1 21.3 4.1
0 6 1 18.8 3.7
0 6 1 22.3 4.1
-1 -6 -1 1054.49 56.59
-1 -6 -1 1066.59 56.49
-1 -6 -1 1083.09 56.79
-1 -6 -1 1111.49 56.79
1 6 1 1047.5 56.49
1 6 1 1109.59 56.69
1 6 1 1121.09 56.79
-2 -6 -1 1.3 3.9
-2 -6 -1 3.2 3.1
-2 -6 -1 4.8 2.2
-2 -6 -1 9.1 2.8
-2 -6 -1 11.7 4.5
2 6 1 10.3 4.6
2 6 1 -0.9 3.6
2 6 1 4.9 3.6
-3 -6 -1 964.2 50.49
-3 -6 -1 974.6 50.59
-3 -6 -1 966.7 50.79
-3 -6 -1 999.9 51.09
-3 -6 -1 1022.4 51.79
3 6 1 1011.3 50.89
3 6 1 965.2 51.89
3 6 1 870.81 50.39
-4 -6 -1 123.09 9.4
-4 -6 -1 127.29 13.5
-4 -6 -1 131.59 9.2
4 6 1 138.69 13.4
4 6 1 126.69 9.3
-5 -6 -1 87.29 8.9
-5 -6 -1 89.59 7.7
-5 -6 -1 99.19 11.5
5 6 1 104.49 12.7
5 -7 -1 4.2 5.1
-5 7 1 10 4.9
-5 7 1 9.6 4.3
-5 7 1 9.2 5.8
-4 7 1 59.79 7.2
-4 7 1 63.29 11
3 -7 -1 391.36 23.2
3 -7 -1 414.06 23.3
-3 7 1 424.16 25.2
-3 7 1 372.06 22.4
-3 7 1 391.26 23
2 -7 -1 14.8 4.9
2 -7 -1 20 5.1
-2 7 1 21.9 4.5
-2 7 1 24.4 4.5
-2 7 1 23.7 5.1
1 -7 -1 615.04 33.5
1 -7 -1 627.04 33.1
1 -7 -1 592.84 33
-1 7 1 650.83 33.6
-1 7 1 554.44 32.7
0 -7 -1 111.79 9.4
0 -7 -1 99.89 8.9
0 -7 -1 110.89 9.4
0 -7 -1 93.49 6.5
0 -7 -1 103.89 9.9
0 7 1 77.89 8
0 7 1 105.49 10
0 7 1 98.79 8.4
-1 -7 -1 515.75 28.6
-1 -7 -1 513.85 28.8
-1 -7 -1 491.75 27.4
-1 -7 -1 525.65 28.9
1 7 1 552.34 29
-2 -7 -1 421.96 23.6
-2 -7 -1 384.46 22.7
-2 -7 -1 394.16 21.9
2 7 1 415.76 23.2
-3 -7 -1 1.6 3.6
-3 -7 -1 1.9 7.5
-3 -7 -1 0 3.2
-3 -7 -1 6.5 5.3
-3 -7 -1 1.8 2.7
3 7 1 2.9 4.1
-4 -7 -1 259.87 16.3
-4 -7 -1 296.47 17.6
-4 -7 -1 317.27 19.2
-4 -7 -1 266.37 16.7
4 7 1 281.57 16.7
4 7 1 271.57 20.1
4 -8 -1 10.5 5.8
-4 8 1 14.8 6.3
3 -8 -1 257.97 17.5
2 -8 -1 17.9 5.8
2 -8 -1 13 5.2
-2 8 1 11.2 5.8
1 -8 -1 74.19 12
1 -8 -1 83.79 10.5
-1 8 1 67.19 10.6
0 -8 -1 779.12 44.9
0 -8 -1 827.32 44.8
0 8 1 827.62 44.1
-1 -8 -1 7.2 4.1
-1 -8 -1 4.5 5.6
-1 -8 -1 4.9 5.4
1 8 1 10.9 6
1 8 1 -0.1 4.8
1 8 1 0.7 4.8
-2 -8 -1 603.54 33.8
-2 -8 -1 679.33 35.8
-2 -8 -1 623.44 34.9
2 8 1 654.63 35.3
2 8 1 637.84 38.5
-3 -8 -1 103.99 11.8
-3 -8 -1 75.09 9.1
-3 -8 -1 75.79 10.8
3 8 1 73.99 9.8
3 8 1 89.19 12.1
3 -9 -1 13.7 6.4
3 -9 -1 29.9 7.4
-3 9 1 35.2 7.6
2 -9 -1 250.77 17.7
1 -9 -1 8.6 6.8
1 -9 -1 3.9 5.9
-1 9 1 -1.1 6
0 -9 -1 233.88 16.1
0 -9 -1 206.78 16.5
0 9 1 212.48 19.8
-1 -9 -1 4.3 6.2
-1 -9 -1 2 3
-1 -9 -1 -1.3 5.5
1 9 1 5 6
1 9 1 -1.5 5.3
-2 -9 -1 2.4 6
-2 -9 -1 8.3 7
-2 -9 -1 2.4 3.5
2 9 1 3.4 6.9
2 9 1 7.5 5.4
2 9 -2 191.88 14.9
-2 -9 2 207.88 15.7
-2 -9 2 194.98 15.8
1 9 -2 162.28 13
1 9 -2 169.28 14.1
-1 -9 2 170.58 14
-1 -9 2 173.08 14.4
-1 -9 2 155.48 10.9
0 9 -2 21.6 5.5
0 9 -2 9.5 6.9
0 -9 2 27.1 6.8
0 -9 2 10.8 5.9
-1 9 -2 470.35 26.5
-1 9 -2 488.75 28.1
-1 9 -2 471.75 26.5
1 -9 2 474.85 28.2
1 -9 2 479.35 27.9
2 -9 2 35.6 7.5
2 -9 2 37 7.2
3 8 -2 4.1 6.3
3 8 -2 10 4.8
-3 -8 2 5.8 5.4
-3 -8 2 5.9 6.3
2 8 -2 76.49 9.9
2 8 -2 69.39 9.7
2 8 -2 67.79 9.5
-2 -8 2 64.69 9.9
-2 -8 2 71.69 10.1
-2 -8 2 70.59 7.1
-2 -8 2 53.69 8.8
1 8 -2 202.18 14.6
1 8 -2 202.18 14
-1 -8 2 225.48 14.8
-1 -8 2 207.58 14.9
-1 -8 2 200.48 14.3
-1 -8 2 207.08 12.7
0 8 -2 28 5
0 8 -2 34.8 6.1
0 -8 2 40.4 6.6
0 -8 2 38.7 6.2
-1 8 -2 99.79 11
1 -8 2 95.49 15.5
1 -8 2 107.09 10.8
-2 8 -2 175.78 14.1
2 -8 2 180.78 14.1
2 -8 2 179.58 13.7
3 -8 2 6.4 5.2
3 -8 2 14.5 6.7
-4 8 -2 511.05 28.3
-4 8 -2 446.96 26
4 -8 2 474.85 27.8
4 -8 2 496.35 26
4 7 -2 65.79 10.8
4 7 -2 58.99 7.4
-4 -7 2 75.49 10.5
-4 -7 2 62.59 7.9
-4 -7 2 63.89 9
3 7 -2 617.14 33.4
3 7 -2 605.54 34.3
-3 -7 2 588.14 33.6
-3 -7 2 636.74 35.4
-3 -7 2 651.63 35.7
2 7 -2 287.87 17.5
2 7 -2 299.77 17.2
-2 -7 2 273.37 17.4
-2 -7 2 259.87 16.2
-2 -7 2 299.47 17.3
1 7 -2 216.08 14.5
1 7 -2 230.78 14.2
-1 -7 2 213.38 14.3
-1 -7 2 230.38 14.3
-1 -7 2 219.08 13
-1 -7 2 219.78 14.6
0 7 -2 477.55 25.1
0 7 -2 457.95 25.7
0 -7 2 439.06 25.8
-1 7 -2 18.2 4.2
-1 7 -2 21 4.6
-1 7 -2 16.1 4.7
1 -7 2 16.2 4.8
1 -7 2 18.7 5
1 -7 2 12.4 3.9
-2 7 -2 709.83 39.3
-2 7 -2 694.93 40.5
-2 7 -2 760.12 39.4
2 -7 2 720.63 39.2
2 -7 2 755.02 39.4
-3 7 -2 558.24 32
-3 7 -2 601.74 33.7
3 -7 2 585.04 32
3 -7 2 574.94 32.4
-4 7 -2 119.09 8.7
-4 7 -2 122.79 10.7
4 -7 2 121.39 9
-5 7 -2 161.68 13.2
-5 7 -2 137.89 10.2
-5 7 -2 170.78 12.6
5 -7 2 141.79 12.3
5 -7 2 152.28 10.8
5 6 -2 340.27 22.6
-5 -6 2 389.76 21.7
-5 -6 2 330.17 19.4
-5 -6 2 370.86 20
-5 -6 2 335.37 20
4 6 -2 360.56 20.2
4 6 -2 358.16 20.1
-4 -6 2 369.56 20.9
-4 -6 2 372.96 20.7
-4 -6 2 386.26 22
3 6 -2 46.4 8.3
3 6 -2 53.19 6.3
3 6 -2 49.6 6.5
-3 -6 2 60.19 8.1
-3 -6 2 54.79 6.5
-3 -6 2 41.8 6.3
-3 -6 2 54.99 7.2
2 6 -2 696.33 35.7
2 6 -2 658.03 36.2
2 6 -2 658.53 37.7
2 6 -2 650.63 35.9
-2 -6 2 680.83 35.8
-2 -6 2 647.14 35.3
-2 -6 2 663.23 36
-2 -6 2 708.83 35.9
1 6 -2 9.5 3.8
1 6 -2 6.5 3
1 6 -2 4.6 3.4
-1 -6 2 6.4 3.1
-1 -6 2 5.5 3.8
0 6 -2 563.64 29.6
0 6 -2 543.35 29.6
0 6 -2 538.05 29.6
0 -6 2 558.54 29.6
0 -6 2 531.85 29.7
0 -6 2 550.24 29.7
-1 6 -2 232.08 14.2
-1 6 -2 232.48 14.4
-1 6 -2 240.58 14.4
1 -6 2 230.78 14.4
1 -6 2 238.28 14.4
-2 6 -2 4.3 3.3
-2 6 -2 -0.2 3.7
2 -6 2 3.1 3.8
2 -6 2 5.8 4.2
2 -6 2 0 3.4
2 -6 2 6 4.2
-3 6 -2 218.28 14.2
-3 6 -2 221.08 13.7
-3 6 -2 215.38 14.1
3 -6 2 217.08 14.1
-4 6 -2 65.79 6.4
-4 6 -2 72.49 8.2
-4 6 -2 66.49 10.7
-4 6 -2 64.89 7.8
4 -6 2 68.89 7
4 -6 2 73.79 8.3
-5 6 -2 174.78 12.5
-5 6 -2 175.28 12.9
-5 6 -2 142.99 13.2
5 -6 2 164.48 11.3
5 -6 2 177.18 12.3
6 5 -2 469.75 28.6
5 5 -2 23.3 6.5
-5 -5 2 13.5 4.1
-5 -5 2 31.5 5.9
-5 -5 2 15.9 2.9
4 5 -2 1017.2 55.09
4 5 -2 1023.4 56.19
4 5 -2 1086.79 56.79
-4 -5 2 1080.79 55.49
-4 -5 2 1104.29 56.29
-4 -5 2 1133.39 55.59
-4 -5 2 1051.89 55.59
3 5 -2 36.6 5
3 5 -2 48.6 7.2
3 5 -2 45.3 6.1
3 5 -2 42.7 5.2
-3 -5 2 36 5.8
-3 -5 2 33.8 4.7
-3 -5 2 44.2 6.6
-3 -5 2 42.3 5.5
-3 -5 2 31 4.1
2 5 -2 828.72 44.5
2 5 -2 855.31 44.2
-2 -5 2 862.11 44.4
-2 -5 2 849.61 44.4
-2 -5 2 845.92 44.6
1 5 -2 932.21 47.1
1 5 -2 894.91 47.1
1 5 -2 873.31 47.2
1 5 -2 907.81 47
-1 -5 2 907.91 47.2
0 5 -2 11.4 4.6
0 5 -2 27.8 3.7
0 5 -2 19.6 3.1
0 -5 2 17.9 3.6
0 -5 2 15.5 3.2
-1 5 -2 1841.62 93.09
-1 5 -2 1793.72 93.09
1 -5 2 1828.72 93.09
1 -5 2 1776.52 92.99
1 -5 2 1800.62 93.09
-2 5 -2 214.68 12.8
-2 5 -2 216.88 13
-2 5 -2 217.18 13.2
2 -5 2 195.78 13
2 -5 2 224.38 13.2
2 -5 2 214.28 12.9
-3 5 -2 2197.18 112.69
-3 5 -2 2216.08 113.39
-3 5 -2 2170.68 113.29
-3 5 -2 2260.47 113.29
3 -5 2 2242.28 113.29
3 -5 2 2136.89 113.29
-4 5 -2 906.71 47.8
-4 5 -2 907.11 48.4
-4 5 -2 914.81 48.5
-4 5 -2 962.4 48.4
-4 5 -2 889.01 47.8
4 -5 2 918.81 47.8
4 -5 2 927.61 48.5
-5 5 -2 31.1 5.4
-5 5 -2 31.4 4.9
-5 5 -2 40.9 6.9
-5 5 -2 34.6 5.7
-5 5 -2 32.9 5.1
5 -5 2 28.6 4.6
5 -5 2 34.5 4.7
-6 5 -2 101.79 9.7
-6 5 -2 111.49 9.4
-6 5 -2 101.49 12.5
6 -5 2 102.39 9.5
6 -5 2 91.09 9.3
6 4 -2 233.38 17.2
5 4 -2 429.86 24.7
-5 -4 2 410.36 23.3
4 4 -2 1384.56 73.69
-4 -4 2 1359.56 74.29
-4 -4 2 1475.35 72.49
-4 -4 2 1464.75 73.29
-4 -4 2 1419.66 72.49
-4 -4 2 1368.96 72.89
3 4 -2 1225.48 63.99
3 4 -2 1233.78 64.29
3 4 -2 1235.68 63.49
-3 -4 2 1132.39 63.59
-3 -4 2 1312.77 63.69
-3 -4 2 1283.87 63.89
-3 -4 2 1228.08 63.59
2 4 -2 98.59 6.9
2 4 -2 93.79 6.4
2 4 -2 93.99 6.6
-2 -4 2 99.49 6.6
-2 -4 2 89.39 5.8
-2 -4 2 96.19 7.1
-2 -4 2 90.99 6.8
1 4 -2 3387.26 169.98
1 4 -2 3255.87 170.08
1 4 -2 3527.25 169.98
1 4 -2 3348.36 169.98
-1 -4 2 3139.99 169.98
0 4 -2 330.87 17.8
0 4 -2 333.27 17.8
0 4 -2 321.87 17.9
0 -4 2 328.67 17.8
0 -4 2 321.67 17.9
0 -4 2 329.87 17.9
-1 4 -2 1775.62 94.39
-1 4 -2 1769.12 94.49
1 -4 2 1816.02 94.39
1 -4 2 1898.21 94.39
1 -4 2 1944.01 95.29
-2 4 -2 249.08 14
-2 4 -2 245.68 13.8
-2 4 -2 233.58 13
-2 4 -2 231.58 13.7
2 -4 2 250.07 14
2 -4 2 243.88 13.7
2 -4 2 230.88 13.8
-3 4 -2 229.38 13.9
-3 4 -2 235.48 13.8
-3 4 -2 246.28 13.2
-3 4 -2 228.68 13.9
-3 4 -2 235.58 13.4
3 -4 2 238.08 13.9
3 -4 2 240.08 13.9
-4 4 -2 23.1 3.8
-4 4 -2 20.4 3.5
-4 4 -2 24.6 4.1
-4 4 -2 26.6 3.6
4 -4 2 28.3 4
4 -4 2 23.1 3.5
4 -4 2 24.7 3.6
-5 4 -2 16.2 4.5
-5 4 -2 28.3 4.4
-5 4 -2 26.3 7.8
-5 4 -2 23.8 4
-5 4 -2 23.4 3.9
5 -4 2 29 4.5
5 -4 2 21.5 3.7
5 -4 2 24.6 3.6
-6 4 -2 40.5 8.4
-6 4 -2 45.9 6.9
6 -4 2 46.4 5.7
6 -4 2 40.9 4.9
-7 -3 2 44.3 6.5
6 3 -2 92.29 11.4
-6 -3 2 93.19 9.2
5 3 -2 1245.48 65.39
-5 -3 2 1295.57 64.59
-5 -3 2 1184.48 64.59
4 3 -2 408.86 23.2
4 3 -2 429.46 22.7
-4 -3 2 395.06 22.4
-4 -3 2 418.56 22.4
-4 -3 2 413.56 22.5
-4 -3 2 409.06 22.9
3 3 -2 681.63 35.1
3 3 -2 654.63 34.5
3 3 -2 695.93 35.2
3 3 -2 675.03 35.6
-3 -3 2 686.33 34.7
-3 -3 2 653.13 35.7
-3 -3 2 645.64 35.4
-3 -3 2 665.73 34.7
-3 -3 2 667.83 35.4
-3 -3 2 681.23 35.1
2 3 -2 3619.04 180.08
2 3 -2 3555.74 179.98
2 3 -2 3606.34 180.38
2 3 -2 3582.94 180.28
2 3 -2 3402.26 179.98
-2 -3 2 3530.55 180.48
-2 -3 2 3557.14 180.08
-2 -3 2 3463.35 180.28
-2 -3 2 3404.76 179.98
-2 -3 2 3629.54 180.08
1 3 -2 139.29 7.5
1 3 -2 136.39 8.1
1 3 -2 132.99 8.1
1 3 -2 139.29 8
-1 -3 2 137.49 8.1
-1 -3 2 145.99 8.2
0 3 -2 4160.78 212.38
0 3 -2 4158.58 212.48
0 -3 2 4241.98 212.48
0 -3 2 4122.09 212.38
-1 3 -2 68.49 4.9
-1 3 -2 61.69 4.8
-1 3 -2 68.39 3.9
-1 3 -2 58.59 4.7
1 -3 2 62.19 4.9
1 -3 2 64.99 4.7
-2 3 -2 2086.59 107.59
-2 3 -2 2135.39 107.79
-2 3 -2 2104.69 107.99
-2 3 -2 2109.69 107.89
2 -3 2 2129.19 107.79
2 -3 2 2081.39 107.89
-3 3 -2 1567.14 83.39
-3 3 -2 1590.04 82.49
-3 3 -2 1602.04 82.29
-3 3 -2 1651.13 82.89
-3 3 -2 1655.93 82.49
3 -3 2 1625.14 82.29
3 -3 2 1604.44 82.39
3 -3 2 1553.94 82.49
-4 3 -2 2560.64 137.19
-4 3 -2 2797.52 137.09
-4 3 -2 2656.53 137.59
-4 3 -2 2732.83 137.39
4 -3 2 2662.63 136.99
4 -3 2 2734.33 136.99
4 -3 2 2616.64 136.99
-5 3 -2 1041.8 53.79
-5 3 -2 1026.2 54.59
-5 3 -2 996.4 53.99
-5 3 -2 1029.6 54.59
-5 3 -2 1055.69 53.69
5 -3 2 997.1 53.59
5 -3 2 1084.39 53.69
5 -3 2 1048.9 53.99
-6 3 -2 3.9 3.8
-6 3 -2 2.6 3.1
-6 3 -2 3.2 4.4
-6 3 -2 3 3.3
6 -3 2 1.6 4.3
7 -3 2 365.56 21.9
-7 -2 2 446.76 25.3
-6 -2 2 13.1 4.3
5 2 -2 471.25 27
-5 -2 2 492.55 26
4 2 -2 214.78 12.9
4 2 -2 218.38 13.3
-4 -2 2 216.58 13
-4 -2 2 201.98 12.5
-4 -2 2 212.68 12.4
-4 -2 2 210.78 12.4
3 2 -2 419.46 21.3
3 2 -2 382.86 21.7
-3 -2 2 404.26 21.1
-3 -2 2 374.56 21.4
-3 -2 2 400.66 21.1
2 2 -2 2829.42 143.19
2 2 -2 2831.92 143.39
2 2 -2 2800.82 142.89
2 2 -2 2781.12 143.19
-2 -2 2 2830.72 143.39
-2 -2 2 2812.82 143.19
-2 -2 2 2836.82 142.99
-2 -2 2 2875.91 142.99
-2 -2 2 2676.03 143.09
1 2 -2 50.69 3.3
1 2 -2 54.39 3.5
1 2 -2 48.4 3.6
1 2 -2 47.6 3.4
-1 -2 2 50.79 3.5
-1 -2 2 54.69 3.6
-1 -2 2 47.2 3.5
0 2 -2 6610.84 338.07
0 2 -2 6707.03 338.07
0 2 -2 6749.52 338.07
0 2 -2 6784.12 337.87
0 -2 2 6640.54 338.07
0 -2 2 6405.86 338.07
-1 2 -2 2759.92 136.79
-1 2 -2 2676.63 136.89
-1 2 -2 2687.73 136.89
1 -2 2 2635.44 136.89
1 -2 2 2665.03 136.89
-2 2 -2 486.35 25
-2 2 -2 490.95 25
-2 2 -2 504.35 24.8
-2 2 -2 480.55 24.9
-2 2 -2 466.65 25.4
2 -2 2 438.96 24.9
-3 2 -2 2554.24 129.19
-3 2 -2 2535.25 129.29
-3 2 -2 2427.46 131.49
-3 2 -2 2645.54 130.59
-3 2 -2 2462.95 129.29
3 -2 2 2528.15 129.99
3 -2 2 2560.84 129.19
3 -2 2 2543.85 129.29
-4 2 -2 443.36 24
-4 2 -2 461.95 23.8
-4 2 -2 443.96 24.4
-4 2 -2 456.55 23.7
4 -2 2 442.16 23.7
4 -2 2 462.25 23.7
4 -2 2 426.76 24
-5 2 -2 467.15 25.4
-5 2 -2 467.15 24.8
-5 2 -2 469.25 24.7
-5 2 -2 454.15 26.8
5 -2 2 470.85 25.4
-6 2 -2 346.67 21.7
-6 2 -2 359.86 20.5
-6 2 -2 355.36 19.9
6 -2 2 367.26 20.8
7 -2 2 3.9 5.2
-7 -1 2 295.67 17.7
-6 -1 2 155.08 10.6
5 1 -2 4.2 3.8
-5 -1 2 1.2 5.4
-5 -1 2 2.5 3.2
-5 -1 2 3.5 3.1
4 1 -2 1676.73 84.79
4 1 -2 1675.33 84.49
-4 -1 2 1616.84 84.19
-4 -1 2 1584.14 84.39
-4 -1 2 1645.74 83.99
3 1 -2 4473.85 226.08
3 1 -2 4358.46 225.88
-3 -1 2 4505.55 226.58
-3 -1 2 4388.36 226.48
-3 -1 2 4553.04 225.68
-3 -1 2 4322.37 226.28
2 1 -2 3947.21 199.58
2 1 -2 3920.01 199.88
-2 -1 2 3880.21 199.58
-2 -1 2 3947.9 199.88
0 1 -2 125.89 7
0 1 -2 122.59 7
0 1 -2 136.49 7.1
0 -1 2 140.79 7.1
0 -1 2 132.09 7
-1 1 -2 5620.34 275.17
1 -1 2 5208.18 275.17
-2 1 -2 827.02 43
-2 1 -2 856.41 43.2
-2 1 -2 814.42 42.9
-2 1 -2 861.01 43.1
2 -1 2 839.82 43.1
2 -1 2 869.21 43.1
2 -1 2 831.62 43
2 -1 2 806.92 43
-3 1 -2 2322.47 116.19
-3 1 -2 2180.78 115.69
-3 1 -2 2291.17 115.59
3 -1 2 2348.36 115.99
3 -1 2 2187.58 115.49
3 -1 2 2253.37 115.79
3 -1 2 2275.97 115.59
-4 1 -2 2768.22 141.39
-4 1 -2 2796.52 141.49
-4 1 -2 2798.82 142.09
-4 1 -2 2746.03 141.79
4 -1 2 2756.22 141.79
-5 1 -2 1842.02 93.49
5 -1 2 1785.12 93.39
-6 1 -2 289.87 17.6
6 -1 2 304.17 17.9
7 -1 2 7.7 5.2
-7 0 2 36.8 5.2
6 0 -2 403.46 23.4
-6 0 2 394.96 21.9
5 0 -2 121.09 9.6
5 0 -2 114.19 8.9
-5 0 2 114.59 9.4
-5 0 2 119.79 9.4
-5 0 2 119.39 8.4
-5 0 2 127.99 8.1
4 0 -2 564.74 30.3
4 0 -2 572.74 29.9
-4 0 2 560.24 29.9
-4 0 2 569.34 30.2
-4 0 2 589.54 29.7
-4 0 2 557.54 30.4
3 0 -2 736.83 38.3
3 0 -2 735.63 38
-3 0 2 703.33 38.5
-3 0 2 725.53 37.8
-3 0 2 749.13 38
-3 0 2 759.02 38.4
2 0 -2 457.75 23.9
-2 0 2 444.66 23.8
-2 0 2 475.65 23.7
-2 0 2 452.95 23.5
-2 0 2 455.45 24
1 0 -2 567.04 27.3
1 0 -2 535.05 27.3
-1 0 2 512.55 27.3
-1 0 2 516.65 27.4
0 0 -2 57.69 3.8
0 0 2 61.89 4.1
-1 0 -2 1127.29 58.99
-1 0 -2 1182.48 58.99
1 0 2 1014.3 59.09
1 0 2 1288.17 58.89
-2 0 -2 5447.26 257.47
-2 0 -2 4977.7 257.47
2 0 2 4828.32 257.17
2 0 2 5022.6 257.47
2 0 2 5029.9 257.57
-3 0 -2 37.9 3.5
-3 0 -2 31.2 4.1
-3 0 -2 32.9 3.3
-3 0 -2 27.6 4
3 0 2 30.6 4.2
3 0 2 35.8 4
-4 0 -2 3274.77 160.08
-4 0 -2 2961 159.78
4 0 2 3185.78 159.78
4 0 2 3086.59 160.08
-5 0 -2 83.59 7.7
5 0 2 76.19 8.5
6 0 2 191.48 13.2
-7 0 -2 317.47 21
7 0 2 311.27 19.7
-7 1 2 118.89 9.5
-7 1 2 114.19 9.5
6 -1 -2 462.05 25.2
6 -1 -2 456.65 24.4
-6 1 2 434.46 23.8
-6 1 2 401.06 23.9
5 -1 -2 1192.58 61.29
5 -1 -2 1192.28 60.79
-5 1 2 1163.18 61.29
-5 1 2 1166.58 60.69
-5 1 2 1153.28 61.39
4 -1 -2 47.2 4.9
4 -1 -2 42 5.4
-4 1 2 41.9 5.5
-4 1 2 38.9 3.7
-4 1 2 42.9 4.7
3 -1 -2 1124.49 59.39
3 -1 -2 1213.58 59.69
3 -1 -2 1162.38 59.99
-3 1 2 1177.78 59.69
-3 1 2 1175.68 60.19
-3 1 2 1151.68 59.49
-3 1 2 1143.39 60.29
2 -1 -2 1921.21 98.19
2 -1 -2 1925.41 98.19
2 -1 -2 1916.91 98.49
2 -1 -2 1954 98.29
-2 1 2 1812.12 98.19
-2 1 2 1926.01 98.39
-2 1 2 1974.1 98.29
-2 1 2 1938.51 98.29
-2 1 2 1988.6 98.19
1 -1 -2 5013.7 254.47
1 -1 -2 5057.89 254.47
-1 1 2 5087.29 254.27
-1 1 2 4866.31 254.47
0 -1 -2 2486.45 128.89
0 -1 -2 2462.75 128.89
0 -1 -2 2591.34 128.89
0 1 2 2510.75 128.89
0 1 2 2584.04 128.89
0 1 2 2563.24 128.89
-1 -1 -2 330.37 16
-1 -1 -2 303.77 16
1 1 2 315.57 16
1 1 2 290.17 16
1 1 2 302.27 16
-2 -1 -2 1638.84 89.19
-2 -1 -2 1834.12 89.19
2 1 2 1704.73 89.29
2 1 2 1819.82 89.59
-3 -1 -2 1204.48 62.79
-3 -1 -2 1220.58 62.59
-3 -1 -2 1228.28 62.19
-3 -1 -2 1235.48 63.19
3 1 2 1201.48 62.99
-4 -1 -2 341.17 18.1
-4 -1 -2 295.97 18
-4 -1 -2 328.07 17.6
4 1 2 316.77 17.9
-5 -1 -2 1569.94 87.19
-5 -1 -2 1738.13 87.29
-5 -1 -2 1751.02 87.49
5 1 2 1673.73 87.59
5 1 2 1686.03 86.99
-6 -1 -2 65.49 9.1
6 1 2 63.29 9.9
6 1 2 54.39 7.3
7 1 2 166.68 13.7
7 -2 -2 389.96 21.7
-7 2 2 349.37 20.5
6 -2 -2 97.89 10
6 -2 -2 89.69 8.4
-6 2 2 94.19 10.3
-6 2 2 93.59 7.4
5 -2 -2 491.35 26.3
-5 2 2 475.85 27.1
-5 2 2 527.55 26
-5 2 2 485.25 25.7
-5 2 2 465.25 26.9
-5 2 2 499.55 26.2
4 -2 -2 120.49 7.6
4 -2 -2 122.29 7.4
4 -2 -2 120.19 8.7
4 -2 -2 127.69 8
-4 2 2 137.39 7.8
-4 2 2 124.49 8.4
-4 2 2 128.09 7.7
-4 2 2 125.99 7.7
3 -2 -2 79.59 5.2
3 -2 -2 80.49 5.2
3 -2 -2 76.59 5.4
3 -2 -2 83.69 5.9
-3 2 2 78.39 6.2
-3 2 2 81.99 5.6
-3 2 2 82.79 5.1
-3 2 2 80.49 5.2
-3 2 2 81.29 5.4
2 -2 -2 2444.06 126.99
2 -2 -2 2471.05 126.99
2 -2 -2 2501.35 126.99
2 -2 -2 2527.25 126.99
2 -2 -2 2443.56 126.69
-2 2 2 2478.75 126.99
-2 2 2 2568.14 127.09
1 -2 -2 2.9 1.2
1 -2 -2 4.5 1.2
1 -2 -2 2.8 1.2
-1 2 2 2.4 1.2
-1 2 2 1.7 1
-1 2 2 1.4 1.3
0 -2 -2 352.06 18.2
0 -2 -2 390.96 17.8
0 -2 -2 316.97 18.1
0 2 2 337.57 18.1
0 2 2 350.66 18.1
0 2 2 343.27 18.2
0 2 2 339.47 17.8
-1 -2 -2 2548.05 128.79
-1 -2 -2 2622.84 128.69
-1 -2 -2 2458.45 128.99
-1 -2 -2 2554.64 128.79
1 2 2 2458.95 128.69
1 2 2 2534.15 128.79
1 2 2 2548.15 128.89
1 2 2 2501.45 128.89
-2 -2 -2 11.8 1.8
-2 -2 -2 9 1.6
-2 -2 -2 9.3 2.2
2 2 2 14 2.3
2 2 2 9.2 1.8
-3 -2 -2 2347.77 117.79
-3 -2 -2 2322.87 118.19
-3 -2 -2 2309.77 117.49
-3 -2 -2 2340.17 118.09
-3 -2 -2 2196.68 117.59
3 2 2 2357.56 118.39
3 2 2 2262.77 117.89
-4 -2 -2 185.38 11.5
-4 -2 -2 184.28 11.1
-4 -2 -2 184.88 11.8
4 2 2 170.78 12.1
-5 -2 -2 496.25 27.7
-5 -2 -2 498.85 27.7
5 2 2 496.65 27.4
5 2 2 509.65 28.4
-6 -2 -2 17.7 5.9
6 2 2 11.9 5.2
6 2 2 10.4 7.4
-7 -2 -2 27.2 6.7
7 2 2 29.7 8.4
7 2 2 19.4 6.3
7 -3 -2 166.08 13.7
-7 3 2 150.08 10.5
6 -3 -2 528.95 30
-6 3 2 529.85 28.4
-6 3 2 531.15 28.6
-6 3 2 553.44 28.6
5 -3 -2 570.94 30.2
5 -3 -2 543.15 30.1
5 -3 -2 579.04 30.4
-5 3 2 570.74 31.8
-5 3 2 602.14 30.6
-5 3 2 592.74 30.4
-5 3 2 561.64 31.2
-5 3 2 578.34 30.4
4 -3 -2 921.21 48.1
4 -3 -2 937.31 48
4 -3 -2 901.41 48.1
4 -3 -2 952.2 48.5
-4 3 2 933.41 48.4
-4 3 2 960.9 48.4
-4 3 2 938.01 48.3
-4 3 2 897.91 48
3 -3 -2 315.57 16.8
3 -3 -2 313.87 17.4
3 -3 -2 323.07 17.2
3 -3 -2 303.47 17.3
-3 3 2 321.37 17.3
-3 3 2 339.27 17.5
-3 3 2 318.07 17
-3 3 2 321.47 17.3
2 -3 -2 10.9 2
2 -3 -2 16.7 2.4
2 -3 -2 14.6 3.3
-2 3 2 13.4 2.5
-2 3 2 14.3 2.3
-2 3 2 14.2 2.1
1 -3 -2 2049.2 102.39
1 -3 -2 1967.9 102.29
1 -3 -2 1978.7 102.19
-1 3 2 1965.6 102.29
-1 3 2 2047.2 102.39
0 -3 -2 7.5 1.9
0 3 2 6.1 1.6
0 3 2 3.7 1.8
0 3 2 6 1.7
-1 -3 -2 1591.94 80.99
-1 -3 -2 1567.04 80.89
-1 -3 -2 1588.24 81.09
-1 -3 -2 1596.14 80.69
1 3 2 1613.54 80.99
1 3 2 1533.55 80.99
1 3 2 1578.14 80.69
-2 -3 -2 652.73 34.2
-2 -3 -2 616.94 34.3
-2 -3 -2 674.73 34.2
-2 -3 -2 658.83 34.3
2 3 2 670.33 34.3
2 3 2 684.53 34.3
2 3 2 661.03 34.1
-3 -3 -2 271.57 15.6
-3 -3 -2 290.97 16.3
-3 -3 -2 269.47 14.6
-3 -3 -2 270.37 15.2
3 3 2 263.17 14.7
3 3 2 261.47 14.7
3 3 2 258.17 14.6
3 3 2 287.37 16
-4 -3 -2 1765.92 87.09
-4 -3 -2 1718.23 87.59
-4 -3 -2 1751.72 88.09
-4 -3 -2 1688.43 87.89
-4 -3 -2 1564.24 87.29
4 3 2 1720.13 88.49
4 3 2 1708.33 87.69
-5 -3 -2 5.6 4
-5 -3 -2 5.8 4.6
5 3 2 5.2 5.7
5 3 2 7.3 4.4
-6 -3 -2 1932.61 98.19
6 3 2 1789.02 96.49
7 -4 -2 0.9 5.3
-7 4 2 3.4 3.2
-7 4 2 -3.4 3.8
6 -4 -2 542.05 29.1
6 -4 -2 535.15 28.8
6 -4 -2 563.14 30.7
-6 4 2 511.85 28.8
-6 4 2 527.35 29.1
-6 4 2 571.04 29.4
5 -4 -2 591.54 31.8
5 -4 -2 583.64 31.2
5 -4 -2 596.54 31
5 -4 -2 569.44 31.5
-5 4 2 583.74 31
-5 4 2 594.64 31.3
-5 4 2 556.94 31.9
-5 4 2 618.04 31.6
4 -4 -2 149.09 9.9
4 -4 -2 154.78 8.9
4 -4 -2 140.09 9.6
4 -4 -2 144.59 9.3
-4 4 2 148.49 9.7
-4 4 2 149.19 9.2
-4 4 2 146.99 10.3
3 -4 -2 1416.76 70.79
3 -4 -2 1341.47 70.59
3 -4 -2 1334.67 70.79
3 -4 -2 1382.96 69.99
3 -4 -2 1335.17 70.49
-3 4 2 1432.36 70.89
-3 4 2 1360.76 70.59
-3 4 2 1364.16 70.69
2 -4 -2 43.3 5.3
2 -4 -2 44.1 4.6
2 -4 -2 40.7 4.5
-2 4 2 41.8 4.9
-2 4 2 39 4.3
1 -4 -2 9464.85 495.85
1 -4 -2 9693.83 495.45
1 -4 -2 9997.2 496.05
-1 4 2 9847.51 495.85
0 -4 -2 4 2.2
0 -4 -2 12.3 2.5
0 -4 -2 10.2 2.2
0 4 2 10.6 3.1
0 4 2 10 2.4
-1 -4 -2 672.33 34.6
-1 -4 -2 652.33 35.2
-1 -4 -2 640.54 35
-1 -4 -2 661.83 35.2
1 4 2 667.43 35.1
1 4 2 716.83 35
1 4 2 683.13 35.2
-2 -4 -2 1512.15 80.49
-2 -4 -2 1553.74 80.09
-2 -4 -2 1602.84 80.09
-2 -4 -2 1590.34 80.29
-2 -4 -2 1552.74 80.09
2 4 2 1492.65 79.99
2 4 2 1561.94 80.39
2 4 2 1557.84 80.19
2 4 2 1628.74 80.79
-3 -4 -2 33.2 4.5
-3 -4 -2 27.6 4.4
-3 -4 -2 22.3 3.5
-3 -4 -2 29.8 4.9
3 4 2 26.8 4.6
3 4 2 28.5 5.1
-4 -4 -2 1052.19 54.89
-4 -4 -2 996.8 53.79
-4 -4 -2 1064.69 53.99
-4 -4 -2 1035.4 54.59
4 4 2 1070.59 55.59
-5 -4 -2 299.17 17.6
-5 -4 -2 259.87 17.9
5 4 2 257.87 23.1
-6 -4 -2 74.69 10.6
6 -5 -2 95.79 7.9
6 -5 -2 81.29 8.2
-6 5 2 80.89 7.5
-6 5 2 89.29 9.4
-6 5 2 86.19 10.2
5 -5 -2 798.62 41.5
5 -5 -2 751.02 40.6
5 -5 -2 793.22 41.4
-5 5 2 748.73 41
-5 5 2 838.72 41.8
-5 5 2 761.72 41.4
-5 5 2 776.62 41.9
4 -5 -2 61.79 7
4 -5 -2 70.29 6.7
4 -5 -2 54.89 6.3
-4 5 2 62.29 7
-4 5 2 57.79 7.9
3 -5 -2 774.82 40.9
3 -5 -2 795.42 41.7
3 -5 -2 787.32 40.3
3 -5 -2 749.82 40.6
-3 5 2 749.42 40.4
-3 5 2 765.42 40.8
-3 5 2 790.22 41.1
2 -5 -2 2423.76 119.89
2 -5 -2 2388.86 119.99
2 -5 -2 2237.08 119.19
2 -5 -2 2259.37 119.79
-2 5 2 2411.66 120.09
-2 5 2 2300.27 119.69
1 -5 -2 464.65 25.6
-1 5 2 474.35 25.7
-1 5 2 500.35 26
-1 5 2 471.25 25.5
0 -5 -2 924.51 47.1
0 -5 -2 847.32 46.9
0 5 2 954.1 48
0 5 2 914.51 46.9
0 5 2 865.81 46.9
-1 -5 -2 267.37 15.7
-1 -5 -2 269.77 15.3
-1 -5 -2 243.68 14
-1 -5 -2 269.27 15.5
1 5 2 257.27 14.9
1 5 2 255.77 14.8
1 5 2 273.87 15.3
-2 -5 -2 788.82 41.8
-2 -5 -2 784.72 41.4
-2 -5 -2 787.42 41.4
-2 -5 -2 826.42 42.1
-2 -5 -2 780.02 42.2
2 5 2 763.62 41.6
2 5 2 805.32 41.9
2 5 2 854.91 42.7
2 5 2 800.42 42.1
-3 -5 -2 429.96 23
-3 -5 -2 415.46 22.7
-3 -5 -2 439.76 23.6
-3 -5 -2 401.96 22.5
-3 -5 -2 410.56 22.5
3 5 2 397.06 22.3
3 5 2 428.96 22.8
3 5 2 413.66 24
-4 -5 -2 157.88 11.2
-4 -5 -2 171.48 11
-4 -5 -2 165.68 10.3
-4 -5 -2 171.98 11
4 5 2 163.78 10.3
4 5 2 162.48 10.3
-5 -5 -2 483.85 27.6
-5 -5 -2 540.25 29.9
-5 -5 -2 533.25 28
5 5 2 526.65 30.5
-6 -5 -2 10.8 6.7
6 5 2 12.8 7.8
6 -6 -2 -1.7 3.4
6 -6 -2 -5.9 4.9
-6 6 2 -8.5 4.9
-6 6 2 5.5 3.9
5 -6 -2 349.87 20.5
-5 6 2 385.26 21.3
-5 6 2 342.17 20.4
-5 6 2 316.57 22.3
4 -6 -2 433.86 23.3
4 -6 -2 420.16 24.1
-4 6 2 413.56 23.4
-4 6 2 455.95 24.6
-4 6 2 406.36 24.1
3 -6 -2 60.29 5.8
3 -6 -2 63.89 8.4
-3 6 2 73.49 7.5
-3 6 2 68.79 6.7
-3 6 2 73.59 9
2 -6 -2 1748.53 89.69
2 -6 -2 1782.92 89.49
2 -6 -2 1697.43 91.29
-2 6 2 1765.52 89.69
-2 6 2 1764.02 89.69
-2 6 2 1678.33 89.19
-2 6 2 1680.53 89.39
1 -6 -2 150.28 10.9
1 -6 -2 171.58 11
1 -6 -2 153.08 11.5
-1 6 2 163.78 11
-1 6 2 185.98 10.9
-1 6 2 165.18 11.7
0 -6 -2 2626.64 140.79
0 -6 -2 2761.82 140.99
0 -6 -2 2815.22 141.19
0 6 2 2785.52 141.09
0 6 2 2752.62 140.89
-1 -6 -2 33 4.7
-1 -6 -2 33 3.9
-1 -6 -2 24.6 3.8
-1 -6 -2 30.6 4.8
1 6 2 28.2 4.4
1 6 2 23.2 3.7
1 6 2 23.9 4.5
1 6 2 23.2 3.7
-2 -6 -2 289.87 16.6
-2 -6 -2 292.27 17.5
-2 -6 -2 291.87 17.1
-2 -6 -2 270.37 15.7
-2 -6 -2 282.77 15.6
2 6 2 273.77 16.2
2 6 2 290.87 17
-3 -6 -2 552.34 29.7
-3 -6 -2 532.35 29
-3 -6 -2 540.15 29.2
-3 -6 -2 534.05 29
3 6 2 557.94 29.5
3 6 2 541.05 30.7
-4 -6 -2 41.6 6.4
-4 -6 -2 36.7 6.5
-4 -6 -2 39.3 5.2
-4 -6 -2 37.6 6.3
4 6 2 38.1 6.3
4 6 2 39 7.8
-5 -6 -2 263.17 18.9
-5 -6 -2 264.27 18.2
-5 -6 -2 232.88 14.9
5 6 2 274.47 18.9
5 -7 -2 -5.2 4.7
-5 7 2 -4.5 5.3
-5 7 2 2.1 4.2
-4 7 2 489.15 28.4
-4 7 2 533.85 29.2
-4 7 2 496.35 27.8
3 -7 -2 26 5.9
3 -7 -2 16.5 5.4
-3 7 2 9.8 4.1
-3 7 2 17.2 7.5
2 -7 -2 231.88 14.8
2 -7 -2 231.08 15.4
-2 7 2 220.28 14.2
-2 7 2 223.48 14.7
1 -7 -2 792.02 40.5
1 -7 -2 710.43 39.8
1 -7 -2 769.62 40.1
-1 7 2 779.82 40.6
-1 7 2 708.03 39.9
-1 7 2 723.83 39.7
0 -7 -2 6.2 4.1
0 -7 -2 5.2 3.5
0 -7 -2 0.8 4.3
0 7 2 7 4
0 7 2 1.2 4.6
0 7 2 8.7 3
-1 -7 -2 323.37 18.7
-1 -7 -2 340.47 20
-1 -7 -2 355.46 20.9
1 7 2 384.36 21.1
-2 -7 -2 634.54 35.1
-2 -7 -2 685.03 35.7
-2 -7 -2 625.34 34.2
-2 -7 -2 660.13 35.9
2 7 2 637.24 36
2 7 2 673.03 35.6
-3 -7 -2 266.47 17.8
-3 -7 -2 258.17 15.1
-3 -7 -2 260.47 17
-3 -7 -2 252.37 15.8
-3 -7 -2 258.87 15.3
3 7 2 267.37 18.2
3 7 2 272.07 16.4
-4 -7 -2 227.18 16.3
-4 -7 -2 175.38 17
-4 -7 -2 187.98 13.7
-4 -7 -2 194.98 14.3
4 7 2 203.58 13.2
4 7 2 215.28 17.4
4 -8 -2 50.99 6.9
-4 8 2 34.7 6.9
3 -8 -2 13.1 6.3
3 -8 -2 6.9 5.4
-3 8 2 6.8 5.9
2 -8 -2 69.99 9.6
-2 8 2 60.49 7.9
1 -8 -2 390.26 28.9
1 -8 -2 427.86 24.8
-1 8 2 422.76 25
0 -8 -2 93.19 12.8
0 -8 -2 74.49 10.4
0 8 2 73.29 10.8
-1 -8 -2 228.18 15.7
-1 -8 -2 216.48 12.7
-1 -8 -2 227.98 15.9
-1 -8 -2 217.18 14.7
1 8 2 229.18 15.9
2 8 2 114.59 12.1
2 8 2 99.29 11.2
-3 -8 -2 83.99 11
-3 -8 -2 67.39 8.3
-3 -8 -2 49.5 7.5
3 8 2 72.89 11.8
3 8 2 69.89 9.9
2 -9 -2 293.17 20.3
2 -9 -2 313.47 20.2
-2 9 2 302.97 21.1
1 -9 -2 15.4 6.7
1 -9 -2 12.5 6.9
-1 9 2 12.5 6.5
0 -9 -2 282.27 20.1
0 -9 -2 293.67 19.4
0 9 2 288.17 20.6
-1 -9 -2 15 6.8
-1 -9 -2 21.1 7.5
1 9 2 19.8 7.4
1 9 2 22.3 6.2
-2 -9 -2 228.58 13.9
-2 -9 -2 211.58 17.6
-2 -9 -2 252.07 17.5
2 9 2 216.18 17.7
2 9 2 235.28 17.1
2 9 -3 70.49 10.8
2 9 -3 79.49 10.7
-2 -9 3 68.39 11.6
-2 -9 3 90.59 11.6
1 9 -3 283.57 18.8
1 9 -3 273.27 17.9
-1 -9 3 291.07 19.2
-1 -9 3 274.27 19
0 9 -3 434.46 25.7
0 9 -3 399.26 24.1
0 -9 3 446.66 25.6
0 -9 3 441.56 25.8
-1 9 -3 58.99 7.6
-1 9 -3 57.09 7.6
1 -9 3 57.59 8
1 -9 3 63.59 8.8
2 -9 3 241.48 17.5
2 -9 3 229.58 17.6
3 8 -3 162.08 13.4
3 8 -3 169.48 12.6
-3 -8 3 168.28 12.5
-3 -8 3 153.08 14
2 8 -3 34.6 6.5
2 8 -3 25.5 5.5
-2 -8 3 40.6 7.1
-2 -8 3 33.2 6.1
-2 -8 3 35.2 5.4
1 8 -3 828.32 45
1 8 -3 877.71 45.5
-1 -8 3 755.12 46.1
-1 -8 3 892.51 45.7
-1 -8 3 877.41 45.7
0 8 -3 41.2 6.1
0 8 -3 44 7.1
0 -8 3 53.19 9.2
0 -8 3 41.6 6.1
-1 8 -3 1142.99 58.79
-1 8 -3 1114.09 57.49
1 -8 3 1062.19 60.79
-2 8 -3 588.64 32.1
2 -8 3 550.74 31.9
2 -8 3 557.84 33.7
-3 8 -3 13.7 5.5
3 -8 3 4.3 6
-4 8 -3 218.48 16.2
4 -8 3 220.58 13.5
4 -8 3 207.98 15.8
4 7 -3 103.69 9.1
4 7 -3 113.19 12.2
-4 -7 3 124.29 11.7
-4 -7 3 106.79 10.5
-4 -7 3 120.99 9.9
3 7 -3 720.83 38.4
3 7 -3 699.43 39.1
-3 -7 3 767.32 40.6
-3 -7 3 692.63 38.6
2 7 -3 6.9 4.3
2 7 -3 8.1 4.9
-2 -7 3 9.3 4.5
-2 -7 3 10.8 4.6
-2 -7 3 6.7 5
-2 -7 3 10.5 4.2
-2 -7 3 10.5 4.6
1 7 -3 615.44 33.3
-1 -7 3 627.94 33.8
-1 -7 3 596.04 33.7
-1 -7 3 644.74 33.9
0 7 -3 540.05 28.8
0 -7 3 510.75 29.9
0 -7 3 537.75 29.7
0 -7 3 565.34 29.9
-1 7 -3 516.85 29.7
-1 7 -3 552.54 29.6
1 -7 3 553.64 29.7
1 -7 3 546.45 29.7
1 -7 3 510.65 29.6
-2 7 -3 75.19 8.7
-2 7 -3 69.39 9.3
2 -7 3 66.39 8.9
2 -7 3 71.59 9.4
-3 7 -3 45.9 6.3
3 -7 3 29.2 5.7
-4 7 -3 356.46 21
-4 7 -3 373.96 21.2
4 -7 3 315.37 19.5
-5 7 -3 154.48 13
5 -7 3 133.49 12.2
5 -7 3 137.29 10.6
5 6 -3 127.39 13
-5 -6 3 124.59 9.2
-5 -6 3 137.69 11.9
-5 -6 3 126.39 9.9
4 6 -3 4.1 2.9
4 6 -3 4.9 5.8
4 6 -3 4.8 2.9
-4 -6 3 1.6 3.9
-4 -6 3 9.9 5.1
-4 -6 3 10.4 3.4
3 6 -3 182.48 11.6
3 6 -3 174.68 12.8
-3 -6 3 188.78 12.6
-3 -6 3 177.28 11.6
-3 -6 3 177.98 12.1
-3 -6 3 176.98 11.9
2 6 -3 333.67 19.9
2 6 -3 347.87 19.6
2 6 -3 347.67 19.9
2 6 -3 347.07 19.5
-2 -6 3 347.57 20
-2 -6 3 347.47 19.7
-2 -6 3 343.27 19.1
-2 -6 3 333.47 19.6
1 6 -3 9.7 4
1 6 -3 9.7 3.6
1 6 -3 12.6 3.5
1 6 -3 11.8 3.8
-1 -6 3 7 3.6
-1 -6 3 7.4 3.8
-1 -6 3 12.2 3.8
0 6 -3 1016.1 56.29
0 6 -3 1062.19 56.29
0 6 -3 1111.99 55.59
0 6 -3 1081.89 56.09
0 -6 3 1095.99 56.19
0 -6 3 1083.09 56.39
-1 6 -3 157.68 10.6
-1 6 -3 139.29 10.1
-1 6 -3 143.19 10.5
1 -6 3 155.88 10.5
1 -6 3 141.49 10.5
1 -6 3 143.19 10.4
-2 6 -3 748.23 41.3
-2 6 -3 794.42 41.2
-2 6 -3 769.92 42.2
2 -6 3 783.62 41.2
2 -6 3 774.42 41.4
-3 6 -3 1464.55 76.49
-3 6 -3 1418.66 76.39
-3 6 -3 1535.65 76.29
3 -6 3 1449.26 76.19
-4 6 -3 69.99 6.1
-4 6 -3 59.09 7.7
4 -6 3 72.89 7.3
4 -6 3 68.49 8.3
-5 6 -3 572.64 31.2
-5 6 -3 550.44 30.3
-5 6 -3 536.95 29.7
5 -6 3 549.95 30.3
5 -6 3 585.54 30.9
6 5 -3 45 8.5
-6 -5 3 36.3 6.7
5 5 -3 753.62 41.2
-5 -5 3 779.02 40.3
-5 -5 3 712.13 38.9
4 5 -3 353.66 20
4 5 -3 294.87 18.4
4 5 -3 363.26 20.7
4 5 -3 333.87 18.5
-4 -5 3 343.77 19.9
-4 -5 3 345.57 18.9
-4 -5 3 366.66 19.1
3 5 -3 70.49 8
3 5 -3 70.29 6.2
3 5 -3 71.89 6.4
-3 -5 3 77.09 6.8
-3 -5 3 75.79 6.7
-3 -5 3 70.59 6.9
-3 -5 3 78.19 7.8
2 5 -3 1152.78 60.19
2 5 -3 1180.98 59.79
2 5 -3 1153.28 59.89
2 5 -3 1110.09 60.09
-2 -5 3 1193.58 59.99
-2 -5 3 1148.09 59.79
-2 -5 3 1154.08 59.99
-2 -5 3 1161.68 60.09
1 5 -3 149.29 9.2
1 5 -3 149.99 9.6
1 5 -3 141.69 9.5
1 5 -3 145.09 9.6
-1 -5 3 126.29 12
-1 -5 3 144.39 9.5
0 5 -3 442.36 24.5
0 5 -3 444.66 24.4
0 5 -3 447.86 24.5
0 5 -3 471.65 23.8
0 -5 3 467.35 24.5
0 -5 3 449.66 24.4
0 -5 3 433.06 24.5
-1 5 -3 1191.38 62.29
-1 5 -3 1196.28 62.19
-1 5 -3 1230.58 62.09
1 -5 3 1170.08 62.19
1 -5 3 1201.88 62.09
-2 5 -3 8.1 3.3
-2 5 -3 14.5 3.7
-2 5 -3 13.3 3.5
2 -5 3 16 4.2
2 -5 3 10.5 3.4
2 -5 3 9.7 3
-3 5 -3 1293.57 66.39
-3 5 -3 1234.38 65.69
-3 5 -3 1251.07 66.39
-3 5 -3 1337.77 65.49
3 -5 3 1294.67 66.19
3 -5 3 1236.58 68.59
-4 5 -3 140.99 10.5
-4 5 -3 137.29 10.6
-4 5 -3 152.98 10.6
-4 5 -3 125.59 9.2
4 -5 3 152.08 11.5
4 -5 3 143.29 9.7
-5 5 -3 204.48 12.4
-5 5 -3 197.48 13.5
-5 5 -3 193.88 14.9
-5 5 -3 198.58 12.7
5 -5 3 211.98 13.2
5 -5 3 217.28 13.3
-6 5 -3 420.36 24.9
-6 5 -3 458.85 25.7
6 -5 3 487.55 25.7
-6 -4 3 639.64 35.1
5 4 -3 6.6 5.6
-5 -4 3 4.3 4.5
-5 -4 3 0.2 3.2
4 4 -3 551.24 30.5
4 4 -3 603.74 29.9
4 4 -3 549.25 29.9
-4 -4 3 509.75 29.4
-4 -4 3 535.75 29.9
-4 -4 3 549.65 29.1
-4 -4 3 578.34 30
3 4 -3 444.36 24.5
3 4 -3 467.55 25.3
3 4 -3 469.25 24.9
3 4 -3 469.35 25.6
-3 -4 3 460.95 25.2
-3 -4 3 490.45 24.9
-3 -4 3 472.95 24.9
-3 -4 3 463.35 25.1
2 4 -3 458.75 25
2 4 -3 464.25 24.5
2 4 -3 470.15 26.5
2 4 -3 462.25 24.8
2 4 -3 479.05 24.7
-2 -4 3 458.15 24.9
-2 -4 3 474.75 24.9
-2 -4 3 474.75 25.1
1 4 -3 858.51 43.8
1 4 -3 850.71 43.8
1 4 -3 839.32 44
1 4 -3 843.72 43.9
-1 -4 3 813.72 44.4
-1 -4 3 851.41 43.9
-1 -4 3 857.31 44
0 4 -3 114.89 7.7
0 4 -3 115.29 7.6
0 4 -3 123.89 6.9
0 -4 3 110.19 7.8
0 -4 3 118.39 9.1
-1 4 -3 566.34 29.8
-1 4 -3 536.65 29
1 -4 3 545.25 28.9
1 -4 3 537.65 28.9
-2 4 -3 1263.87 67.69
-2 4 -3 1349.27 67.29
-2 4 -3 1282.97 67.89
-2 4 -3 1351.66 69.39
2 -4 3 1353.66 67.79
2 -4 3 1274.17 67.79
-3 4 -3 715.43 36.5
-3 4 -3 686.23 34.8
-3 4 -3 689.13 35.5
-3 4 -3 651.03 35.7
-3 4 -3 687.03 35.9
3 -4 3 619.34 35.4
3 -4 3 655.83 35.4
-4 4 -3 432.16 23.4
-4 4 -3 426.26 23.2
-4 4 -3 419.46 23.9
-4 4 -3 421.46 22.7
4 -4 3 450.15 23.2
4 -4 3 398.16 23.3
-5 4 -3 11.7 3.8
-5 4 -3 21.4 4.1
-5 4 -3 27 5.2
-5 4 -3 20.4 3.8
-5 4 -3 20.5 4.1
5 -4 3 28.7 4.1
5 -4 3 19.8 3.9
5 -4 3 29 4
5 -4 3 24.4 4.4
-6 4 -3 353.56 20.5
-6 4 -3 364.66 21
-6 4 -3 358.76 20.7
6 -4 3 348.47 20.6
6 -4 3 385.96 21.4
-7 -3 3 21.5 5.5
6 3 -3 427.46 26.8
-6 -3 3 475.45 25.3
5 3 -3 688.93 37.7
5 3 -3 730.03 37.3
-5 -3 3 690.63 36.7
-5 -3 3 656.23 36.8
4 3 -3 543.65 29.9
4 3 -3 564.64 29.5
-4 -3 3 527.05 29.2
-4 -3 3 549.95 29.3
-4 -3 3 542.75 28.5
-4 -3 3 562.24 29.2
3 3 -3 1082.39 56.09
3 3 -3 1133.39 55.69
3 3 -3 1022.6 55.29
-3 -3 3 1001.5 55.59
-3 -3 3 1091.79 55.69
-3 -3 3 1092.89 55.69
-3 -3 3 1113.19 55.29
-3 -3 3 1082.09 55.39
2 3 -3 3.6 1.6
2 3 -3 7.1 1.9
2 3 -3 5.4 2
2 3 -3 3.6 2
2 3 -3 4.1 2.5
-2 -3 3 4 1.8
-2 -3 3 5.2 2
-2 -3 3 3.7 2.1
-2 -3 3 0.9 2.2
1 3 -3 1160.38 58.59
1 3 -3 1137.99 58.39
1 3 -3 1122.89 58.09
1 3 -3 1151.78 58.39
1 3 -3 1129.09 58.49
-1 -3 3 1116.39 58.49
-1 -3 3 1134.79 58.49
-1 -3 3 1150.68 58.49
0 3 -3 1839.72 93.29
0 3 -3 1750.52 92.89
0 3 -3 1762.02 93.29
0 3 -3 1838.72 93.19
0 -3 3 1828.22 93.29
0 -3 3 1822.72 93.19
0 -3 3 1916.71 93.29
-1 3 -3 488.65 25.8
-1 3 -3 490.25 25.7
1 -3 3 500.45 25.8
1 -3 3 479.55 25.8
-2 3 -3 3875.11 196.28
-2 3 -3 3783.22 196.68
-2 3 -3 3774.42 196.48
2 -3 3 3978.8 196.48
-3 3 -3 59.39 5.5
-3 3 -3 59.89 6.7
-3 3 -3 65.49 4.8
3 -3 3 67.59 5.6
3 -3 3 62.99 5.5
-4 3 -3 1516.65 79.29
-4 3 -3 1579.14 78.99
-4 3 -3 1483.95 79.09
-4 3 -3 1527.25 79.89
-4 3 -3 1561.54 78.99
4 -3 3 1478.25 78.99
4 -3 3 1535.25 78.89
4 -3 3 1600.24 79.19
-5 3 -3 518.15 30.3
-5 3 -3 486.25 28.3
-5 3 -3 514.65 27.8
-5 3 -3 522.85 27.9
5 -3 3 522.25 27.6
5 -3 3 533.65 28.2
5 -3 3 527.35 27.6
-6 3 -3 0.8 6.8
-6 3 -3 3.5 3.4
-6 3 -3 4.6 3.6
6 -3 3 0.6 4.5
7 -3 3 573.74 32.2
-7 -2 3 650.33 35.1
6 2 -3 48.8 7.4
-6 -2 3 63.19 7.2
5 2 -3 1892.91 96.29
5 2 -3 1965.8 95.99
-5 -2 3 1624.64 95.49
-5 -2 3 1979.1 95.39
-5 -2 3 1821.52 96.39
4 2 -3 11.7 3.3
4 2 -3 12.5 3.9
-4 -2 3 15.4 3.5
-4 -2 3 9.4 2.7
-4 -2 3 10.1 2.8
3 2 -3 2226.18 111.89
3 2 -3 2149.48 112.19
3 2 -3 2239.48 111.99
-3 -2 3 2210.88 111.49
-3 -2 3 2343.97 111.49
-3 -2 3 2108.29 112.19
-3 -2 3 2140.39 111.69
-3 -2 3 2098.09 112.19
-3 -2 3 2169.98 111.89
2 2 -3 1657.83 84.99
2 2 -3 1687.83 85.19
2 2 -3 1656.03 85.09
2 2 -3 1694.43 84.99
2 2 -3 1652.23 85.29
-2 -2 3 1625.44 84.99
-2 -2 3 1623.04 85.09
-2 -2 3 1714.93 85.39
-2 -2 3 1674.03 84.99
1 2 -3 926.81 49.1
1 2 -3 959.9 49.3
1 2 -3 981.5 49.3
1 2 -3 938.81 49.2
1 2 -3 980.2 49.3
-1 -2 3 1002.9 49.3
-1 -2 3 925.31 49.2
-1 -2 3 953 49.3
-1 -2 3 974.9 49.3
0 2 -3 2491.45 126.99
0 2 -3 2441.06 126.89
0 2 -3 2485.95 126.99
0 -2 3 2387.26 126.89
0 -2 3 2549.74 126.99
0 -2 3 2585.84 126.99
-1 2 -3 8.4 2.2
-1 2 -3 8.7 1.6
1 -2 3 11 1.6
1 -2 3 8.5 1.6
-2 2 -3 23.5 3.3
-2 2 -3 23.4 3.4
2 -2 3 26.1 3.3
-3 2 -3 1397.06 72.79
-3 2 -3 1380.86 72.99
-3 2 -3 1463.75 73.19
-3 2 -3 1460.95 73.19
3 -2 3 1386.66 72.89
3 -2 3 1510.95 74.09
3 -2 3 1354.76 72.89
-4 2 -3 239.98 13.6
-4 2 -3 244.28 14.4
-4 2 -3 245.78 13.8
-4 2 -3 229.18 14.4
4 -2 3 244.38 13.6
4 -2 3 249.78 14.2
4 -2 3 239.58 13.5
-5 2 -3 24.4 4.2
-5 2 -3 25.9 4.5
-5 2 -3 24.2 3.4
-5 2 -3 33.7 5.3
5 -2 3 22.7 4.3
5 -2 3 24.3 3
-6 2 -3 485.95 24.7
-6 2 -3 458.95 25.4
-6 2 -3 414.86 27
-6 2 -3 454.35 25
6 -2 3 474.95 25.9
7 -2 3 188.28 14.3
-7 -1 3 146.79 10.7
6 1 -3 254.87 16.5
-6 -1 3 248.28 14.7
5 1 -3 790.22 40.9
-5 -1 3 772.72 40.6
-5 -1 3 697.53 42.6
-5 -1 3 802.72 40
4 1 -3 2187.68 111.59
-4 -1 3 2198.38 111.09
-4 -1 3 2156.98 111.39
-4 -1 3 2207.88 111.89
-4 -1 3 2121.19 111.49
-3 -1 3 201.18 12.2
-3 -1 3 224.48 12.2
-3 -1 3 208.18 11.8
-3 -1 3 202.08 11.3
2 1 -3 3254.57 164.88
2 1 -3 3237.78 164.88
2 1 -3 3137.09 165.08
-2 -1 3 3275.57 164.98
-2 -1 3 3359.76 165.38
-2 -1 3 3183.58 164.88
1 1 -3 1970.7 102.49
1 1 -3 2021.4 102.59
-1 -1 3 2057.59 102.69
-1 -1 3 2103.49 102.59
-1 -1 3 1974.2 102.59
-1 -1 3 1954.8 102.49
0 1 -3 2351.46 117.39
0 1 -3 2263.17 117.39
0 -1 3 2223.98 117.39
0 -1 3 2405.66 117.39
0 -1 3 2273.57 117.39
-1 1 -3 2922.41 150.18
1 -1 3 3070.69 150.18
1 -1 3 2854.11 150.18
-2 1 -3 5.6 1.5
-2 1 -3 4.7 1.5
2 -1 3 3.8 1.5
2 -1 3 6.8 1.5
2 -1 3 6.8 1.5
-3 1 -3 4177.88 208.08
-3 1 -3 4008.6 207.68
-3 1 -3 4259.77 207.78
-3 1 -3 4152.58 207.68
3 -1 3 3969.9 207.58
3 -1 3 4006.3 207.88
3 -1 3 3976.7 207.78
-4 1 -3 89.59 6.1
-4 1 -3 81.59 6.7
-4 1 -3 74.29 7.2
4 -1 3 87.19 7
4 -1 3 94.59 8.8
-5 1 -3 644.94 35.6
-5 1 -3 706.63 35.9
-5 1 -3 675.93 36.4
-5 1 -3 676.63 35.9
5 -1 3 675.73 36
6 -1 3 1143.69 60.89
7 -1 3 0.1 5.5
6 0 -3 1038.3 55.29
-6 0 3 1049.59 54.19
5 0 -3 30.9 4.9
-5 0 3 35.5 4.7
-5 0 3 30.1 4.7
-5 0 3 32.7 4
-5 0 3 27.5 6.3
4 0 -3 629.34 32.3
-4 0 3 599.34 32.5
-4 0 3 607.24 31.8
-4 0 3 596.24 32.1
-4 0 3 605.64 31.4
3 0 -3 672.03 34.3
-3 0 3 669.23 33.7
-3 0 3 666.23 35.6
-3 0 3 587.74 33.9
-3 0 3 683.43 35
2 0 -3 2497.05 127.89
-2 0 3 2521.95 127.69
-2 0 3 2503.35 127.69
1 0 -3 4859.71 214.48
1 0 -3 3681.53 214.58
-1 0 3 4285.37 214.48
-1 0 3 4031.5 214.48
0 0 -3 255.07 13.6
0 0 -3 235.48 13.5
0 0 3 250.97 13.5
0 0 3 264.87 13.6
-1 0 -3 1678.23 97.39
-1 0 -3 1944.31 97.39
1 0 3 1972.5 97.39
1 0 3 2021.4 97.29
-2 0 -3 1379.86 74.79
-2 0 -3 1548.35 74.79
2 0 3 1659.73 74.69
2 0 3 1248.28 74.79
2 0 3 1460.05 74.69
-3 0 -3 78.99 6.6
-3 0 -3 109.09 6.2
3 0 3 93.09 5.7
3 0 3 94.89 7.3
3 0 3 105.79 6.9
-4 0 -3 2562.94 133.69
-4 0 -3 2717.23 133.59
4 0 3 2542.05 133.49
5 0 3 651.53 35.4
5 0 3 648.04 34.8
6 0 3 349.57 23.5
-7 0 -3 424.86 26.4
7 0 3 443.66 25.6
7 -1 -3 4.8 6.4
-7 1 3 12.7 4
-7 1 3 16.2 3.6
6 -1 -3 75.09 9.6
-6 1 3 66.09 6.9
-6 1 3 83.89 6.7
5 -1 -3 814.72 41.4
-5 1 3 735.33 40.6
-5 1 3 783.12 41.9
4 -1 -3 9.5 2.7
4 -1 -3 13.7 3.3
-4 1 3 8.3 3.3
-4 1 3 11.6 1.8
-4 1 3 11.6 2.9
-4 1 3 12.9 2.1
-4 1 3 12.9 2.5
3 -1 -3 9806.12 473.85
3 -1 -3 7930.11 473.25
3 -1 -3 9345.17 473.35
-3 1 3 9999 473.45
-3 1 3 9493.95 473.45
2 -1 -3 995 50.79
-2 1 3 972.3 50.69
-2 1 3 1012.1 50.69
-2 1 3 986.2 50.79
1 -1 -3 7279.47 369.96
0 -1 -3 3580.84 175.98
0 -1 -3 3402.56 175.98
0 -1 -3 3427.56 175.98
0 1 3 3423.46 175.98
-1 -1 -3 1218.18 62.19
1 1 3 1239.68 62.19
1 1 3 1133.99 62.19
1 1 3 1269.57 62.09
-2 -1 -3 4418.86 222.08
-2 -1 -3 4086.39 222.18
2 1 3 3706.83 222.18
2 1 3 4616.04 222.08
2 1 3 4587.74 221.98
2 1 3 4762.82 222.38
-3 -1 -3 80.49 6.2
-3 -1 -3 75.79 5.5
3 1 3 78.59 6.8
3 1 3 77.69 5.9
3 1 3 86.29 5.4
-4 -1 -3 3516.75 177.88
4 1 3 3435.16 177.58
5 1 3 97.69 10
5 1 3 106.29 8.9
-6 -1 -3 299.67 19.1
6 1 3 305.37 19.7
6 1 3 286.57 18.4
-7 -1 -3 333.47 21
7 1 3 295.27 20.1
7 -2 -3 91.39 11.8
-7 2 3 77.49 6.8
-7 2 3 83.89 7.5
6 -2 -3 40.2 6.2
-6 2 3 33.9 4.5
-6 2 3 39.3 4.9
5 -2 -3 774.02 38.9
5 -2 -3 720.93 39.6
-5 2 3 729.53 38.5
-5 2 3 734.13 38.8
-5 2 3 745.53 38.5
-5 2 3 724.43 41.1
-5 2 3 791.02 38.7
-5 2 3 716.73 39.6
4 -2 -3 398.36 20.4
4 -2 -3 365.66 20.2
4 -2 -3 377.06 20.4
4 -2 -3 399.46 20.4
4 -2 -3 375.66 21.2
-4 2 3 389.86 20.6
-4 2 3 396.26 21.4
-4 2 3 376.56 20.5
-4 2 3 370.36 20.1
-4 2 3 388.96 20.3
3 -2 -3 500.45 26.3
3 -2 -3 514.45 26.6
-3 2 3 484.65 26.3
-3 2 3 513.65 26.2
-3 2 3 519.45 26.7
-3 2 3 514.45 26.5
2 -2 -3 714.13 39.9
2 -2 -3 794.62 40.1
2 -2 -3 763.52 40.1
2 -2 -3 817.72 39.9
-2 2 3 787.02 39.7
-2 2 3 798.72 40.1
-2 2 3 756.12 39.7
1 -2 -3 561.64 29.1
1 -2 -3 553.84 28.9
1 -2 -3 562.14 29.2
-1 2 3 565.24 28.9
-1 2 3 570.14 29.1
-1 2 3 559.14 29.2
0 -2 -3 4195.88 208.68
0 -2 -3 4049.59 208.68
0 -2 -3 4078.49 208.78
0 2 3 4118.69 208.68
0 2 3 4133.79 208.68
0 2 3 4029.7 208.78
-1 -2 -3 527.15 26.8
-1 -2 -3 514.35 26.6
-1 -2 -3 513.55 26.6
1 2 3 512.05 26.6
1 2 3 489.75 26.5
1 2 3 519.55 26.6
-2 -2 -3 2496.55 123.09
-2 -2 -3 2409.46 123.09
-2 -2 -3 2448.66 123.49
-2 -2 -3 2369.66 122.99
2 2 3 2193.58 122.99
2 2 3 2340.97 123.09
2 2 3 2648.73 123.69
2 2 3 2402.86 123.19
-3 -2 -3 1907.41 94.49
-3 -2 -3 1923.31 94.19
-3 -2 -3 1691.93 94.09
3 2 3 1825.72 94.29
3 2 3 1852.71 94.79
-4 -2 -3 1139.69 58.09
-4 -2 -3 1058.19 57.79
-4 -2 -3 1134.89 57.39
4 2 3 1084.49 57.59
4 2 3 1128.59 58.29
-5 -2 -3 409.76 22.6
-5 -2 -3 376.06 22.1
5 2 3 367.66 22.9
-6 -2 -3 221.88 15.7
6 2 3 212.38 16.4
6 2 3 220.28 14.9
7 2 3 162.58 14.3
7 2 3 187.98 16.6
7 -3 -3 283.27 18.7
-7 3 3 260.87 15.3
6 -3 -3 73.39 9.5
-6 3 3 69.69 5.8
-6 3 3 64.99 6.1
-6 3 3 59.19 6.8
5 -3 -3 373.46 21.5
5 -3 -3 354.96 20.2
5 -3 -3 385.06 20.5
5 -3 -3 383.36 20.6
-5 3 3 366.36 20.2
-5 3 3 407.06 21
-5 3 3 385.66 20.5
4 -3 -3 838.82 45.2
4 -3 -3 888.81 45.4
4 -3 -3 855.11 45.8
4 -3 -3 914.41 45.1
-4 3 3 902.01 45.6
-4 3 3 884.11 45.4
-4 3 3 835.62 45
3 -3 -3 13.4 2.6
3 -3 -3 17.5 2.8
3 -3 -3 13.6 2.3
3 -3 -3 17 2
-3 3 3 16.1 2.9
-3 3 3 18.6 2.3
-3 3 3 12.6 2.4
2 -3 -3 5654.03 279.87
2 -3 -3 5277.87 279.97
2 -3 -3 5499.05 279.87
2 -3 -3 5657.53 280.07
-2 3 3 5411.26 279.97
1 -3 -3 12.4 2.1
1 -3 -3 17.9 2.9
1 -3 -3 15.9 2.3
-1 3 3 17.3 2.6
-1 3 3 12.1 1.9
-1 3 3 13.5 2.5
0 -3 -3 1065.49 53.69
0 -3 -3 1016 53.49
0 -3 -3 1050.49 53.59
0 3 3 1021.3 53.49
0 3 3 1046.5 53.59
0 3 3 1041.8 53.49
-1 -3 -3 1642.54 83.79
-1 -3 -3 1657.93 83.29
-1 -3 -3 1633.64 83.69
-1 -3 -3 1652.63 83.59
1 3 3 1624.94 83.29
1 3 3 1595.44 83.59
1 3 3 1605.44 83.69
1 3 3 1647.74 83.49
-2 -3 -3 29 4.1
-2 -3 -3 37.8 4
-2 -3 -3 36.3 5
2 3 3 33 4
2 3 3 34.6 3.6
2 3 3 32.9 4
-3 -3 -3 2093.69 106.19
-3 -3 -3 2123.59 105.89
-3 -3 -3 2149.58 105.59
-3 -3 -3 2123.19 105.59
-3 -3 -3 1969.2 105.39
3 3 3 2155.68 106.49
3 3 3 2072.89 105.79
3 3 3 1828.22 105.39
3 3 3 2057.89 105.49
-4 -3 -3 189.18 11.2
-4 -3 -3 192.78 10.7
-4 -3 -3 195.68 12.5
-4 -3 -3 173.18 11.6
-4 -3 -3 157.68 10.6
4 3 3 175.88 13.2
4 3 3 186.18 11.7
-5 -3 -3 508.55 28.7
-5 -3 -3 507.65 29.4
5 3 3 511.85 29.4
-6 -3 -3 157.28 13.5
6 3 3 154.28 12.6
6 3 3 142.09 14.4
-7 4 3 30 4.2
6 -4 -3 317.17 21.1
6 -4 -3 307.67 17.7
-6 4 3 308.57 17.8
-6 4 3 328.77 18.4
-6 4 3 306.57 17.4
5 -4 -3 2.8 4.2
5 -4 -3 1.5 2.6
5 -4 -3 1.3 2.8
5 -4 -3 -3 3.1
-5 4 3 -5.6 3.6
-5 4 3 -0.4 2.9
-5 4 3 1.6 2.7
-5 4 3 4.7 3.7
4 -4 -3 132.09 7.5
4 -4 -3 115.99 8.9
4 -4 -3 114.59 8.9
4 -4 -3 121.89 8.2
-4 4 3 116.39 8.5
-4 4 3 125.79 8.6
-4 4 3 126.49 9.2
3 -4 -3 534.65 29.2
3 -4 -3 550.24 29.4
3 -4 -3 549.85 29.3
3 -4 -3 529.25 29.2
-3 4 3 589.34 29.6
-3 4 3 564.74 28.9
-3 4 3 538.95 29.2
2 -4 -3 182.38 10.3
2 -4 -3 189.28 10.7
2 -4 -3 179.18 10.6
-2 4 3 169.98 10.9
-2 4 3 173.08 10.3
-2 4 3 191.98 11.3
1 -4 -3 155.58 10.1
1 -4 -3 176.48 10.6
1 -4 -3 185.98 10.2
-1 4 3 156.38 10.2
-1 4 3 171.28 12.9
-1 4 3 180.88 10
0 -4 -3 1005.1 52.59
0 -4 -3 1060.99 53.89
0 -4 -3 988.2 52.39
0 4 3 986.4 52.39
0 4 3 1041.2 52.59
0 4 3 1003.1 52.49
-1 -4 -3 1611.44 85.49
-1 -4 -3 1688.23 86.29
-1 -4 -3 1724.73 86.19
-1 -4 -3 1654.03 85.99
1 4 3 1655.83 86.09
1 4 3 1768.52 86.19
1 4 3 1630.24 85.89
-2 -4 -3 1067.69 54.89
-2 -4 -3 1091.59 55.09
-2 -4 -3 1065.99 54.69
-2 -4 -3 1045.9 55.39
2 4 3 1076.59 55.09
2 4 3 1032 54.79
-3 -4 -3 364.86 20.7
-3 -4 -3 347.87 20
-3 -4 -3 366.66 19.6
-3 -4 -3 354.46 19.8
-3 -4 -3 375.46 20
3 4 3 376.46 21.3
3 4 3 366.36 19.6
3 4 3 359.56 19.8
3 4 3 364.66 20
-4 -4 -3 536.05 28.1
-4 -4 -3 535.65 29
-4 -4 -3 549.25 27.8
-4 -4 -3 518.75 27.5
-4 -4 -3 509.45 28.2
4 4 3 456.85 27.7
4 4 3 519.95 29.6
4 4 3 532.65 28.2
-5 -4 -3 10.8 5.3
5 4 3 13.1 6.4
5 4 3 21.9 5.7
-6 -4 -3 19.9 6.7
6 4 3 24.6 8
6 -5 -3 427.96 24.7
6 -5 -3 463.15 28.7
-6 5 3 474.35 25.5
-6 5 3 427.36 24.2
5 -5 -3 7.5 3.9
5 -5 -3 12 4.4
5 -5 -3 11.6 3.9
-5 5 3 5.4 3.6
-5 5 3 13.9 3.3
-5 5 3 4.1 4.4
4 -5 -3 79.79 7.4
4 -5 -3 81.49 8.2
4 -5 -3 74.89 6.8
-4 5 3 79.59 8.7
-4 5 3 83.59 6.6
-4 5 3 82.79 7.6
3 -5 -3 470.15 25.6
3 -5 -3 468.05 25.9
3 -5 -3 484.55 25.9
3 -5 -3 486.05 26
-3 5 3 459.25 25.7
-3 5 3 510.45 26.2
-3 5 3 442.16 25.3
2 -5 -3 405.16 22.5
2 -5 -3 383.36 22
2 -5 -3 410.06 22
2 -5 -3 398.46 21.3
-2 5 3 411.16 22.6
-2 5 3 412.36 21.8
1 -5 -3 500.85 26.6
1 -5 -3 499.05 26.7
-1 5 3 492.25 26.7
-1 5 3 498.25 26.5
0 -5 -3 794.62 43
0 -5 -3 811.92 43.1
0 -5 -3 842.62 43.3
0 5 3 841.42 43.4
-1 -5 -3 36.5 3.7
-1 -5 -3 27.2 4.2
-1 -5 -3 37.3 5.2
1 5 3 38.9 6.3
1 5 3 38.7 4.9
1 5 3 36.9 4.9
-2 -5 -3 821.42 43.3
-2 -5 -3 810.32 43.6
-2 -5 -3 824.52 43
2 5 3 813.72 42.9
2 5 3 844.32 43.3
2 5 3 822.82 43.3
-3 -5 -3 409.06 22.2
-3 -5 -3 400.56 22.9
-3 -5 -3 396.16 21.7
-3 -5 -3 400.66 21.8
-3 -5 -3 380.16 21.6
3 5 3 411.06 21.9
3 5 3 402.56 23.4
3 5 3 382.56 21.4
-4 -5 -3 733.33 36.2
-4 -5 -3 688.23 35.7
-4 -5 -3 585.24 36
-4 -5 -3 734.13 36.2
4 5 3 700.53 35.8
4 5 3 605.14 35.6
4 5 3 701.33 37.8
-5 -5 -3 718.73 36.1
-5 -5 -3 631.44 35.8
5 5 3 688.23 38.6
6 -6 -3 -6.1 5.8
-6 6 3 -8.5 6.1
-6 6 3 4.4 4.1
-6 6 3 -0.1 5.1
5 -6 -3 467.15 25.8
5 -6 -3 460.25 25.4
-5 6 3 474.65 26.4
-5 6 3 425.96 24.8
4 -6 -3 372.56 21.1
4 -6 -3 395.86 22.3
-4 6 3 376.26 21.2
-4 6 3 377.66 21.8
3 -6 -3 47.3 5.7
3 -6 -3 53.19 8
3 -6 -3 45.1 7.4
-3 6 3 45.6 5.9
-3 6 3 51.29 5.9
-3 6 3 48.4 6.9
2 -6 -3 1522.45 75.09
2 -6 -3 1489.75 75.29
2 -6 -3 1356.06 75.49
2 -6 -3 1419.26 74.09
-2 6 3 1495.55 75.39
-2 6 3 1393.56 74.89
1 -6 -3 477.55 27.3
1 -6 -3 513.85 27.6
1 -6 -3 510.15 27.9
-1 6 3 498.65 27.4
-1 6 3 492.45 27.2
-1 6 3 535.35 28
0 -6 -3 414.96 24.1
0 -6 -3 441.86 24.5
0 6 3 446.26 24.1
0 6 3 456.55 24.7
-1 -6 -3 548.35 28.6
-1 -6 -3 545.05 30
-1 -6 -3 562.94 30.1
-1 -6 -3 527.05 29.5
1 6 3 559.24 30
1 6 3 549.45 31.7
-2 -6 -3 333.57 18.8
-2 -6 -3 346.97 19.6
-2 -6 -3 351.26 20.1
-2 -6 -3 313.47 18.1
-2 -6 -3 344.17 18.8
2 6 3 343.87 20.4
2 6 3 340.57 19.4
2 6 3 292.97 18.5
-3 -6 -3 895.61 47.2
-3 -6 -3 844.42 46.8
-3 -6 -3 846.32 46.7
-3 -6 -3 895.61 48.1
-3 -6 -3 912.41 47.5
3 6 3 954 47.3
3 6 3 925.41 48.6
-4 -6 -3 9.5 4.3
-4 -6 -3 11.6 5.9
-4 -6 -3 9.3 4.3
-4 -6 -3 9 3.5
4 6 3 10.7 6.8
4 6 3 7.7 3.6
-5 -6 -3 261.67 16.6
-5 -6 -3 320.37 20.1
-5 -6 -3 307.77 17.6
5 6 3 281.47 21
5 -7 -3 220.28 16
-5 7 3 229.28 16.9
-5 7 3 258.37 15.8
-5 7 3 227.58 14.6
4 -7 -3 25.4 4.1
4 -7 -3 14.5 5.4
-4 7 3 13.4 4.3
-4 7 3 16.8 5.9
-4 7 3 27.6 4.6
3 -7 -3 7.8 5.3
3 -7 -3 14.1 5.2
-3 7 3 9.5 9.5
-3 7 3 11.1 4
-3 7 3 14.3 4
2 -7 -3 1486.75 74.89
2 -7 -3 1450.45 75.09
-2 7 3 1398.46 74.39
-2 7 3 1461.65 75.19
-2 7 3 1373.46 74.59
1 -7 -3 227.58 15.5
1 -7 -3 280.77 16.2
1 -7 -3 263.37 16.7
-1 7 3 245.88 15.7
-1 7 3 259.27 15.5
-1 7 3 266.97 16.8
0 -7 -3 85.09 9.8
0 -7 -3 93.19 9.1
0 -7 -3 76.99 9.3
0 7 3 82.69 8.2
0 7 3 58.79 8.5
0 7 3 99.29 9.7
-1 -7 -3 606.64 33.9
-1 -7 -3 631.64 34.8
-1 -7 -3 650.83 35.4
1 7 3 702.03 35.5
-2 -7 -3 0.2 3.4
-2 -7 -3 5.4 6.1
-2 -7 -3 -1.9 5
2 7 3 -0.7 4.3
2 7 3 9.5 6.3
-3 -7 -3 393.26 22
-3 -7 -3 400.56 23.4
-3 -7 -3 389.56 22.6
-3 -7 -3 383.96 21.9
3 7 3 418.66 23.5
3 7 3 407.36 24.9
-4 -7 -3 185.58 13.5
-4 -7 -3 182.78 15.7
-4 -7 -3 158.58 12.1
-4 -7 -3 182.98 12.2
4 7 3 187.38 12.8
4 7 3 184.58 15.9
4 -8 -3 328.47 21.1
4 -8 -3 302.87 23.3
-4 8 3 373.36 22.2
3 -8 -3 539.95 31.6
3 -8 -3 551.54 32
-3 8 3 588.84 32.4
2 -8 -3 439.56 25.7
1 -8 -3 197.08 19.1
1 -8 -3 214.08 14.8
-1 8 3 203.68 15.8
0 8 3 351.06 21.9
-1 -8 -3 98.79 6.9
-1 -8 -3 91.09 11.2
-1 -8 -3 92.29 9.1
1 8 3 76.29 11
-2 -8 -3 155.08 13.1
-2 -8 -3 151.58 15.4
-2 -8 -3 149.88 10
-2 -8 -3 154.08 13.2
2 8 3 132.69 12.8
2 8 3 138.89 13.8
-3 -8 -3 31.9 7
-3 -8 -3 23.6 6.3
3 8 3 29.8 8.3
3 8 3 29 5.8
2 -9 -3 3.5 6.3
-2 9 3 -1.9 6.2
1 -9 -3 303.87 20.2
1 -9 -3 308.27 21.1
-1 9 3 307.67 21
0 -9 -3 143.99 14.2
0 9 3 140.59 14.3
-1 -9 -3 6.2 6.5
1 9 3 6.6 6.3
2 9 -4 145.19 14.3
-2 -9 4 138.59 13.7
1 9 -4 106.79 10.3
1 9 -4 101.19 11.9
-1 -9 4 98.99 12.5
-1 -9 4 110.19 12.6
0 9 -4 178.28 12.7
0 9 -4 176.68 14.8
0 -9 4 189.88 15.4
0 -9 4 194.68 14.9
-1 9 -4 6 6
1 -9 4 14 6.9
1 -9 4 5.7 6.1
-2 9 -4 12 6.3
2 -9 4 21.5 7.1
2 -9 4 25 6.6
3 8 -4 29.9 8.1
3 8 -4 18.7 5
-3 -8 4 17.4 5.7
-3 -8 4 31.4 5
2 8 -4 117.99 10.8
2 8 -4 124.59 11.4
-2 -8 4 126.09 16.8
-2 -8 4 102.99 11.8
-2 -8 4 137.29 11.9
1 8 -4 395.56 22.5
1 8 -4 408.96 23.3
-1 -8 4 381.76 23.1
0 8 -4 32.5 4.8
0 8 -4 38 6.1
0 -8 4 42.7 6.2
0 -8 4 36.1 6.6
-1 8 -4 139.79 10.4
-1 8 -4 160.38 13.2
1 -8 4 158.88 13
1 -8 4 151.68 12.9
-2 8 -4 234.28 16.3
2 -8 4 231.08 16.5
2 -8 4 244.68 18.1
-3 8 -4 151.98 12.9
3 -8 4 116.69 16.7
4 -8 4 130.09 10.5
4 7 -4 267.77 17.9
-4 -7 4 259.67 17.4
-4 -7 4 264.17 16.5
-4 -7 4 247.18 16.4
3 7 -4 186.18 14
3 7 -4 194.28 12.7
-3 -7 4 201.48 16.5
-3 -7 4 190.88 13.3
-3 -7 4 192.78 13.8
2 7 -4 48.1 7.6
2 7 -4 37.7 5.4
-2 -7 4 39.6 5.4
-2 -7 4 54.69 8.4
-2 -7 4 51.39 6.5
-2 -7 4 44 5.8
1 7 -4 1164.18 58.59
-1 -7 4 1106.99 58.69
-1 -7 4 1080.19 58.79
0 7 -4 34.6 5.3
0 7 -4 38.7 6.4
0 -7 4 34.9 5.2
0 -7 4 34.6 8.1
0 -7 4 40 5.7
-1 7 -4 393.56 23.9
-1 7 -4 412.56 21.8
-1 7 -4 421.86 23.3
1 -7 4 376.96 23.3
1 -7 4 425.26 23.5
-2 7 -4 81.29 9.5
-2 7 -4 86.09 9.3
2 -7 4 96.99 9.7
-3 7 -4 285.97 17.4
-3 7 -4 259.47 17.3
3 -7 4 267.37 17.2
-4 7 -4 214.58 14.9
-4 7 -4 214.18 16.4
4 -7 4 191.68 13.5
4 -7 4 204.68 14.7
-5 7 -4 24.6 6.1
5 6 -4 241.68 18.1
-5 -6 4 258.47 15.4
-5 -6 4 248.18 15.2
-5 -6 4 275.37 17.2
4 6 -4 2.8 5.4
4 6 -4 0.8 3.3
4 6 -4 0.4 2.8
-4 -6 4 -0.7 3.2
-4 -6 4 0.5 4
-4 -6 4 4.5 5.1
3 6 -4 514.35 31.7
3 6 -4 600.34 32.7
3 6 -4 602.74 31.8
-3 -6 4 644.14 32.2
-3 -6 4 625.44 32.5
-3 -6 4 594.64 32.2
2 6 -4 617.84 32.3
2 6 -4 572.54 32.6
2 6 -4 599.94 32.4
2 6 -4 597.34 32.4
-2 -6 4 591.84 32.6
-2 -6 4 627.84 32.6
-2 -6 4 612.14 32.6
1 6 -4 941.21 48.5
1 6 -4 946.81 50.59
-1 -6 4 929.91 48.5
-1 -6 4 893.71 48.6
-1 -6 4 907.91 48.6
0 6 -4 2312.37 113.79
0 6 -4 2111.39 114.99
0 6 -4 2268.37 114.39
0 -6 4 2243.38 114.49
0 -6 4 2229.78 114.39
0 -6 4 2181.18 114.59
-1 6 -4 58.89 7
-1 6 -4 54.39 4.7
-1 6 -4 49.6 8.5
-1 6 -4 52.49 7.1
1 -6 4 60.59 7.5
1 -6 4 49.5 7.4
-2 6 -4 1481.95 79.59
-2 6 -4 1594.74 79.49
-2 6 -4 1509.95 79.69
2 -6 4 1585.74 79.49
2 -6 4 1541.15 79.59
2 -6 4 1475.15 79.49
-3 6 -4 519.95 30
-3 6 -4 524.25 29.8
-3 6 -4 571.34 29.7
-3 6 -4 522.25 28.3
3 -6 4 557.74 29.6
-4 6 -4 83.29 9.2
-4 6 -4 75.69 6.7
-4 6 -4 80.29 9.5
4 -6 4 72.59 8.3
4 -6 4 88.49 9.2
-5 6 -4 373.26 22.3
-5 6 -4 423.26 23.3
-5 6 -4 399.26 23.5
5 -6 4 408.36 23
5 -6 4 393.66 23
6 5 -4 24.1 7.9
-6 -5 4 22.1 9.1
5 5 -4 786.62 44.4
-5 -5 4 818.62 43.5
-5 -5 4 837.62 42.6
4 5 -4 443.56 25.1
4 5 -4 487.35 25.4
4 5 -4 449.66 28.8
4 5 -4 483.15 26.9
-4 -5 4 495.75 25.6
-4 -5 4 465.45 25.5
-4 -5 4 491.25 26.4
3 5 -4 447.36 24
3 5 -4 441.26 24.8
3 5 -4 430.56 24.6
3 5 -4 454.45 23.9
3 5 -4 430.06 24
-3 -5 4 465.95 24.6
-3 -5 4 460.75 24.2
-3 -5 4 421.56 24.3
-3 -5 4 455.65 24.3
2 5 -4 1413.66 75.19
2 5 -4 1496.55 75.09
2 5 -4 1429.26 75.49
2 5 -4 1461.85 75.29
2 5 -4 1443.86 74.59
-2 -5 4 1443.46 75.29
-2 -5 4 1502.85 75.29
-2 -5 4 1471.25 75.39
1 5 -4 0.6 2.5
1 5 -4 -0.7 3
1 5 -4 1.4 2.7
1 5 -4 3 2.9
-1 -5 4 -0.2 2.8
-1 -5 4 0.4 3
-1 -5 4 5.7 3.1
0 5 -4 2296.97 120.59
0 5 -4 2332.77 120.69
0 5 -4 2355.86 119.99
0 5 -4 2435.76 120.49
0 -5 4 2382.66 120.49
0 -5 4 2292.87 120.59
0 -5 4 2354.96 120.49
-1 5 -4 14.6 3.6
-1 5 -4 16.3 3.6
-1 5 -4 15.6 3.2
1 -5 4 16 3.6
1 -5 4 10.3 3.6
1 -5 4 16.5 3.3
-2 5 -4 182.28 11.8
-2 5 -4 184.78 11.7
-2 5 -4 180.68 11.5
-2 5 -4 184.08 10.2
2 -5 4 178.08 11.5
2 -5 4 169.18 11.4
2 -5 4 181.88 11.9
-3 5 -4 121.09 10.8
-3 5 -4 100.39 8.3
-3 5 -4 119.49 9.2
3 -5 4 119.39 9
-4 5 -4 44.7 7.8
-4 5 -4 46.2 7.7
-4 5 -4 51.29 7.3
-4 5 -4 46.6 5.9
-4 5 -4 44.5 5.9
4 -5 4 51.49 5.6
4 -5 4 44.5 7.3
-5 5 -4 403.06 24
-5 5 -4 478.25 24.1
-5 5 -4 395.76 22.7
-5 5 -4 397.46 23.5
5 -5 4 420.16 24.7
5 -5 4 443.76 23.9
-6 5 -4 35.3 6
-6 5 -4 47.3 6.1
6 -5 4 37.9 6.3
6 -5 4 38.5 5.6
6 4 -4 119.49 12.9
-6 -4 4 116.89 10.4
5 4 -4 52.69 7.3
5 4 -4 58.19 8.3
-5 -4 4 53.69 7.6
4 4 -4 438.76 23.8
4 4 -4 460.45 24.8
4 4 -4 460.55 24.9
-4 -4 4 449.06 24.8
-4 -4 4 463.15 24.1
-4 -4 4 464.35 28.1
-4 -4 4 438.96 24.1
-4 -4 4 452.95 24.8
3 4 -4 91.59 6.5
3 4 -4 90.29 7.9
3 4 -4 88.99 7.1
3 4 -4 87.59 7
3 4 -4 91.49 6.5
-3 -4 4 90.59 6.8
-3 -4 4 83.69 7.2
-3 -4 4 87.29 6.8
2 4 -4 1339.17 68.29
2 4 -4 1283.17 68.69
2 4 -4 1326.97 68.39
2 4 -4 1313.27 68.49
-2 -4 4 1387.56 68.59
-2 -4 4 1335.07 68.69
-2 -4 4 1332.47 68.59
1 4 -4 2243.48 115.69
1 4 -4 2250.67 115.99
1 4 -4 2283.37 116.09
1 4 -4 2335.67 115.89
-1 -4 4 2234.88 115.89
-1 -4 4 2240.28 115.99
0 4 -4 1106.19 55.99
0 4 -4 1125.29 55.79
0 -4 4 1024.6 57.09
0 -4 4 1060.69 55.79
-1 4 -4 3457.55 183.18
-1 4 -4 3540.65 183.08
1 -4 4 3329.47 183.18
1 -4 4 4078.59 184.58
1 -4 4 3536.05 183.18
-2 4 -4 19.6 2.5
-2 4 -4 16.5 3
-2 4 -4 18.1 3.3
-2 4 -4 27.5 4
2 -4 4 13.7 3.1
-3 4 -4 3139.49 162.28
-3 4 -4 3253.97 161.68
-3 4 -4 3042.7 162.08
-3 4 -4 3335.47 161.88
3 -4 4 3256.47 161.78
3 -4 4 2958.9 161.88
-4 4 -4 918.41 49.6
-4 4 -4 973.6 51.89
-4 4 -4 920.01 51.39
-4 4 -4 979.3 49
-4 4 -4 999.2 49.6
4 -4 4 910.81 49.7
4 -4 4 945.01 49.5
4 -4 4 939.41 49.6
-5 4 -4 162.68 10.3
-5 4 -4 165.88 11.3
-5 4 -4 151.98 13.6
-5 4 -4 153.18 11.2
5 -4 4 173.18 11.8
5 -4 4 168.38 11.2
-6 4 -4 417.66 23.7
-6 4 -4 383.86 23
-6 4 -4 446.26 23.8
6 -4 4 435.46 24.2
-7 -3 4 7.7 5
6 3 -4 475.65 30.7
-6 -3 4 469.35 26.2
5 3 -4 31.3 5.1
5 3 -4 32.3 5.7
-5 -3 4 38.7 4.9
4 3 -4 831.72 42.6
4 3 -4 809.32 43
-4 -3 4 821.62 41.7
-4 -3 4 782.12 42.9
-4 -3 4 822.52 42.2
-4 -3 4 779.42 42.4
3 3 -4 1100.39 55.69
3 3 -4 1053.49 54.79
3 3 -4 1047.5 54.79
3 3 -4 1070.89 55.39
-3 -3 4 1045.4 54.89
-3 -3 4 1041.9 55.19
-3 -3 4 1074.19 55.49
-3 -3 4 1098.49 55.19
2 3 -4 62.39 4.9
2 3 -4 59.89 5.2
2 3 -4 63.69 5.7
-2 -3 4 64.89 5.1
-2 -3 4 66.39 5.5
-2 -3 4 64.79 5.1
-2 -3 4 66.49 5.1
1 3 -4 1113.19 57.99
1 3 -4 1107.49 57.99
1 3 -4 1103.19 57.79
1 3 -4 1133.79 58.19
1 3 -4 1121.19 58.19
-1 -3 4 1202.78 58.09
-1 -3 4 1092.19 58.09
-1 -3 4 1148.79 58.09
-1 -3 4 1145.09 58.09
0 3 -4 256.67 13.8
0 3 -4 253.37 14
0 -3 4 259.77 13.9
0 -3 4 228.98 13.8
0 -3 4 260.47 13.8
-1 3 -4 1078.39 56.79
-1 3 -4 1116.79 56.69
1 -3 4 1104.19 56.69
-2 3 -4 2524.25 123.19
-2 3 -4 2328.57 123.29
-2 3 -4 2405.66 122.99
2 -3 4 2301.07 123.19
2 -3 4 2484.75 123.19
-3 3 -4 67.29 5.8
-3 3 -4 60.49 5.6
-3 3 -4 61.79 7.2
-3 3 -4 65.79 4.6
-3 3 -4 63.19 5.7
3 -3 4 62.19 5.7
3 -3 4 57.59 5.6
-4 3 -4 877.91 45.9
-4 3 -4 890.81 45.3
-4 3 -4 781.22 46.6
-4 3 -4 853.21 45.7
4 -3 4 854.31 45.6
4 -3 4 932.61 45.6
4 -3 4 923.61 45.9
-5 3 -4 54.29 6.3
-5 3 -4 43.7 6.5
-5 3 -4 39.4 5.7
-5 3 -4 43.3 6.7
5 -3 4 50.39 7.6
5 -3 4 57.39 9.5
5 -3 4 50.59 6.5
-6 3 -4 590.94 32.1
-6 3 -4 616.84 32.2
-6 3 -4 621.64 32.2
6 -3 4 565.24 31.7
6 -3 4 593.44 33
-7 -2 4 160.88 11.4
6 2 -4 471.75 29.2
-6 -2 4 502.15 26.5
5 2 -4 479.35 27.9
-5 -2 4 501.95 27.5
-5 -2 4 506.85 27.7
-5 -2 4 541.05 27.3
4 2 -4 22.5 3.8
-4 -2 4 27.2 4.6
-4 -2 4 29.9 4.3
-4 -2 4 27 3.6
3 2 -4 1285.37 65.79
3 2 -4 1350.56 66.69
3 2 -4 1315.97 66.19
3 2 -4 1256.67 66.49
-3 -2 4 1267.57 66.29
-3 -2 4 1253.77 65.99
-3 -2 4 1270.07 65.89
-3 -2 4 1302.57 65.99
2 2 -4 292.27 15
2 2 -4 268.77 14.5
2 2 -4 266.07 14.7
2 2 -4 248.28 14.6
2 2 -4 285.87 14.6
-2 -2 4 272.47 14.6
-2 -2 4 266.77 14.5
-2 -2 4 267.87 14.5
-2 -2 4 285.97 15
1 2 -4 987.2 51.39
1 2 -4 1071.29 51.39
1 2 -4 972.3 51.29
1 2 -4 1024.7 51.39
-1 -2 4 1014.7 51.39
-1 -2 4 968.4 51.39
-1 -2 4 1011.3 51.39
-1 -2 4 957.1 51.39
0 2 -4 4330.47 222.58
0 2 -4 4536.15 222.68
0 -2 4 4079.29 222.48
0 -2 4 4371.96 222.48
0 -2 4 4538.15 222.58
-1 2 -4 381.86 19.9
-1 2 -4 391.16 20.5
-1 2 -4 375.96 20.1
1 -2 4 355.46 19.9
1 -2 4 383.66 19.9
-2 2 -4 5592.14 278.77
2 -2 4 5239.98 279.37
2 -2 4 5589.64 278.67
-3 2 -4 12.2 2.5
-3 2 -4 8.7 2.7
-3 2 -4 8.6 2.3
-3 2 -4 9.7 2.2
3 -2 4 12.8 2.4
-4 2 -4 1331.27 68.69
-4 2 -4 1330.67 68.19
-4 2 -4 1287.47 68.29
-4 2 -4 1327.37 69.09
4 -2 4 1384.86 68.59
4 -2 4 1287.27 68.19
-5 2 -4 612.04 31.4
-5 2 -4 527.35 31.9
-5 2 -4 602.54 31.2
-5 2 -4 604.94 31.2
5 -2 4 572.44 31.6
5 -2 4 587.24 31
5 -2 4 609.74 31.9
-6 2 -4 63.99 6.8
-6 2 -4 76.19 7.8
-6 2 -4 72.59 7.8
6 -2 4 65.19 9
-7 2 -4 338.87 19.7
7 1 -4 244.38 17.6
-7 -1 4 236.38 14.4
6 1 -4 0.1 5.1
-6 -1 4 3.6 3.4
5 1 -4 808.12 42.3
-5 -1 4 776.72 42.6
-5 -1 4 765.72 42.3
-5 -1 4 826.12 41.3
4 1 -4 72.49 7.1
-4 -1 4 71.39 6.7
-4 -1 4 66.29 5.1
-4 -1 4 73.09 6.1
3 1 -4 541.85 29.3
-3 -1 4 535.05 28.9
-3 -1 4 577.14 28.6
2 1 -4 1667.33 85.39
2 1 -4 1665.63 85.29
2 1 -4 1670.53 85.59
-2 -1 4 1688.03 85.49
-2 -1 4 1712.63 85.79
-2 -1 4 1688.33 85.69
-2 -1 4 1620.94 85.29
1 1 -4 1285.77 69.59
1 1 -4 1357.46 69.59
-1 -1 4 1419.56 69.29
-1 -1 4 1297.17 69.59
-1 -1 4 1434.16 69.59
0 1 -4 1624.44 81.79
0 1 -4 1565.24 81.69
0 1 -4 1632.04 81.79
0 -1 4 1569.64 81.69
0 -1 4 1598.44 81.69
-1 1 -4 2192.38 110.69
-1 1 -4 2176.88 110.49
1 -1 4 2129.29 110.59
-2 1 -4 3365.16 172.58
-2 1 -4 3485.85 172.78
2 -1 4 3448.25 172.58
2 -1 4 3309.87 172.58
2 -1 4 3329.57 172.68
-3 1 -4 2043.3 105.69
-3 1 -4 2164.78 105.69
-3 1 -4 2082.49 105.39
3 -1 4 2011.1 105.49
3 -1 4 1996.8 105.29
3 -1 4 2065.49 105.59
-4 1 -4 10.9 2.6
-4 1 -4 2.3 2.8
-4 1 -4 8 3.1
-4 1 -4 6.8 2.3
4 -1 4 5.2 2.1
4 -1 4 9.6 4.3
4 -1 4 8.3 2.9
4 -1 4 6.8 3.3
-5 1 -4 809.72 44
-5 1 -4 856.71 43.4
5 -1 4 836.22 43.1
-6 1 -4 340.67 20.2
6 -1 4 379.46 21.3
7 -1 4 286.57 19
7 0 -4 362.86 22.4
-7 0 4 348.97 19.6
6 0 -4 1312.67 69.19
-6 0 4 1323.77 67.79
5 0 -4 693.53 35.3
-5 0 4 635.84 34.5
-5 0 4 691.13 34
-5 0 4 586.74 37.6
4 0 -4 1521.85 77.19
-4 0 4 1446.76 76.79
-4 0 4 1501.85 76.29
-4 0 4 1508.15 77.49
3 0 -4 11.2 2.6
-3 0 4 6.1 2
-3 0 4 7.2 2
-3 0 4 8.1 1.7
-3 0 4 9.8 2.9
2 0 -4 1774.42 82.49
2 0 -4 1640.14 82.59
-2 0 4 1410.86 82.49
-2 0 4 1631.24 82.59
1 0 -4 205.48 11.1
1 0 -4 206.38 10.8
-1 0 4 180.58 10.9
-1 0 4 189.78 10.9
0 0 -4 632.34 34
0 0 -4 627.24 33.9
0 0 4 677.83 34
0 0 4 666.03 33.9
-1 0 -4 1199.68 65.39
-1 0 -4 1303.87 65.49
1 0 4 1368.96 65.49
1 0 4 1207.68 65.29
-2 0 -4 1732.03 91.39
-2 0 -4 1650.23 91.39
2 0 4 1745.03 91.39
2 0 4 1995.3 91.19
-3 0 -4 642.14 33
-3 0 -4 630.74 32.7
-3 0 -4 553.34 32.8
3 0 4 640.84 32.8
3 0 4 607.94 32.3
3 0 4 665.23 32.9
-4 0 -4 551.14 33.5
-4 0 -4 669.43 34
-4 0 -4 676.33 33.2
-4 0 -4 551.24 33.5
4 0 4 665.53 33.8
4 0 4 658.93 32.9
4 0 4 672.73 34.1
-5 0 -4 110.19 7.4
5 0 4 114.49 10.3
5 0 4 111.39 9.3
6 0 4 726.33 40.5
-7 0 -4 21.1 8.3
7 0 4 34.3 6.6
7 -1 -4 4.2 6
6 -1 -4 671.73 34.3
-6 1 4 569.94 33
5 -1 -4 9.1 4.3
-5 1 4 9.5 2.2
-5 1 4 8.7 3
4 -1 -4 838.12 43.4
-4 1 4 807.92 42.8
-4 1 4 818.12 43.6
-4 1 4 830.32 42.5
-4 1 4 852.81 42.6
-4 1 4 807.72 42.8
3 -1 -4 1359.36 69.99
3 -1 -4 1342.67 70.79
3 -1 -4 1382.26 69.89
-3 1 4 1385.56 69.99
-3 1 4 1362.66 69.99
2 -1 -4 41.9 3.2
2 -1 -4 38.8 3.8
2 -1 -4 37.2 3.2
-2 1 4 39.2 3
-2 1 4 38.2 3.3
1 -1 -4 4352.06 211.18
1 -1 -4 4005.5 211.08
1 -1 -4 4205.08 210.78
-1 1 4 4119.69 211.08
-1 1 4 4055.99 211.08
0 -1 -4 994.1 50.59
0 -1 -4 965.2 50.49
0 1 4 990.7 50.59
-1 -1 -4 591.44 30.2
-1 -1 -4 560.64 30.1
1 1 4 557.54 30.2
1 1 4 605.34 30.2
-2 -1 -4 1773.72 96.19
2 1 4 2064.59 95.89
2 1 4 1785.22 96.09
-3 -1 -4 1088.49 65.99
-3 -1 -4 1262.47 65.79
3 1 4 1252.77 65.79
3 1 4 1319.07 65.89
3 1 4 1443.86 67.89
3 1 4 1310.87 65.59
-4 -1 -4 419.26 23.1
-4 -1 -4 421.96 23.6
-4 -1 -4 435.06 22.8
4 1 4 429.76 23.9
4 1 4 428.16 23.3
5 1 4 255.37 15.8
5 1 4 262.97 16.9
-6 -1 -4 733.13 40.3
6 1 4 729.73 40.4
6 1 4 705.73 39.2
-7 -1 -4 539.05 32
7 1 4 539.75 30.9
7 -2 -4 152.28 13.7
-6 2 4 672.63 35.6
5 -2 -4 1081.29 54.59
5 -2 -4 973.6 53.39
-5 2 4 1101.09 53.69
-5 2 4 1076.39 53.49
-5 2 4 940.91 57.09
-5 2 4 1044 53.69
4 -2 -4 4 1.9
4 -2 -4 0.8 2.1
4 -2 -4 1.9 3.1
-4 2 4 0.3 2.5
-4 2 4 3.3 2
-4 2 4 1.6 2.4
3 -2 -4 1788.22 93.89
3 -2 -4 1839.12 93.99
3 -2 -4 1917.01 95.49
-3 2 4 1808.22 93.79
-3 2 4 1837.22 94.19
2 -2 -4 149.39 8.1
2 -2 -4 148.99 8.5
2 -2 -4 149.19 8.7
1 -2 -4 1838.22 94.59
1 -2 -4 1836.32 94.49
1 -2 -4 1793.62 94.29
-1 2 4 1831.82 94.59
-1 2 4 1856.71 94.29
-1 2 4 1942.11 94.49
0 -2 -4 555.54 28.9
0 -2 -4 553.74 29
0 -2 -4 563.74 28.9
0 2 4 530.95 29
0 2 4 587.14 28.6
0 2 4 551.64 28.9
-1 -2 -4 183.48 10.1
-1 -2 -4 174.88 9.7
-1 -2 -4 182.08 9.9
1 2 4 180.68 9.9
1 2 4 174.78 9.8
1 2 4 159.38 9.8
1 2 4 175.58 9.6
-2 -2 -4 1625.84 81.39
-2 -2 -4 1553.24 80.69
-2 -2 -4 1626.24 80.79
2 2 4 1480.45 80.79
2 2 4 1600.44 80.79
-3 -2 -4 2415.16 117.59
-3 -2 -4 2072.59 116.89
-3 -2 -4 2435.16 117.09
3 2 4 2070.69 117.09
3 2 4 2274.57 116.59
3 2 4 2395.86 117.59
3 2 4 2334.27 116.99
-4 -2 -4 187.48 10.6
-4 -2 -4 184.48 12.6
-4 -2 -4 181.68 11.8
-4 -2 -4 153.18 11.7
4 2 4 190.18 11.7
4 2 4 202.68 13
-5 -2 -4 2482.15 119.49
-5 -2 -4 2050.69 117.89
5 2 4 2296.87 118.59
5 2 4 2388.26 119.59
-6 -2 -4 125.39 13.1
6 2 4 127.39 11.4
7 -3 -4 157.28 13.7
-7 3 4 147.99 9.8
-7 3 4 147.39 10
6 -3 -4 147.29 13.5
-6 3 4 138.99 9.9
5 -3 -4 343.17 19.8
5 -3 -4 341.67 18.6
5 -3 -4 315.07 18.3
-5 3 4 336.77 20.1
-5 3 4 356.66 19.1
-5 3 4 340.47 18.2
-5 3 4 353.36 18.7
4 -3 -4 1439.86 75.19
4 -3 -4 1439.36 75.49
4 -3 -4 1377.46 74.99
-4 3 4 1498.35 74.69
-4 3 4 1469.35 75.09
-4 3 4 1540.95 75.39
3 -3 -4 1905.21 98.39
3 -3 -4 1948.41 99.09
3 -3 -4 1968.3 98.59
-3 3 4 1915.81 98.49
-3 3 4 1890.51 98.09
-3 3 4 1909.81 98.69
2 -3 -4 4176.68 208.18
2 -3 -4 4133.09 208.28
2 -3 -4 4156.08 208.48
-2 3 4 4097.39 208.38
-2 3 4 3879.01 207.98
1 -3 -4 24.4 4
1 -3 -4 30.5 3.5
1 -3 -4 22.7 3.4
-1 3 4 30.1 3.1
-1 3 4 26 4.1
-1 3 4 34.8 3.7
0 -3 -4 2707.83 138.79
0 3 4 2735.43 138.79
0 3 4 2716.03 138.79
-1 -3 -4 953.5 47.9
-1 -3 -4 932.21 47.6
-1 -3 -4 936.71 47.7
1 3 4 906.21 47.6
1 3 4 878.81 47.3
-2 -3 -4 738.13 37.9
-2 -3 -4 736.03 38.4
-2 -3 -4 739.23 38
2 3 4 731.73 37.9
2 3 4 678.43 37.8
2 3 4 741.73 37.9
2 3 4 741.53 38
-3 -3 -4 1822.52 97.39
-3 -3 -4 1919.61 97.09
-3 -3 -4 1821.92 96.99
3 3 4 1977.1 98.09
3 3 4 1917.21 96.99
3 3 4 1908.91 97.19
-4 -3 -4 584.44 29.9
-4 -3 -4 525.25 30
-4 -3 -4 562.54 30.6
4 3 4 593.24 30.5
4 3 4 511.55 30.2
4 3 4 620.94 31.8
-5 -3 -4 95.29 10.9
5 3 4 96.39 11
5 3 4 93.89 9.4
-6 -3 -4 65.49 8.4
6 3 4 53.49 7.2
6 3 4 56.69 9.4
7 -4 -4 116.99 12.6
-7 4 4 117.29 9.5
-7 4 4 104.99 8.6
6 -4 -4 155.18 10.5
6 -4 -4 173.78 17.6
-6 4 4 156.18 10.7
-6 4 4 164.48 11.5
5 -4 -4 103.99 7.7
5 -4 -4 115.29 9.6
5 -4 -4 114.29 8.6
-5 4 4 108.99 9.4
-5 4 4 119.19 8.5
-5 4 4 107.19 7.4
4 -4 -4 1612.14 82.49
4 -4 -4 1567.14 82.29
4 -4 -4 1614.14 82.59
-4 4 4 1594.64 81.99
-4 4 4 1598.84 82.39
-4 4 4 1613.04 82.69
3 -4 -4 109.19 7.6
3 -4 -4 110.09 7.7
3 -4 -4 110.89 8.4
3 -4 -4 109.69 7.9
-3 4 4 114.19 7.8
-3 4 4 107.79 7.1
-3 4 4 114.39 8.7
2 -4 -4 1284.97 63.69
2 -4 -4 1223.08 63.49
2 -4 -4 1267.67 63.99
2 -4 -4 1205.58 63.69
-2 4 4 1194.98 63.49
-2 4 4 1278.07 64.09
-2 4 4 1195.18 64.19
1 -4 -4 684.63 36.6
1 -4 -4 710.23 36.6
-1 4 4 708.93 36.9
0 -4 -4 1050.39 54.09
0 -4 -4 1001.7 53.19
0 4 4 994.2 52.89
0 4 4 1031.6 53.19
0 4 4 1044.3 52.89
-1 -4 -4 2234.38 112.59
-1 -4 -4 2231.98 112.39
1 4 4 2091.19 111.99
1 4 4 2169.18 112.49
1 4 4 2241.78 112.39
1 4 4 2204.48 112.59
-2 -4 -4 111.89 8.1
-2 -4 -4 116.69 6.9
-2 -4 -4 98.79 8.2
-2 -4 -4 98.59 7.5
2 4 4 107.09 7.3
2 4 4 112.49 8
2 4 4 106.39 8.3
-3 -4 -4 1902.71 94.49
-3 -4 -4 1799.32 94.09
-3 -4 -4 1889.61 94.19
-3 -4 -4 1824.12 94.49
-3 -4 -4 1866.01 95.09
3 4 4 1702.03 94.09
3 4 4 1843.62 94.29
3 4 4 1866.01 95.39
-4 -4 -4 109.69 8.3
-4 -4 -4 110.79 7.8
-4 -4 -4 130.99 10.7
-4 -4 -4 84.89 12.1
-4 -4 -4 117.89 8.4
4 4 4 107.79 7.8
4 4 4 109.79 9.3
4 4 4 107.59 11
4 4 4 105.99 8.5
-5 -4 -4 48.4 7.6
-5 -4 -4 47.2 6.4
-5 -4 -4 61.39 6.9
5 4 4 58.59 8.7
5 4 4 48 9.2
-6 -4 -4 866.71 46.2
6 4 4 838.92 45.4
6 4 4 799.12 47.1
6 -5 -4 311.27 18.3
6 -5 -4 328.57 19.6
-6 5 4 296.47 17.4
-6 5 4 323.67 19.3
5 -5 -4 154.48 11.4
5 -5 -4 158.58 11.7
-5 5 4 164.98 10.2
-5 5 4 174.98 12.3
-5 5 4 167.88 11.3
4 -5 -4 441.56 24.4
4 -5 -4 461.25 27.7
-4 5 4 447.46 24.9
-4 5 4 425.86 24.3
-4 5 4 444.26 23.8
3 -5 -4 1087.39 54.79
3 -5 -4 989.8 54.89
3 -5 -4 1032.6 55.19
-3 5 4 1025.7 54.09
-3 5 4 1033.5 54.49
-3 5 4 1103.19 54.99
2 -5 -4 1406.86 71.39
2 -5 -4 1412.16 71.79
2 -5 -4 1323.97 71.79
2 -5 -4 1417.96 72.19
-2 5 4 1326.67 71.79
-2 5 4 1399.26 71.59
-2 5 4 1443.46 72.29
1 -5 -4 1049.2 56.59
1 -5 -4 1130.09 56.99
-1 5 4 1046.3 56.59
-1 5 4 1087.69 56.49
-1 5 4 1144.49 57.09
0 -5 -4 85.69 7.4
0 -5 -4 81.59 6.6
0 -5 -4 74.09 7.2
0 5 4 78.59 7.5
0 5 4 77.59 6.6
0 5 4 76.39 6.5
-1 -5 -4 418.96 23.5
-1 -5 -4 434.76 24.1
-1 -5 -4 454.75 24
-1 -5 -4 443.26 22.8
1 5 4 432.06 23.8
1 5 4 435.16 24
-2 -5 -4 623.04 32.9
-2 -5 -4 612.34 32.5
-2 -5 -4 611.94 32.5
-2 -5 -4 607.34 32
2 5 4 623.34 32.8
2 5 4 599.64 32.3
-3 -5 -4 423.46 22.7
-3 -5 -4 431.16 23.3
-3 -5 -4 426.96 22.5
-3 -5 -4 445.86 24.1
-3 -5 -4 391.66 22.8
3 5 4 428.16 23
3 5 4 425.66 24.5
3 5 4 364.96 23
-4 -5 -4 416.16 23.8
-4 -5 -4 379.66 21.5
-4 -5 -4 408.46 22.1
-4 -5 -4 374.56 22.1
4 5 4 408.96 21.6
4 5 4 362.86 21.5
4 5 4 400.86 26
-5 -5 -4 12.2 6.4
-5 -5 -4 9.2 3.1
-5 -5 -4 2.5 3.9
5 5 4 9.5 7.3
6 -6 -4 56.39 7
6 -6 -4 56.39 10.6
-6 6 4 61.19 7.6
-6 6 4 64.39 8.1
-6 6 4 45.8 6.5
5 -6 -4 76.09 8.4
5 -6 -4 69.19 8.8
-5 6 4 75.39 7
-5 6 4 65.69 8.3
-5 6 4 69.39 9.9
4 -6 -4 10.3 4.9
4 -6 -4 19.8 4.1
-4 6 4 14.2 3.6
-4 6 4 11.2 5.7
-4 6 4 22 4
3 -6 -4 660.73 34.8
3 -6 -4 645.64 34.9
3 -6 -4 635.44 33.9
-3 6 4 655.13 35.1
-3 6 4 621.14 34.5
2 -6 -4 65.69 8.6
2 -6 -4 79.99 7.6
2 -6 -4 70.09 5.7
-2 6 4 71.19 6.6
-2 6 4 70.59 9
-2 6 4 65.89 7.3
1 -6 -4 8.4 4.2
1 -6 -4 4.4 3
1 -6 -4 2.9 4.2
-1 6 4 10.7 3.3
-1 6 4 3.6 4
-1 6 4 12 3.6
0 -6 -4 1129.89 57.19
0 -6 -4 1114.99 57.29
0 -6 -4 1043.5 56.79
0 6 4 1034 57.39
0 6 4 1130.59 56.89
-1 -6 -4 111.69 9
-1 -6 -4 119.89 10.1
-1 -6 -4 129.89 7.6
1 6 4 139.99 9.5
-2 -6 -4 981.1 52.19
-2 -6 -4 1056.89 53.39
-2 -6 -4 986.3 52.79
-2 -6 -4 1051.89 53.69
-2 -6 -4 982.6 52.39
-3 -6 -4 70.69 7.3
-3 -6 -4 64.09 6.9
-3 -6 -4 85.19 10
-3 -6 -4 80.19 6.7
3 6 4 61.79 8.2
3 6 4 64.79 10.5
-4 -6 -4 98.39 11.4
-4 -6 -4 80.39 7.8
4 6 4 98.39 12.4
4 6 4 87.39 8.5
-5 -6 -4 34.7 8.2
-5 -6 -4 47.6 6.1
-5 -6 -4 37.6 5.5
5 6 4 29.4 9.1
5 -7 -4 26.1 5
5 -7 -4 13.8 5.6
-5 7 4 18.7 4.7
-5 7 4 21.9 6.4
-5 7 4 20 4.4
4 -7 -4 57.89 9.9
4 -7 -4 77.19 7.6
4 -7 -4 76.09 10.4
-4 7 4 88.59 7.7
-4 7 4 75.69 11.1
-4 7 4 81.69 8.7
3 -7 -4 28.8 4.2
3 -7 -4 35.9 6.3
3 -7 -4 35.5 6.1
-3 7 4 28.9 5.2
-3 7 4 20.2 4.2
-3 7 4 27 6.2
2 -7 -4 409.46 22.6
2 -7 -4 376.56 23
-2 7 4 366.46 22.2
-2 7 4 389.56 22
-2 7 4 409.26 23.3
1 -7 -4 4.7 4.6
1 -7 -4 9.3 4.7
-1 7 4 -1 4.6
-1 7 4 12.5 4.2
-1 7 4 5.5 3.5
0 -7 -4 412.46 23.3
0 -7 -4 375.96 23.1
0 -7 -4 408.06 23.5
0 7 4 395.16 22.5
0 7 4 404.16 23.4
-1 -7 -4 315.37 19.2
-1 -7 -4 292.97 18
-1 -7 -4 313.67 19.1
1 7 4 310.37 19
-2 -7 -4 2.2 3.5
-2 -7 -4 12.3 6.3
-2 -7 -4 4.3 2.8
-2 -7 -4 10.7 6.4
-2 -7 -4 8.3 2.9
2 7 4 4.1 6.3
2 7 4 7.7 4.6
-3 -7 -4 453.45 26.1
-3 -7 -4 484.45 26.7
-3 -7 -4 486.55 26
-3 -7 -4 506.15 27.6
3 7 4 484.95 28.6
3 7 4 469.05 29.1
-4 -7 -4 1.6 6.7
-4 -7 -4 3.8 4.1
-4 -7 -4 3.2 4
-4 -7 -4 3.5 3.9
4 7 4 13.4 7.6
4 7 4 -0.1 4.2
4 -8 -4 197.48 14.9
4 -8 -4 147.49 14.6
4 -8 -4 201.18 12
-4 8 4 203.48 16
3 -8 -4 325.67 20.8
3 -8 -4 327.67 22
3 -8 -4 325.37 20.8
-3 8 4 322.77 21.6
2 -8 -4 375.66 22.4
-2 8 4 349.96 23
1 -8 -4 129.69 12.4
1 -8 -4 129.19 12.5
0 -8 -4 20 6.3
0 -8 -4 14.2 5.4
0 8 4 16.5 5.8
-1 -8 -4 567.84 32.1
-1 -8 -4 544.35 31.1
1 8 4 583.74 32.2
-2 -8 -4 57.69 8.1
-2 -8 -4 54.39 7.2
-2 -8 -4 54.79 8.4
2 8 4 48.8 9
2 8 4 53.39 7.3
-3 -8 -4 381.06 23.2
-3 -8 -4 324.67 19.7
-3 -8 -4 366.36 22.3
3 8 4 363.86 21.8
3 8 4 331.37 24
2 -9 -4 97.59 12.4
2 -9 -4 82.39 12.9
-2 9 4 82.79 13.1
1 -9 -4 251.07 18.8
1 -9 -4 265.07 18.1
0 9 4 35.3 7.3
-1 -9 -4 147.89 14.8
-1 -9 -4 160.38 14.4
1 9 4 160.88 14.9
1 9 -5 150.78 11.9
1 9 -5 167.18 14.4
-1 -9 5 160.68 14.2
-1 -9 5 164.78 14.2
0 9 -5 101.89 8.9
0 -9 5 135.29 13.2
0 -9 5 99.39 12.3
1 -9 5 117.29 12.9
1 -9 5 136.59 13.2
3 8 -5 14.2 9.5
3 8 -5 26.9 5.3
-3 -8 5 26.5 6.7
-3 -8 5 25.4 6.1
-3 -8 5 34 5.2
2 8 -5 745.23 40.6
2 8 -5 731.53 40.5
-2 -8 5 786.92 41.3
-2 -8 5 765.42 41
-2 -8 5 736.63 41.5
1 8 -5 68.59 7.9
1 8 -5 71.99 10
-1 -8 5 67.69 9
-1 -8 5 79.99 10
-1 -8 5 56.79 9.8
0 8 -5 222.18 15.2
0 8 -5 195.78 12.9
0 -8 5 228.08 15.2
0 -8 5 213.18 15.1
-1 8 -5 171.68 15.4
1 -8 5 166.78 13.7
1 -8 5 159.48 13.1
-2 8 -5 212.68 15.6
3 -8 5 410.36 24.6
4 7 -5 251.67 16.5
4 7 -5 291.77 18.4
-4 -7 5 258.77 20.1
-4 -7 5 277.87 17.3
-4 -7 5 280.07 17.9
3 7 -5 224.38 14.4
3 7 -5 207.48 15
-3 -7 5 231.98 16.1
-3 -7 5 210.18 14.5
-3 -7 5 234.48 15
2 7 -5 523.15 29.4
2 7 -5 539.25 29.5
-2 -7 5 542.75 29.8
-2 -7 5 544.05 31.3
1 7 -5 106.09 9.8
1 7 -5 96.59 8.3
-1 -7 5 97.29 9.8
-1 -7 5 93.99 9.5
-1 -7 5 116.59 10.4
0 7 -5 52.79 8.2
0 7 -5 46.4 5.6
0 -7 5 51.09 7.6
0 -7 5 40.8 5.5
0 -7 5 48.4 8.2
-1 7 -5 409.16 22.9
1 -7 5 402.36 23.1
1 -7 5 391.56 22.8
1 -7 5 378.96 26.5
-2 7 -5 282.87 17.7
2 -7 5 281.57 19
3 -7 5 174.88 13.3
-4 7 -5 307.87 19
4 -7 5 289.17 18.9
5 6 -5 50.99 8.3
-5 -6 5 50.89 6.7
-5 -6 5 71.29 10.1
-5 -6 5 58.69 9.6
4 6 -5 248.68 16.6
4 6 -5 240.88 14.9
-4 -6 5 252.27 16.1
-4 -6 5 250.87 15.4
-4 -6 5 237.18 14.9
3 6 -5 9.4 3.6
3 6 -5 10.1 3.7
3 6 -5 14.3 5
-3 -6 5 19.9 4.9
-3 -6 5 10 4.1
-3 -6 5 9.8 4.9
2 6 -5 9.8 4.4
2 6 -5 8.7 3.4
2 6 -5 11 4.2
2 6 -5 10.3 4.3
-2 -6 5 6.8 4
-2 -6 5 11.1 3.7
-2 -6 5 19 4.6
1 6 -5 614.94 35
1 6 -5 620.64 33.7
-1 -6 5 597.24 33.7
-1 -6 5 658.83 34
-1 -6 5 642.44 33.7
0 6 -5 221.18 15.8
0 6 -5 248.08 14.5
0 6 -5 223.28 13
0 6 -5 241.98 16.2
0 -6 5 224.98 14.4
0 -6 5 227.78 14.4
0 -6 5 240.68 14.5
-1 6 -5 7.3 3.9
-1 6 -5 12.4 4.4
1 -6 5 9.6 3.7
1 -6 5 12.2 4.7
1 -6 5 7.7 3.8
-2 6 -5 792.82 43
2 -6 5 759.62 42.6
2 -6 5 847.92 42.6
-3 6 -5 5.3 4.6
-3 6 -5 3.1 4.1
-4 6 -5 472.15 26.6
-5 6 -5 156.48 14.5
-5 6 -5 177.48 12.8
-5 6 -5 144.49 11.1
5 -6 5 179.58 12.7
-6 -5 5 84.39 10.5
5 5 -5 441.36 25.7
-5 -5 5 434.56 23.5
-5 -5 5 425.96 23.4
4 5 -5 5.8 2.7
4 5 -5 8 3.8
4 5 -5 5.3 5
4 5 -5 3.6 6.5
4 5 -5 7.3 3.2
-4 -5 5 10.2 4.5
-4 -5 5 8 3.2
3 5 -5 472.55 26
3 5 -5 474.55 26.6
3 5 -5 469.85 26
3 5 -5 461.15 26.6
-3 -5 5 474.25 26.7
-3 -5 5 522.25 26.3
-3 -5 5 483.95 26.3
-3 -5 5 514.55 26.6
2 5 -5 1973.4 101.59
2 5 -5 2009.9 101.19
2 5 -5 1962.9 101.29
2 5 -5 1889.81 101.29
2 5 -5 1947.21 100.79
-2 -5 5 2028.6 101.39
-2 -5 5 1991 101.39
1 5 -5 555.64 30.1
1 5 -5 549.65 29.6
1 5 -5 563.14 30.2
-1 -5 5 569.34 30.2
-1 -5 5 574.34 30.1
0 5 -5 295.67 17.1
0 5 -5 294.77 17.2
0 5 -5 303.97 17.1
0 -5 5 291.97 17.2
0 -5 5 302.87 17.1
0 -5 5 305.47 17.1
-1 5 -5 1.8 3.3
-1 5 -5 5.6 3.2
-1 5 -5 6.9 2.9
1 -5 5 9.6 3.1
1 -5 5 7 3.9
-2 5 -5 850.71 42.6
-2 5 -5 817.42 43.9
-2 5 -5 831.12 43.6
2 -5 5 847.92 43.4
2 -5 5 766.42 43.4
-3 5 -5 184.28 11.7
-3 5 -5 156.98 10.3
-3 5 -5 170.28 11.6
3 -5 5 168.68 11.6
-4 5 -5 57.99 7.8
-4 5 -5 58.29 7.4
-4 5 -5 49.8 6
4 -5 5 45 7.5
-5 5 -5 346.07 22.5
-5 5 -5 376.56 22.2
5 -5 5 406.36 22.1
5 -5 5 396.16 22.3
-6 5 -5 124.99 11
-6 5 -5 113.89 10.1
6 -5 5 102.29 10.7
6 -5 5 106.39 11.2
-6 -4 5 70.39 8.5
-5 -4 5 436.56 24.3
4 4 -5 598.84 33
4 4 -5 654.63 33.9
4 4 -5 638.14 34.4
4 4 -5 625.54 33.9
-4 -4 5 651.43 33.4
-4 -4 5 633.34 33.7
-4 -4 5 631.14 33.3
-4 -4 5 634.14 36.4
3 4 -5 13.1 2.7
3 4 -5 8.4 3.9
3 4 -5 9.7 3.6
3 4 -5 6.4 3.2
3 4 -5 3.5 2.3
-3 -4 5 7.4 3.3
-3 -4 5 6 2.7
-3 -4 5 4.6 2.9
-3 -4 5 8.9 3.4
-3 -4 5 6.5 2.8
2 4 -5 1592.54 80.09
2 4 -5 1572.94 80.59
2 4 -5 1527.05 80.39
2 4 -5 1552.34 80.59
-2 -4 5 1547.45 80.39
-2 -4 5 1602.24 80.59
-2 -4 5 1547.05 80.39
1 4 -5 84.79 6.3
1 4 -5 80.89 6.4
1 4 -5 73.39 5.8
1 4 -5 78.59 5.2
-1 -4 5 81.19 6.6
-1 -4 5 81.39 6.5
-1 -4 5 89.19 6.7
0 4 -5 2564.84 133.39
0 4 -5 2648.14 133.29
0 4 -5 2588.34 133.49
0 -4 5 2640.74 133.29
0 -4 5 2440.76 133.29
0 -4 5 2750.42 133.39
-1 4 -5 2334.37 119.09
-1 4 -5 2424.76 118.79
1 -4 5 2199.58 118.89
1 -4 5 2274.07 118.89
1 -4 5 2360.26 118.79
-2 4 -5 46.2 5.5
-2 4 -5 41.9 6.6
-2 4 -5 44.7 5.6
-2 4 -5 46.4 4.4
2 -4 5 37.6 5.5
2 -4 5 35.7 5.7
-3 4 -5 1272.87 67.39
-3 4 -5 1397.66 67.69
-3 4 -5 1278.27 68.39
3 -4 5 1232.28 67.69
3 -4 5 1348.17 67.69
-4 4 -5 329.97 18.4
-4 4 -5 307.77 16.9
-4 4 -5 309.57 18.2
4 -4 5 316.47 18.6
4 -4 5 299.17 17.9
4 -4 5 340.37 18.3
-5 4 -5 359.46 24.1
-5 4 -5 422.26 22.6
-5 4 -5 452.15 23.6
-5 4 -5 421.06 23.6
5 -4 5 411.36 23.4
5 -4 5 448.66 24.2
-6 4 -5 404.16 22.7
-6 4 -5 395.56 22.8
6 -4 5 383.36 22.7
6 -4 5 386.86 23.4
-7 -3 5 289.77 17.5
6 3 -5 641.54 35.5
-6 -3 5 629.34 33.9
5 3 -5 14.9 4.4
4 3 -5 1773.52 88.89
4 3 -5 1774.82 89.09
-4 -3 5 1715.43 88.49
-4 -3 5 1726.63 88.59
-4 -3 5 1689.63 88.99
-4 -3 5 1674.33 89.39
-4 -3 5 1725.23 88.39
3 3 -5 317.57 17.8
3 3 -5 324.17 17.9
3 3 -5 363.06 19.8
3 3 -5 309.27 18.8
-3 -3 5 332.97 18.6
-3 -3 5 323.77 17.9
-3 -3 5 363.96 18.1
-3 -3 5 319.77 18
2 3 -5 2207.38 110.49
2 3 -5 2153.38 110.49
2 3 -5 2137.79 110.29
2 3 -5 2148.58 110.29
2 3 -5 2157.58 110.29
-2 -3 5 2253.07 110.59
-2 -3 5 2153.28 110.29
-2 -3 5 2074.59 110.29
-2 -3 5 2135.79 110.39
1 3 -5 3936.11 193.98
1 3 -5 3696.33 194.18
-1 -3 5 3808.92 193.98
-1 -3 5 3626.04 194.18
-1 -3 5 3939.41 194.18
-1 -3 5 3846.12 194.18
0 3 -5 997.6 52.09
0 3 -5 1018 52.59
0 -3 5 1057.09 52.29
0 -3 5 955.2 52.19
0 -3 5 1025 52.19
-1 3 -5 237.78 12.6
-1 3 -5 235.48 13.1
-1 3 -5 212.18 12.7
1 -3 5 205.38 12.6
-2 3 -5 25.1 4.2
-2 3 -5 15.7 2.9
2 -3 5 17.4 2.8
-3 3 -5 124.59 10.4
-3 3 -5 137.69 9
-3 3 -5 138.39 9.2
3 -3 5 148.19 9.2
3 -3 5 130.89 9
-4 3 -5 430.36 21.8
-4 3 -5 410.26 22.6
-4 3 -5 355.66 23.9
-4 3 -5 431.56 22.5
-4 3 -5 403.76 22.7
4 -3 5 412.16 22.4
4 -3 5 421.16 22.9
-5 3 -5 1.7 3.1
-5 3 -5 6.7 3.7
-5 3 -5 5 5.5
5 -3 5 5.3 4.8
5 -3 5 3 3.4
5 -3 5 2.4 2.7
-6 3 -5 252.17 15.9
-6 3 -5 255.47 18.9
6 -3 5 275.37 16.4
6 -3 5 269.27 17.4
-7 -2 5 118.99 9.4
-6 -2 5 462.25 25
5 2 -5 404.76 22.9
-5 -2 5 393.86 22.3
-5 -2 5 404.86 21.7
4 2 -5 288.87 16.4
-4 -2 5 279.67 16.1
-4 -2 5 279.57 16.8
-4 -2 5 281.87 15.4
3 2 -5 2618.14 126.79
3 2 -5 2478.65 126.49
3 2 -5 2524.85 127.49
-3 -2 5 2387.46 126.59
-3 -2 5 2383.66 126.79
-3 -2 5 2528.75 127.29
-3 -2 5 2449.05 126.59
2 2 -5 38.2 3.9
2 2 -5 43.5 4
2 2 -5 39.5 3.7
2 2 -5 34.6 3.7
-2 -2 5 44.1 4.4
-2 -2 5 44.4 3.8
-2 -2 5 35.2 3.5
1 2 -5 6784.32 325.77
1 2 -5 6563.24 325.87
1 2 -5 6560.24 325.77
-1 -2 5 6193.68 325.77
-1 -2 5 6327.67 325.67
-1 -2 5 6682.93 325.67
-1 -2 5 5710.43 325.67
0 2 -5 291.37 14.9
0 2 -5 286.87 15.2
0 2 -5 275.37 15.1
0 -2 5 263.77 15
0 -2 5 287.97 15
0 -2 5 265.97 14.9
0 -2 5 264.37 15
-1 2 -5 4048.09 200.58
-1 2 -5 3897.51 201.08
-1 2 -5 4021.9 200.78
1 -2 5 3780.42 200.68
-2 2 -5 3725.33 186.58
-2 2 -5 3345.47 186.88
-2 2 -5 3740.03 186.38
2 -2 5 3857.11 186.18
2 -2 5 3583.64 186.18
-3 2 -5 102.89 8
-3 2 -5 129.59 7.9
-3 2 -5 117.79 7.9
3 -2 5 119.19 7.9
3 -2 5 115.09 7.7
-4 2 -5 1806.02 90.59
-4 2 -5 1761.22 90.69
4 -2 5 1710.23 90.49
4 -2 5 1816.82 90.89
4 -2 5 1715.93 90.69
-5 2 -5 349.57 20.2
-5 2 -5 374.16 20.2
5 -2 5 359.96 19.8
5 -2 5 347.47 20.8
5 -2 5 387.46 21.1
-6 2 -5 131.69 9.6
-6 2 -5 134.09 10.9
6 -2 5 147.99 11.9
7 1 -5 384.16 23.9
-7 -1 5 389.56 21.3
6 1 -5 171.88 15.5
-6 -1 5 177.88 10.7
5 1 -5 674.03 35.8
-5 -1 5 654.03 37.1
-5 -1 5 656.03 34.4
4 1 -5 29.3 4.3
-4 -1 5 34 4.9
-4 -1 5 33.9 3.6
-4 -1 5 33.7 5.9
3 1 -5 1646.54 83.89
3 1 -5 1649.13 83.19
-3 -1 5 1615.24 83.39
-3 -1 5 1602.74 83.09
-3 -1 5 1629.24 83.49
2 1 -5 1154.38 69.59
2 1 -5 1385.36 69.39
2 1 -5 1370.86 69.09
2 1 -5 1426.76 69.49
-2 -1 5 1436.76 69.69
-2 -1 5 1248.98 69.69
-2 -1 5 1356.56 69.49
-2 -1 5 1441.16 69.09
1 1 -5 290.07 17
1 1 -5 341.27 16.6
1 1 -5 303.37 16.9
-1 -1 5 317.87 16.4
-1 -1 5 316.27 16.9
0 1 -5 2577.84 135.59
0 1 -5 2628.04 135.39
0 1 -5 2701.33 135.59
0 -1 5 2705.73 135.49
-1 1 -5 640.14 33.2
-1 1 -5 621.24 32.9
1 -1 5 636.24 33
-2 1 -5 1642.44 86.59
-2 1 -5 1668.23 86.39
2 -1 5 1739.23 86.89
2 -1 5 1693.83 86.59
-3 1 -5 1124.79 56.89
-3 1 -5 1040.9 56.69
3 -1 5 1078.79 56.59
3 -1 5 1147.79 56.99
3 -1 5 1146.99 56.89
3 -1 5 1052.59 57.09
-4 1 -5 151.68 9.7
-4 1 -5 137.49 9.2
4 -1 5 139.49 10.2
4 -1 5 152.48 11.3
4 -1 5 149.69 10.1
4 -1 5 135.19 8.8
-5 1 -5 768.62 43.6
-5 1 -5 856.01 42.9
5 -1 5 782.92 42.5
5 -1 5 870.71 44.2
-6 1 -5 2.4 3
-6 1 -5 10 4
6 -1 5 4.3 5.4
7 -1 5 280.67 19.3
7 0 -5 321.67 21
6 0 -5 15.6 5.8
5 0 -5 261.87 16
-5 0 5 244.58 14.8
-5 0 5 266.97 16.8
4 0 -5 1404.66 71.89
-4 0 5 1373.06 70.99
-4 0 5 1399.06 71.49
-4 0 5 1377.96 72.19
3 0 -5 90.29 6.5
3 0 -5 86.29 5.5
-3 0 5 85.99 6
-3 0 5 85.39 6.1
2 0 -5 2564.74 114.29
2 0 -5 2019.5 114.39
-2 0 5 2287.57 114.39
-2 0 5 2068.39 114.39
1 0 -5 193.18 10.7
1 0 -5 184.28 9.7
-1 0 5 169.68 10.4
-1 0 5 169.58 10.4
0 0 -5 4264.27 218.18
0 0 5 4285.57 217.98
-1 0 -5 4476.55 256.97
-1 0 -5 5053.59 256.97
1 0 5 5591.14 257.17
-2 0 -5 3184.58 170.18
2 0 5 3122.09 169.98
2 0 5 3606.34 169.88
2 0 5 3406.96 170.18
-3 0 -5 1664.53 89.19
-3 0 -5 1714.33 89.09
3 0 5 1728.43 88.69
3 0 5 1584.94 88.99
3 0 5 1863.71 89.19
3 0 5 1830.22 88.99
-4 0 -5 42.4 6.1
-4 0 -5 44.6 5.2
-4 0 -5 29.8 4.2
4 0 5 25.2 3.9
4 0 5 36.7 4.4
4 0 5 41.2 6.8
4 0 5 34.6 4.3
-5 0 -5 909.81 47.6
5 0 5 919.91 49
6 0 5 302.57 19
7 0 5 66.69 8.3
7 -1 -5 90.49 12.1
6 -1 -5 371.06 22.9
-6 1 5 354.86 20.2
5 -1 -5 4.5 4.1
-5 1 5 8.3 3
4 -1 -5 536.25 33
-4 1 5 657.43 32.9
-4 1 5 696.03 34
3 -1 -5 396.96 24.3
3 -1 -5 471.35 24.2
3 -1 -5 467.35 24.7
-3 1 5 479.75 24.3
-3 1 5 489.35 24.2
-3 1 5 464.25 24.2
2 -1 -5 230.28 12.5
2 -1 -5 230.08 12.5
2 -1 -5 214.08 12.5
-2 1 5 239.58 12.7
-2 1 5 231.48 12.5
1 -1 -5 5507.15 289.07
1 -1 -5 5959.5 288.77
-1 1 5 5397.46 288.97
-1 1 5 5856.71 289.17
0 -1 -5 1073.49 55.79
0 1 5 1089.99 55.79
-1 -1 -5 4839.72 265.27
1 1 5 5635.94 265.37
1 1 5 5148.88 265.37
-2 -1 -5 65.79 6.4
-2 -1 -5 71.99 6.6
2 1 5 85.69 5.9
2 1 5 88.29 6.2
-3 -1 -5 1388.36 72.09
-3 -1 -5 1343.67 72.09
-3 -1 -5 1393.46 72.39
3 1 5 1203.48 71.89
3 1 5 1490.15 71.79
3 1 5 1560.14 72.59
-4 -1 -5 1057.19 56.59
-4 -1 -5 1160.98 57.19
-4 -1 -5 914.41 56.79
4 1 5 1179.88 57.59
4 1 5 1090.29 56.29
4 1 5 1156.78 56.99
-5 -1 -5 49.1 7
-5 -1 -5 31.3 4.1
5 1 5 55.49 9.2
5 1 5 34.8 5.4
-6 -1 -5 616.04 36
6 1 5 635.04 34.7
6 1 5 623.64 36.3
6 -2 -5 1125.19 58.19
-6 2 5 1021.5 54.79
-6 2 5 1090.79 54.39
-6 2 5 970.5 54.29
5 -2 -5 68.19 6.1
-5 2 5 77.29 6
-5 2 5 87.19 6.8
-5 2 5 71.19 6.4
-5 2 5 80.69 8.3
4 -2 -5 528.35 27.1
4 -2 -5 513.45 27.8
4 -2 -5 482.25 26.9
-4 2 5 485.25 27.3
-4 2 5 535.95 27.3
-4 2 5 538.15 27.1
3 -2 -5 931.01 47.9
3 -2 -5 928.01 48.1
3 -2 -5 916.71 47.7
-3 2 5 956.7 47.8
-3 2 5 893.21 47.5
-3 2 5 927.41 47.9
2 -2 -5 7.7 2.9
-2 2 5 6.7 2.1
-2 2 5 4.2 1.1
-2 2 5 4.3 1.3
1 -2 -5 708.83 35.8
1 -2 -5 690.83 35.9
1 -2 -5 685.93 36.1
-1 2 5 710.43 36
-1 2 5 674.53 36.1
0 -2 -5 164.18 9.3
0 -2 -5 169.88 9.2
0 -2 -5 165.08 9.1
0 2 5 161.38 9.3
0 2 5 139.09 9
-1 -2 -5 849.81 43.6
-1 -2 -5 807.52 43.2
-1 -2 -5 865.41 43.4
1 2 5 865.01 43.1
1 2 5 794.62 43.3
-2 -2 -5 2807.32 148.79
-2 -2 -5 3081.59 149.39
2 2 5 2998.6 148.79
2 2 5 2713.63 148.89
2 2 5 2972.8 148.79
-3 -2 -5 3.3 3.9
-3 -2 -5 6.7 2.7
-3 -2 -5 2.5 2.7
3 2 5 8.3 2.9
3 2 5 14.5 3.4
3 2 5 12.2 4.1
-4 -2 -5 280.97 17.1
-4 -2 -5 252.87 15.7
-4 -2 -5 258.17 14.7
4 2 5 259.67 15.6
-5 -2 -5 479.05 26.9
-5 -2 -5 444.76 24.3
5 2 5 436.36 26.8
5 2 5 462.25 25.7
-6 -2 -5 153.78 14.7
6 2 5 164.08 14.9
6 2 5 153.78 13.1
7 -3 -5 130.49 13.3
6 -3 -5 121.29 9.7
6 -3 -5 172.38 17
-6 3 5 151.18 10.4
-6 3 5 157.58 9.7
5 -3 -5 277.27 17
5 -3 -5 258.67 15.3
5 -3 -5 285.87 15.6
-5 3 5 275.27 15.4
-5 3 5 286.57 16.1
-5 3 5 261.67 17.1
4 -3 -5 38.8 5.5
4 -3 -5 35.2 4.5
-4 3 5 38.2 4.1
-4 3 5 39 5.1
-4 3 5 41.5 5.9
3 -3 -5 453.95 24.5
3 -3 -5 461.25 24.8
-3 3 5 471.15 24.9
-3 3 5 467.15 24
2 -3 -5 1352.06 70.19
2 -3 -5 1353.06 69.89
-2 3 5 1360.76 69.79
-2 3 5 1396.66 70.39
1 -3 -5 248.88 14.1
1 -3 -5 262.27 13.9
-1 3 5 256.87 13.7
-1 3 5 245.68 14
-1 3 5 255.47 14.3
0 -3 -5 3160.08 161.48
0 -3 -5 3215.08 161.68
0 -3 -5 3171.58 161.58
0 3 5 3143.09 161.08
0 3 5 3140.19 161.68
-1 -3 -5 1180.08 58.69
-1 -3 -5 1076.19 56.89
1 3 5 1064.69 56.79
1 3 5 1078.29 56.99
1 3 5 1123.69 56.59
-2 -3 -5 1665.43 84.79
-2 -3 -5 1661.23 84.29
-2 -3 -5 1687.93 84.79
-2 -3 -5 1659.73 84.19
2 3 5 1501.05 84.09
2 3 5 1636.24 84.29
2 3 5 1675.23 84.19
-3 -3 -5 15.9 4.3
-3 -3 -5 26.5 3.5
-3 -3 -5 26 3.2
3 3 5 26.1 3.4
3 3 5 27.1 5.2
3 3 5 28.5 3.8
3 3 5 31.6 5.2
-4 -3 -5 6.9 3
-4 -3 -5 8 4.7
-4 -3 -5 3.7 4.1
-4 -3 -5 4 3.2
4 3 5 -0.1 3.7
4 3 5 6.9 2.6
4 3 5 3.9 4.8
4 3 5 10.1 3.8
-5 -3 -5 1061.79 60.59
-5 -3 -5 1204.88 61.99
-5 -3 -5 1209.88 61.99
-5 -3 -5 1178.78 59.89
5 3 5 1137.79 61.99
6 3 5 13.2 8
6 3 5 12.1 5.7
6 -4 -5 5 5.4
6 -4 -5 1.9 3.3
-6 4 5 -1.3 5
-6 4 5 -0.7 3.2
5 -4 -5 608.44 31.9
5 -4 -5 602.94 32.5
5 -4 -5 500.45 31.3
-5 4 5 626.64 32.2
-5 4 5 612.64 31
-5 4 5 618.84 31.7
4 -4 -5 455.95 25
4 -4 -5 429.26 24.6
4 -4 -5 461.65 25
-4 4 5 472.55 24.7
-4 4 5 463.25 25.3
-4 4 5 458.55 24
3 -4 -5 139.19 9.7
3 -4 -5 149.79 10.1
3 -4 -5 160.18 9.7
3 -4 -5 155.58 9.8
-3 4 5 169.98 10.8
-3 4 5 148.29 9
-3 4 5 161.28 10.6
2 -4 -5 846.12 43.6
2 -4 -5 819.82 43.3
2 -4 -5 850.41 43.1
-2 4 5 811.42 43.3
-2 4 5 814.02 42.9
-2 4 5 843.42 43.6
1 -4 -5 76.09 6
1 -4 -5 68.79 6
-1 4 5 71.29 5.9
-1 4 5 78.19 6.6
-1 4 5 70.89 5.5
0 -4 -5 14.3 3.7
0 -4 -5 14.9 2.8
0 4 5 9.1 2.5
0 4 5 11.7 2.5
0 4 5 11.5 3.1
-1 -4 -5 1048.2 54.39
-1 -4 -5 1072.59 54.69
1 4 5 1005.7 53.89
1 4 5 1070.09 54.59
1 4 5 1049.99 54.29
-2 -4 -5 8.3 2.6
-2 -4 -5 11.2 3.9
-2 -4 -5 6.7 3
2 4 5 6.5 2.5
2 4 5 6.3 2.9
2 4 5 6.5 2.8
-3 -4 -5 2088.59 102.49
-3 -4 -5 1962 101.49
-3 -4 -5 2075.49 101.69
3 4 5 2029.4 101.59
3 4 5 2019.1 101.59
3 4 5 1701.93 101.29
3 4 5 1968.7 102.69
-4 -4 -5 905.51 49.5
-4 -4 -5 866.61 48.9
-4 -4 -5 981.8 49.2
4 4 5 864.61 49.4
4 4 5 945.21 50.79
4 4 5 1019.9 49.6
4 4 5 991 48.9
-5 -4 -5 485.25 29.3
-5 -4 -5 579.94 31.2
-5 -4 -5 524.55 28.6
5 4 5 525.95 29.8
5 4 5 544.05 31.8
6 4 5 575.74 35.5
6 4 5 598.34 33.4
6 -5 -5 177.38 12.6
-6 5 5 198.08 13.8
-6 5 5 184.28 12.5
5 -5 -5 68.39 8.3
5 -5 -5 77.39 8.5
-5 5 5 69.69 7.4
-5 5 5 62.09 5.8
-5 5 5 58.59 9.4
4 -5 -5 964.7 49.7
4 -5 -5 945.11 50.09
-4 5 5 974.3 50.19
-4 5 5 931.61 49.6
-4 5 5 917.91 49
3 -5 -5 160.18 10.2
3 -5 -5 149.88 10.8
3 -5 -5 164.78 11.4
3 -5 -5 160.88 10.2
3 -5 -5 162.08 11.7
-3 5 5 162.08 10.6
-3 5 5 162.08 9.8
-3 5 5 167.18 11.6
2 -5 -5 641.54 34.2
2 -5 -5 637.64 34.6
2 -5 -5 637.04 34.6
2 -5 -5 677.03 35.1
-2 5 5 669.73 34.3
-2 5 5 671.13 35.2
-2 5 5 646.74 34.7
1 -5 -5 954.7 48.8
1 -5 -5 966.3 48.6
1 -5 -5 896.71 48.3
-1 5 5 892.91 48.3
-1 5 5 927.51 48.2
-1 -5 -5 1502.15 77.39
-1 -5 -5 1511.95 77.79
1 5 5 1475.55 77.39
1 5 5 1507.05 77.29
-2 -5 -5 550.24 30
2 5 5 590.64 30.3
2 5 5 533.95 29.9
2 5 5 565.74 29.6
-3 -5 -5 680.03 36.6
-3 -5 -5 639.34 35.5
-3 -5 -5 679.93 35.8
-3 -5 -5 672.43 35.3
3 5 5 678.43 35.5
3 5 5 653.83 35.3
3 5 5 670.33 35.7
-4 -5 -5 51.79 7.5
-4 -5 -5 51.99 7.8
-4 -5 -5 42.3 5.8
-4 -5 -5 42.2 5.4
4 5 5 46.4 6.7
4 5 5 58.89 8.7
4 5 5 49.2 5.8
4 5 5 54.09 6.1
-5 -5 -5 18.5 5.4
-5 -5 -5 15 6.6
5 5 5 19.9 8.3
5 5 5 10.3 5.5
5 -6 -5 206.18 12.9
5 -6 -5 172.58 13.5
-5 6 5 183.28 11.5
-5 6 5 180.98 14.2
4 -6 -5 512.75 27.8
-4 6 5 522.75 30.4
-4 6 5 493.85 27.2
3 -6 -5 734.93 39.1
3 -6 -5 697.13 38.5
3 -6 -5 777.42 39.6
3 -6 -5 694.53 38.5
-3 6 5 726.83 38.4
-3 6 5 724.23 39
-3 6 5 769.32 39.7
2 -6 -5 32.5 4.7
2 -6 -5 19.4 4.7
2 -6 -5 23 3.7
2 -6 -5 19.2 4.6
2 -6 -5 21.2 3.3
-2 6 5 24.2 5.1
-2 6 5 23.8 3.9
1 -6 -5 894.21 48.5
1 -6 -5 954.8 49
1 -6 -5 949.8 48.7
-1 6 5 870.51 49
-1 6 5 959.4 49.1
-1 6 5 911.51 48.2
0 -6 -5 158.38 11.2
0 -6 -5 146.19 10.3
0 -6 -5 156.68 11.5
0 6 5 156.38 10.2
0 6 5 143.69 10.1
0 6 5 146.59 11.6
-1 -6 -5 159.68 11.1
-1 -6 -5 164.18 12.6
1 6 5 161.68 12.2
1 6 5 182.58 11.3
-2 -6 -5 1226.98 64.79
2 6 5 1243.48 64.69
-3 -6 -5 84.19 7.6
-3 -6 -5 72.99 9.3
-3 -6 -5 98.79 8.2
-3 -6 -5 88.79 12.5
3 6 5 73.59 8.8
-4 -6 -5 391.96 22
4 6 5 390.16 25.2
4 6 5 390.26 22.2
-5 -6 -5 293.67 17.7
-5 -6 -5 307.27 18.9
-5 -6 -5 329.67 21.9
5 -7 -5 398.16 24.1
5 -7 -5 405.96 23.3
-5 7 5 404.16 23.7
-5 7 5 394.36 25.4
-5 7 5 447.76 25.2
4 -7 -5 48 6.7
4 -7 -5 44.7 6.5
-4 7 5 45.8 7.8
3 -7 -5 820.72 43.9
3 -7 -5 788.62 42.7
3 -7 -5 846.62 44.3
-3 7 5 790.02 45.1
-3 7 5 811.82 43.7
-3 7 5 850.41 44.5
2 -7 -5 14.8 5.2
2 -7 -5 27.6 5.4
-2 7 5 22.6 4.5
-2 7 5 17.8 4.9
-2 7 5 9.6 5.4
1 -7 -5 133.49 11.1
1 -7 -5 132.59 11.7
1 -7 -5 116.59 10.6
-1 7 5 137.29 12
0 -7 -5 338.47 20.7
0 -7 -5 369.86 22
0 -7 -5 364.26 21.8
0 7 5 376.86 21.5
0 7 5 374.56 22
-1 -7 -5 58.89 7.8
-1 -7 -5 82.39 9.9
-1 -7 -5 74.99 10.2
1 7 5 72.49 9.6
-2 -7 -5 532.35 29.6
-2 -7 -5 538.75 28.8
-2 -7 -5 487.25 27.8
2 7 5 524.85 29.3
-3 -7 -5 3.4 3.4
-3 -7 -5 18.5 6.5
-3 -7 -5 13.9 4.1
-3 -7 -5 4.2 5.2
3 7 5 2.3 7
3 7 5 4.7 4.8
-4 -7 -5 59.09 9.4
-4 -7 -5 58.09 7.6
-4 -7 -5 45.5 6.9
4 7 5 45.7 6.1
4 7 5 57.89 9.5
4 -8 -5 147.19 9.8
4 -8 -5 100.69 12.2
3 -8 -5 139.29 19.7
-3 8 5 184.18 14.9
2 -8 -5 95.49 10.8
2 -8 -5 91.59 11.3
-2 8 5 84.49 11.8
1 -8 -5 83.09 11.4
-1 8 5 64.89 11.8
0 -8 -5 390.86 23.7
0 -8 -5 398.46 24.1
0 8 5 384.36 24
1 8 5 60.69 7.5
-2 -8 -5 163.08 12.7
-2 -8 -5 168.68 14.6
-2 -8 -5 182.38 14.9
-2 -8 -5 168.48 14.5
2 8 5 142.39 16.3
2 8 5 174.68 14.1
-3 -8 -5 155.38 15.8
-3 -8 -5 136.19 13.3
-3 -8 -5 116.19 9.6
-3 -8 -5 147.99 15.1
3 8 5 125.89 12.6
3 8 5 135.39 15.7
2 -9 -5 38 7.4
2 -9 -5 48 8.9
-2 9 5 33.8 8.5
1 -9 -5 106.99 12.7
1 -9 -5 97.19 13.2
0 -9 -5 6.9 7
0 -9 -5 -2 6.2
1 9 -6 12.2 8.3
1 9 -6 6.2 4.5
-1 -9 6 6.4 6.4
-1 -9 6 8.5 6.9
0 9 -6 199.68 15.3
0 -9 6 211.18 16
0 -9 6 176.38 15.6
1 -9 6 38.2 8.1
1 -9 6 36.1 6.8
3 8 -6 104.69 11.5
-3 -8 6 108.99 12
-3 -8 6 123.19 12.3
-3 -8 6 116.29 10.5
2 8 -6 424.36 25.7
2 8 -6 477.65 26.3
-2 -8 6 437.56 26.4
-2 -8 6 472.55 26.7
-2 -8 6 489.45 27.2
1 8 -6 211.98 14.7
-1 -8 6 212.98 15.2
-1 -8 6 203.38 15.1
0 8 -6 852.61 44.7
0 -8 6 802.92 44.7
-1 8 -6 12.1 5.3
1 -8 6 17.1 5.9
1 -8 6 26 6.9
2 -8 6 105.49 12
2 -8 6 119.69 12.9
-3 8 -6 427.16 25.3
3 -8 6 426.16 25.6
4 7 -6 456.05 26.9
4 7 -6 435.56 25.8
-4 -7 6 480.15 26.6
-4 -7 6 449.06 25.8
-4 -7 6 475.55 26.1
3 7 -6 3.8 5.1
-3 -7 6 3.9 5.7
-3 -7 6 4.4 4.3
-3 -7 6 0.9 4.8
2 7 -6 1300.37 64.79
2 7 -6 1215.68 64.59
-2 -7 6 1161.18 65.09
-2 -7 6 1283.37 65.29
1 7 -6 279.17 16.7
1 7 -6 307.97 17.8
-1 -7 6 299.57 18.3
-1 -7 6 296.87 18
-1 -7 6 284.77 18.2
0 7 -6 40.8 5.6
0 -7 6 44.1 5.8
0 -7 6 47.7 6.6
0 -7 6 45.1 7.7
1 -7 6 967.5 51.89
-2 7 -6 -2.4 7.1
2 -7 6 -1 4.7
-3 7 -6 1030.7 54.69
-4 7 -6 52.89 7.1
4 -7 6 52.89 6.6
5 6 -6 28.6 7.2
-5 -6 6 30.3 7.2
-5 -6 6 21.8 4.8
-5 -6 6 31.9 4.3
4 6 -6 171.18 13.3
4 6 -6 158.18 11.5
-4 -6 6 171.88 12
-4 -6 6 160.88 11.6
3 6 -6 833.02 45.2
3 6 -6 834.22 44.7
-3 -6 6 832.22 45.1
-3 -6 6 890.61 45.1
-3 -6 6 857.81 45.1
2 6 -6 817.12 44
2 6 -6 858.71 44.2
2 6 -6 792.22 44.7
-2 -6 6 874.91 44.5
-2 -6 6 859.81 44.5
-2 -6 6 826.72 44.5
1 6 -6 452.65 24.4
1 6 -6 440.06 25
1 6 -6 421.56 23.7
-1 -6 6 460.55 24.6
-1 -6 6 432.66 24.6
0 6 -6 48.2 6.6
0 6 -6 41.7 7.1
0 6 -6 47.6 7.1
0 -6 6 43.2 6.9
0 -6 6 48.4 7.5
0 -6 6 38.8 5
-1 6 -6 1185.98 61.89
1 -6 6 1121.89 61.69
1 -6 6 1229.18 61.69
-2 6 -6 217.98 14.2
2 -6 6 201.28 15.6
2 -6 6 234.78 14.5
-3 6 -6 295.97 18.7
-3 6 -6 268.57 15.9
-3 6 -6 277.27 18.1
3 -6 6 303.37 17.9
-4 6 -6 489.45 25.8
-4 6 -6 467.15 26.2
-4 6 -6 379.26 24.5
4 -6 6 472.05 25.8
-5 6 -6 67.19 9.4
5 -6 6 56.39 7
5 -6 6 68.09 9.6
-6 -5 6 273.57 17.3
5 5 -6 221.68 15
5 5 -6 241.28 16.7
-5 -5 6 234.18 14.8
-5 -5 6 214.78 13.5
-5 -5 6 226.18 14
4 5 -6 31.2 4.7
4 5 -6 31 8
4 5 -6 22.8 5.4
4 5 -6 32.7 4.2
4 5 -6 32.6 5.9
-4 -5 6 31.8 4.4
-4 -5 6 38.9 5.3
-4 -5 6 41 6.6
3 5 -6 1896.71 97.49
3 5 -6 1916.11 97.59
3 5 -6 1721.03 98.09
3 5 -6 1848.32 97.99
3 5 -6 1911.51 97.99
-3 -5 6 1960.9 97.79
-3 -5 6 2034 97.79
2 5 -6 15.1 3.8
2 5 -6 12.9 3.2
2 5 -6 16 3.9
2 5 -6 14.3 2.8
-2 -5 6 8.1 3.9
-2 -5 6 7.9 5.3
-2 -5 6 12.5 3.6
1 5 -6 658.93 35.5
1 5 -6 623.34 35.2
1 5 -6 681.73 35.1
1 5 -6 671.23 34.6
-1 -5 6 683.83 35.1
-1 -5 6 637.14 35.3
-1 -5 6 675.53 35.2
0 5 -6 902.31 46.1
0 5 -6 859.91 46.4
0 -5 6 887.51 46.2
0 -5 6 896.81 46.2
0 -5 6 854.01 46.3
-1 5 -6 50.49 7.2
-1 5 -6 53.39 6.8
-1 5 -6 56.19 6.4
1 -5 6 47.7 6.5
1 -5 6 50.09 6.4
1 -5 6 42.4 6.8
-2 5 -6 1567.34 88.99
-2 5 -6 1597.24 85.99
-2 5 -6 1666.93 85.59
2 -5 6 1754.52 85.79
2 -5 6 1701.93 88.49
-3 5 -6 23.3 4
-3 5 -6 21.7 3.4
-3 5 -6 25.2 5.4
-3 5 -6 21.6 4.2
3 -5 6 22.8 4.4
-4 5 -6 782.22 43.5
-4 5 -6 815.82 42.9
4 -5 6 836.42 43.3
-5 5 -6 191.28 13.3
-5 5 -6 173.18 13.3
5 -5 6 180.48 12.8
5 -5 6 175.18 17.4
6 4 -6 63.59 10.2
-6 -4 6 75.39 8.3
5 4 -6 225.48 14.5
-5 -4 6 212.88 13.4
-5 -4 6 209.18 12.6
4 4 -6 21.4 5.4
4 4 -6 29 4.5
4 4 -6 23.8 4
4 4 -6 25.9 4.5
4 4 -6 24.4 4.3
-4 -4 6 30.9 4.4
-4 -4 6 32.7 5.3
-4 -4 6 27 3.7
3 4 -6 30.1 4.1
3 4 -6 25 4.5
3 4 -6 26.4 3.9
3 4 -6 34.8 5.3
-3 -4 6 32.2 5.2
-3 -4 6 26.8 3.7
-3 -4 6 27.1 3.7
-3 -4 6 27.7 4.4
2 4 -6 226.28 12.5
2 4 -6 197.38 12.4
2 4 -6 210.08 12.1
-2 -4 6 208.08 12.3
-2 -4 6 189.98 12.3
-2 -4 6 204.08 12.2
1 4 -6 6.2 3.1
1 4 -6 15.8 2.7
1 4 -6 12.7 2.7
-1 -4 6 9.8 3.6
-1 -4 6 12.2 3.2
-1 -4 6 20.9 3.4
0 4 -6 471.05 26.2
0 4 -6 501.35 26.1
0 -4 6 514.85 26.2
0 -4 6 460.65 26.2
-1 4 -6 1106.69 54.69
-1 4 -6 1024 55.19
-1 4 -6 1001.7 54.89
1 -4 6 1054.39 54.89
1 -4 6 1129.79 54.79
1 -4 6 998.3 54.79
-2 4 -6 638.44 35.8
-2 4 -6 693.43 35
-2 4 -6 661.73 35.3
2 -4 6 630.04 35.1
2 -4 6 681.13 35.1
-3 4 -6 1025.2 54.49
3 -4 6 880.21 53.69
3 -4 6 1063.29 51.89
-4 4 -6 20.8 4
-4 4 -6 17.7 4.3
-4 4 -6 22.3 5.7
-4 4 -6 22.2 4.2
4 -4 6 25.6 4.4
-5 4 -6 691.93 34.4
-5 4 -6 559.54 33.7
5 -4 6 617.44 33.7
5 -4 6 622.14 34.3
-6 4 -6 20 5.1
-6 4 -6 18.3 4.5
6 -4 6 17.1 6.1
6 3 -6 66.49 9.9
-6 -3 6 50.79 7
5 3 -6 431.06 24.5
4 3 -6 494.35 26.9
4 3 -6 502.55 26.6
-4 -3 6 507.45 26.8
-4 -3 6 481.25 26
-4 -3 6 486.95 26.4
-4 -3 6 484.05 27.3
3 3 -6 58.79 6.2
3 3 -6 55.39 5.3
3 3 -6 75.19 6.1
-3 -3 6 60.89 6.4
-3 -3 6 58.49 5.4
-3 -3 6 67.89 5.6
-3 -3 6 60.09 5.3
2 3 -6 4245.98 222.68
2 3 -6 4261.17 222.58
2 3 -6 4453.05 222.68
-2 -3 6 4441.46 222.58
-2 -3 6 4686.83 222.78
-2 -3 6 4123.39 222.68
1 3 -6 274.47 16.1
1 3 -6 324.77 15.8
1 3 -6 269.07 15.7
-1 -3 6 296.07 15.7
-1 -3 6 256.37 15.7
-1 -3 6 288.67 15.4
0 3 -6 116.99 7.7
0 3 -6 120.09 7.8
0 3 -6 114.19 8.2
0 3 -6 118.29 7.8
0 -3 6 115.99 7.7
0 -3 6 112.69 8.8
-1 3 -6 1340.97 70.89
-1 3 -6 1379.96 70.59
-1 3 -6 1394.76 70.39
1 -3 6 1431.56 70.39
1 -3 6 1281.77 70.39
-2 3 -6 51.29 6.9
-2 3 -6 44.3 5.8
-2 3 -6 54.99 5.7
2 -3 6 53.39 5.5
2 -3 6 58.19 5.9
-3 3 -6 959.4 47.1
-3 3 -6 832.42 48.2
-3 3 -6 866.01 47.1
-3 3 -6 889.81 47.9
3 -3 6 892.41 47.2
3 -3 6 962.9 47.1
-4 3 -6 312.57 22.3
-4 3 -6 409.26 20.8
-4 3 -6 363.66 20.8
-4 3 -6 378.16 20.8
4 -3 6 381.26 21.4
4 -3 6 366.56 21.4
4 -3 6 376.26 20.8
-5 3 -6 222.08 13.5
-5 3 -6 202.98 13.3
5 -3 6 192.08 13.6
5 -3 6 221.38 14.8
-6 3 -6 844.72 46.2
-6 3 -6 853.01 46
6 -3 6 890.41 46.3
6 -3 6 884.21 46.9
7 2 -6 76.89 11.9
6 2 -6 648.04 35.5
-6 -2 6 622.84 33.6
5 2 -6 10.1 4.4
-5 -2 6 9.1 2.9
-5 -2 6 3.6 3.5
4 2 -6 285.77 16
-4 -2 6 256.47 15.7
-4 -2 6 265.77 15.5
-4 -2 6 261.67 14.6
-4 -2 6 269.97 16.4
-4 -2 6 279.47 14.7
3 2 -6 1150.28 60.49
3 2 -6 1176.08 60.99
3 2 -6 1247.18 60.69
3 2 -6 1088.29 60.99
-3 -2 6 1185.48 60.59
-3 -2 6 1160.68 60.39
-3 -2 6 1164.18 60.99
-3 -2 6 1254.77 61.39
2 2 -6 10.7 2.3
2 2 -6 8.6 2.3
2 2 -6 10.7 2.3
-2 -2 6 8.1 2.2
-2 -2 6 7 2.6
-2 -2 6 13.4 2.1
1 2 -6 929.61 48.1
1 2 -6 994.2 48.7
-1 -2 6 878.71 48.1
-1 -2 6 928.21 47.9
-1 -2 6 925.21 47.9
-1 -2 6 922.21 48
0 2 -6 325.77 17.7
0 2 -6 330.07 17.3
0 2 -6 323.97 17.6
0 -2 6 325.77 17.3
0 -2 6 297.17 17.4
-1 2 -6 2370.26 130.59
-1 2 -6 2518.85 129.59
-1 2 -6 2683.93 129.39
1 -2 6 2546.95 129.39
-2 2 -6 2141.79 109.59
2 -2 6 2128.89 109.49
-3 2 -6 122.19 8.4
-3 2 -6 118.79 8.5
3 -2 6 117.39 8.3
3 -2 6 116.59 8.1
-4 2 -6 1708.53 84.99
-4 2 -6 1658.33 85.19
-4 2 -6 1631.14 84.79
4 -2 6 1623.64 84.69
4 -2 6 1569.54 84.99
4 -2 6 1680.63 85.19
-5 2 -6 41.5 6.1
-5 2 -6 42.9 7
5 -2 6 38.7 6.2
5 -2 6 47.3 7.2
-6 2 -6 758.62 39.6
-6 2 -6 689.93 40.4
6 -2 6 788.82 41
7 1 -6 54.99 8
6 1 -6 709.93 40.1
-5 -1 6 667.63 35.7
4 1 -6 385.66 20.7
-4 -1 6 372.06 21
-4 -1 6 340.77 19.9
-4 -1 6 360.26 19.7
-4 -1 6 375.16 20.1
3 1 -6 2743.53 129.59
3 1 -6 2473.15 130.69
3 1 -6 2585.24 130.19
-3 -1 6 2571.84 129.39
-3 -1 6 2207.28 130.09
-3 -1 6 2669.73 130.59
2 1 -6 10.3 2.6
2 1 -6 7.3 1.7
-2 -1 6 6.7 2.7
-2 -1 6 4.4 1.5
-2 -1 6 6.8 2.4
-2 -1 6 8.3 2.6
1 1 -6 6782.42 362.26
1 1 -6 7857.21 361.86
1 1 -6 6459.45 362.16
-1 -1 6 6983.7 362.16
-1 -1 6 7482.45 362.26
0 1 -6 375.86 21.5
0 1 -6 378.46 21.3
0 1 -6 417.46 21.3
0 -1 6 394.56 21.4
0 -1 6 415.86 21.3
-1 1 -6 9.8 2.6
-1 1 -6 7.8 2.2
1 -1 6 8 2.2
1 -1 6 6.3 2.4
-2 1 -6 232.78 13.9
-2 1 -6 242.48 14.1
2 -1 6 240.08 13.7
2 -1 6 254.57 13.3
-3 1 -6 261.07 14.9
-3 1 -6 267.87 15.1
3 -1 6 260.27 14.6
3 -1 6 249.48 15.4
3 -1 6 256.27 14.7
-4 1 -6 403.76 22.1
-4 1 -6 394.56 22.5
4 -1 6 385.86 21.7
4 -1 6 395.76 22.7
4 -1 6 407.66 22.7
4 -1 6 425.26 22.6
-5 1 -6 736.53 39.6
-5 1 -6 763.22 38.9
5 -1 6 734.73 40
5 -1 6 703.53 39.1
5 -1 6 736.43 38.5
5 -1 6 741.23 39.6
-6 1 -6 20.7 4.6
-6 1 -6 11 3.4
6 -1 6 13 5.5
7 0 -6 164.38 14.7
6 0 -6 8.4 7.5
5 0 -6 1152.38 59.29
-5 0 6 1104.19 58.59
-4 0 6 421.26 22.7
-4 0 6 451.15 22.5
-4 0 6 395.56 22.9
3 0 -6 1630.04 77.39
3 0 -6 1526.55 77.69
-3 0 6 1300.37 77.69
-3 0 6 1577.74 77.49
2 0 -6 3768.42 176.38
-2 0 6 3246.68 176.18
-2 0 6 3331.27 176.18
1 0 -6 663.03 34.1
-1 0 6 628.94 33.9
-1 0 6 642.04 34
0 0 -6 1880.11 100.59
0 0 -6 1970.1 100.69
0 0 6 2022.7 100.69
-1 0 -6 81.39 6.6
-1 0 -6 85.59 6.5
1 0 6 85.19 6.4
1 0 6 72.19 6.3
-2 0 -6 2239.58 122.49
2 0 6 2305.57 120.69
2 0 6 2504.95 120.39
-3 0 -6 1656.93 96.19
-3 0 -6 1940.61 96.19
3 0 6 1969 96.09
3 0 6 1889.51 96.09
-4 0 -6 18.6 4.5
-4 0 -6 22.4 3.8
4 0 6 23.4 4.7
4 0 6 12.6 3.7
4 0 6 19.8 4.3
4 0 6 22.3 3.1
-5 0 -6 746.63 43.7
-5 0 -6 833.12 43.5
5 0 6 832.22 43
5 0 6 901.61 44.5
6 0 6 239.88 17.6
6 0 6 235.38 16.3
7 -1 -6 662.73 37.4
6 -1 -6 211.58 16.8
-6 1 6 194.78 12.5
5 -1 -6 499.05 26.7
-5 1 6 472.55 25.6
-5 1 6 511.95 25.3
-5 1 6 408.86 25.5
-5 1 6 495.85 27.2
4 -1 -6 1497.75 75.79
4 -1 -6 1524.25 75.79
4 -1 -6 1286.27 76.19
4 -1 -6 1525.25 76.49
-4 1 6 1499.05 75.89
-4 1 6 1348.37 75.79
-4 1 6 1548.35 75.89
-4 1 6 1595.64 77.19
3 -1 -6 17.8 3
3 -1 -6 22.8 3.5
3 -1 -6 18.2 3
-3 1 6 24.2 3.6
-3 1 6 14.1 2.4
-3 1 6 21.2 3.4
2 -1 -6 2315.77 108.29
2 -1 -6 1859.21 108.29
-2 1 6 2019.4 108.09
-2 1 6 2269.77 108.39
1 -1 -6 219.78 12.9
1 -1 -6 248.68 13.3
-1 1 6 249.18 13.5
-1 1 6 221.28 12.9
0 -1 -6 1071.39 57.49
0 1 6 1157.18 57.79
-1 -1 -6 2787.72 141.59
-1 -1 -6 2701.13 141.59
1 1 6 2958.6 141.69
1 1 6 2616.24 141.59
-2 -1 -6 193.98 12
-2 -1 -6 164.08 11.8
2 1 6 179.88 11.6
2 1 6 202.58 11.8
2 1 6 212.98 13.3
-3 -1 -6 920.31 48.3
-3 -1 -6 806.12 47.9
3 1 6 906.41 47.8
3 1 6 972.3 47.9
3 1 6 970.4 48.3
-4 -1 -6 482.25 28.5
4 1 6 556.94 28.3
4 1 6 506.95 28.2
4 1 6 574.64 29.7
-5 -1 -6 246.78 14.9
-5 -1 -6 237.58 15
5 1 6 246.58 15.9
5 1 6 265.87 17.1
-6 -1 -6 649.43 39.9
6 1 6 741.13 38.5
6 -2 -6 117.59 11
-6 2 6 83.99 7.4
-6 2 6 104.79 7.8
-6 2 6 87.89 7.9
5 -2 -6 138.09 9.2
5 -2 -6 163.78 11.4
5 -2 -6 142.69 9.8
-5 2 6 154.98 9.6
-5 2 6 145.99 11.5
-5 2 6 159.08 9.9
-5 2 6 150.78 9.5
4 -2 -6 959.4 50.09
4 -2 -6 993.4 49.5
4 -2 -6 901.41 49.5
-4 2 6 1013.9 49.7
-4 2 6 915.71 49.4
-4 2 6 952 49.5
3 -2 -6 706.73 37.2
3 -2 -6 687.93 36.8
3 -2 -6 710.93 36.9
-3 2 6 722.13 37
2 -2 -6 1078.99 55.99
2 -2 -6 1076.89 55.89
-2 2 6 1118.09 57.49
-2 2 6 1067.89 55.89
1 -2 -6 2920.41 149.59
1 -2 -6 2876.01 149.69
1 -2 -6 2956.8 149.29
-1 2 6 2969.7 149.69
-1 2 6 2924.61 149.49
0 -2 -6 -0.8 2.3
0 -2 -6 3.9 1.8
0 2 6 2.1 1.8
0 2 6 4.6 2.4
-1 -2 -6 5119.19 257.07
-1 -2 -6 5059.89 257.17
1 2 6 4493.85 256.57
1 2 6 5356.66 256.57
1 2 6 5169.38 256.97
-2 -2 -6 17.8 2.8
-2 -2 -6 19.7 4.1
-2 -2 -6 13.3 3
2 2 6 20.2 3
2 2 6 24 3.3
-3 -2 -6 951.4 48
-3 -2 -6 838.72 48.3
3 2 6 978.5 48.4
3 2 6 929.31 47.8
3 2 6 906.71 48
3 2 6 905.31 48.6
-4 -2 -6 855.31 43.3
-4 -2 -6 780.22 43.1
-4 -2 -6 832.32 42.6
-4 -2 -6 806.32 44.1
4 2 6 796.82 42.2
4 2 6 788.72 42.9
4 2 6 816.32 43.9
-5 -2 -6 4.6 3.5
-5 -2 -6 8.7 6.6
5 2 6 14.1 5.8
5 2 6 9.4 4.9
-6 -2 -6 412.46 25.8
6 2 6 398.16 25.8
6 2 6 396.96 24.2
7 -3 -6 71.59 11.8
-7 3 6 77.19 7.5
6 -3 -6 200.18 12.8
6 -3 -6 218.98 15.3
-6 3 6 221.08 13
-6 3 6 221.78 13.5
5 -3 -6 573.84 29.9
5 -3 -6 578.84 30.8
5 -3 -6 498.85 29.7
-5 3 6 546.05 29.5
-5 3 6 575.04 29.8
-5 3 6 593.44 30.3
4 -3 -6 79.49 7
4 -3 -6 77.59 6.2
4 -3 -6 77.99 7.4
-4 3 6 74.29 5.7
-4 3 6 87.99 6.5
-4 3 6 82.09 7.4
3 -3 -6 1504.65 81.09
3 -3 -6 1508.65 81.29
3 -3 -6 1610.74 81.39
-3 3 6 1644.94 81.49
-3 3 6 1626.34 81.09
2 -3 -6 973.1 50.39
2 -3 -6 970.3 50.69
-2 3 6 979.3 50.69
-2 3 6 999.8 50.29
-2 3 6 975.9 50.99
1 -3 -6 1269.47 64.39
1 -3 -6 1253.17 64.59
1 -3 -6 1265.57 64.29
-1 3 6 1278.97 65.29
-1 3 6 1181.98 64.69
0 -3 -6 4659.43 238.38
0 -3 -6 4699.03 238.98
0 3 6 4725.93 237.78
0 3 6 4615.74 238.18
-1 -3 -6 906.01 47.8
-1 -3 -6 914.21 47.6
-1 -3 -6 959.7 48.1
1 3 6 903.11 47.6
1 3 6 919.21 47.8
1 3 6 902.01 47.2
-2 -3 -6 1677.03 84.69
-2 -3 -6 1633.04 83.99
-2 -3 -6 1684.23 84.29
2 3 6 1646.84 84.09
2 3 6 1710.53 84.29
2 3 6 1463.95 83.89
-3 -3 -6 59.99 7.9
-3 -3 -6 43.2 5.6
-3 -3 -6 60.29 7.9
-3 -3 -6 61.19 6.2
3 3 6 62.29 6.1
3 3 6 50.69 8.2
3 3 6 61.39 6.4
3 3 6 49.5 6.5
-4 -3 -6 749.62 38.8
-4 -3 -6 721.73 39.3
-4 -3 -6 751.72 40.3
-4 -3 -6 703.53 39.4
4 3 6 744.53 40.5
4 3 6 742.93 39.2
4 3 6 722.93 38.5
-5 -3 -6 283.27 18.4
-5 -3 -6 234.98 16.3
-5 -3 -6 272.17 15.4
5 3 6 236.68 23.9
-6 -3 -6 134.79 14.8
6 3 6 137.19 15.1
6 3 6 115.79 12.5
6 -4 -6 62.59 9.6
6 -4 -6 60.89 7.1
-6 4 6 63.49 9.2
-6 4 6 70.59 7.1
5 -4 -6 273.67 16.1
5 -4 -6 271.27 16.8
-5 4 6 268.57 15.7
4 -4 -6 112.99 8.1
4 -4 -6 111.39 9.1
4 -4 -6 111.69 8.9
-4 4 6 117.39 9.5
-4 4 6 115.99 9.3
3 -4 -6 159.08 10.7
3 -4 -6 149.88 9.9
3 -4 -6 160.98 10
3 -4 -6 160.08 10.3
-3 4 6 166.58 10.2
-3 4 6 153.58 9.2
-3 4 6 165.38 11
2 -4 -6 509.75 26.8
2 -4 -6 503.25 27.7
2 -4 -6 489.85 27
-2 4 6 512.45 27.5
-2 4 6 514.15 26.5
1 -4 -6 33.3 5.1
1 -4 -6 25.7 4
1 -4 -6 29.7 4.7
-1 4 6 18 3.8
-1 4 6 19.2 4.5
0 -4 -6 1025.6 53.19
0 -4 -6 1032.3 53.39
0 -4 -6 1000.2 53.49
0 4 6 1029.5 53.19
0 4 6 1040.7 53.59
-1 -4 -6 14.7 3.5
-1 -4 -6 14.8 3
-1 -4 -6 15.5 3.8
1 4 6 15.5 2.4
1 4 6 12.3 2.6
1 4 6 15.6 2.4
-2 -4 -6 1279.67 64.89
-2 -4 -6 1229.78 63.99
-2 -4 -6 1248.68 64.39
2 4 6 1247.18 63.89
2 4 6 1191.78 63.99
2 4 6 1233.78 64.29
-3 -4 -6 146.79 10.1
-3 -4 -6 119.39 9
-3 -4 -6 158.78 11.6
3 4 6 128.99 9.3
3 4 6 148.79 9.8
3 4 6 131.19 9.7
3 4 6 132.19 12.1
-4 -4 -6 9.5 3.1
-4 -4 -6 12.4 4
-4 -4 -6 12 5.7
4 4 6 14.2 4.6
4 4 6 19 4.2
4 4 6 13.2 6.1
4 4 6 8.3 3.3
-5 -4 -6 313.77 18.6
-5 -4 -6 335.47 21.7
-5 -4 -6 312.87 19.6
5 4 6 323.97 19.8
5 4 6 316.17 22.3
6 -5 -6 28.8 6
6 -5 -6 25.6 4.8
-6 5 6 17 5.5
-6 5 6 24.3 4.4
5 -5 -6 34.2 5.8
5 -5 -6 49 8.2
-5 5 6 52.09 8.7
-5 5 6 52.99 7.1
4 -5 -6 376.16 22.1
-4 5 6 388.46 21.7
-4 5 6 385.66 21.1
-4 5 6 394.56 22.5
3 -5 -6 38.6 5
3 -5 -6 36.4 4.8
3 -5 -6 33.2 4.4
-3 5 6 43.4 6.1
-3 5 6 37.3 4.6
-3 5 6 35.7 5.3
2 -5 -6 1169.78 61.09
2 -5 -6 1181.38 60.69
2 -5 -6 1119.29 60.59
-2 5 6 1203.48 61.29
1 -5 -6 744.53 38.8
1 -5 -6 746.03 39.1
-1 5 6 717.33 38.3
-1 5 6 730.33 38.6
-1 5 6 724.73 39.1
0 -5 -6 477.65 26.2
0 -5 -6 481.25 26.4
0 -5 -6 461.95 25.7
0 5 6 475.95 25.6
0 5 6 477.85 26.2
0 5 6 477.15 25.6
-1 -5 -6 2470.55 125.49
-1 -5 -6 2419.66 125.09
1 5 6 2367.66 124.49
1 5 6 2471.15 125.49
1 5 6 2469.05 125.09
-2 -5 -6 40.7 5.9
-2 -5 -6 47.4 7.8
-2 -5 -6 32.3 5.2
2 5 6 42.3 7.2
-3 -5 -6 75.59 9.6
-3 -5 -6 81.39 8.7
-3 -5 -6 71.29 11.1
3 5 6 72.79 7.8
3 5 6 69.89 7.9
3 5 6 64.49 8.6
-4 -5 -6 410.16 24.2
-4 -5 -6 460.35 24.9
-4 -5 -6 479.25 26.7
4 5 6 446.56 24.5
4 5 6 440.86 25
4 5 6 408.86 27.1
-5 -5 -6 259.27 16.5
-5 -5 -6 272.37 19.3
5 5 6 260.37 20.8
5 5 6 247.68 17.5
5 -6 -6 2.5 4.6
5 -6 -6 -6.8 4.6
-5 6 6 1 2.9
-5 6 6 0.1 3.9
-5 6 6 -1.2 5
4 -6 -6 187.88 12.2
-4 6 6 184.38 12.4
-4 6 6 176.38 11.1
3 -6 -6 158.88 10.8
3 -6 -6 165.58 11.7
3 -6 -6 157.08 12.6
-3 6 6 175.88 10.5
-3 6 6 164.28 11.3
-3 6 6 173.88 13.1
2 -6 -6 16.4 4.8
2 -6 -6 12.1 3.2
2 -6 -6 6.8 3.1
2 -6 -6 17.7 4.4
-2 6 6 5.8 4.7
-2 6 6 10.3 5.2
-2 6 6 15.6 3.4
-1 6 6 147.79 10.4
-1 6 6 155.18 12
0 -6 -6 506.55 28.7
0 -6 -6 532.75 29.4
0 -6 -6 542.05 29.4
0 6 6 541.35 29.5
0 6 6 543.15 28.9
0 6 6 509.05 28.6
-1 -6 -6 172.88 12
-1 -6 -6 183.58 12.9
-1 -6 -6 202.18 13.5
1 6 6 175.98 13.1
-2 -6 -6 321.87 19.1
-2 -6 -6 331.57 19.9
-2 -6 -6 341.27 20.6
-3 -6 -6 44.1 7.2
-3 -6 -6 35.6 8.4
-3 -6 -6 43.8 6.7
-3 -6 -6 46.8 7.4
3 6 6 30.6 5.3
3 6 6 40.5 8.1
-4 -6 -6 862.41 47.2
-4 -6 -6 938.01 49.5
-4 -6 -6 923.21 47.9
4 6 6 912.91 47.5
4 6 6 837.32 49.8
5 -7 -6 237.08 15
5 -7 -6 231.08 16.5
-5 7 6 224.38 13.8
4 -7 -6 10.2 4.3
4 -7 -6 6.2 5
4 -7 -6 2.8 5
-4 7 6 11.6 3.9
-4 7 6 12.3 5.5
3 -7 -6 326.17 20.3
3 -7 -6 326.07 19
3 -7 -6 338.97 21.1
-3 7 6 359.86 21.4
-3 7 6 339.57 20.2
2 -7 -6 75.69 10.5
2 -7 -6 90.59 7.2
2 -7 -6 92.39 9.5
-2 7 6 87.79 11.2
-2 7 6 85.49 7.8
1 -7 -6 247.38 17.4
1 -7 -6 275.17 17
-1 7 6 264.37 17.8
0 -7 -6 551.94 30.6
0 -7 -6 519.25 29.5
0 -7 -6 547.05 30.4
0 7 6 542.05 30.7
-1 -7 -6 71.69 8.3
-1 -7 -6 83.19 11.4
-1 -7 -6 73.99 10
1 7 6 73.99 10.3
-2 -7 -6 1057.59 56.89
-2 -7 -6 1107.19 57.79
-2 -7 -6 1048.8 56.49
2 7 6 1121.89 57.59
-3 -7 -6 44.8 5.4
-3 -7 -6 41.4 6.8
-3 -7 -6 31.8 4.9
-3 -7 -6 45.4 8.3
3 7 6 33 8.7
3 7 6 35.9 5.9
3 -8 -6 197.98 15.8
3 -8 -6 207.98 12.3
3 -8 -6 191.18 15.1
-3 8 6 197.88 16.1
2 -8 -6 175.18 13.7
2 -8 -6 166.28 14.6
-2 8 6 153.48 14.5
1 -8 -6 30.4 6.8
-1 8 6 31.5 6.6
0 -8 -6 226.48 16.3
0 -8 -6 229.38 16.3
0 -8 -6 193.58 16.3
0 8 6 203.88 16.2
-1 -8 -6 391.46 24
1 8 6 369.36 23.6
-2 -8 -6 260.67 16.4
-2 -8 -6 319.47 20.7
-2 -8 -6 279.17 19.5
-2 -8 -6 299.87 19.8
2 8 6 283.77 19.3
1 -9 -6 94.89 12.4
1 -9 -6 74.29 12.7
1 -9 -6 75.09 12.7
-1 9 6 93.39 13.1
0 -9 -6 7.6 6.3
0 -9 -6 18 7.2
0 9 6 21.3 7.1
3 8 -7 237.18 16.6
3 8 -7 241.68 16.6
-3 -8 7 262.17 18
-3 -8 7 261.57 17.4
-2 -8 7 2.1 5.4
-2 -8 7 7 4.5
-2 -8 7 2.2 6
1 8 -7 69.59 9.9
-1 -8 7 59.59 10.5
-1 -8 7 62.99 10.4
0 8 -7 180.18 14.5
0 -8 7 193.78 14.8
-1 8 -7 6.8 5.2
1 -8 7 5.7 5.6
1 -8 7 5 6.6
-2 8 -7 600.54 33.7
-3 8 -7 7 5.8
3 -8 7 0.1 5.4
4 7 -7 10.4 6.4
-4 -7 7 16.2 4.5
-4 -7 7 11.5 5.8
3 7 -7 194.68 14.2
3 7 -7 192.98 13.9
-3 -7 7 232.88 14.6
2 7 -7 201.58 13.2
-2 -7 7 197.18 14.3
-2 -7 7 209.98 14.5
1 7 -7 75.09 9
1 7 -7 78.49 7.6
-1 -7 7 83.39 9.9
-1 -7 7 77.89 11.3
-1 -7 7 80.39 11.3
-1 -7 7 65.69 8.9
0 7 -7 365.66 21
0 -7 7 365.66 21.7
0 -7 7 327.67 21.2
0 -7 7 370.76 23
-1 7 -7 153.18 11.8
1 -7 7 145.49 12.6
1 -7 7 138.89 12.1
-2 7 -7 23 5.2
2 -7 7 19.5 5.4
-3 7 -7 286.57 18.5
3 -7 7 293.27 18.6
-4 7 -7 10.6 3.5
4 -7 7 19 6
-5 -6 7 61.69 7.6
-5 -6 7 57.19 8.4
-5 -6 7 63.19 10.8
4 6 -7 1136.79 62.89
4 6 -7 1204.98 62.89
-4 -6 7 1310.37 64.19
-4 -6 7 1166.68 63.19
-4 -6 7 1224.78 63.29
3 6 -7 209.18 14.7
3 6 -7 232.18 13.6
3 6 -7 236.78 14.5
-3 -6 7 237.68 14.9
-3 -6 7 240.88 14.8
-3 -6 7 211.58 14.7
2 6 -7 705.63 38.3
2 6 -7 686.83 38
-2 -6 7 788.12 38.7
-2 -6 7 733.83 38.5
-2 -6 7 680.13 38.6
1 6 -7 296.27 16.1
1 6 -7 260.07 17.4
-1 -6 7 277.97 17.3
-1 -6 7 304.57 17.3
-1 -6 7 299.37 17.5
0 6 -7 358.76 19.9
0 6 -7 332.07 20
0 -6 7 349.87 20.1
0 -6 7 339.87 20
0 -6 7 329.77 20
-1 6 -7 580.74 29.9
-1 6 -7 528.45 30.1
1 -6 7 555.74 30
1 -6 7 512.15 29.9
-2 6 -7 232.98 16.3
-2 6 -7 281.97 16.5
2 -6 7 269.37 16.5
-3 6 -7 585.94 31.6
-3 6 -7 581.24 33
3 -6 7 619.24 32.8
-4 6 -7 169.88 12.1
-4 6 -7 191.48 13.7
-4 6 -7 186.78 14.3
4 -6 7 210.28 14.2
5 -6 7 9.6 6.3
5 -6 7 5.3 5
5 5 -7 123.49 11
5 5 -7 151.28 11.6
-5 -5 7 130.29 9.6
-5 -5 7 136.39 10.5
-5 -5 7 135.89 10.6
4 5 -7 291.67 18.1
4 5 -7 325.07 18.2
4 5 -7 281.97 21.5
4 5 -7 301.47 17.5
-4 -5 7 337.67 18.2
-4 -5 7 320.77 18
-4 -5 7 324.27 18
-4 -5 7 288.67 20.8
3 5 -7 733.33 39.7
3 5 -7 772.62 39.2
3 5 -7 771.22 39.3
3 5 -7 725.23 39.3
3 5 -7 775.32 39.8
-3 -5 7 715.73 39.5
-3 -5 7 713.03 39.3
2 5 -7 223.48 17.2
2 5 -7 229.38 14.6
2 5 -7 256.27 13.6
-2 -5 7 240.08 14.5
-2 -5 7 237.58 14.4
-2 -5 7 229.78 14.3
1 5 -7 1496.75 76.79
1 5 -7 1570.34 77.49
1 5 -7 1466.95 77.69
1 5 -7 1520.95 77.89
-1 -5 7 1411.46 77.59
-1 -5 7 1525.75 77.49
0 5 -7 695.53 38.9
0 -5 7 665.83 38.6
0 -5 7 772.82 38.7
0 -5 7 766.22 38.6
-1 5 -7 808.62 44.5
-1 5 -7 851.41 43
-1 5 -7 776.62 43.2
1 -5 7 810.72 43.3
1 -5 7 872.61 43.2
1 -5 7 764.22 43.2
2 -5 7 1142.19 56.19
2 -5 7 999.7 56.19
-3 5 -7 320.07 19.1
-3 5 -7 314.67 17.9
3 -5 7 321.87 18.9
-4 5 -7 645.24 35.1
-4 5 -7 631.84 35.7
4 -5 7 680.83 35.5
-5 5 -7 27.6 5.1
5 -5 7 25.4 6.4
6 4 -7 101.49 11.5
-6 -4 7 96.49 8.9
5 4 -7 363.06 20.8
-5 -4 7 348.07 19.6
-5 -4 7 354.16 19.3
-5 -4 7 328.67 20.2
4 4 -7 131.19 10.5
4 4 -7 147.29 10.4
4 4 -7 127.99 9.8
4 4 -7 123.99 8.7
-4 -4 7 129.79 10.6
-4 -4 7 133.89 9.3
-4 -4 7 151.08 9.8
-4 -4 7 138.39 9.5
3 4 -7 3665.83 188.48
3 4 -7 3594.84 188.18
3 4 -7 3398.26 188.08
3 4 -7 3820.82 188.28
-3 -4 7 3636.34 188.28
-3 -4 7 3742.23 188.68
-3 -4 7 3750.22 188.08
-3 -4 7 3871.31 188.28
2 4 -7 176.08 11.3
2 4 -7 194.38 11.5
2 4 -7 190.08 11
2 4 -7 179.78 11.6
-2 -4 7 194.28 11.3
-2 -4 7 175.68 11.4
1 4 -7 1025.7 53.99
1 4 -7 1040 53.69
-1 -4 7 1077.29 53.89
-1 -4 7 997.4 53.89
0 4 -7 928.31 48.1
0 4 -7 894.71 47.9
0 4 -7 945.11 47.6
0 -4 7 842.82 47.7
0 -4 7 950.9 47.7
-1 4 -7 267.17 17
-1 4 -7 301.17 16.7
1 -4 7 282.47 16.5
-2 4 -7 1442.16 75.09
-2 4 -7 1517.95 74.79
-2 4 -7 1392.16 75.59
2 -4 7 1488.95 74.79
2 -4 7 1382.16 74.89
-3 4 -7 335.57 19.3
-3 4 -7 346.47 19.9
-3 4 -7 308.17 21
-3 4 -7 372.26 19.8
3 -4 7 326.57 20.1
3 -4 7 375.86 19.8
-4 4 -7 366.46 20.9
-4 4 -7 345.47 21.5
-4 4 -7 372.46 21.1
4 -4 7 364.46 20.8
-5 4 -7 231.58 14.8
-5 4 -7 231.38 14.7
-5 4 -7 223.28 14.4
5 -4 7 207.68 15.5
5 -4 7 194.38 14.5
-6 4 -7 0.9 4.6
-6 4 -7 12.3 4.2
6 -4 7 5.4 6
6 -4 7 2.8 4.8
6 3 -7 7.9 5.4
-6 -3 7 6.8 3.7
5 3 -7 759.02 38.2
-5 -3 7 721.23 36.8
-5 -3 7 703.23 36.6
-5 -3 7 626.44 37.2
4 3 -7 1256.07 63.79
4 3 -7 1327.77 64.29
4 3 -7 1118.29 64.29
-4 -3 7 1341.87 65.29
-4 -3 7 1250.57 64.49
-4 -3 7 1120.39 66.19
-4 -3 7 1257.77 63.99
3 3 -7 1364.16 69.09
3 3 -7 1404.96 69.59
3 3 -7 1333.07 68.79
3 3 -7 1248.08 69.19
-3 -3 7 1372.76 69.59
-3 -3 7 1264.87 68.89
-3 -3 7 1376.66 68.69
-3 -3 7 1321.67 68.89
2 3 -7 920.71 49.4
2 3 -7 975.7 49.4
2 3 -7 927.51 49.4
-2 -3 7 961.8 49.4
-2 -3 7 937.61 49.5
-2 -3 7 983.4 49.2
1 3 -7 5.4 2.4
1 3 -7 14.2 2.6
1 3 -7 0.6 2.6
-1 -3 7 7 2.5
-1 -3 7 6.6 2.5
-1 -3 7 3.2 2.6
-1 -3 7 8.5 2.6
0 3 -7 2752.02 135.29
0 3 -7 2553.24 135.09
0 3 -7 2607.74 134.99
0 -3 7 2505.15 134.89
0 -3 7 2752.12 134.89
-1 3 -7 1548.15 78.99
-1 3 -7 1626.84 78.69
-1 3 -7 1408.96 79.29
1 -3 7 1406.26 78.79
1 -3 7 1646.64 78.89
-2 3 -7 937.71 54.99
-2 3 -7 1086.19 54.49
2 -3 7 1075.49 54.69
2 -3 7 1059.49 54.29
-3 3 -7 1106.29 51.69
-3 3 -7 829.52 52.79
-3 3 -7 1015.7 51.99
3 -3 7 993.6 51.69
-4 3 -7 174.48 14.6
-4 3 -7 217.28 13.2
4 -3 7 198.88 12.6
4 -3 7 210.68 13
-5 3 -7 423.56 24.1
-5 3 -7 438.76 27.4
5 -3 7 410.76 24
5 -3 7 395.06 29.1
-6 3 -7 139.89 12.5
-6 3 -7 148.09 11.4
6 -3 7 164.28 13.7
6 -3 7 182.38 12.2
7 2 -7 244.58 18.3
6 2 -7 98.99 11
-6 -2 7 91.89 7.1
5 2 -7 8.3 4.5
-5 -2 7 7.5 4.1
-5 -2 7 16.3 2.9
4 2 -7 83.69 8.4
-4 -2 7 84.89 8.5
-4 -2 7 86.99 6.6
-4 -2 7 93.19 6.1
-4 -2 7 94.89 8
-4 -2 7 85.09 7.5
3 2 -7 124.09 9
3 2 -7 131.99 8.2
3 2 -7 133.19 8.5
-3 -2 7 129.89 8
-3 -2 7 146.49 9.8
-3 -2 7 139.39 9.5
-3 -2 7 129.69 8.4
2 2 -7 486.85 24.8
2 2 -7 409.16 25
2 2 -7 479.55 24.5
-2 -2 7 451.15 24.8
-2 -2 7 459.05 24.8
-2 -2 7 469.15 24.3
-2 -2 7 488.85 25
1 2 -7 897.61 46
1 2 -7 891.71 46.2
-1 -2 7 886.41 45.8
-1 -2 7 883.01 45.9
-1 -2 7 867.11 46.1
0 2 -7 13.6 2.9
0 2 -7 1.6 2.8
0 -2 7 8.7 2.7
0 -2 7 7.2 2.3
-1 2 -7 2481.75 123.09
-1 2 -7 2214.18 123.79
-1 2 -7 2556.74 125.39
-1 2 -7 2210.38 123.69
1 -2 7 2430.06 123.19
1 -2 7 2535.45 123.39
-2 2 -7 92.99 7.3
-2 2 -7 94.59 6.9
2 -2 7 88.69 7.1
2 -2 7 89.59 7.1
-3 2 -7 1434.26 75.29
-3 2 -7 1534.05 75.79
3 -2 7 1422.96 75.49
3 -2 7 1445.46 75.39
-4 2 -7 955.9 50.19
-4 2 -7 974.6 48.6
-4 2 -7 897.81 48.3
4 -2 7 893.01 48.7
4 -2 7 897.41 48.8
4 -2 7 901.91 48.8
-5 2 -7 69.29 8.5
-5 2 -7 75.79 7.8
5 -2 7 76.49 10.9
5 -2 7 69.89 7
-6 2 -7 401.26 23.3
-6 2 -7 375.46 22.1
6 -2 7 398.66 24.2
7 1 -7 28.1 6.7
6 1 -7 266.17 17.7
5 1 -7 8 4.4
-5 -1 7 7.9 5.2
4 1 -7 585.44 30.3
4 1 -7 576.14 29.3
-4 -1 7 536.85 29.6
-4 -1 7 571.64 29.9
-4 -1 7 528.65 30.1
3 1 -7 2125.19 128.49
3 1 -7 2551.74 128.49
3 1 -7 2685.43 128.69
-3 -1 7 2750.32 129.19
-3 -1 7 2610.84 128.89
-3 -1 7 2337.47 128.49
2 1 -7 912.11 48.8
2 1 -7 986.2 48
2 1 -7 882.41 48.7
-2 -1 7 894.01 50.79
-2 -1 7 986.4 48.9
1 1 -7 1275.07 66.69
1 1 -7 1273.27 66.09
-1 -1 7 1306.87 66.69
0 1 -7 918.31 48.8
0 1 -7 966.1 48.6
0 1 -7 838.52 48.5
0 1 -7 967.2 48.6
0 -1 7 1015.5 48.7
0 -1 7 874.31 48.5
-1 1 -7 1635.94 85.09
-1 1 -7 1597.84 85.19
1 -1 7 1639.64 84.99
1 -1 7 1680.73 84.99
1 -1 7 1681.43 84.99
-2 1 -7 1184.18 59.99
-2 1 -7 1106.09 60.19
2 -1 7 1169.48 59.99
2 -1 7 1155.88 60.19
-3 1 -7 80.89 7.7
3 -1 7 95.69 7.2
3 -1 7 88.99 7.3
3 -1 7 91.09 8.1
-4 1 -7 823.62 47.3
-4 1 -7 885.31 47.1
4 -1 7 847.62 46.6
4 -1 7 877.81 47.2
4 -1 7 929.71 47.2
4 -1 7 984 47.3
-5 1 -7 95.19 9.7
-5 1 -7 93.19 8.4
5 -1 7 90.59 7.5
5 -1 7 112.29 9.2
5 -1 7 91.99 10.4
5 -1 7 92.69 10.1
-6 1 -7 750.02 41.3
-6 1 -7 811.82 41.9
6 -1 7 775.32 42.7
7 0 -7 128.79 13.5
5 0 -7 313.77 18.7
-5 0 7 288.37 17.5
-5 0 7 324.07 17
4 0 -7 602.84 30.9
4 0 -7 604.54 31.9
4 0 -7 538.45 31.4
-4 0 7 592.04 31.3
-4 0 7 628.14 32.6
3 0 -7 351.26 17.4
3 0 -7 338.67 17.7
3 0 -7 263.37 17.6
-3 0 7 313.47 17.7
-3 0 7 302.37 17.8
2 0 -7 1677.53 88.09
2 0 -7 1858.01 88.39
-2 0 7 1779.72 88.19
-2 0 7 1528.05 88.19
1 0 -7 140.29 9.1
1 0 -7 112.79 8.8
-1 0 7 147.29 9.2
-1 0 7 141.19 8.9
0 0 -7 3956.3 204.18
0 0 -7 3967.1 204.28
0 0 7 3985.7 204.08
0 0 7 4069.69 204.18
-1 0 -7 64.59 6.6
1 0 7 65.59 6.3
1 0 7 77.19 6.6
-2 0 -7 2762.32 123.49
-2 0 -7 2369.16 123.39
2 0 7 2062.69 122.99
-3 0 -7 1009.9 51.29
3 0 7 985.4 51.19
3 0 7 942.91 50.99
3 0 7 957.2 51.09
-4 0 -7 882.11 42.9
-4 0 -7 694.53 42.5
4 0 7 737.23 42.6
4 0 7 780.32 42.1
4 0 7 850.01 43
4 0 7 872.51 42.9
-5 0 -7 1206.08 62.59
5 0 7 1247.58 63.19
5 0 7 1063.19 61.99
5 0 7 1236.88 63.39
5 0 7 1213.08 61.69
-6 0 -7 149.59 10.7
6 0 7 168.68 13.5
6 0 7 155.98 14.4
7 -1 -7 396.26 24.7
6 -1 -7 1.9 5.1
-6 1 7 2.9 3.2
5 -1 -7 517.35 26.7
-5 1 7 424.46 25.6
-5 1 7 482.55 25.5
4 -1 -7 230.48 14.7
4 -1 -7 252.07 14.8
4 -1 -7 251.97 13.8
-4 1 7 217.38 14.1
-4 1 7 267.27 14.2
-4 1 7 255.97 14
3 -1 -7 1213.18 60.69
3 -1 -7 1249.38 60.29
3 -1 -7 1061.69 60.59
-3 1 7 1061.09 60.19
-3 1 7 1252.47 60.09
2 -1 -7 2247.68 121.59
2 -1 -7 2225.08 121.59
-2 1 7 2729.23 122.89
-2 1 7 2299.97 121.39
1 -1 -7 1057.99 53.39
-1 1 7 994.8 52.99
-1 1 7 1020.4 53.39
0 -1 -7 1238.28 65.89
0 1 7 1355.36 66.09
0 1 7 1219.38 65.69
-1 -1 -7 638.84 34.5
1 1 7 659.33 34.4
1 1 7 639.94 34.5
-2 -1 -7 18.2 3.8
-2 -1 -7 4.7 3.4
2 1 7 11 3.2
2 1 7 6.6 3.4
-3 -1 -7 974.6 58.99
-3 -1 -7 1280.47 59.49
3 1 7 1224.08 58.99
3 1 7 1126.39 58.89
3 1 7 1185.98 59.29
3 1 7 986.6 58.89
-4 -1 -7 96.39 9.6
4 1 7 130.09 9.9
4 1 7 124.99 9.3
4 1 7 132.19 11.3
-5 -1 -7 546.85 34.2
-5 -1 -7 634.54 34.5
5 1 7 666.53 33.6
5 1 7 672.03 38.2
5 1 7 669.23 36
-6 -1 -7 217.88 13.9
6 1 7 238.98 18.3
7 -2 -7 208.88 16.3
6 -2 -7 455.55 25.7
-6 2 7 394.66 23.6
-6 2 7 460.65 23.7
-6 2 7 425.36 23.8
5 -2 -7 137.89 11
5 -2 -7 138.59 8.8
5 -2 -7 132.19 9.5
-5 2 7 130.49 11.2
-5 2 7 122.59 8.8
-5 2 7 143.79 9.4
-5 2 7 129.99 8.8
4 -2 -7 1489.35 74.99
4 -2 -7 1430.76 75.49
-4 2 7 1524.55 75.19
-4 2 7 1385.06 74.69
-4 2 7 1449.06 74.89
3 -2 -7 453.25 23.6
3 -2 -7 455.45 24
3 -2 -7 409.26 23.4
-3 2 7 441.56 23.7
-3 2 7 423.86 23
-3 2 7 449.16 23.5
2 -2 -7 2088.39 105.99
2 -2 -7 1935.61 105.79
-2 2 7 2121.19 106.19
-2 2 7 2123.59 105.89
1 -2 -7 1367.76 74.49
1 -2 -7 1498.55 74.29
1 -2 -7 1497.65 74.79
-1 2 7 1366.16 74.39
-1 2 7 1519.25 75.49
0 -2 -7 18.1 3.3
0 -2 -7 25.6 3.4
0 2 7 15.6 2.5
0 2 7 18 3.4
-1 -2 -7 1496.85 80.39
-1 -2 -7 1582.24 80.79
1 2 7 1658.43 80.89
1 2 7 1649.33 80.89
1 2 7 1436.46 80.39
-2 -2 -7 266.87 15.2
-2 -2 -7 245.98 14.8
2 2 7 225.58 14.9
2 2 7 277.87 14.7
-3 -2 -7 1152.38 62.39
-3 -2 -7 1171.08 62.79
3 2 7 1328.37 62.79
3 2 7 1202.88 62.19
3 2 7 1082.29 62.89
3 2 7 1256.37 62.39
-4 -2 -7 987.8 50.49
-4 -2 -7 849.72 51.79
-4 -2 -7 1042.5 51.09
4 2 7 955.2 51.59
-5 -2 -7 36.3 8.2
-5 -2 -7 39.4 5
5 2 7 43.1 6.5
5 2 7 36.8 5.5
5 2 7 44.2 7.9
-6 -2 -7 575.04 35.4
-6 -2 -7 576.84 31.8
6 2 7 607.84 35.3
6 2 7 606.84 33.8
7 -3 -7 92.09 12.3
-7 3 7 87.49 7.8
-7 3 7 79.89 8.3
6 -3 -7 595.84 33.2
6 -3 -7 597.44 33.2
-6 3 7 571.64 31.5
-6 3 7 564.64 31.5
-6 3 7 620.04 31.9
5 -3 -7 36.2 5.2
5 -3 -7 33.4 5.3
-5 3 7 24.1 3.5
-5 3 7 31.5 4
-5 3 7 27 4.5
4 -3 -7 738.43 38.2
4 -3 -7 685.23 37.5
4 -3 -7 736.43 37.9
-4 3 7 717.03 38
-4 3 7 721.03 37.6
-4 3 7 700.53 37.1
3 -3 -7 644.64 33.7
3 -3 -7 645.74 33.7
3 -3 -7 608.24 33.3
-3 3 7 635.24 33.8
2 -3 -7 394.36 20.3
2 -3 -7 382.26 21.1
2 -3 -7 367.06 20.6
-2 3 7 379.96 20.8
-2 3 7 389.36 21.2
1 -3 -7 743.63 38.9
1 -3 -7 749.23 40
1 -3 -7 760.42 38.9
-1 3 7 742.53 39.3
-1 3 7 730.43 38.9
0 -3 -7 58.39 5.5
0 -3 -7 70.19 6.1
0 3 7 54.49 9.4
0 3 7 57.59 5.8
0 3 7 61.49 4.6
-1 -3 -7 701.73 37.2
1 3 7 707.23 36.4
1 3 7 689.03 37
-2 -3 -7 1454.05 75.59
-2 -3 -7 1413.56 74.79
-2 -3 -7 1522.95 75.19
2 3 7 1504.85 74.79
2 3 7 1491.35 75.09
2 3 7 1318.77 74.79
-3 -3 -7 17.4 3.4
-3 -3 -7 21.4 5.5
-3 -3 -7 25.2 4.3
3 3 7 30.1 4.3
3 3 7 28.3 3.9
-4 -3 -7 802.82 41.6
-4 -3 -7 824.22 41
-4 -3 -7 796.12 42.6
-4 -3 -7 680.83 42.1
4 3 7 758.02 42.5
4 3 7 793.32 40.6
4 3 7 723.03 44.1
-5 -3 -7 214.78 15.4
-5 -3 -7 229.08 14.5
-5 -3 -7 245.18 17.7
5 3 7 229.18 17.9
-6 -3 -7 349.07 24.3
6 3 7 382.86 25.7
6 3 7 404.56 24.1
-6 4 7 15.1 4.8
-6 4 7 22 4.1
5 -4 -7 690.43 37.3
5 -4 -7 684.43 37.9
-5 4 7 698.43 39.1
-5 4 7 724.73 37.8
4 -4 -7 5.5 3.7
4 -4 -7 6.6 3.8
4 -4 -7 5.6 2.5
-4 4 7 6.7 4.2
3 -4 -7 894.81 47.9
3 -4 -7 942.41 49.3
3 -4 -7 824.62 47.6
3 -4 -7 952.3 48.2
-3 4 7 945.21 47.3
-3 4 7 939.21 48
-3 4 7 936.71 48.5
2 -4 -7 114.79 7.4
2 -4 -7 97.19 8.6
2 -4 -7 98.19 7.5
-2 4 7 106.19 6.8
-2 4 7 93.79 8.8
1 -4 -7 811.42 41.9
1 -4 -7 793.42 42.2
1 -4 -7 788.72 41.8
-1 4 7 798.32 42.3
0 -4 -7 1836.62 96.29
0 -4 -7 1866.61 96.59
0 -4 -7 1960.1 96.59
0 4 7 1857.91 96.69
0 4 7 1848.12 96.19
-1 -4 -7 139.29 10.2
-1 -4 -7 128.39 9.6
-1 -4 -7 131.09 8.9
1 4 7 136.79 11.5
1 4 7 134.79 8.3
-2 -4 -7 573.04 30.6
-2 -4 -7 592.94 31.1
-2 -4 -7 616.44 31.9
2 4 7 588.04 31.1
2 4 7 580.54 30.5
2 4 7 500.15 30.4
-3 -4 -7 171.68 11.1
-3 -4 -7 186.18 13.6
-3 -4 -7 182.38 12.1
3 4 7 148.29 14.1
3 4 7 184.58 11.7
3 4 7 165.48 11.5
-4 -4 -7 332.67 22
-4 -4 -7 267.87 17.3
-4 -4 -7 314.57 17.9
4 4 7 275.57 18.5
4 4 7 307.17 18.2
4 4 7 280.47 20.3
4 4 7 293.17 17.3
-5 -4 -7 699.03 37.2
-5 -4 -7 706.93 39.1
5 4 7 672.73 37.2
5 4 7 617.44 39.3
6 -5 -7 33.6 6.3
6 -5 -7 25.9 5.3
-6 5 7 18.7 4.4
-6 5 7 23.9 5.8
5 -5 -7 500.55 28.9
5 -5 -7 509.85 28.7
-5 5 7 532.15 29.1
4 -5 -7 171.48 12.1
4 -5 -7 176.18 12.7
-4 5 7 183.78 12
-4 5 7 181.98 13.3
-4 5 7 185.28 10.5
3 -5 -7 292.37 17
3 -5 -7 266.17 16.7
-3 5 7 299.37 17
-3 5 7 300.17 18.2
-3 5 7 306.27 17
2 -5 -7 1437.46 78.89
2 -5 -7 1538.85 78.39
2 -5 -7 1501.05 78.79
-2 5 7 1573.24 77.99
-2 5 7 1540.15 78.39
-2 5 7 1506.45 78.89
1 -5 -7 219.98 13.4
1 -5 -7 233.98 14
-1 5 7 226.28 14.4
-1 5 7 222.38 13.1
-1 5 7 220.58 13.4
0 -5 -7 2026.8 102.69
0 -5 -7 1946.91 102.19
-1 -5 -7 168.38 12.1
-1 -5 -7 167.18 11
1 5 7 166.08 10.1
1 5 7 176.48 11.9
-2 -5 -7 340.07 20.5
-2 -5 -7 329.97 19.1
2 5 7 338.77 19.9
2 5 7 349.17 18.9
-3 -5 -7 705.23 36.8
-3 -5 -7 661.63 35.9
-3 -5 -7 707.43 37.8
3 5 7 712.83 36.6
3 5 7 588.44 38.1
3 5 7 671.93 36.1
-4 -5 -7 3.6 4.9
-4 -5 -7 8.1 3.4
-4 -5 -7 8.4 6.5
4 5 7 12 5.2
4 5 7 3.4 4
4 5 7 14.4 7.2
-5 -5 -7 238.58 18.4
-5 -5 -7 218.08 14.6
5 5 7 188.98 12.9
5 5 7 198.98 19.4
5 5 7 213.78 15.8
5 -6 -7 4.8 4.8
5 -6 -7 0.7 4.8
-5 6 7 6.1 5.4
-5 6 7 12.6 4.2
4 -6 -7 264.07 16.5
-4 6 7 283.07 18.1
-4 6 7 261.77 15.1
3 -6 -7 113.19 9.1
3 -6 -7 112.29 9.7
3 -6 -7 117.49 10.9
-3 6 7 120.69 8.2
-3 6 7 102.89 11.1
-3 6 7 126.39 11.4
2 -6 -7 100.19 10.2
2 -6 -7 112.59 9.5
-2 6 7 110.99 10.6
-2 6 7 98.99 7.9
-2 6 7 102.49 8.9
1 -6 -7 178.88 12.8
1 -6 -7 174.48 11.7
-1 6 7 174.98 11.2
0 -6 -7 292.17 18.6
0 -6 -7 322.87 19
0 -6 -7 282.07 18.6
0 6 7 304.97 19
-1 -6 -7 414.26 23.1
-1 -6 -7 390.66 21.5
-1 -6 -7 384.96 22.4
1 6 7 331.07 22.2
-2 -6 -7 68.79 10.2
-2 -6 -7 54.39 7.4
-2 -6 -7 48.2 7.1
2 6 7 57.19 8.8
-3 -6 -7 35.5 5.1
-3 -6 -7 37.6 6.3
-3 -6 -7 44.9 7.8
3 6 7 44.9 6
-4 -6 -7 149.29 15.2
-4 -6 -7 156.18 11
-4 -6 -7 155.28 13.3
4 6 7 147.29 12
4 6 7 138.29 15.8
4 -7 -7 116.49 11.6
4 -7 -7 116.49 9.6
-4 7 7 117.49 12.3
-4 7 7 102.19 8.4
3 -7 -7 251.07 16.6
3 -7 -7 261.97 17.7
3 -7 -7 257.77 15.3
-3 7 7 257.87 15.3
2 -7 -7 144.49 11.4
2 -7 -7 124.19 9.2
2 -7 -7 123.49 12.1
-2 7 7 119.49 9.4
1 -7 -7 1026.4 52.89
-1 7 7 926.61 51.89
-1 7 7 1017.7 53.19
0 -7 -7 163.18 18.3
0 -7 -7 199.78 14.3
0 7 7 184.08 14.4
0 7 7 181.58 14.5
-1 -7 -7 741.73 41.1
-1 -7 -7 715.83 40
-1 -7 -7 795.72 43.7
1 7 7 742.43 41
-2 -7 -7 49.2 8.8
-2 -7 -7 69.69 11.7
-2 -7 -7 62.09 8
2 7 7 71.59 8.1
-3 -7 -7 28.7 6.5
-3 -7 -7 47.7 6.4
-3 -7 -7 60.39 9.6
3 7 7 43.6 9.4
3 7 7 37.6 6.3
3 -8 -7 68.89 7.6
3 -8 -7 85.69 11
-3 8 7 82.89 12.3
2 -8 -7 169.78 13.8
2 -8 -7 152.98 14.6
-2 8 7 157.88 14.7
1 -8 -7 100.59 12.3
1 -8 -7 75.69 12.2
-1 8 7 82.49 12.2
0 -8 -7 262.97 18.8
-1 -8 -7 17.8 6.9
1 8 7 4.5 5.6
-2 -8 -7 23.6 4.4
-2 -8 -7 26.2 7.3
-2 -8 -7 41.4 8.9
-2 -8 -7 27.3 7.2
2 8 7 22.7 6.6
2 8 -8 2.7 5.2
-2 -8 8 14 6.3
-2 -8 8 5.6 5.6
-1 -8 8 385.26 23.6
-1 -8 8 383.46 23.5
0 -8 8 397.26 24
0 -8 8 388.96 24.2
-1 8 -8 658.63 35.9
1 -8 8 639.04 36.5
2 -8 8 680.73 37.8
-4 -7 8 -0.8 6.1
-4 -7 8 12.9 4.4
-4 -7 8 0.7 5.2
3 7 -8 368.26 21.8
-3 -7 8 384.86 22
-3 -7 8 341.47 21.9
-3 -7 8 369.46 22.1
2 7 -8 95.49 10
-2 -7 8 90.49 10.5
-2 -7 8 95.59 10.4
-2 -7 8 108.89 10.6
-1 -7 8 131.09 12.3
-1 -7 8 134.19 11.4
-1 -7 8 121.59 11.1
0 -7 8 308.67 19.4
1 -7 8 190.38 14.8
1 -7 8 189.28 18.3
3 -7 8 6.4 6.5
5 6 -8 244.48 16.2
-5 -6 8 267.07 17.4
-5 -6 8 240.78 15.4
-5 -6 8 233.28 15.8
4 6 -8 148.69 12.7
4 6 -8 184.08 12.2
-4 -6 8 183.58 13.1
-4 -6 8 187.08 12.7
-4 -6 8 168.98 16.5
3 6 -8 121.39 9.5
3 6 -8 132.99 10.8
-3 -6 8 140.89 10.9
-3 -6 8 129.39 10.8
2 6 -8 255.17 15.7
-2 -6 8 230.68 16
-2 -6 8 268.47 16.1
-2 -6 8 256.37 15.8
1 6 -8 141.59 11
-1 -6 8 144.49 11
-1 -6 8 142.99 11.2
-1 -6 8 138.39 11
0 -6 8 352.16 21.1
0 -6 8 364.66 21
1 -6 8 846.92 47.2
1 -6 8 894.11 46.4
-2 6 -8 798.92 45.1
2 -6 8 869.21 44.7
-3 6 -8 271.27 17.2
-3 6 -8 251.97 15.3
-3 6 -8 257.87 18.1
3 -6 8 274.97 17.3
-4 6 -8 85.79 11.1
-4 6 -8 116.49 11.1
4 -6 8 108.29 11.2
5 5 -8 194.78 13.3
5 5 -8 148.59 12.7
-5 -5 8 177.78 11.8
-5 -5 8 164.98 12.4
-5 -5 8 181.38 12.2
4 5 -8 240.98 14.9
4 5 -8 206.08 14.8
-4 -5 8 231.68 14.5
-4 -5 8 233.18 14.6
-4 -5 8 240.68 14.5
3 5 -8 4.4 2.6
3 5 -8 4.6 3.4
3 5 -8 8.6 3.9
3 5 -8 5.2 3.7
-3 -5 8 3.4 5.8
-3 -5 8 6.3 4
-3 -5 8 8.5 4
-3 -5 8 4.7 4.3
2 5 -8 117.49 10.5
2 5 -8 107.89 7.7
2 5 -8 100.69 8.8
-2 -5 8 104.39 8.7
-2 -5 8 100.89 8.9
1 5 -8 627.54 32.9
-1 -5 8 638.04 33
-1 -5 8 610.64 33
-1 -5 8 576.04 33.2
0 5 -8 1.9 3.6
0 5 -8 3.5 4.2
0 -5 8 4.8 4.1
0 -5 8 4.8 3.4
0 -5 8 5.3 3.7
-1 5 -8 473.65 27
-1 5 -8 452.45 27.3
-1 5 -8 495.35 26.6
-1 5 -8 494.95 26.6
1 -5 8 483.85 26.6
-2 5 -8 557.24 32.2
-2 5 -8 605.04 31.9
2 -5 8 595.04 32
-3 5 -8 21.2 3.9
-3 5 -8 31.5 4.8
-3 5 -8 29.4 5.2
3 -5 8 24.7 5
-4 5 -8 496.45 28.5
-4 5 -8 581.64 29.4
-4 5 -8 495.65 29.5
4 -5 8 505.45 28.9
-5 5 -8 17.4 5.5
-5 5 -8 5 5.4
5 -5 8 -1.4 4.7
5 -5 8 -4 5.5
6 4 -8 392.86 23.8
-6 -4 8 385.66 21.8
5 4 -8 1366.76 68.69
-5 -4 8 1338.57 67.69
-5 -4 8 1307.17 67.59
-5 -4 8 1216.08 68.39
4 4 -8 361.86 20
4 4 -8 332.87 20.2
4 4 -8 310.47 19.6
4 4 -8 361.76 20
-4 -4 8 342.77 19.6
-4 -4 8 339.47 19.3
-4 -4 8 358.26 19.2
-4 -4 8 331.87 20.4
3 4 -8 1189.58 63.69
3 4 -8 1166.58 63.89
3 4 -8 1174.68 63.79
3 4 -8 1302.27 63.79
-3 -4 8 1213.18 63.79
-3 -4 8 1305.47 63.59
-3 -4 8 1212.08 64.19
-3 -4 8 1254.77 63.69
2 4 -8 9.7 3.1
2 4 -8 10.9 3
2 4 -8 2.4 3.4
2 4 -8 10.6 5.3
-2 -4 8 8.4 3.4
-2 -4 8 8.4 3.3
-2 -4 8 5.3 5.4
-2 -4 8 6.7 3.5
1 4 -8 930.01 49.3
1 4 -8 992.2 49.1
1 4 -8 859.11 49.2
-1 -4 8 881.01 49.2
-1 -4 8 981.5 48.6
-1 -4 8 977.6 49
0 4 -8 413.86 23.6
0 4 -8 423.66 23
0 4 -8 395.06 23.2
0 -4 8 454.15 23.3
0 -4 8 407.66 23.2
0 -4 8 413.76 23.1
-1 4 -8 59.89 6.9
-1 4 -8 58.39 6.9
1 -4 8 60.39 6.9
-2 4 -8 1665.43 85.49
2 -4 8 1641.64 85.49
-3 4 -8 8.7 4.1
-3 4 -8 6.3 3.5
-4 4 -8 391.56 22.8
-4 4 -8 413.36 23.3
4 -4 8 401.86 23
-5 4 -8 691.03 35.6
-5 4 -8 654.03 35.8
5 -4 8 621.34 35.5
5 -4 8 624.74 36.3
6 3 -8 2.5 5.7
-6 -3 8 6.3 3.6
5 3 -8 275.17 17.6
-5 -3 8 286.57 16.5
-5 -3 8 267.77 15.3
-5 -3 8 264.77 15.4
-5 -3 8 267.87 15.4
4 3 -8 35.8 4.8
4 3 -8 31.6 4.3
-4 -3 8 37.2 9.1
-4 -3 8 32.4 5.3
-4 -3 8 20.2 4
-4 -3 8 27.2 5.2
-4 -3 8 43.1 7.2
3 3 -8 629.14 36.5
3 3 -8 676.83 36.1
3 3 -8 707.03 36.2
3 3 -8 693.03 35.9
-3 -3 8 674.53 36.6
-3 -3 8 675.53 36.1
-3 -3 8 681.23 36
-3 -3 8 706.03 35.6
2 3 -8 614.04 31.7
2 3 -8 568.44 31.7
2 3 -8 589.84 31.8
-2 -3 8 571.74 31.7
-2 -3 8 619.74 32
-2 -3 8 606.84 31.5
-2 -3 8 603.34 31.7
1 3 -8 166.98 10.4
1 3 -8 168.28 10.9
1 3 -8 159.98 10.8
-1 -3 8 173.58 9.9
-1 -3 8 166.88 10.8
-1 -3 8 159.98 10.4
0 3 -8 2137.89 112.89
0 3 -8 2256.87 112.29
0 -3 8 2251.27 112.29
0 -3 8 2108.89 112.49
-1 3 -8 244.68 13.6
-1 3 -8 232.48 14.2
-1 3 -8 191.48 14.5
1 -3 8 234.78 13.9
1 -3 8 236.88 13.6
-2 3 -8 1274.67 78.99
-2 3 -8 1603.04 78.69
-2 3 -8 1601.74 78.09
2 -3 8 1508.15 78.29
2 -3 8 1561.44 78.09
-3 3 -8 659.83 35.5
-3 3 -8 684.13 36
3 -3 8 644.74 35.6
3 -3 8 663.13 35.6
-4 3 -8 107.59 9.3
-4 3 -8 99.39 9.1
-4 3 -8 117.29 9.3
4 -3 8 93.19 9.3
-5 3 -8 689.73 36.7
-5 3 -8 688.13 36.7
5 -3 8 635.74 36.8
-6 3 -8 6.4 4.3
-6 3 -8 8.1 5.2
6 -3 8 8.5 6.8
6 2 -8 147.69 13.2
5 2 -8 454.65 25.4
-5 -2 8 432.76 23.7
4 2 -8 3720.63 184.38
4 2 -8 3577.44 183.58
4 2 -8 3507.45 183.58
-4 -2 8 3586.74 183.78
-4 -2 8 3692.83 184.88
-4 -2 8 3754.52 184.38
-4 -2 8 3616.44 183.28
-4 -2 8 3328.97 185.38
3 2 -8 1404.26 71.89
3 2 -8 1476.55 72.49
3 2 -8 1441.66 72.69
3 2 -8 1397.16 72.19
-3 -2 8 1411.46 71.69
-3 -2 8 1323.57 72.19
-3 -2 8 1307.57 72.69
-3 -2 8 1425.76 72.89
2 2 -8 2865.41 145.39
2 2 -8 2732.13 145.79
-2 -2 8 2736.63 145.79
-2 -2 8 3054.39 147.39
1 2 -8 48 5.5
1 2 -8 50.29 5.9
1 2 -8 43.4 5.2
-1 -2 8 47.9 5.3
-1 -2 8 53.29 5.2
0 2 -8 1261.47 69.69
0 -2 8 1395.46 69.29
0 -2 8 1362.56 69.49
-1 2 -8 1061.69 54.39
-1 2 -8 1047.7 54.99
1 -2 8 1032.2 54.69
-2 2 -8 71.49 6.4
-2 2 -8 61.29 6.9
2 -2 8 64.59 6.6
-3 2 -8 1424.46 74.39
-3 2 -8 1477.15 74.89
3 -2 8 1406.46 74.49
3 -2 8 1427.66 74.39
-4 2 -8 133.79 10.1
-4 2 -8 105.99 9.7
4 -2 8 119.89 10.6
4 -2 8 109.49 11.2
4 -2 8 147.39 9.4
-5 2 -8 229.98 17.2
-5 2 -8 272.77 16.6
5 -2 8 298.27 16.9
5 -2 8 264.07 18.2
-6 2 -8 414.86 24.8
-6 2 -8 435.16 25.5
6 -2 8 416.66 26.4
6 -2 8 478.05 25
7 1 -8 176.78 15.6
6 1 -8 536.65 30.8
5 1 -8 9.2 4.7
-5 -1 8 12.4 3.6
4 1 -8 2950.5 140.49
4 1 -8 2874.01 140.39
-4 -1 8 2428.66 140.79
-4 -1 8 2804.62 140.59
-4 -1 8 2952.5 141.69
-4 -1 8 2461.35 140.49
3 1 -8 35.1 5.3
3 1 -8 31.9 4.3
-3 -1 8 39.3 5.2
-3 -1 8 23 4.1
2 1 -8 635.14 30.8
2 1 -8 521.35 30.6
2 1 -8 600.54 29.6
-2 -1 8 484.65 30.3
-2 -1 8 596.14 30.8
1 1 -8 1967.2 92.49
1 1 -8 1569.04 92.29
-1 -1 8 1827.62 92.49
0 1 -8 137.89 9.8
0 1 -8 159.38 10.3
0 1 -8 136.69 10.3
0 -1 8 148.99 10.1
0 -1 8 165.28 10.3
-1 1 -8 2590.84 142.99
-1 1 -8 2845.82 141.99
1 -1 8 2858.91 142.09
-2 1 -8 81.09 7.5
-2 1 -8 68.99 7.8
2 -1 8 83.79 7.9
2 -1 8 76.09 7.4
2 -1 8 86.49 6.3
-3 1 -8 761.22 45
3 -1 8 802.62 44.5
3 -1 8 914.51 44.4
3 -1 8 895.01 44.9
-4 1 -8 147.19 11.3
-4 1 -8 159.78 12
4 -1 8 151.28 12.4
4 -1 8 165.98 11.7
4 -1 8 153.28 11.5
4 -1 8 179.38 11.9
-5 1 -8 24.2 5.3
5 -1 8 22.5 4.8
5 -1 8 21.8 6.1
5 -1 8 10.9 5.5
-6 1 -8 297.87 17.5
-6 1 -8 244.58 16.5
6 -1 8 270.17 19.2
7 0 -8 15.6 6.6
6 0 -8 162.58 13.5
5 0 -8 364.36 19.1
5 0 -8 351.46 18.7
5 0 -8 374.66 20.9
-5 0 8 372.26 19.3
-5 0 8 303.97 19.6
-5 0 8 315.47 22
4 0 -8 35.2 4.7
4 0 -8 44.5 6.9
4 0 -8 49.4 5.3
4 0 -8 49.3 5.3
-4 0 8 39.7 5.7
-4 0 8 46.3 6.6
-4 0 8 36.5 4.8
-4 0 8 56.69 7
3 0 -8 1112.59 58.89
3 0 -8 1158.98 58.59
-3 0 8 1174.48 58.79
-3 0 8 1061.19 58.89
2 0 -8 18.4 3.5
-2 0 8 11.8 3.4
-2 0 8 23.7 3.5
1 0 -8 1593.04 86.99
1 0 -8 1756.92 87.19
-1 0 8 1704.13 86.99
0 0 -8 1168.18 63.29
0 0 -8 1170.68 63.09
0 0 8 1207.08 63.09
0 0 8 1302.77 63.29
-1 0 -8 1124.79 58.59
-1 0 -8 1118.89 58.39
1 0 8 1163.58 58.39
1 0 8 1057.39 58.19
-2 0 -8 1848.72 98.69
-2 0 -8 2042 98.59
2 0 8 1612.44 98.29
2 0 8 2122.39 98.59
-3 0 -8 7.3 3.9
-3 0 -8 -5.2 3.7
3 0 8 1.8 4.5
3 0 8 11.1 4.1
3 0 8 -1 3.9
-4 0 -8 1386.76 68.19
4 0 8 1328.67 68.39
4 0 8 1310.57 68.29
4 0 8 1186.58 67.79
-5 0 -8 447.86 27.6
-5 0 -8 575.04 28.6
5 0 8 538.85 28.7
5 0 8 443.96 27.5
5 0 8 500.55 27
5 0 8 494.85 29
-6 0 -8 90.99 10.2
-6 0 -8 110.79 9.4
6 0 8 114.99 12.5
6 0 8 114.69 13
7 -1 -8 64.99 8.8
6 -1 -8 68.39 10.1
-6 1 8 58.89 6.7
-6 1 8 63.79 7.3
5 -1 -8 254.17 16.1
5 -1 -8 218.28 13.5
-5 1 8 275.77 14.4
-5 1 8 247.38 14.3
-5 1 8 218.58 14.9
4 -1 -8 17.4 4
4 -1 -8 8.5 3.9
4 -1 -8 9 2.8
-4 1 8 11.1 3.4
-4 1 8 12.8 3
-4 1 8 11.9 3.3
3 -1 -8 2462.15 131.79
3 -1 -8 2797.32 131.39
-3 1 8 2431.86 131.29
2 -1 -8 335.37 19.4
2 -1 -8 373.36 19.5
-2 1 8 326.77 19.1
-2 1 8 354.96 19.8
1 -1 -8 35.8 4.3
1 -1 -8 32.5 5.1
-1 1 8 41.2 6.2
-1 1 8 36.7 4.8
-1 1 8 35.6 4.8
0 -1 -8 2373.56 132.69
0 -1 -8 2665.03 132.19
0 1 8 2619.24 132.19
0 1 8 2624.64 131.99
-1 -1 -8 2.7 2.7
-1 -1 -8 2.6 3.3
1 1 8 3.7 3.3
1 1 8 8 3.1
-2 -1 -8 1184.18 65.39
-2 -1 -8 1342.97 65.59
2 1 8 1388.16 65.29
2 1 8 1091.69 65.19
-3 -1 -8 473.25 24.4
3 1 8 379.36 24.1
3 1 8 451.05 23.9
3 1 8 409.36 24
3 1 8 384.96 23.9
3 1 8 450.05 23.8
-4 -1 -8 39.1 5.5
-4 -1 -8 38.6 5.8
4 1 8 36.8 5.1
-5 -1 -8 361.56 22.5
5 1 8 392.36 23.9
5 1 8 366.66 21.2
5 1 8 418.16 23.3
5 1 8 384.16 21.5
-6 -1 -8 23.2 6.5
-6 -1 -8 29.5 4.6
6 1 8 40.6 7.4
6 1 8 37.1 8
7 -2 -8 244.88 18.2
6 -2 -8 7.8 6
-6 2 8 12.5 3.6
-6 2 8 10.1 3.6
-6 2 8 4.9 3.7
5 -2 -8 13.6 3.7
5 -2 -8 7 3.1
5 -2 -8 9.3 5.2
-5 2 8 6.7 3.1
-5 2 8 9.4 3
4 -2 -8 1584.44 88.59
4 -2 -8 1781.92 89.09
-4 2 8 1631.14 88.29
-4 2 8 1737.03 88.19
-4 2 8 1859.31 88.69
3 -2 -8 688.63 35
3 -2 -8 578.74 34.7
-3 2 8 672.73 34.4
-3 2 8 706.43 35.3
2 -2 -8 870.11 48.2
2 -2 -8 1049.3 48.7
-2 2 8 864.01 48.1
1 -2 -8 1935.01 105.39
1 -2 -8 2186.38 105.99
1 -2 -8 2120.39 105.29
-1 2 8 2151.38 105.99
-1 2 8 1889.21 105.29
0 -2 -8 1496.95 75.89
0 -2 -8 1393.16 75.59
0 -2 -8 1512.15 76.09
0 2 8 1541.75 78.19
0 2 8 1397.86 75.59
-1 -2 -8 1678.33 86.49
1 2 8 1523.35 85.89
1 2 8 1801.92 86.39
-2 -2 -8 179.98 12.5
-2 -2 -8 171.38 11.9
2 2 8 185.58 12.2
2 2 8 182.78 12.5
2 2 8 200.78 11.8
-3 -2 -8 1660.33 89.49
3 2 8 1949.1 89.69
3 2 8 1484.45 89.79
3 2 8 1738.03 89.39
3 2 8 1808.82 89.39
-4 -2 -8 42.6 7.9
-4 -2 -8 58.39 8.4
4 2 8 72.29 9
4 2 8 57.99 7.1
4 2 8 75.89 9.8
4 2 8 39.6 6.2
-5 -2 -8 918.21 59.09
-5 -2 -8 1169.48 58.89
-5 -2 -8 1115.49 61.19
5 2 8 1250.77 59.69
5 2 8 1089.09 60.49
5 2 8 1169.18 58.19
-6 -2 -8 76.29 8.8
-6 -2 -8 88.39 14.8
-6 -2 -8 58.29 7.8
6 2 8 109.29 12.9
6 -3 -8 115.99 11.7
6 -3 -8 101.39 8.6
-6 3 8 112.79 8.7
-6 3 8 104.29 8.3
-6 3 8 119.89 11.2
5 -3 -8 18 5.5
5 -3 -8 10 3.6
-5 3 8 17.1 4.4
-5 3 8 15.4 3.7
-5 3 8 13.2 3.1
4 -3 -8 404.26 21.5
-4 3 8 400.26 21.9
-4 3 8 352.66 20.5
3 -3 -8 10.7 2.7
-3 3 8 13.5 3.8
2 -3 -8 1764.12 91.39
2 -3 -8 1755.02 88.89
2 -3 -8 1633.24 89.19
-2 3 8 1756.42 89.69
-2 3 8 1769.32 89.29
1 -3 -8 459.75 26
1 -3 -8 523.85 26.1
1 -3 -8 482.85 26.5
-1 3 8 481.25 26.7
0 -3 -8 40.6 7
0 -3 -8 28.3 4.6
0 3 8 36 4.6
0 3 8 29.7 5
-1 -3 -8 751.22 40.8
1 3 8 846.22 42.6
1 3 8 709.13 40.6
1 3 8 807.72 40.6
-2 -3 -8 484.45 28.1
-2 -3 -8 528.55 28.6
2 3 8 560.44 28.1
2 3 8 474.95 28.2
2 3 8 570.64 28.8
-3 -3 -8 270.27 18
-3 -3 -8 268.47 16.9
3 3 8 266.47 16.6
3 3 8 308.27 18.3
3 3 8 272.37 16.5
-4 -3 -8 838.02 44.4
4 3 8 880.21 44.7
4 3 8 867.01 44.1
4 3 8 741.63 45.7
-5 -3 -8 -6 4.8
-5 -3 -8 11.8 7.5
-5 -3 -8 1.3 5.1
5 3 8 6.8 3.5
5 3 8 11.5 6
5 3 8 28 7.8
6 -4 -8 371.06 20.9
-6 4 8 348.57 22.1
-6 4 8 365.66 21.6
5 -4 -8 180.98 13.1
5 -4 -8 208.48 14.2
-5 4 8 202.18 15.1
-5 4 8 195.08 12.5
4 -4 -8 155.48 14.4
4 -4 -8 150.08 11
-4 4 8 135.09 11.1
-4 4 8 148.79 10.2
3 -4 -8 2302.27 115.49
3 -4 -8 2315.07 115.59
3 -4 -8 2163.48 115.09
-3 4 8 2191.68 115.59
2 -4 -8 254.67 14.9
2 -4 -8 259.17 14.8
2 -4 -8 247.48 15.7
-2 4 8 272.47 16.1
1 -4 -8 700.13 38
1 -4 -8 730.53 38.7
-1 4 8 715.23 38
-1 4 8 744.83 38.7
0 -4 -8 1456.95 72.49
0 -4 -8 1395.66 72.09
0 -4 -8 1374.76 72.59
0 4 8 1367.16 72.59
0 4 8 1379.96 72.09
-1 -4 -8 109.39 9.5
-1 -4 -8 104.49 9
-1 -4 -8 102.29 8
1 4 8 97.59 9
1 4 8 95.39 7.9
1 4 8 110.19 7.3
-2 -4 -8 1412.36 73.29
-2 -4 -8 1439.86 72.69
-2 -4 -8 1360.16 72.09
2 4 8 1454.85 71.99
2 4 8 1225.38 71.99
2 4 8 1474.25 74.69
-3 -4 -8 22.4 3.9
-3 -4 -8 33.3 6.5
-3 -4 -8 27.9 4.9
3 4 8 8.9 6.6
3 4 8 29.8 4.9
3 4 8 25.2 4.9
-4 -4 -8 609.44 32.1
-4 -4 -8 532.25 31.6
-4 -4 -8 604.54 33.8
4 4 8 509.85 34
4 4 8 616.24 32.1
4 4 8 588.64 31.5
-5 -4 -8 206.18 14.4
-5 -4 -8 192.38 14.4
-5 -4 -8 212.38 17.8
5 4 8 202.58 18.1
5 4 8 189.98 13
6 -5 -8 115.19 11.9
6 -5 -8 93.39 10.3
-6 5 8 101.69 11.2
-6 5 8 117.09 9.6
5 -5 -8 220.58 16.9
-5 5 8 222.58 15.5
-5 5 8 210.78 14
4 -5 -8 18.3 4.6
4 -5 -8 11.2 4.4
-4 5 8 12.9 3.6
-4 5 8 16.4 7.7
3 -5 -8 265.17 17.1
3 -5 -8 301.27 17.5
3 -5 -8 295.97 18.1
-3 5 8 315.67 18.1
-3 5 8 310.47 18.5
-3 5 8 294.97 17.3
2 -5 -8 12.5 3.4
2 -5 -8 24.8 4.3
2 -5 -8 12.2 4.6
-2 5 8 14.7 3.7
-2 5 8 15.5 4.7
1 -5 -8 106.39 9
1 -5 -8 105.09 9.8
1 -5 -8 101.79 9.3
-1 5 8 101.99 9.9
-1 5 8 94.19 8.3
0 -5 -8 364.76 20
0 -5 -8 333.87 20
0 -5 -8 320.57 19
0 5 8 325.77 20.1
-1 -5 -8 121.69 10.4
-1 -5 -8 113.79 8.8
-1 -5 -8 122.19 10.6
1 5 8 112.59 7.9
-2 -5 -8 361.86 20.9
-2 -5 -8 384.16 22.5
-2 -5 -8 385.46 22.1
2 5 8 366.16 20.7
2 5 8 363.16 21.8
-3 -5 -8 528.05 29.7
-3 -5 -8 573.94 32
-3 -5 -8 484.25 32.2
3 5 8 581.04 31.6
3 5 8 566.74 30
-4 -5 -8 25 6
-4 -5 -8 30.3 7.7
4 5 8 29.6 8.8
4 5 8 28 5.1
5 -6 -8 249.08 17.3
5 -6 -8 245.68 17.1
-5 6 8 271.77 16.8
-5 6 8 261.07 18
4 -6 -8 204.18 15.1
4 -6 -8 207.28 13.8
-4 6 8 202.68 13.5
-4 6 8 210.68 15.5
-4 6 8 206.08 12.2
3 -6 -8 95.89 10.6
3 -6 -8 90.79 8.8
3 -6 -8 95.09 9.3
-3 6 8 99.29 7.4
-3 6 8 97.79 8.8
-3 6 8 99.09 12
2 -6 -8 486.65 28.2
2 -6 -8 517.35 27.7
-2 6 8 505.55 28.7
-2 6 8 499.15 26.7
-2 6 8 472.35 27.2
1 -6 -8 269.07 16.4
1 -6 -8 270.07 17.8
1 -6 -8 290.07 17.4
-1 6 8 286.57 18.1
-1 6 8 268.17 16.6
0 -6 -8 530.75 30.1
0 -6 -8 575.94 31.3
0 6 8 556.44 31.2
-1 -6 -8 540.45 30.9
-1 -6 -8 588.64 32.2
-1 -6 -8 552.24 31.8
1 6 8 576.94 31.8
-2 -6 -8 7.4 7
-2 -6 -8 1 3.6
-2 -6 -8 -0.6 5
2 6 8 5.7 5.5
2 6 8 4.3 3.7
-3 -6 -8 627.54 35.3
-3 -6 -8 690.83 36.6
-3 -6 -8 670.03 37.7
3 6 8 652.83 36.2
3 6 8 638.04 35.5
-4 -6 -8 159.28 14
-4 -6 -8 175.58 11.8
-4 -6 -8 168.98 16.8
4 6 8 165.68 13.4
4 6 8 157.88 13.2
4 -7 -8 173.38 12.7
4 -7 -8 177.38 14.7
-4 7 8 175.18 11.4
-4 7 8 190.08 15.5
3 -7 -8 57.09 9.2
3 -7 -8 55.69 7.5
3 -7 -8 60.09 7.5
-3 7 8 58.19 6.8
-3 7 8 64.29 8
2 -7 -8 149.09 12.9
2 -7 -8 152.58 12.2
2 -7 -8 152.28 12.2
2 -7 -8 132.39 10.5
-2 7 8 137.89 10.2
1 -7 -8 709.13 43.4
1 -7 -8 758.02 40.1
-1 7 8 695.93 38.9
-1 7 8 743.83 40.6
0 -7 -8 86.29 11
0 -7 -8 77.49 11.2
0 7 8 87.89 11.4
-1 -7 -8 198.28 16.1
-1 -7 -8 253.87 17.9
-1 -7 -8 221.38 16.7
1 7 8 230.38 16.8
-2 -7 -8 54.69 8
-2 -7 -8 72.19 12.5
-2 -7 -8 56.59 7.8
2 7 8 52.19 7.4
-3 -7 -8 164.88 15.3
-3 -7 -8 207.78 16.1
-3 -7 -8 175.38 17.1
3 7 8 153.88 14.5
3 -8 -8 161.18 14.9
3 -8 -8 160.18 11.6
3 -8 -8 146.59 13.5
-3 8 8 170.18 15.5
2 -8 -8 35.4 7.7
2 -8 -8 27.8 4.5
2 -8 -8 20.7 6.5
-2 8 8 28 7.6
1 -8 -8 149.49 15.1
1 -8 -8 178.58 14.7
0 -8 -8 21.1 7.5
0 -8 -8 9.5 6.6
0 8 8 -2.3 6.2
-1 -8 -8 164.68 15.4
-1 -8 -8 138.69 14.7
2 8 -9 200.68 15.6
-2 -8 9 216.78 16.2
-2 -8 9 217.88 16.1
-1 -8 9 321.57 21.5
-1 -8 9 355.36 21.6
0 8 -9 2.5 5.7
0 -8 9 1.3 6.6
0 -8 9 7 5.6
-1 8 -9 115.09 12.6
1 -8 9 123.49 12.7
3 7 -9 427.96 23.5
3 7 -9 414.16 24.9
-3 -7 9 464.15 25.6
-3 -7 9 439.06 24.9
-3 -7 9 396.96 25.1
2 7 -9 32.5 6
-2 -7 9 51.19 6.8
-2 -7 9 61.79 8.9
-2 -7 9 50.69 7.1
1 7 -9 69.69 9.7
-1 -7 9 58.89 10.1
-1 -7 9 77.29 10
-1 -7 9 80.99 11.4
0 7 -9 710.13 38.4
0 -7 9 695.43 38.5
0 -7 9 704.63 38.5
-1 7 -9 144.39 12.5
1 -7 9 144.09 12.8
-2 7 -9 425.96 25.1
-2 7 -9 424.46 25
-3 7 -9 33.7 6.6
3 -7 9 39.9 6.9
4 6 -9 73.49 8.6
4 6 -9 54.59 6.7
-4 -6 9 76.89 9
-4 -6 9 74.69 8.8
-4 -6 9 72.99 9.5
3 6 -9 299.37 18.9
3 6 -9 325.37 18.5
-3 -6 9 334.37 19.4
-3 -6 9 323.57 19
-3 -6 9 306.67 19.4
2 6 -9 670.33 37.7
2 6 -9 666.33 36.6
-2 -6 9 754.12 39.9
-2 -6 9 630.14 36.9
1 6 -9 77.09 9
-1 -6 9 82.39 11
-1 -6 9 75.09 9.2
0 6 -9 2217.48 111.49
0 -6 9 2186.68 111.69
0 -6 9 2247.78 111.69
0 -6 9 1993.4 111.89
1 -6 9 34.3 5.8
-2 6 -9 891.01 48.2
2 -6 9 957 49.4
-3 6 -9 281.07 17.3
3 -6 9 317.77 19
-4 6 -9 24.1 4.9
-4 6 -9 24.6 6.4
4 -6 9 32.2 5.9
5 5 -9 140.69 12.1
5 5 -9 112.89 11.4
-5 -5 9 153.78 10.7
-5 -5 9 160.08 11.2
4 5 -9 645.44 34.5
4 5 -9 595.14 35.7
-4 -5 9 609.24 34.5
-4 -5 9 641.34 34.3
-4 -5 9 665.53 33.9
3 5 -9 28.5 5.3
3 5 -9 19.4 4.2
3 5 -9 19.6 4.2
-3 -5 9 18.9 4.5
-3 -5 9 20.7 4.8
-3 -5 9 20.3 4.5
-3 -5 9 21.3 4.5
2 5 -9 653.63 37.8
2 5 -9 685.03 37.3
2 5 -9 719.33 36.8
-2 -5 9 671.83 37.5
-2 -5 9 732.03 37.4
-2 -5 9 714.23 37.2
1 5 -9 517.25 27.4
1 5 -9 456.85 28.8
-1 -5 9 515.85 27.6
-1 -5 9 470.55 27.5
-1 -5 9 512.65 27.2
0 5 -9 27.4 4.7
0 5 -9 35.2 5.1
0 -5 9 35.9 5
0 -5 9 30.1 4.9
-1 5 -9 1788.52 84.79
-1 5 -9 1585.44 85.19
1 -5 9 1524.35 84.69
-2 5 -9 81.09 8.9
-2 5 -9 86.89 9.4
2 -5 9 88.99 9.1
-3 5 -9 289.67 17.3
-3 5 -9 259.77 16
-3 5 -9 273.17 17.2
3 -5 9 246.48 16.6
-4 5 -9 152.88 13
-4 5 -9 183.78 13.5
4 -5 9 162.48 13.1
-5 5 -9 240.28 16.5
-5 5 -9 248.18 16.2
5 -5 9 205.68 16.1
6 4 -9 715.63 39.9
-6 -4 9 716.53 38
5 4 -9 6.7 5.6
5 4 -9 7.3 4.2
-5 -4 9 1 3.9
-5 -4 9 8.4 4.5
-5 -4 9 6 3.4
4 4 -9 434.76 23.7
4 4 -9 392.96 23.1
4 4 -9 404.76 22.7
4 4 -9 451.75 23.7
-4 -4 9 385.86 23.3
-4 -4 9 416.66 22.6
-4 -4 9 397.16 24.1
-4 -4 9 417.76 23
3 4 -9 188.08 12.2
3 4 -9 186.38 11.9
3 4 -9 182.38 12.6
-3 -4 9 181.48 12.2
-3 -4 9 185.48 12.7
-3 -4 9 189.48 12.3
-3 -4 9 186.58 11.9
2 4 -9 75.59 7.8
2 4 -9 80.29 7.7
2 4 -9 87.09 7.6
-2 -4 9 75.89 7.8
-2 -4 9 75.79 7.4
-2 -4 9 79.49 7.4
-2 -4 9 89.19 7.8
1 4 -9 1289.37 68.69
1 4 -9 1290.27 68.59
1 4 -9 1311.87 68.19
-1 -4 9 1366.46 67.79
-1 -4 9 1353.26 68.29
-1 -4 9 1276.07 68.49
0 4 -9 5.3 4
0 4 -9 7.2 3.4
0 4 -9 5.4 3.2
0 -4 9 8.8 3.6
0 -4 9 4.9 3.3
-1 4 -9 3629.44 170.98
-1 4 -9 3032 171.78
-1 4 -9 3331.67 171.48
1 -4 9 3433.06 170.88
1 -4 9 3251.87 171.18
-2 4 -9 64.59 7.7
2 -4 9 54.59 7.6
-3 4 -9 283.97 17.3
3 -4 9 280.17 17.3
-4 4 -9 545.35 29.1
-4 4 -9 509.25 29.5
4 -4 9 501.75 29
-5 4 -9 22.7 5.5
-5 4 -9 22.4 4.9
5 -4 9 14.8 5.2
5 -4 9 4.2 6.2
6 3 -9 21 6.8
5 3 -9 8.9 5.2
-5 -3 9 8.8 5.5
-5 -3 9 9.3 3.1
4 3 -9 112.89 8.8
4 3 -9 128.99 10.2
-4 -3 9 120.89 10.6
-4 -3 9 120.79 9.2
-4 -3 9 107.39 10.4
-4 -3 9 123.99 8.9
3 3 -9 293.07 18.5
3 3 -9 332.37 17.9
3 3 -9 300.37 17.4
3 3 -9 318.97 17.5
-3 -3 9 318.77 18.2
-3 -3 9 286.67 17.9
-3 -3 9 294.77 17.6
-3 -3 9 302.27 18.2
2 3 -9 253.87 14.9
2 3 -9 244.48 14.5
2 3 -9 247.58 14.9
-2 -3 9 248.48 14.6
-2 -3 9 251.47 14.7
-2 -3 9 235.18 14.2
1 3 -9 365.86 21
1 3 -9 385.16 21.3
-1 -3 9 399.26 20.4
-1 -3 9 353.06 20.8
0 3 -9 1421.06 70.29
0 3 -9 1349.07 70.69
0 3 -9 1237.68 70.79
0 -3 9 1431.06 70.29
0 -3 9 1334.07 70.49
-1 3 -9 51.19 6.6
-1 3 -9 51.09 7.2
1 -3 9 51.89 6.9
1 -3 9 57.49 6.8
-2 3 -9 1040.5 64.59
-2 3 -9 1308.47 64.19
2 -3 9 1297.77 63.49
-3 3 -9 728.73 37.6
-3 3 -9 716.23 38.3
3 -3 9 660.33 37.6
-4 3 -9 340.97 20.9
-4 3 -9 360.26 21.1
-5 3 -9 553.24 29.4
-5 3 -9 504.05 29.2
5 -3 9 463.85 29.7
5 -3 9 524.25 29.4
6 2 -9 1.5 6.2
5 2 -9 2142.39 107.19
-5 -2 9 1991.9 105.99
4 2 -9 205.98 13.9
4 2 -9 227.28 12.8
-4 -2 9 180.88 18.6
-4 -2 9 228.08 13.2
3 2 -9 298.17 17.1
3 2 -9 306.97 16.5
3 2 -9 332.77 18
3 2 -9 314.87 17.5
-3 -2 9 300.57 16.1
-3 -2 9 277.27 17.9
-3 -2 9 262.17 17.2
2 2 -9 967.3 52.19
2 2 -9 973 52.29
-2 -2 9 946.91 52.19
-2 -2 9 1087.29 52.29
1 2 -9 9.9 3.3
-1 -2 9 12.2 3.2
-1 -2 9 8.8 3.1
0 2 -9 993.1 53.49
0 2 -9 1033.3 52.89
0 -2 9 987.3 53.09
0 -2 9 1030.7 52.89
-1 2 -9 596.64 35.7
1 -2 9 673.03 35.5
1 -2 9 709.23 35.4
-2 2 -9 848.22 48.5
-2 2 -9 997.4 49.3
2 -2 9 890.51 48.1
-3 2 -9 383.76 21.9
3 -2 9 381.86 21.9
-4 2 -9 6.1 4.1
-4 2 -9 2.6 4
4 -2 9 2.3 4
4 -2 9 -11.8 5.3
4 -2 9 4.9 4
-5 2 -9 927.71 50.19
-5 2 -9 903.21 50.39
5 -2 9 867.71 50.69
5 -2 9 1044.5 50.09
6 -2 9 216.78 17.8
6 -2 9 253.07 15.9
6 1 -9 221.08 16.3
5 1 -9 33.7 6.1
-5 -1 9 23.1 4.7
-5 -1 9 36 4.9
-4 -1 9 138.29 10.4
-4 -1 9 175.98 13.7
-4 -1 9 129.99 11.2
3 1 -9 51.79 6.7
3 1 -9 48.6 7.6
-3 -1 9 58.09 7.7
-3 -1 9 60.79 7.2
2 1 -9 985.3 49
2 1 -9 843.72 47.8
-2 -1 9 953.5 49
1 1 -9 1145.99 56.79
1 1 -9 943.81 56.69
-1 -1 9 1126.89 56.69
-1 -1 9 1106.19 57.59
0 1 -9 156.08 10.4
0 1 -9 147.49 9.9
0 1 -9 125.69 10.5
0 -1 9 146.49 10.4
-1 1 -9 2574.84 124.29
-1 1 -9 2217.98 124.39
1 -1 9 2129.09 123.89
1 -1 9 2719.93 124.49
-2 1 -9 36.3 5.2
-2 1 -9 38.8 5.2
2 -1 9 44.3 5.4
-3 1 -9 1409.76 78.89
3 -1 9 1514.65 78.39
3 -1 9 1684.13 78.99
3 -1 9 1450.15 79.59
-4 1 -9 784.12 51.19
-4 1 -9 1000.2 47.8
4 -1 9 827.72 47.3
4 -1 9 857.01 47.7
4 -1 9 961.9 47.5
-5 1 -9 356.76 23.6
-5 1 -9 480.75 29
-5 1 -9 427.36 28.5
5 -1 9 357.76 23.9
5 -1 9 433.66 23.8
-6 1 -9 285.97 17.5
6 -1 9 238.48 16.9
6 -1 9 313.47 20.4
7 0 -9 24.8 7.1
6 0 -9 710.53 38.8
-6 0 9 685.13 36.7
5 0 -9 112.49 8.6
-5 0 9 123.49 9.5
-5 0 9 119.19 9.7
-5 0 9 119.69 9.1
4 0 -9 5119.69 248.58
4 0 -9 4844.92 247.88
-4 0 9 4779.32 248.28
-4 0 9 4632.64 251.87
-4 0 9 5002.5 248.28
-4 0 9 4772.82 247.88
3 0 -9 341.77 20
3 0 -9 366.36 20.3
-3 0 9 313.67 20.5
-3 0 9 379.96 20.1
2 0 -9 788.52 40.4
-2 0 9 743.63 40.4
-2 0 9 735.83 40
1 0 -9 1587.44 83.59
-1 0 9 1694.03 83.69
-1 0 9 1549.94 83.39
0 0 -9 166.78 11.3
0 0 -9 161.88 11.3
0 0 9 183.28 11.6
0 0 9 156.98 10.8
-1 0 -9 1546.45 80.09
-1 0 -9 1592.34 79.99
1 0 9 1608.54 80.09
1 0 9 1405.16 79.69
-2 0 -9 1640.34 89.09
-2 0 -9 1770.72 88.89
2 0 9 1903.11 89.09
2 0 9 1541.35 88.79
-3 0 -9 230.88 14.9
3 0 9 237.28 15
3 0 9 218.08 14.4
4 0 9 818.22 46.8
4 0 9 811.42 46.7
4 0 9 980.9 46.9
-5 0 -9 33.5 5.4
5 0 9 37 7
5 0 9 34.7 5.4
5 0 9 44.6 7.1
-6 0 -9 298.77 18.4
6 0 9 293.07 21.4
7 -1 -9 44.6 8.3
6 -1 -9 314.07 20.2
-6 1 9 307.87 17.8
5 -1 -9 1185.38 69.69
5 -1 -9 1376.96 69.19
5 -1 -9 1400.96 70.39
-5 1 9 1452.15 69.59
-5 1 9 1281.37 69.39
4 -1 -9 350.76 20
4 -1 -9 356.46 20.1
4 -1 -9 342.97 19.2
-4 1 9 302.57 19.6
-4 1 9 346.77 19
-4 1 9 357.26 19.9
3 -1 -9 457.55 25.4
3 -1 -9 493.15 25.2
-3 1 9 466.05 25.6
-3 1 9 409.26 24.8
2 -1 -9 222.08 13.7
-2 1 9 232.58 14.4
-2 1 9 207.38 13.2
1 -1 -9 1142.69 64.89
1 -1 -9 1332.47 64.89
-1 1 9 1246.08 64.89
0 -1 -9 1072.09 60.39
0 -1 -9 1197.68 60.39
0 1 9 1196.58 60.59
0 1 9 1140.89 60.19
-1 -1 -9 229.38 14.9
-1 -1 -9 231.08 14.6
1 1 9 237.58 14.1
1 1 9 224.78 15
-2 -1 -9 908.61 47.2
-2 -1 -9 918.01 47.1
2 1 9 913.61 46.7
2 1 9 788.82 46.8
-3 -1 -9 5.2 4.2
3 1 9 2.1 4.4
3 1 9 6.8 4.6
3 1 9 15.6 4.8
3 1 9 -2 4.3
-4 -1 -9 192.58 14.8
-4 -1 -9 220.68 14.7
4 1 9 213.38 15.1
4 1 9 189.98 14
4 1 9 229.68 15
-5 -1 -9 299.77 21.2
5 1 9 324.57 19.7
5 1 9 393.56 21.9
5 1 9 324.07 21.7
-6 -1 -9 6.3 4
-6 -1 -9 -0.3 5
6 1 9 17.5 7.2
6 1 9 10.2 7.2
6 -2 -9 -0.7 5.2
6 -2 -9 -3.4 4
-6 2 9 16.9 4
-6 2 9 6.3 4.1
-6 2 9 1.9 3.4
5 -2 -9 776.22 42
5 -2 -9 809.12 41.3
5 -2 -9 840.92 42.6
-5 2 9 712.43 41.4
4 -2 -9 108.09 9.4
4 -2 -9 96.09 8.8
4 -2 -9 112.39 8.6
-4 2 9 101.09 8.4
-4 2 9 104.49 7.6
-4 2 9 118.99 9.3
3 -2 -9 1376.46 65.99
3 -2 -9 1151.58 65.59
-3 2 9 1401.06 66.19
-3 2 9 1136.49 65.99
2 -2 -9 585.44 28.3
2 -2 -9 554.64 29.4
2 -2 -9 484.15 28.8
-2 2 9 511.35 28.9
-2 2 9 571.14 29.9
1 -2 -9 132.59 9.1
1 -2 -9 138.59 10.5
1 -2 -9 146.29 9
-1 2 9 130.19 9.3
-1 2 9 149.49 11.1
0 -2 -9 1277.37 67.49
0 -2 -9 1295.07 67.99
0 -2 -9 1308.67 67.89
0 2 9 1233.88 67.39
0 2 9 1392.96 68.19
-1 -2 -9 163.18 12
-1 -2 -9 171.18 11.1
1 2 9 154.88 11
1 2 9 180.18 13.6
-2 -2 -9 902.21 49.1
-2 -2 -9 900.51 49.2
2 2 9 972.7 49
2 2 9 920.41 49.2
-3 -2 -9 1114.69 61.49
3 2 9 1218.08 61.49
-4 -2 -9 -2 4.4
-4 -2 -9 2.7 4.9
4 2 9 22.1 6.1
4 2 9 8.7 4.3
4 2 9 6.3 5.2
-5 -2 -9 644.74 38.2
-5 -2 -9 655.23 40.5
5 2 9 744.83 38.7
5 2 9 718.03 37.2
6 -3 -9 46.3 7
6 -3 -9 38.6 4.9
-6 3 9 49.5 6
-6 3 9 36.9 4.8
-6 3 9 56.59 7
5 -3 -9 152.58 10.9
5 -3 -9 151.98 12.3
-5 3 9 167.28 11.5
-5 3 9 138.39 10.3
-5 3 9 140.79 9.5
4 -3 -9 732.43 39.3
-4 3 9 767.32 39.3
-4 3 9 688.43 38.5
3 -3 -9 204.28 14.2
-3 3 9 237.38 14.5
-3 3 9 228.08 13.7
2 -3 -9 428.86 25.1
2 -3 -9 483.35 24.9
2 -3 -9 477.65 25.8
-2 3 9 475.25 26.1
-2 3 9 467.05 25.3
1 -3 -9 775.02 42.8
1 -3 -9 840.22 42.9
1 -3 -9 846.12 43.5
-1 3 9 846.72 43.6
-1 3 9 777.22 42.8
0 -3 -9 766.02 38.3
0 -3 -9 720.83 38.4
0 -3 -9 701.03 37.9
0 3 9 646.34 37.6
0 3 9 751.12 38.6
-1 -3 -9 835.72 46.6
-1 -3 -9 832.02 45.9
-1 -3 -9 881.11 46.6
1 3 9 980 47.5
1 3 9 926.51 46.7
1 3 9 810.42 45.9
-2 -3 -9 7.5 4.4
-2 -3 -9 11 5.1
-2 -3 -9 7.5 3.4
2 3 9 15 4
2 3 9 11.8 7.4
2 3 9 11 5.4
2 3 9 15.1 4
-3 -3 -9 172.48 14
-3 -3 -9 166.98 12.4
-3 -3 -9 173.78 12.5
3 3 9 138.29 11.1
3 3 9 190.08 12.6
3 3 9 176.08 12.4
-4 -3 -9 306.97 18.2
-4 -3 -9 283.77 19.9
-4 -3 -9 279.17 18.1
-4 -3 -9 282.27 18.1
4 3 9 225.68 18.8
4 3 9 304.67 18.2
4 3 9 280.77 17.3
-5 -3 -9 42.9 9.2
-5 -3 -9 48.3 6.9
-5 -3 -9 41.1 6.6
5 3 9 82.19 12.6
5 3 9 53.09 7.7
5 3 9 47.4 5.8
6 -4 -9 32.7 7.1
6 -4 -9 27.5 5.2
-6 4 9 29.9 6
-6 4 9 48.2 7.4
5 -4 -9 406.36 29
5 -4 -9 419.36 24.2
-5 4 9 428.96 24.8
-5 4 9 438.76 24
4 -4 -9 388.06 22.6
4 -4 -9 386.56 22.2
3 -4 -9 1416.16 72.39
-3 4 9 1408.16 72.49
-3 4 9 1333.67 71.79
2 -4 -9 3.2 3.3
2 -4 -9 2 3.9
2 -4 -9 7.3 3.3
-2 4 9 5.3 3.3
1 -4 -9 1902.51 100.69
1 -4 -9 1945.91 100.19
1 -4 -9 2010.8 100.39
-1 4 9 1923.01 100.79
0 -4 -9 3.3 2.8
0 -4 -9 11.3 4.2
0 -4 -9 -0.9 4
0 4 9 2.7 4
0 4 9 3.7 2.3
0 4 9 -0.3 3
-1 -4 -9 896.71 48
-1 -4 -9 907.21 49
-1 -4 -9 897.71 48.7
1 4 9 939.71 48.8
1 4 9 933.11 49.2
-2 -4 -9 290.97 18.3
-2 -4 -9 254.97 16.3
-2 -4 -9 274.67 17.5
2 4 9 281.87 16.4
2 4 9 291.47 17.5
-3 -4 -9 325.47 20.8
-3 -4 -9 364.86 21.8
-3 -4 -9 367.36 23.2
3 4 9 374.66 21.2
3 4 9 382.36 21.8
-4 -4 -9 889.11 46.4
-4 -4 -9 823.72 47.8
-4 -4 -9 825.52 46.2
4 4 9 876.51 46
4 4 9 870.71 48.1
-5 -4 -9 130.89 12.7
-5 -4 -9 141.09 16.1
-5 -4 -9 142.79 12.1
5 4 9 127.09 11.4
5 4 9 152.88 15.2
5 4 9 135.59 13.7
5 -5 -9 238.28 16.3
5 -5 -9 246.18 16.7
-5 5 9 236.28 15.4
-5 5 9 259.47 17.1
4 -5 -9 18.6 5.1
4 -5 -9 2.4 4.6
-4 5 9 15.5 4.2
-4 5 9 9.3 5.3
3 -5 -9 260.17 16.1
3 -5 -9 213.38 14.5
3 -5 -9 263.77 16.3
-3 5 9 259.27 16.5
-3 5 9 251.57 15.2
2 -5 -9 52.79 7.3
2 -5 -9 47 6.1
-2 5 9 47 7.1
-2 5 9 52.99 8.8
1 -5 -9 472.65 25.1
1 -5 -9 415.96 24.2
1 -5 -9 437.56 25.4
-1 5 9 447.06 25.7
-1 5 9 432.16 24.3
0 -5 -9 419.56 23.2
0 -5 -9 380.06 22.2
0 -5 -9 401.46 23.2
0 5 9 382.86 22.1
0 5 9 384.16 23.3
-1 -5 -9 17.5 5.5
-1 -5 -9 13.3 3.5
-1 -5 -9 8.5 4.4
1 5 9 15.1 5.5
1 5 9 14.1 3.3
-2 -5 -9 594.34 33.3
-2 -5 -9 638.84 34.4
-2 -5 -9 622.24 34.9
2 5 9 644.54 34.4
2 5 9 582.34 32.9
-3 -5 -9 170.48 14.2
-3 -5 -9 192.58 15.6
3 5 9 166.98 13.6
3 5 9 185.68 12.9
-4 -5 -9 208.28 18.1
4 5 9 219.38 15.2
4 5 9 170.68 16.9
4 5 9 219.28 15.2
5 -6 -9 168.38 14.3
5 -6 -9 176.58 13.8
-5 6 9 188.28 13.2
4 -6 -9 345.77 21.3
4 -6 -9 316.87 20.4
-4 6 9 342.07 20.2
-4 6 9 352.46 21.8
3 -6 -9 457.45 26.4
3 -6 -9 481.95 27.5
2 -6 -9 1394.16 73.79
2 -6 -9 1406.56 74.39
-2 6 9 1439.26 74.79
1 -6 -9 63.09 9.1
-1 6 9 59.99 10.1
0 -6 -9 684.03 37.5
0 -6 -9 705.03 37.5
0 -6 -9 614.84 36
0 6 9 688.43 37.4
-1 -6 -9 239.18 15.1
-1 -6 -9 250.97 17.4
1 6 9 232.68 16.8
-2 -6 -9 266.57 18.7
-2 -6 -9 241.28 20.3
-2 -6 -9 276.77 19.4
2 6 9 275.87 16
2 6 9 267.97 18.3
-3 -6 -9 335.47 22.7
-3 -6 -9 307.07 19.4
-3 -6 -9 334.07 21.5
3 6 9 328.07 19.7
3 6 9 329.07 20.7
4 -7 -9 176.28 13.3
4 -7 -9 173.18 15
-4 7 9 184.08 16.2
3 -7 -9 18.9 5.9
3 -7 -9 4.3 4.6
3 -7 -9 -0.6 6.5
-3 7 9 5 6.2
2 -7 -9 4.8 6.9
2 -7 -9 14.9 6
-2 7 9 7 6.2
1 -7 -9 3.6 6.2
-1 7 9 3.1 6.1
0 -7 -9 19.4 8.6
0 -7 -9 10.9 6.4
0 7 9 9 6.2
-1 -7 -9 305.07 20.5
1 7 9 305.07 20.5
-2 -7 -9 66.99 10.3
-2 -7 -9 43.1 7.7
2 7 9 47.3 7.7
2 -8 -9 34.3 11.3
2 -8 -9 31 5.5
-2 8 9 37.2 8.4
1 -8 -9 730.83 41.4
1 -8 -9 744.13 41.7
-1 8 9 733.03 41.9
0 -8 -9 40.4 7.9
0 8 9 77.79 12.8
1 8 -10 14.6 5.8
-1 -8 10 19.8 6.8
-1 -8 10 11.9 6.3
0 8 -10 29.9 6.3
0 -8 10 17.8 7.4
0 -8 10 25.7 7
-3 -7 10 297.17 19.7
-3 -7 10 318.27 19.5
-3 -7 10 319.97 24.9
-2 -7 10 24.2 6.2
-1 -7 10 1155.78 60.29
-1 -7 10 1111.99 59.99
0 7 -10 26.1 8.4
0 -7 10 11.9 5.9
0 -7 10 21.5 6.8
1 -7 10 379.36 23.3
-2 7 -10 156.08 13.5
2 -7 10 163.68 13.8
4 6 -10 7.3 5.2
4 6 -10 19.2 5.3
-4 -6 10 14.6 4.6
-4 -6 10 5.5 5
-4 -6 10 6 5.3
3 6 -10 527.05 28.4
3 6 -10 480.85 28.8
-3 -6 10 547.55 28.9
-3 -6 10 484.65 29.2
-3 -6 10 547.25 29.2
2 6 -10 45.2 6.4
2 6 -10 40.3 6.1
-2 -6 10 47.2 6.4
-2 -6 10 51.39 8.8
-2 -6 10 58.39 8.8
1 6 -10 110.19 10.6
-1 -6 10 108.19 10.5
-1 -6 10 98.29 10.6
-1 -6 10 122.69 11.2
0 -6 10 221.88 17.3
-1 6 -10 82.39 10.1
1 -6 10 74.69 9.8
2 -6 10 93.49 10.7
-3 6 -10 558.74 32.3
-3 6 -10 649.54 33.7
3 -6 10 581.24 33.2
5 5 -10 337.17 22.6
-5 -5 10 334.27 19.1
-5 -5 10 312.27 20.3
-5 -5 10 325.17 19.5
4 5 -10 201.58 15.2
4 5 -10 240.98 16.4
4 5 -10 252.77 15.7
-4 -5 10 224.88 15.5
-4 -5 10 257.37 14.8
-4 -5 10 216.78 16.3
3 5 -10 139.69 16.3
3 5 -10 182.48 11.6
-3 -5 10 158.48 11.9
-3 -5 10 165.38 11.6
-3 -5 10 176.48 13.1
-3 -5 10 141.29 11.8
2 5 -10 612.74 33.8
2 5 -10 647.34 33.5
2 5 -10 611.54 35.7
-2 -5 10 636.34 34
-2 -5 10 641.54 33.8
-2 -5 10 593.84 34.1
1 5 -10 217.58 13.8
1 5 -10 177.48 14.1
-1 -5 10 194.48 13.8
-1 -5 10 210.08 13.6
-1 -5 10 212.18 13.4
0 5 -10 1216.18 61.19
0 5 -10 1117.39 62.49
0 -5 10 1231.58 61.19
0 -5 10 1092.29 61.49
-1 5 -10 174.48 12.3
-1 5 -10 142.39 12.2
1 -5 10 146.59 13.1
1 -5 10 160.28 11.8
-2 5 -10 115.99 10.7
-2 5 -10 103.49 10.3
2 -5 10 105.39 10.2
-3 5 -10 764.72 38.9
-3 5 -10 636.14 41.7
-3 5 -10 717.33 39.5
3 -5 10 710.53 38.8
-4 5 -10 70.29 10.2
-4 5 -10 66.69 11
4 -5 10 51.99 7
5 4 -10 140.49 9.2
-5 -4 10 133.99 10.2
-5 -4 10 139.19 9.8
-5 -4 10 116.19 13
-5 -4 10 133.39 10.2
4 4 -10 957 46.7
4 4 -10 917.61 46.6
4 4 -10 796.32 46
-4 -4 10 908.81 45.5
-4 -4 10 826.12 46.4
-4 -4 10 817.72 47.8
-4 -4 10 851.71 46
3 4 -10 71.29 7.7
3 4 -10 66.99 8.7
-3 -4 10 65.69 7.9
-3 -4 10 70.19 8.1
-3 -4 10 61.99 7.1
-3 -4 10 65.89 8
2 4 -10 806.22 44
2 4 -10 810.52 44
2 4 -10 808.62 43.9
-2 -4 10 806.02 43.8
-2 -4 10 867.81 43.4
-2 -4 10 853.21 43.7
1 4 -10 651.73 37.4
1 4 -10 708.03 36.9
-1 -4 10 707.83 36.3
0 4 -10 853.61 46.6
0 4 -10 714.83 45.2
0 4 -10 899.11 44.7
0 -4 10 900.51 44.8
-1 4 -10 1140.39 63.99
-1 4 -10 1272.97 60.89
-1 4 -10 1027.6 61.79
1 -4 10 1196.68 61.29
-2 4 -10 80.69 8.8
-2 4 -10 76.99 10
2 -4 10 80.29 8.9
-3 4 -10 574.04 33.1
3 -4 10 592.84 32.2
-4 4 -10 471.05 26.5
-4 4 -10 466.75 28.5
4 -4 10 440.16 26.4
-5 4 -10 174.08 14.8
5 -4 10 189.98 14.4
5 3 -10 321.27 18.9
5 3 -10 335.87 22.9
-5 -3 10 382.86 20.7
-5 -3 10 321.77 19.4
-5 -3 10 348.47 19
4 3 -10 682.43 36.5
4 3 -10 616.34 36.2
4 3 -10 715.23 37.3
4 3 -10 741.13 37.1
-4 -3 10 661.63 36.6
-4 -3 10 666.23 37.8
-4 -3 10 672.13 37.3
-4 -3 10 724.23 37.4
3 3 -10 718.43 36
3 3 -10 620.14 35.3
3 3 -10 681.13 36.2
3 3 -10 652.13 35.9
-3 -3 10 620.74 36
-3 -3 10 648.64 35.8
-3 -3 10 681.23 36.2
-3 -3 10 696.13 35.1
2 3 -10 28.8 4.7
2 3 -10 28.2 4.8
2 3 -10 37 4.7
-2 -3 10 30.4 4.7
-2 -3 10 29.6 4.3
-2 -3 10 27.9 4.6
1 3 -10 1454.45 81.89
1 3 -10 1500.65 81.69
1 3 -10 1559.74 82.19
-1 -3 10 1670.83 81.39
-1 -3 10 1590.24 82.09
-1 -3 10 1689.73 81.89
0 3 -10 1212.78 71.49
0 3 -10 1383.86 71.69
0 -3 10 1498.45 71.09
-1 3 -10 1324.27 67.19
-1 3 -10 1232.98 67.79
1 -3 10 1299.07 67.59
1 -3 10 1298.67 67.19
-2 3 -10 320.87 18.2
-2 3 -10 303.27 19
-2 3 -10 288.97 19.5
2 -3 10 312.67 18.3
-3 3 -10 15 4.4
-3 3 -10 10.4 4.3
3 -3 10 8.4 4.2
-4 3 -10 672.13 36.7
-4 3 -10 656.53 36.2
4 -3 10 646.24 36.3
-5 3 -10 87.99 10.2
5 -3 10 88.99 10
5 -3 10 56.19 8.7
6 2 -10 299.37 18.7
-6 -2 10 230.28 15.9
-5 -2 10 241.88 16
4 2 -10 13.8 4.7
4 2 -10 8.8 3.8
-4 -2 10 6.9 3.8
-4 -2 10 10.6 5.1
-4 -2 10 15.2 4.6
3 2 -10 960.1 48.7
3 2 -10 1042.8 48.7
3 2 -10 808.52 48.2
3 2 -10 874.61 47.5
-3 -2 10 920.81 48.6
-3 -2 10 880.11 48.7
2 2 -10 566.74 34.1
2 2 -10 617.34 33.3
2 2 -10 695.73 34.3
-2 -2 10 611.74 34.2
-2 -2 10 649.64 34
1 2 -10 707.23 42.9
1 2 -10 860.91 43.5
1 2 -10 784.72 43.6
-1 -2 10 830.52 43.3
-1 -2 10 877.81 42.9
0 2 -10 1283.57 64.59
0 2 -10 1164.68 65.09
0 -2 10 1295.17 64.69
0 -2 10 1195.88 64.69
-1 2 -10 2168.68 125.69
-1 2 -10 2668.53 126.09
-1 2 -10 2511.75 125.29
1 -2 10 2296.87 125.29
1 -2 10 2511.15 125.29
-2 2 -10 323.27 21.4
-2 2 -10 384.46 21
2 -2 10 373.56 21.2
-3 2 -10 80.89 8.9
-3 2 -10 76.39 8.7
-3 2 -10 80.29 8.9
-4 2 -10 318.87 23.8
4 -2 10 337.57 20.1
-5 2 -10 322.77 20.2
-5 2 -10 284.47 19.9
5 -2 10 344.47 19.8
6 1 -10 17 6.2
-6 -1 10 12.5 5.2
-6 -1 10 9.2 3.9
5 1 -10 194.28 11.4
5 1 -10 210.48 14.5
5 1 -10 174.58 11.3
-5 -1 10 148.99 12.9
4 1 -10 118.19 10.3
4 1 -10 133.89 10.1
-4 -1 10 148.79 11.9
-4 -1 10 149.39 11.5
-4 -1 10 115.29 10.2
3 1 -10 48.4 5.7
3 1 -10 65.89 8.4
-3 -1 10 48.1 7.6
-3 -1 10 49.9 7.9
2 1 -10 1218.88 64.39
-2 -1 10 1245.18 64.49
1 1 -10 342.97 18.5
1 1 -10 266.27 18.5
-1 -1 10 304.27 18.5
-1 -1 10 325.17 18.5
0 1 -10 2002.6 101.39
0 1 -10 1921.61 101.79
0 1 -10 2013.2 101.39
0 -1 10 1910.31 101.39
0 -1 10 1953.4 101.29
-1 1 -10 2079.59 110.49
-1 1 -10 2283.87 110.19
1 -1 10 2025.1 109.99
-2 1 -10 30.9 5.3
-2 1 -10 38.5 5
2 -1 10 44.5 5
2 -1 10 44 5.4
-3 1 -10 1684.43 79.49
3 -1 10 1353.26 79.09
-4 1 -10 92.49 9.8
-4 1 -10 55.29 8.8
4 -1 10 73.79 10.2
4 -1 10 72.49 9
-5 1 -10 493.15 29.9
5 -1 10 545.05 30.9
5 -1 10 528.75 29.9
6 0 -10 417.96 25.6
-6 0 10 420.56 23.3
5 0 -10 421.66 22.9
-5 0 10 411.26 23.4
-5 0 10 422.96 23.9
-5 0 10 417.16 23.8
4 0 -10 561.34 28
4 0 -10 426.66 27.3
-4 0 10 524.35 27.2
-4 0 10 482.55 26.7
-4 0 10 478.85 27.8
-4 0 10 480.45 28.5
3 0 -10 403.46 21
3 0 -10 303.07 20.7
-3 0 10 328.57 21.2
-3 0 10 393.66 20.6
2 0 -10 586.84 31.3
2 0 -10 518.05 31.3
-2 0 10 570.74 31.1
-2 0 10 606.84 31.5
1 0 -10 1460.25 73.89
1 0 -10 1396.26 73.29
-1 0 10 1391.16 73.59
0 0 -10 30.8 4.9
0 0 -10 28.1 4.5
0 0 10 31.4 4.7
0 0 10 26.6 4.3
-1 0 -10 1254.87 66.19
-1 0 -10 1247.88 66.39
1 0 10 1202.18 66.09
1 0 10 1355.56 66.39
-2 0 -10 68.09 8.2
2 0 10 48.4 8.4
-3 0 -10 259.47 16
-3 0 -10 204.08 16.5
3 0 10 285.27 16.4
-4 0 -10 594.84 30.3
4 0 10 463.45 30.2
4 0 10 609.44 30.6
4 0 10 472.55 30.6
-5 0 -10 143.69 13
5 0 10 111.59 12.5
5 0 10 108.99 11.2
5 0 10 131.89 13.2
6 -1 -10 53.39 7.9
-6 1 10 27.9 5.4
-6 1 10 44.7 5.5
5 -1 -10 430.06 26.2
5 -1 -10 382.16 23.3
-5 1 10 378.46 23.6
-5 1 10 427.16 23.3
-5 1 10 423.26 23.6
4 -1 -10 38 4.8
4 -1 -10 35 5.4
-4 1 10 22.4 5.1
-4 1 10 39.5 5
-4 1 10 30.3 4.1
3 -1 -10 874.21 43.4
-3 1 10 725.43 43.8
-3 1 10 823.12 43.5
2 -1 -10 30.4 5.1
2 -1 -10 38.8 6.4
-2 1 10 30.5 4.5
-2 1 10 24.7 5.2
1 -1 -10 1290.17 61.19
1 -1 -10 1003.4 60.89
-1 1 10 1155.98 60.79
-1 1 10 1199.78 61.29
0 -1 -10 1385.06 74.99
0 1 10 1400.86 74.89
0 1 10 1535.55 75.49
-1 -1 -10 1215.78 65.49
1 1 10 1273.47 65.79
1 1 10 1259.27 65.29
-2 -1 -10 2879.31 144.89
2 1 10 2743.53 145.89
-3 -1 -10 8.8 4.8
3 1 10 3.2 4.4
3 1 10 3.9 4.6
3 1 10 2.2 4.6
-4 -1 -10 2227.48 101.19
-4 -1 -10 2105.09 100.59
4 1 10 1765.82 100.09
4 1 10 1625.74 100.49
-5 -1 -10 66.39 10.6
-5 -1 -10 40.2 6.8
5 1 10 70.99 10.6
5 1 10 57.49 9
5 1 10 89.59 12.1
6 -2 -10 174.28 14.7
6 -2 -10 165.38 11
-6 2 10 137.69 11.2
-6 2 10 184.58 12.4
5 -2 -10 1447.26 71.49
5 -2 -10 1334.47 68.19
-5 2 10 1387.56 68.59
-5 2 10 1264.77 67.79
-5 2 10 1126.99 68.09
4 -2 -10 836.72 43.3
4 -2 -10 866.11 42.7
4 -2 -10 685.73 42.5
-4 2 10 814.72 41.9
3 -2 -10 1095.99 57.49
-3 2 10 1090.59 57.69
2 -2 -10 370.86 21.8
2 -2 -10 405.76 22.6
-2 2 10 416.86 23.1
-2 2 10 373.86 21.7
1 -2 -10 96.29 7.5
1 -2 -10 102.19 8.2
1 -2 -10 93.19 9.4
-1 2 10 84.99 8
-1 2 10 100.59 10.1
0 -2 -10 1559.74 83.49
0 -2 -10 1604.54 83.39
0 -2 -10 1605.04 83.89
0 2 10 1538.45 83.29
0 2 10 1742.93 84.09
-1 -2 -10 49.9 8.5
-1 -2 -10 63.49 7.7
1 2 10 53.09 7
1 2 10 53.89 8.6
-2 -2 -10 1342.77 68.69
-2 -2 -10 1107.29 68.49
2 2 10 1313.67 68.19
2 2 10 1470.55 68.59
2 2 10 1294.37 68.79
-3 -2 -10 328.87 19.1
3 2 10 294.37 19.2
-4 -2 -10 162.58 12.4
-4 -2 -10 158.38 12.4
-4 -2 -10 131.19 13.7
4 2 10 175.38 16.2
4 2 10 142.49 12.3
4 2 10 146.29 13
-5 -2 -10 267.57 18.6
-5 -2 -10 303.77 18.8
-5 -2 -10 265.27 21.7
5 2 10 320.07 19.6
5 2 10 221.88 19.4
5 2 10 272.07 17.3
6 -3 -10 118.79 10.1
6 -3 -10 119.19 13.2
-6 3 10 124.39 11.6
-6 3 10 143.49 10.3
5 -3 -10 932.31 47.3
5 -3 -10 903.51 46.2
-5 3 10 845.12 45.4
-5 3 10 801.62 45.9
4 -3 -10 270.67 17.6
4 -3 -10 267.87 16.7
-4 3 10 239.58 15.4
3 -3 -10 15.1 3.4
3 -3 -10 18.9 4.4
-3 3 10 15.9 3.8
-3 3 10 15.7 4.7
2 -3 -10 1115.89 54.79
2 -3 -10 1113.49 55.89
2 -3 -10 939.91 55.79
-2 3 10 1118.89 56.09
-2 3 10 999.7 55.09
1 -3 -10 25.2 4.1
1 -3 -10 15 4.4
1 -3 -10 21.7 3.5
-1 3 10 20.2 5.1
-1 3 10 19.4 3.4
0 -3 -10 916.11 49.4
0 -3 -10 949.11 50.09
0 -3 -10 911.61 49.8
0 3 10 920.51 49.4
0 3 10 1011.6 50.39
-1 -3 -10 569.24 32.8
-1 -3 -10 560.64 31.9
1 3 10 599.24 31.8
1 3 10 647.14 33.1
-2 -3 -10 86.69 10.1
2 3 10 67.79 6.5
2 3 10 102.19 9.8
-3 -3 -10 477.55 28.2
-3 -3 -10 495.05 28.1
-3 -3 -10 485.45 29.5
3 3 10 514.65 27.9
3 3 10 490.45 31.7
-4 -3 -10 27.6 6.6
-4 -3 -10 28.7 5.6
-4 -3 -10 31.4 7.8
-4 -3 -10 31.8 7.9
4 3 10 39.5 6.2
4 3 10 36.1 7.7
-5 -3 -10 290.37 23.1
-5 -3 -10 317.57 20.1
-5 -3 -10 366.86 21.7
5 3 10 250.67 21.1
5 3 10 314.47 19.3
6 -4 -10 356.96 22.9
-6 4 10 366.46 22
-6 4 10 346.37 20.6
5 -4 -10 273.57 17.8
-5 4 10 277.37 18.1
-5 4 10 273.97 16.9
4 -4 -10 493.15 28.3
4 -4 -10 487.25 27.9
-4 4 10 523.15 30.3
-4 4 10 486.85 27.5
3 -4 -10 219.48 14.8
-3 4 10 205.68 15.3
-3 4 10 217.68 14
2 -4 -10 592.84 32.2
2 -4 -10 559.04 31
-2 4 10 589.44 32.3
1 -4 -10 310.87 18
-1 4 10 301.67 19.1
-1 4 10 296.97 17.8
0 -4 -10 23.9 4
0 -4 -10 22.9 5
0 -4 -10 30.2 5.4
0 4 10 27.1 3.6
0 4 10 33 4.2
0 4 10 26.2 5.6
-1 -4 -10 826.12 45.3
-1 -4 -10 810.52 45
1 4 10 838.82 43.7
1 4 10 860.61 45.2
-2 -4 -10 17.4 3.7
-2 -4 -10 15 5.6
2 4 10 21.6 5.7
2 4 10 20.9 4.7
-3 -4 -10 775.32 41.1
-3 -4 -10 693.63 41.7
3 4 10 745.63 40
-4 -4 -10 441.86 27.1
-4 -4 -10 429.96 29
-4 -4 -10 458.95 26.7
4 4 10 464.45 26.9
4 4 10 478.35 26.9
5 -5 -10 18.3 5.9
5 -5 -10 9 5.4
-5 5 10 18.4 4.9
-5 5 10 12.7 6
4 -5 -10 405.86 24
4 -5 -10 410.56 24.2
-4 5 10 411.76 25.4
-4 5 10 399.86 24.6
3 -5 -10 74.69 7.1
2 -5 -10 53.29 6.6
2 -5 -10 55.29 7.9
-2 5 10 39.9 6.9
1 -5 -10 796.62 43.1
1 -5 -10 767.62 42.1
1 -5 -10 796.12 42.6
-1 5 10 800.62 42.2
0 -5 -10 62.89 7.4
0 -5 -10 62.99 10
0 -5 -10 72.79 9.6
0 5 10 70.19 10.5
-1 -5 -10 251.27 16.6
-1 -5 -10 241.18 16.7
-1 -5 -10 209.28 18.3
1 5 10 237.18 16.8
-2 -5 -10 386.56 23.7
-2 -5 -10 409.16 31.6
-2 -5 -10 431.56 25.4
2 5 10 441.76 25.6
2 5 10 428.86 23.5
-3 -5 -10 190.98 15.3
-3 -5 -10 179.78 16.6
-3 -5 -10 185.88 12.7
3 5 10 182.78 15
3 5 10 173.68 13.4
-4 -5 -10 198.58 18.6
-4 -5 -10 189.18 16.4
4 5 10 203.08 15.6
4 -6 -10 7.4 5.4
4 -6 -10 8.2 9.8
-4 6 10 14.7 6.3
3 -6 -10 336.57 21.6
3 -6 -10 343.47 20.7
2 -6 -10 229.38 16.7
2 -6 -10 238.08 15.7
-2 6 10 236.18 17
1 -6 -10 375.26 22.7
1 -6 -10 377.86 23.5
-1 6 10 364.36 23.2
0 6 10 226.78 16.7
-1 -6 -10 4.6 6.1
-1 -6 -10 2.4 3.7
-1 -6 -10 13.7 9.4
1 6 10 -1.2 5.6
-2 -6 -10 224.08 14.6
-2 -6 -10 223.88 17.4
-2 -6 -10 214.48 17.6
2 6 10 221.28 16.7
-3 -6 -10 16.2 7.2
-3 -6 -10 23.1 8.6
3 6 10 27.2 6.2
3 6 10 21.1 7
3 -7 -10 39.2 6.3
3 -7 -10 19.2 6.3
3 -7 -10 34.9 6.5
-3 7 10 48.1 8.3
2 -7 -10 90.99 12.7
2 -7 -10 106.09 11.5
-2 7 10 96.39 13.3
1 -7 -10 -3.6 5.6
1 -7 -10 5.2 6.2
-1 7 10 -0.8 6.4
0 -7 -10 186.78 16.4
0 -7 -10 211.78 16.6
0 7 10 175.78 20
-1 -7 -10 161.68 15.8
-1 -7 -10 181.28 16.4
-2 -7 -10 30.3 7.8
-2 -7 -10 34.6 9.3
2 7 10 43.6 7.9
2 7 -11 453.45 27.4
-2 -7 11 476.25 27.6
-2 -7 11 498.25 27.5
1 7 -11 1161.98 61.19
-1 -7 11 1172.28 61.39
-1 -7 11 1124.29 61.19
0 7 -11 11.7 6
0 -7 11 4.5 5.7
-1 7 -11 546.85 31.6
1 -7 11 556.44 31.7
-2 7 -11 146.89 13.7
2 -7 11 139.59 13.2
4 6 -11 20.2 5.9
-4 -6 11 6.7 5.3
-4 -6 11 12.6 4.9
-4 -6 11 22.8 9.2
3 6 -11 190.38 15.7
3 6 -11 233.18 14.6
-3 -6 11 226.48 14.9
-3 -6 11 235.38 16
-3 -6 11 221.68 15.9
2 6 -11 181.98 11.8
2 6 -11 160.28 13.1
-2 -6 11 171.98 13
-2 -6 11 172.28 13.6
1 6 -11 59.59 9.8
-1 -6 11 71.29 9.7
-1 -6 11 71.89 11.2
0 6 -11 85.79 10.4
0 -6 11 84.99 10
-1 6 -11 126.69 11.9
1 -6 11 120.99 11.5
2 -6 11 373.96 23.2
-3 6 -11 4.1 6.2
-3 6 -11 3.4 4.2
3 -6 11 4.5 6.7
5 5 -11 163.98 14.1
-5 -5 11 157.98 11.7
-5 -5 11 127.89 11.2
4 5 -11 112.29 10.7
4 5 -11 106.29 10.7
-4 -5 11 73.49 10.7
3 5 -11 475.05 25.2
3 5 -11 409.46 25.5
3 5 -11 422.86 25.6
-3 -5 11 478.25 24.9
-3 -5 11 416.76 25.3
-3 -5 11 455.65 25.5
-3 -5 11 440.06 25.5
2 5 -11 490.35 27.3
2 5 -11 437.06 27.4
2 5 -11 505.35 26.9
-2 -5 11 472.25 27.5
-2 -5 11 469.95 26.7
-2 -5 11 511.25 26.7
-1 -5 11 1094.39 57.29
-1 -5 11 1072.99 60.69
0 5 -11 1214.78 62.19
0 -5 11 1208.88 62.29
0 -5 11 1122.89 62.69
-1 5 -11 5.5 4.8
1 -5 11 9.6 5
-2 5 -11 282.47 18.6
2 -5 11 304.77 18.8
-3 5 -11 477.95 26.9
3 -5 11 439.66 26.6
-4 5 -11 104.29 11.5
4 -5 11 87.99 11.4
5 4 -11 267.27 16.9
5 4 -11 269.17 18.7
-5 -4 11 276.37 16
-5 -4 11 263.47 16.6
-5 -4 11 283.97 17.9
4 4 -11 289.07 18.8
4 4 -11 332.87 18.8
4 4 -11 331.97 18.8
-4 -4 11 263.47 19.7
-4 -4 11 258.77 23.6
-4 -4 11 294.27 17.2
3 4 -11 36.3 10.4
3 4 -11 22.9 4.7
3 4 -11 25.4 5.2
-3 -4 11 33.6 5.2
-3 -4 11 38 5.7
-3 -4 11 39.5 5.7
2 4 -11 325.97 20.9
2 4 -11 346.67 21
-2 -4 11 357.56 20.6
-2 -4 11 375.36 21.3
-2 -4 11 388.06 21.1
1 4 -11 372.26 24.2
1 4 -11 454.25 24
-1 -4 11 415.06 24.3
-1 -4 11 435.06 22.9
0 4 -11 8.9 4
0 4 -11 6.9 4.2
0 4 -11 10.6 6.1
0 -4 11 14.5 5
0 -4 11 12.2 4.3
-1 4 -11 531.15 31.9
-1 4 -11 613.04 31.3
1 -4 11 551.74 31.8
-2 4 -11 179.68 13.1
-2 4 -11 178.48 13.7
2 -4 11 187.88 13.3
-3 4 -11 1064.69 54.59
-3 4 -11 970.8 55.29
3 -4 11 1034 54.49
-4 4 -11 133.69 12.9
-4 4 -11 129.69 12.8
6 3 -11 589.24 33.3
-6 -3 11 542.05 30.4
5 3 -11 -0.6 5.7
-5 -3 11 4.9 3.8
-5 -3 11 15 5.2
4 3 -11 581.64 28.6
4 3 -11 428.96 27.3
4 3 -11 562.04 28.9
-4 -3 11 521.95 28.8
-4 -3 11 488.25 28.1
-4 -3 11 458.65 29.5
3 3 -11 191.38 13.4
3 3 -11 207.78 13.5
-3 -3 11 169.18 12.9
-3 -3 11 169.18 13.4
-3 -3 11 189.28 13.2
2 3 -11 239.08 14.4
2 3 -11 211.38 14.6
2 3 -11 188.28 13.6
-2 -3 11 231.88 13.9
-2 -3 11 207.68 14.3
1 3 -11 1100.79 54.29
1 3 -11 873.71 53.99
-1 -3 11 1031.6 54.49
-1 -3 11 1093.69 54.19
0 3 -11 208.88 16.1
0 3 -11 267.37 15.7
0 3 -11 250.17 20.2
0 -3 11 275.07 15.7
-1 3 -11 502.65 26.7
-1 3 -11 428.06 27.3
1 -3 11 494.05 26.7
1 -3 11 474.95 27.1
-2 3 -11 496.15 29.7
-2 3 -11 516.85 29
2 -3 11 540.75 29.2
-3 3 -11 190.98 14.7
3 -3 11 209.28 14.5
-4 3 -11 674.33 36.6
-4 3 -11 637.14 37.1
-5 3 -11 22.8 6.4
-5 3 -11 24.6 5.5
5 -3 11 2.2 6.6
5 -3 11 18.4 5.4
6 2 -11 245.88 17.7
-6 -2 11 209.68 13.7
5 2 -11 171.58 11.6
5 2 -11 178.78 14.5
-5 -2 11 183.78 12.6
-5 -2 11 189.78 13.8
4 2 -11 357.36 19.5
4 2 -11 312.87 18.1
-4 -2 11 286.47 19.4
-4 -2 11 274.37 18.3
3 2 -11 788.92 42.6
3 2 -11 716.93 43.6
-3 -2 11 830.72 44.1
-3 -2 11 927.31 44.1
2 2 -11 26.6 4.3
2 2 -11 29.8 7.5
2 2 -11 34.4 5
-2 -2 11 25.5 4.9
-2 -2 11 30.9 5.1
1 2 -11 902.01 56.39
1 2 -11 1155.68 56.39
-1 -2 11 1134.09 56.39
0 -2 11 450.15 25.6
-1 2 -11 62.09 9.2
-1 2 -11 68.99 8.7
1 -2 11 80.39 8.6
1 -2 11 79.09 8.8
2 -2 11 1731.63 90.29
-3 2 -11 52.89 8.5
-3 2 -11 60.69 9.2
3 -2 11 68.49 9
-4 2 -11 873.61 49.5
4 -2 11 960.6 49.2
-5 2 -11 288.37 19.2
-5 2 -11 258.07 19.2
5 -2 11 324.77 19
6 1 -11 144.99 13.7
-6 -1 11 104.79 9.4
-6 -1 11 123.69 10.5
5 1 -11 1146.29 58.59
5 1 -11 1260.47 58.69
-5 -1 11 1048.5 59.29
-5 -1 11 1021.7 58.79
4 1 -11 7.4 4
4 1 -11 7.1 4.8
4 1 -11 -3 4.2
-4 -1 11 22.1 5.3
-4 -1 11 -2.3 4.1
-4 -1 11 4.1 4.9
3 1 -11 720.43 39
-3 -1 11 816.22 39.2
-3 -1 11 635.84 39.1
-3 -1 11 686.53 39.5
2 1 -11 837.12 51.49
2 1 -11 1072.39 52.29
-2 -1 11 949.71 51.29
-2 -1 11 1008.9 51.39
1 1 -11 128.39 11.5
1 1 -11 161.18 11.3
-1 -1 11 149.09 10.9
-1 -1 11 134.59 11.1
0 1 -11 3779.32 187.58
0 1 -11 3614.44 187.58
0 1 -11 3663.43 188.08
0 -1 11 3626.44 187.58
0 -1 11 3597.64 187.48
-1 1 -11 6 3.9
-1 1 -11 0.4 4.3
1 -1 11 7.9 4
-2 1 -11 312.37 22.2
-2 1 -11 402.26 22.1
2 -1 11 409.86 22
-3 1 -11 629.24 33.4
3 -1 11 665.63 33.3
3 -1 11 507.05 32.4
-4 1 -11 79.39 10.2
4 -1 11 82.29 9.6
4 -1 11 103.99 10.6
-5 1 -11 370.56 26
5 -1 11 486.75 26.2
5 -1 11 465.35 27.5
6 0 -11 38.7 7.7
-6 0 11 38.6 6.1
5 0 -11 242.18 14.6
-5 0 11 227.28 15
-5 0 11 230.18 15.4
-5 0 11 237.78 16.3
4 0 -11 553.14 28.5
4 0 -11 508.95 28
4 0 -11 502.35 27.8
-4 0 11 425.56 29.9
-4 0 11 575.14 27.7
-4 0 11 427.56 29.9
-4 0 11 451.55 28.2
3 0 -11 95.79 12.9
-3 0 11 105.19 8.8
-3 0 11 103.79 10.7
2 0 -11 2158.58 108.29
2 0 -11 1938.81 108.19
-2 0 11 2038.4 107.89
-2 0 11 2226.18 108.49
1 0 -11 149.49 11.8
1 0 -11 147.99 10
1 0 -11 121.59 10.7
-1 0 11 155.88 11.6
0 0 -11 2722.93 142.59
0 0 -11 2734.03 142.49
0 0 11 2850.31 142.69
-1 0 -11 236.38 14.5
-1 0 -11 220.38 14.7
1 0 11 202.78 14.4
-2 0 -11 97.59 9.4
-2 0 -11 80.39 9.6
2 0 11 115.09 10.3
-3 0 -11 873.01 50.29
-3 0 -11 931.91 49.7
3 0 11 986.6 49.99
-4 0 -11 39.4 6.7
4 0 11 58.49 7.9
4 0 11 59.69 9.2
5 0 11 221.18 17.5
5 0 11 251.77 16
5 0 11 184.68 16.5
-6 1 11 303.37 17.5
-6 1 11 247.88 17.1
5 -1 -11 32 5
5 -1 -11 45.9 6.6
-5 1 11 28.3 5.4
-5 1 11 38.7 5
-5 1 11 33.3 6
4 -1 -11 575.04 32
4 -1 -11 598.54 31.5
-4 1 11 573.34 30.7
-4 1 11 493.95 35.1
-4 1 11 594.44 32.3
3 -1 -11 246.48 15.1
3 -1 -11 226.18 15.6
-3 1 11 244.08 15.1
-3 1 11 213.18 15.8
2 -1 -11 202.68 15.1
2 -1 -11 238.98 12.8
-2 1 11 229.78 14.5
-2 1 11 223.08 15.6
1 -1 -11 1799.12 90.09
1 -1 -11 1612.44 90.09
-1 1 11 1849.91 90.49
-1 1 11 1667.43 89.79
0 -1 -11 100.29 9.7
0 1 11 109.19 10.8
0 1 11 109.89 9.1
-1 -1 -11 2524.35 130.79
1 1 11 2629.54 131.09
1 1 11 2454.45 130.49
2 1 11 1197.08 63.39
-3 -1 -11 299.47 19.4
3 1 11 325.77 20.2
-4 -1 -11 708.03 35.1
4 1 11 569.64 34.7
4 1 11 555.74 34.1
-5 -1 -11 10.1 6.2
-5 -1 -11 -7.8 5
5 1 11 -4.7 4.9
5 1 11 8.8 6
5 1 11 13.2 6.9
6 -2 -11 445.66 24.7
6 -2 -11 459.35 27.4
-6 2 11 415.56 25
-6 2 11 431.36 25.5
-6 2 11 459.95 25.6
5 -2 -11 31.4 6.4
5 -2 -11 28.2 5.1
-5 2 11 23.9 8.6
-5 2 11 36.1 4.6
4 -2 -11 3.6 4.2
4 -2 -11 2.3 5.4
-4 2 11 7.6 3.7
-4 2 11 -0.5 4.8
-4 2 11 3.9 3.1
3 -2 -11 911.11 47
-3 2 11 801.92 46.2
-3 2 11 912.11 47.3
2 -2 -11 72.79 5.8
2 -2 -11 53.59 9.1
-2 2 11 55.99 7.3
-2 2 11 53.19 7.2
1 -2 -11 897.71 48.3
1 -2 -11 887.61 47.2
1 -2 -11 897.71 47.6
-1 2 11 857.81 47.4
-1 2 11 945.11 48.5
0 -2 -11 279.87 18.4
0 -2 -11 321.87 18.6
0 2 11 315.87 19.4
0 2 11 306.97 18.3
-1 -2 -11 127.79 10.2
-1 -2 -11 104.99 11
1 2 11 101.39 11
1 2 11 107.99 9.9
-2 -2 -11 26.9 5
-2 -2 -11 26.1 5.8
2 2 11 23.2 5.9
2 2 11 20.5 5.4
-3 -2 -11 49.99 6.2
3 2 11 53.99 7.1
3 2 11 36.4 7
-4 -2 -11 302.27 21.2
4 2 11 373.36 21.4
4 2 11 318.77 20.7
-5 -2 -11 119.49 17
-5 -2 -11 147.49 13.3
5 2 11 153.08 14.9
5 2 11 130.29 12.1
6 -3 -11 87.89 9.6
-6 3 11 101.39 11.2
-6 3 11 100.39 12.7
5 -3 -11 155.08 13.1
-5 3 11 147.19 13.1
-5 3 11 135.19 9.6
-5 3 11 137.09 11.2
4 -3 -11 459.75 26.2
4 -3 -11 473.75 25.9
-4 3 11 410.66 24.9
-4 3 11 487.35 26.3
-4 3 11 413.26 24
3 -3 -11 339.27 19.7
-3 3 11 288.97 18.5
-3 3 11 334.27 20.2
2 -3 -11 762.72 40
2 -3 -11 718.43 38.5
-2 3 11 754.82 40.2
-2 3 11 691.63 38.9
1 -3 -11 -1.4 4.7
1 -3 -11 5.4 3.9
-1 3 11 -1.1 4.4
-1 3 11 2.7 3.3
0 -3 -11 1661.03 89.29
0 -3 -11 1677.63 89.59
0 -3 -11 1709.53 90.09
0 3 11 1818.62 90.29
0 3 11 1755.42 90.09
-1 -3 -11 86.79 10.6
-1 -3 -11 86.59 8.6
1 3 11 85.69 10.3
1 3 11 88.39 8.4
-2 -3 -11 1593.24 84.49
-2 -3 -11 1474.95 84.99
-2 -3 -11 1609.14 84.99
2 3 11 1729.43 84.19
2 3 11 1673.63 84.89
-3 -3 -11 1282.47 69.79
-3 -3 -11 1200.28 70.29
3 3 11 1354.26 68.69
3 3 11 1372.16 69.19
-4 -3 -11 275.77 22.2
-4 -3 -11 290.17 20.7
-4 -3 -11 338.77 19.8
4 3 11 342.67 20.9
4 3 11 308.97 20.4
5 -4 -11 682.43 36.6
-5 4 11 599.44 35.7
-5 4 11 704.93 37.1
4 -4 -11 87.79 12.6
4 -4 -11 77.09 10.5
-4 4 11 87.39 8.6
-4 4 11 68.89 11.3
-3 4 11 2.3 5
-3 4 11 5.8 3.8
2 -4 -11 550.14 30.3
2 -4 -11 561.44 31.6
-2 4 11 567.54 32
1 -4 -11 600.04 32.8
1 -4 -11 625.44 34
1 -4 -11 621.94 33.2
-1 4 11 575.64 32.6
0 -4 -11 507.65 28.6
0 -4 -11 496.15 27.3
0 -4 -11 493.85 28.2
0 4 11 491.35 26.6
0 4 11 463.15 27.2
0 4 11 520.75 28.9
-1 -4 -11 867.31 47
-1 -4 -11 814.82 47
1 4 11 876.41 45.5
1 4 11 900.31 47.3
-2 -4 -11 11.5 4.2
-2 -4 -11 1.7 6
-2 -4 -11 -7.9 9.6
-2 -4 -11 2.2 6.1
2 4 11 8.5 5
2 4 11 1.9 5.2
-3 -4 -11 173.08 14.9
-3 -4 -11 162.98 16.5
3 4 11 181.68 14.6
3 4 11 195.98 14.1
-4 -4 -11 52.09 8.2
-4 -4 -11 59.99 10.7
4 4 11 58.49 8.3
4 4 11 60.59 8.8
5 -5 -11 0.2 5.3
-5 5 11 2.4 7
4 -5 -11 148.79 13.4
4 -5 -11 134.29 13.2
-4 5 11 162.38 12.4
-4 5 11 149.39 13.9
-4 5 11 170.48 12.5
3 -5 -11 636.64 35.8
-3 5 11 638.44 35.9
-3 5 11 621.04 34.6
2 -5 -11 205.88 15.5
2 -5 -11 193.98 13.3
-2 5 11 174.08 14.9
-2 5 11 215.18 16
1 -5 -11 622.04 35.8
1 -5 -11 646.54 35.2
-1 5 11 633.24 36.2
0 -5 -11 4.9 4
0 -5 -11 8.7 5.5
0 -5 -11 3.7 5.3
0 5 11 1.2 6
-1 -5 -11 627.54 36.6
-1 -5 -11 650.53 36.7
-1 -5 -11 659.33 35.3
1 5 11 654.93 37
1 5 11 642.34 34.4
-2 -5 -11 172.98 12
-2 -5 -11 156.08 15.2
2 5 11 168.68 12
-3 -5 -11 267.77 18.7
-3 -5 -11 264.87 20.9
-3 -5 -11 279.47 19.8
3 5 11 263.37 19.4
4 -6 -11 250.87 17.7
4 -6 -11 263.47 19
3 -6 -11 20.4 4.7
3 -6 -11 27.4 7
-3 6 11 21.2 7.3
2 -6 -11 -2 6.6
2 -6 -11 8 5.3
-2 6 11 -1.4 6.5
1 -6 -11 184.48 14.2
1 -6 -11 151.98 15.2
-1 6 11 156.08 17.8
0 -6 -11 337.87 22.6
0 -6 -11 349.37 22.9
0 6 11 343.87 23
-1 -6 -11 150.88 14.9
1 6 11 144.39 15.2
-2 -6 -11 318.07 22.5
-2 -6 -11 329.87 22.2
2 6 11 329.87 21.8
2 6 11 298.87 18.9
3 -7 -11 20.1 11
3 -7 -11 25.7 7.7
3 -7 -11 17.2 5.3
-3 7 11 20.1 7.9
2 -7 -11 351.16 23.6
2 -7 -11 393.36 24.9
-2 7 11 418.26 26.1
1 -7 -11 42.2 8.7
1 -7 -11 48.1 8.1
-1 7 11 32.5 8.4
0 -7 -11 235.68 18.8
-1 -7 -11 32.6 7.9
1 7 11 35.2 10.4
2 7 -12 94.69 11.8
-2 -7 12 125.79 13
-2 -7 12 113.29 11.8
1 7 -12 68.79 10.6
-1 -7 12 70.59 11.7
0 7 -12 113.89 12.7
0 -7 12 92.39 12.2
-1 7 -12 366.36 23.4
1 -7 12 382.46 23.5
3 6 -12 87.29 10.3
-3 -6 12 87.99 11.2
-3 -6 12 106.39 12.8
-3 -6 12 87.99 13
2 6 -12 31.7 6.3
2 6 -12 45.6 6
-2 -6 12 42.6 6.6
-2 -6 12 31.8 7.9
-2 -6 12 42.1 6.6
-2 -6 12 32.9 6.4
1 6 -12 639.54 35.8
-1 -6 12 652.93 36
0 6 -12 3.7 7.6
0 -6 12 5.5 5.2
-1 6 -12 381.16 23.2
1 -6 12 379.96 23.3
-2 6 -12 201.98 15.1
2 -6 12 173.48 15.2
-4 -5 12 84.19 8.6
-4 -5 12 63.69 10.6
-4 -5 12 79.89 9.7
3 5 -12 657.03 37.3
3 5 -12 747.53 37
3 5 -12 563.14 36.8
-3 -5 12 672.23 37
-3 -5 12 761.12 36.3
-3 -5 12 676.63 37.2
-3 -5 12 616.44 36.9
2 5 -12 74.59 9.7
2 5 -12 61.29 9.7
2 5 -12 51.89 8.3
-2 -5 12 80.49 13.4
-2 -5 12 82.89 9.7
-2 -5 12 71.19 7.9
1 5 -12 1055.79 55.69
-1 -5 12 1080.49 55.79
-1 -5 12 1004.4 56.29
0 5 -12 714.93 40.6
0 -5 12 790.32 44.6
-1 5 -12 99.19 16.1
1 -5 12 111.09 11.1
-2 5 -12 889.11 47.3
2 -5 12 858.81 47.2
-3 5 -12 17.5 6
3 -5 12 15.3 5.9
5 4 -12 182.18 12.8
5 4 -12 168.68 14.8
-5 -4 12 138.19 12
-5 -4 12 163.28 13.3
4 4 -12 252.57 16.3
-4 -4 12 221.08 15.5
-4 -4 12 210.78 16.1
3 4 -12 45.4 6
3 4 -12 57.89 9
3 4 -12 48.4 6.5
-3 -4 12 38.3 6.4
-3 -4 12 55.99 8.7
2 4 -12 876.71 47.2
-2 -4 12 877.91 47.4
-2 -4 12 895.51 47.1
-2 -4 12 857.71 46.5
1 4 -12 41.1 5.8
1 4 -12 21.9 9.5
-1 -4 12 56.89 8.3
-1 -4 12 31.4 10.4
0 4 -12 445.76 25.1
0 -4 12 447.66 24.9
0 -4 12 397.56 25.2
-1 4 -12 81.89 9.7
1 -4 12 75.19 9.5
-2 4 -12 312.27 19.9
2 -4 12 321.67 19.7
-3 4 -12 459.65 25.8
3 -4 12 402.06 25.6
-4 4 -12 4.6 5.7
4 -4 12 2.5 5
5 3 -12 20.3 7.2
-5 -3 12 19.5 5.6
-5 -3 12 17.3 4.7
4 3 -12 737.23 38.3
-4 -3 12 705.03 42.3
-4 -3 12 622.84 37.4
3 3 -12 -2.8 5.7
3 3 -12 3.4 3.6
3 3 -12 9.4 4.6
-3 -3 12 8.1 4.6
-3 -3 12 3.3 4.5
-3 -3 12 8.5 4.9
2 3 -12 1607.34 81.79
-2 -3 12 1527.45 81.69
-2 -3 12 1552.74 81.39
1 3 -12 2.2 4.1
1 3 -12 7.2 4.5
-1 -3 12 10.8 4.5
-1 -3 12 15.3 3.8
-1 -3 12 11.1 4.5
-1 -3 12 7.9 4.1
0 3 -12 901.31 55.49
0 3 -12 1139.59 55.29
0 -3 12 1114.29 55.29
0 -3 12 994.7 55.69
-1 3 -12 890.11 42.9
-1 3 -12 696.43 43.2
1 -3 12 774.32 43.1
-2 3 -12 4.2 4.7
-2 3 -12 17.7 5
2 -3 12 6.4 4.7
-3 3 -12 728.43 37.6
-3 3 -12 610.94 38.1
3 -3 12 680.73 37.5
-4 3 -12 99.39 11.9
-4 3 -12 96.69 11.7
6 2 -12 214.48 17.2
-6 -2 12 184.58 13.1
5 2 -12 24.5 6.7
-5 -2 12 20.2 6.8
-5 -2 12 15.3 4.5
4 2 -12 240.08 16.1
4 2 -12 229.78 16.3
-4 -2 12 185.48 16.1
-4 -2 12 280.37 16.5
3 2 -12 495.75 31.4
-3 -2 12 508.75 27
-3 -2 12 414.16 26.9
2 2 -12 6.6 4.2
2 2 -12 0.6 3.5
-2 -2 12 2.6 4.1
-2 -2 12 3.3 4.4
-1 -2 12 1134.79 59.99
0 2 -12 1008 52.09
0 2 -12 903.41 52.09
0 -2 12 1014.2 52.09
-1 2 -12 143.09 17.4
-1 2 -12 103.69 10.6
1 -2 12 91.99 9.7
1 -2 12 109.09 10.3
-2 2 -12 1114.09 59.89
2 -2 12 1134.59 59.59
-3 2 -12 121.19 11.7
3 -2 12 148.69 12.1
-4 2 -12 647.84 36.3
4 -2 12 650.93 35.9
-6 -1 12 117.59 10.1
-6 -1 12 122.09 11.4
5 1 -12 183.58 12.4
-5 -1 12 161.88 12.7
-5 -1 12 147.69 15
4 1 -12 -2.1 4.5
4 1 -12 9.1 5.7
-4 -1 12 26 5.8
-4 -1 12 17.7 9
-3 -1 12 694.13 40
-3 -1 12 785.62 40.5
2 1 -12 278.87 16.7
-2 -1 12 265.97 16.7
-2 -1 12 228.98 16.4
1 1 -12 975.9 49.9
-1 -1 12 896.41 49.9
0 1 -12 25.6 5.6
0 -1 12 42.9 5.7
0 -1 12 42.4 5.2
-1 1 -12 9.3 4.7
-1 1 -12 10 4.3
1 -1 12 -4 4.7
1 -1 12 10.4 4.1
-2 1 -12 1289.97 73.29
-2 1 -12 1426.86 72.89
2 -1 12 1444.36 72.79
-3 1 -12 178.08 15
3 -1 12 211.68 14.8
-4 1 -12 445.46 27.4
4 -1 12 501.45 27.6
5 -1 12 276.07 20.4
6 0 -12 6.2 7.3
-6 0 12 -10.2 4.5
-6 0 12 0.9 4.9
5 0 -12 504.05 28.5
5 0 -12 541.75 30.1
-5 0 12 528.05 28.8
-5 0 12 524.45 28.9
-5 0 12 450.65 30.8
4 0 -12 130.39 12
4 0 -12 95.09 10.8
-4 0 12 92.49 11.4
3 0 -12 77.69 8.4
3 0 -12 87.99 12.1
-3 0 12 108.09 8.9
2 0 -12 1291.87 70.19
-2 0 12 1372.56 70.29
1 0 -12 18.7 4.9
1 0 -12 13 4.3
-1 0 12 14 4.7
-1 0 12 10.6 3.9
0 0 -12 1496.75 76.19
0 0 12 1515.05 76.29
0 0 12 1356.16 75.79
-1 0 -12 2572.04 130.19
-1 0 -12 2458.75 130.39
1 0 12 2451.05 130.19
1 0 12 2610.74 130.29
-2 0 -12 639.14 34.7
-2 0 -12 606.24 35
2 0 12 642.14 34.9
-3 0 -12 1504.75 85.79
3 0 12 1762.02 85.69
-4 0 -12 7.4 5.4
-4 0 -12 12.5 5.9
4 0 12 7.1 5.5
4 0 12 26.6 6.1
4 0 12 10.1 6.7
-5 0 -12 837.42 42.9
5 0 12 695.73 42.2
6 -1 -12 243.68 18.5
-6 1 12 215.18 15.8
5 -1 -12 324.97 20.4
5 -1 -12 303.07 18.4
-5 1 12 278.47 18
-5 1 12 295.57 20.4
4 -1 -12 294.37 19
4 -1 -12 314.57 19.9
-4 1 12 306.07 18.6
-4 1 12 288.87 20.1
3 -1 -12 15.8 3.1
3 -1 -12 8.8 5.3
-3 1 12 8.3 5.2
-3 1 12 14.2 4.4
2 -1 -12 741.03 45.9
2 -1 -12 876.31 44.5
-2 1 12 930.21 46.6
-2 1 12 860.71 45.5
1 -1 -12 967.2 53.69
1 -1 -12 1003.4 54.79
-1 1 12 1039.8 53.89
0 -1 -12 809.82 44.5
0 -1 -12 844.52 45
0 1 12 886.91 45.2
0 1 12 782.62 44.3
-1 -1 -12 649.14 33.5
-1 -1 -12 516.85 32.5
1 1 12 617.94 33.4
-2 -1 -12 33.9 5.4
-3 -1 -12 775.62 47.3
-3 -1 -12 749.62 41.1
3 1 12 731.43 41.4
-4 -1 -12 523.85 28.9
-4 -1 -12 481.15 28.8
4 1 12 445.96 28.3
6 -2 -12 255.07 16.5
6 -2 -12 298.17 20.5
-6 2 12 253.27 18.8
-6 2 12 265.97 18.2
5 -2 -12 8.7 4.9
5 -2 -12 16.7 6.3
-5 2 12 2.3 4
-5 2 12 5.7 5.6
-5 2 12 19.6 4.7
4 -2 -12 708.63 36.3
4 -2 -12 612.64 41.9
-4 2 12 588.74 35.6
-4 2 12 646.04 34.8
-4 2 12 705.33 36.9
3 -2 -12 444.06 25.3
-3 2 12 411.36 24.2
2 -2 -12 206.78 12.3
2 -2 -12 199.08 15.2
-2 2 12 202.38 13.5
-2 2 12 196.58 15.9
1 -2 -12 1222.08 61.69
1 -2 -12 1086.99 61.09
1 -2 -12 1142.69 62.09
-1 2 12 1181.08 61.39
-1 2 12 1192.38 62.29
0 -2 -12 271.17 16.7
0 -2 -12 238.38 16.3
0 2 12 258.77 17.5
-1 -2 -12 55.09 7.5
-1 -2 -12 58.69 6.5
1 2 12 66.19 8
-2 -2 -12 604.94 33
-2 -2 -12 570.64 31.9
2 2 12 540.65 32.7
-3 -2 -12 160.58 12.6
-3 -2 -12 182.78 14.5
3 2 12 135.19 14.2
3 2 12 147.69 13.7
-4 -2 -12 523.25 30.8
-4 -2 -12 583.24 30.1
-4 -2 -12 499.35 30.6
-4 -2 -12 564.34 32.5
4 2 12 459.85 30.1
4 2 12 479.05 30.4
5 -3 -12 125.09 12.7
5 -3 -12 145.09 13.5
-5 3 12 113.99 9.3
-5 3 12 130.79 13.4
-5 3 12 151.78 11.1
4 -3 -12 72.59 9
4 -3 -12 83.39 10.3
-4 3 12 74.99 6.9
-4 3 12 86.09 8.8
-4 3 12 65.49 11.3
3 -3 -12 310.37 19.5
-3 3 12 294.27 18.4
-3 3 12 307.57 20.2
2 -3 -12 149.29 10.3
-2 3 12 149.69 11.3
-2 3 12 155.68 13.6
1 -3 -12 973.4 52.79
1 -3 -12 976.8 51.79
1 -3 -12 942.61 51.79
-1 3 12 1044.3 53.09
-1 3 12 954.6 51.79
0 -3 -12 376.66 21.6
0 -3 -12 357.56 23
0 -3 -12 359.06 22
0 -3 -12 359.86 23
0 3 12 403.96 23.4
-1 -3 -12 90.99 11.8
-1 -3 -12 126.79 12.5
1 3 12 101.79 9.9
-2 -3 -12 810.12 48.9
-2 -3 -12 941.11 48.4
2 3 12 908.41 48.9
2 3 12 905.31 48
-3 -3 -12 142.19 14.4
-3 -3 -12 141.99 15.2
-3 -3 -12 176.18 12.8
3 3 12 166.58 13.3
3 3 12 138.79 14
-4 -3 -12 121.79 14.1
-4 -3 -12 119.99 16
-4 -3 -12 159.08 12.1
4 3 12 134.89 14.3
4 3 12 130.19 13.6
5 -4 -12 73.89 11.5
5 -4 -12 57.09 7.6
-5 4 12 62.39 8.6
4 -4 -12 188.68 16.2
4 -4 -12 225.58 16.3
-4 4 12 240.58 17.1
-4 4 12 195.88 18.6
3 -4 -12 248.78 16.8
-3 4 12 209.88 14.6
-3 4 12 237.68 17.2
2 -4 -12 553.24 30.5
2 -4 -12 503.15 32.1
-2 4 12 562.14 31.3
-2 4 12 490.55 28.9
1 -4 -12 40.4 6.6
1 -4 -12 54.89 8.3
-1 4 12 34.9 7.2
0 -4 -12 155.38 13.3
0 -4 -12 173.68 11.9
0 -4 -12 169.18 14.1
0 4 12 165.48 14.8
0 4 12 171.98 11.3
-1 -4 -12 38.1 7.1
-1 -4 -12 16.1 11
-1 -4 -12 45.6 7.6
1 4 12 31 5.1
1 4 12 18.4 6.6
-2 -4 -12 121.99 13.6
-2 -4 -12 122.39 14.8
-2 -4 -12 176.58 11.8
2 4 12 144.59 11.9
-3 -4 -12 224.28 17.7
-3 -4 -12 208.88 18.9
3 4 12 237.28 17.6
3 4 12 245.58 16.7
4 -5 -12 381.06 24
4 -5 -12 363.86 24
-4 5 12 398.46 24.6
-3 5 12 4.9 6.7
2 -5 -12 176.68 13
2 -5 -12 181.78 15.5
-2 5 12 191.18 16.4
1 -5 -12 460.15 27.9
1 -5 -12 478.25 28.9
-1 5 12 496.45 29.7
0 -5 -12 281.37 19.1
0 -5 -12 290.57 19.9
-1 -5 -12 578.34 35
-1 -5 -12 616.44 34.9
1 5 12 618.14 35.2
1 5 12 580.74 32.2
-2 -5 -12 14.6 6.8
-2 -5 -12 17.5 7.7
2 5 12 17.4 7.4
2 5 12 18.6 5.3
-3 -5 -12 1170.98 55.59
-3 -5 -12 1060.99 57.19
-3 -5 -12 952.6 57.79
3 5 12 1047.1 56.99
3 5 12 936.21 58.59
3 -6 -12 140.79 10.4
2 -6 -12 4.2 5.6
2 -6 -12 5.3 7.3
-2 6 12 3.7 7.4
1 -6 -12 629.64 37.8
1 -6 -12 687.03 38.8
-1 6 12 692.93 38.9
0 -6 -12 29.1 7.8
0 -6 -12 18.1 7.2
0 6 12 29.2 8.5
-1 -6 -12 181.88 17.1
-1 -6 -12 183.88 16.8
1 6 12 177.88 17
-2 -6 -12 229.88 19.7
-2 -6 -12 241.68 19.8
2 6 12 231.58 19.1
2 6 12 240.28 15.6
2 -7 -12 28.9 6.9
2 -7 -12 25.2 8.4
-2 7 12 34.6 9.5
1 -7 -12 153.38 20.2
1 -7 -12 126.19 15.7
-1 7 12 148.89 16.6
0 -7 -12 310.07 22.6
0 -7 -12 293.57 22.3
0 7 12 293.37 22.5
3 6 -13 40.8 7
-3 -6 13 72.79 11.3
-3 -6 13 40.5 7
2 6 -13 550.74 29.8
2 6 -13 486.65 30.3
-2 -6 13 534.75 30.4
1 6 -13 466.95 28.2
-1 -6 13 479.45 27.9
0 6 -13 5.6 5.5
0 -6 13 4.3 5.9
-1 6 -13 563.44 32.3
1 -6 13 562.54 32.3
-2 6 -13 109.89 12.6
2 -6 13 101.29 12.6
4 5 -13 421.46 24.9
4 5 -13 432.36 24
-4 -5 13 340.17 24.1
-4 -5 13 388.96 23.9
3 5 -13 128.39 11.8
3 5 -13 101.19 12.2
-3 -5 13 121.69 20.3
-3 -5 13 91.29 12
2 5 -13 9.2 5.1
-2 -5 13 14.2 4.5
-2 -5 13 22.7 5.9
-2 -5 13 6.4 5
1 5 -13 173.68 14.3
-1 -5 13 196.98 14.5
0 5 -13 115.59 12.5
0 -5 13 131.59 12.2
1 -5 13 227.08 16.4
-2 5 -13 359.76 22.8
2 -5 13 361.66 22.6
-3 5 -13 -4 6.2
3 -5 13 0.5 5.8
4 4 -13 33.5 5.3
-4 -4 13 47.8 6.7
3 4 -13 362.86 21.4
3 4 -13 351.86 20.8
-3 -4 13 317.27 20.9
-3 -4 13 324.57 21.9
-3 -4 13 309.37 20.9
2 4 -13 167.08 13.4
-2 -4 13 118.49 20.6
-2 -4 13 161.78 11.4
-2 -4 13 149.49 12.9
1 4 -13 452.55 25.2
-1 -4 13 395.36 25.4
0 4 -13 548.85 32.5
0 -4 13 608.14 32.6
-1 4 -13 21.3 10.2
1 -4 13 17.3 5.5
-2 4 -13 425.86 25.1
2 -4 13 407.36 25
-3 4 -13 529.35 29.3
3 -4 13 452.35 28.8
5 3 -13 324.97 23.1
-5 -3 13 371.56 22
4 3 -13 188.78 13.9
4 3 -13 156.88 14.8
-4 -3 13 132.39 12.8
-4 -3 13 162.88 13.2
3 3 -13 121.29 10.4
-3 -3 13 152.18 12.4
-3 -3 13 166.68 14
2 3 -13 1121.39 54.79
-2 -3 13 1021.3 54.79
-2 -3 13 927.61 54.69
1 3 -13 25.7 5.4
1 3 -13 10.7 4.6
-1 -3 13 17.2 5.3
-1 -3 13 15.3 5.6
-1 -3 13 23.7 7.5
0 3 -13 838.42 43.4
0 -3 13 823.62 43.2
0 -3 13 710.93 43.2
-1 3 -13 456.95 26.1
1 -3 13 420.16 25.7
-2 3 -13 211.78 15.6
2 -3 13 200.88 15.2
3 -3 13 547.15 31.3
-4 3 -13 8.1 5.8
4 -3 13 12.3 5.3
5 2 -13 33.3 7.5
-5 -2 13 36.5 6.7
-5 -2 13 24.9 5.8
4 2 -13 704.03 41.3
4 2 -13 750.52 40.1
-3 -2 13 443.66 23.9
-3 -2 13 342.87 27.6
2 2 -13 739.13 36.2
-2 -2 13 654.03 35.9
-2 -2 13 566.34 35.6
1 2 -13 649.34 33.4
-1 -2 13 549.45 33.1
0 2 -13 118.99 10.5
0 2 -13 105.79 10.5
0 -2 13 106.19 10.2
-1 2 -13 525.05 30.3
-1 2 -13 594.14 30.5
-1 2 -13 473.45 30.9
1 -2 13 544.25 30.2
-2 2 -13 80.09 12.4
-2 2 -13 57.89 9.8
2 -2 13 94.59 10.3
-3 2 -13 472.85 27.4
3 -2 13 463.75 26.9
-4 2 -13 272.27 19.5
5 1 -13 271.17 18.2
-5 -1 13 323.07 19.6
-5 -1 13 256.07 20.3
4 1 -13 213.98 15.8
4 1 -13 181.08 14.6
3 1 -13 1053.69 53.89
-3 -1 13 1028.1 53.69
-3 -1 13 922.91 53.29
2 1 -13 647.94 33.5
-2 -1 13 544.65 33
-2 -1 13 596.24 33.2
1 1 -13 1159.08 56.09
1 1 -13 971.5 55.69
1 1 -13 942.01 56.39
-1 -1 13 1130.69 56.29
-1 -1 13 1084.29 56.09
0 1 -13 15 4.2
0 1 -13 -1.1 4.7
0 1 -13 4.2 4.2
0 -1 13 15.6 4.9
-1 1 -13 963.9 48.3
-1 1 -13 824.52 48.4
-1 1 -13 880.61 48
1 -1 13 926.31 49.4
1 -1 13 854.21 47.9
1 -1 13 920.81 49.3
-2 1 -13 729.33 38.7
-2 1 -13 662.73 40.4
2 -1 13 717.73 38.6
-3 1 -13 117.19 11.8
3 -1 13 130.19 12
-4 1 -13 496.15 27.4
4 -1 13 518.25 27.5
4 -1 13 392.76 26.8
5 0 -13 158.78 12.9
-5 0 13 161.18 14.9
4 0 -13 14.6 6
4 0 -13 23.3 7.2
-4 0 13 25.4 9.6
-4 0 13 25.6 5.2
3 0 -13 649.74 39.5
-3 0 13 782.62 40
-3 0 13 715.03 38.8
2 0 -13 1055.09 56.79
-2 0 13 963.7 55.99
-2 0 13 1171.88 57.19
1 0 -13 149.99 10.3
1 0 -13 180.08 13.3
1 0 -13 129.59 11.4
-1 0 13 119.89 11.1
-1 0 13 149.99 12.3
0 0 -13 1643.64 82.79
0 0 -13 1564.44 82.69
0 0 13 1618.64 82.69
0 0 13 1495.45 82.29
-1 0 -13 347.47 20.6
1 0 13 338.67 20.5
1 0 13 307.17 21
-2 0 -13 828.32 46
-2 0 -13 879.81 47.8
2 0 13 847.82 46.1
-3 0 -13 326.97 20.6
-3 0 -13 277.27 20.1
3 0 13 344.17 20.8
-4 0 -13 173.18 14.1
4 0 13 139.09 13.9
5 -1 -13 115.59 11.2
5 -1 -13 141.09 13.9
-5 1 13 118.79 10.8
-5 1 13 103.59 13
4 -1 -13 310.07 21.5
4 -1 -13 302.17 20.1
-4 1 13 285.57 23.7
-4 1 13 332.77 19.4
3 -1 -13 23.1 6.5
-3 1 13 36.6 5.3
-3 1 13 37.2 6.7
2 -1 -13 814.82 41
2 -1 -13 719.53 42.8
-2 1 13 744.73 41.9
-2 1 13 843.42 43.4
1 -1 -13 45.9 5.5
-1 1 13 27.4 5.7
-1 1 13 65.09 10.5
0 -1 -13 58.19 7.7
0 1 13 50.29 8
-1 -1 -13 606.24 33.7
1 1 13 585.64 33.8
-2 -1 -13 222.38 16.9
-2 -1 -13 271.27 18.4
2 1 13 265.07 18
-3 -1 -13 1025.7 53.29
-3 -1 -13 923.61 52.79
3 1 13 1002.4 53.39
-4 -1 -13 7.8 5.5
-4 -1 -13 24.4 6.8
4 1 13 13 7
4 1 13 15.4 6.1
5 -2 -13 33.5 10.5
5 -2 -13 44.3 8.5
-5 2 13 31.1 5.4
-5 2 13 39.5 7.5
-5 2 13 62.99 9
4 -2 -13 260.97 17.5
4 -2 -13 211.78 19.2
-4 2 13 253.47 18.6
-4 2 13 287.77 16.9
-4 2 13 238.18 15.2
3 -2 -13 353.86 22.5
-3 2 13 350.96 21.2
2 -2 -13 279.27 17.9
-2 2 13 350.76 19.6
-2 2 13 318.77 21.3
1 -2 -13 1119.79 55.89
1 -2 -13 1011.3 56.39
1 -2 -13 892.01 54.99
-1 2 13 1166.78 56.89
0 -2 -13 43.2 7.2
0 -2 -13 54.09 6.8
0 -2 -13 56.69 8.6
0 2 13 54.99 6
0 2 13 49 7.3
-1 -2 -13 3004.3 156.68
-1 -2 -13 3101.89 157.18
1 2 13 3005.9 157.08
-2 -2 -13 376.86 23.5
2 2 13 349.47 23.2
-3 -2 -13 567.44 32.2
-3 -2 -13 566.04 31.5
3 2 13 496.75 31.9
-4 -2 -13 482.85 29.6
-4 -2 -13 487.05 28.2
5 -3 -13 89.49 12.6
-5 3 13 64.49 9.3
-5 3 13 56.09 7.1
4 -3 -13 -2.9 7
4 -3 -13 5.5 5.8
-4 3 13 14.3 4.3
-4 3 13 8.1 6.7
-4 3 13 10.7 3.6
3 -3 -13 469.65 27.9
-3 3 13 472.25 28.4
-3 3 13 460.25 28.5
2 -3 -13 2.3 5.7
2 -3 -13 7.3 3.8
-2 3 13 -1 5.5
-2 3 13 11 3.8
1 -3 -13 862.51 48.5
-1 3 13 947.61 49.99
-1 3 13 916.71 48.7
0 -3 -13 61.69 9.5
0 -3 -13 106.19 10
0 -3 -13 84.79 11.6
0 3 13 83.39 11.8
-1 -3 -13 27.9 6.9
-1 -3 -13 41.4 12.1
1 3 13 53.99 8
1 3 13 42.5 6.5
-2 -3 -13 485.35 29.5
-2 -3 -13 517.75 28.6
-2 -3 -13 507.75 32
2 3 13 450.25 28.1
2 3 13 477.35 29.3
-3 -3 -13 0.8 6.3
-3 -3 -13 1.6 7.7
-3 -3 -13 -3.9 4.2
-3 -3 -13 0.8 6.3
3 3 13 -1.2 6.1
3 3 13 6.4 6.3
5 -4 -13 201.88 17.3
5 -4 -13 200.48 16
-5 4 13 209.38 17.5
4 -4 -13 42.4 8.6
3 -4 -13 582.64 33.4
-3 4 13 551.14 31.8
-3 4 13 569.94 33.6
2 -4 -13 339.87 21
-2 4 13 395.06 24.3
1 -4 -13 384.96 24.1
1 -4 -13 417.06 25.6
-1 4 13 431.26 26.2
0 -4 -13 109.59 11.7
0 4 13 109.59 13.8
-1 -4 -13 64.29 9.1
1 4 13 65.29 8.9
1 4 13 73.49 9.4
-2 -4 -13 752.92 47.4
-2 -4 -13 939.31 47.4
2 4 13 818.42 45.8
2 4 13 888.81 47.8
-3 -4 -13 114.99 16.2
3 4 13 150.08 13.8
3 4 13 138.79 14.9
4 -5 -13 64.99 9.4
-4 5 13 79.19 10.5
3 -5 -13 7.3 7.1
-3 5 13 11.3 7.5
2 -5 -13 531.85 34.2
-2 5 13 503.55 32
1 -5 -13 76.19 10.4
1 -5 -13 57.89 8.7
-1 5 13 69.99 9.4
0 -5 -13 284.37 20.3
0 -5 -13 268.67 19.3
0 5 13 281.27 26.1
-1 -5 -13 168.18 16.1
-1 -5 -13 151.98 15
1 5 13 161.88 16.4
1 5 13 173.98 12.1
-2 -5 -13 26.2 8.3
-2 -5 -13 14.9 7.6
2 5 13 25.3 8.7
2 5 13 35.1 6.2
3 -6 -13 7 7.1
-3 6 13 1 7.4
2 -6 -13 314.27 23.2
-2 6 13 321.37 23.4
1 -6 -13 52.99 9.3
1 -6 -13 53.79 8.8
-1 6 13 44.5 10.2
0 -6 -13 9.8 7.1
0 6 13 0.4 8.1
-1 -6 -13 17.7 8
-1 -6 -13 -1.3 7.6
1 6 13 3.7 8.3
1 6 -14 95.29 12.6
-1 -6 14 114.09 12.9
0 6 -14 290.27 19.9
0 -6 14 275.47 19.6
3 5 -14 135.99 13.3
3 5 -14 140.49 12.6
-3 -5 14 103.79 10.8
-3 -5 14 115.19 13
-3 -5 14 139.09 13.5
-2 -5 14 100.09 9.1
1 5 -14 247.28 17.4
-1 -5 14 235.68 17.2
0 5 -14 26.1 6
0 -5 14 26.7 6.5
-1 5 -14 425.46 25.8
1 -5 14 415.76 25.7
-2 5 -14 322.57 20.9
2 -5 14 286.27 20.7
4 4 -14 116.19 13.1
4 4 -14 136.59 11.8
-4 -4 14 97.69 12.1
-4 -4 14 96.79 12.3
3 4 -14 874.61 42.5
3 4 -14 796.02 43.6
-3 -4 14 670.73 42
-3 -4 14 744.53 42.5
2 4 -14 4.8 4.6
2 4 -14 20.4 5.6
-2 -4 14 16.1 6.1
-2 -4 14 11.2 4.5
-2 -4 14 14.5 5.8
1 4 -14 460.35 27.8
-1 -4 14 476.85 27.8
0 -4 14 568.94 32.7
-1 4 -14 161.38 14.1
1 -4 14 162.58 14
-2 4 -14 824.42 46.2
2 -4 14 853.11 47.4
-3 4 -14 41.8 7.8
3 -4 14 58.39 9.6
4 3 -14 33.4 6.5
4 3 -14 15.2 7
-4 -3 14 14.2 5.6
3 3 -14 32.7 5.4
-3 -3 14 59.59 9.9
-3 -3 14 58.19 8.8
-3 -3 14 46.3 6.9
-2 -3 14 327.27 19.7
-2 -3 14 285.37 19.6
-2 -3 14 303.47 18.7
1 3 -14 2.2 4.6
1 3 -14 1.7 4.7
-1 -3 14 -0.6 4.5
-1 -3 14 8.3 3.7
-1 -3 14 2.3 8.2
0 3 -14 642.64 35.8
0 -3 14 622.84 35.6
-1 3 -14 187.48 15.4
-2 3 -14 341.97 22.1
2 -3 14 329.27 21.2
-3 3 -14 291.77 19.4
3 -3 14 270.77 18.8
5 2 -14 320.67 22.7
-5 -2 14 439.56 23.4
4 2 -14 122.79 14.2
4 2 -14 167.88 13.1
-4 -2 14 169.98 13.4
-4 -2 14 119.69 12.1
3 2 -14 19.3 3.9
-3 -2 14 34.2 6.2
-3 -2 14 32.2 5.8
2 2 -14 734.03 36
-2 -2 14 616.44 36.9
-2 -2 14 590.84 35.6
1 2 -14 106.79 10.8
1 2 -14 82.59 9
-1 -2 14 107.29 10.7
0 2 -14 348.17 19.4
0 2 -14 288.97 19.1
0 -2 14 262.37 19
-1 2 -14 848.62 46
1 -2 14 833.92 45.6
-2 2 -14 -1.1 4.9
2 -2 14 8.2 4.6
-3 2 -14 1169.28 60.79
3 -2 14 1101.19 60.29
5 1 -14 -6.3 5.2
5 1 -14 7.2 7
-5 -1 14 14.1 6.3
4 1 -14 178.08 17.5
4 1 -14 257.57 16.5
-3 -1 14 234.28 17.1
-3 -1 14 270.07 16.9
2 1 -14 353.06 20
-2 -1 14 288.67 19.1
-2 -1 14 262.87 18.7
1 1 -14 1222.58 60.29
1 1 -14 1025.1 59.69
-1 -1 14 1137.09 60.19
-1 -1 14 1158.48 60.29
0 1 -14 20.3 4.9
0 1 -14 7.3 4.1
0 -1 14 8.4 4.9
0 -1 14 9.5 5.2
-1 1 -14 933.31 51.29
-1 1 -14 984.7 52.49
1 -1 14 952.5 51.19
-2 1 -14 397.56 25.2
-2 1 -14 436.16 24.8
2 -1 14 460.85 25
2 -1 14 375.96 23.7
-3 1 -14 154.18 14.7
-3 1 -14 194.78 13.8
3 -1 14 163.28 12.8
-4 1 -14 294.27 19.3
4 -1 14 306.17 19.4
4 -1 14 252.07 18.3
5 0 -14 23 6.4
-5 0 14 35.1 6
-5 0 14 38.9 7.9
4 0 -14 121.09 15.1
4 0 -14 126.69 13
3 0 -14 1075.09 57.99
-3 0 14 1076.59 56.99
-3 0 14 1074.39 61.99
2 0 -14 15.1 5.2
2 0 -14 11.3 3.3
-2 0 14 8.8 5.3
1 0 -14 604.64 32.8
1 0 -14 674.53 34.4
-1 0 14 504.05 32.9
-1 0 14 632.84 34
0 0 -14 332.47 20.4
0 0 -14 299.47 20.6
0 0 14 301.67 20.2
0 0 14 316.77 19.9
-1 0 -14 97.39 11.2
-1 0 -14 70.19 9.6
1 0 14 82.09 10.5
-2 0 -14 1083.79 59.99
-2 0 -14 1123.79 59.79
-2 0 -14 1125.29 59.79
2 0 14 1139.19 59.79
-3 0 -14 11 5.3
3 0 14 14.9 6.2
-4 0 -14 1153.88 56.89
-4 0 -14 913.21 56.89
4 0 14 1066.09 56.49
5 -1 -14 818.92 43.9
5 -1 -14 781.82 46.7
-5 1 14 758.72 41.6
-5 1 14 708.63 43
4 -1 -14 150.98 14.3
-4 1 14 161.28 15.6
-3 1 14 794.82 42.6
-3 1 14 713.73 40.9
2 -1 -14 86.69 8.3
-2 1 14 141.69 12.7
-2 1 14 83.69 11.3
-1 1 14 429.46 26.2
0 -1 -14 865.21 48.6
-1 -1 -14 17.9 5.6
1 1 14 18.1 6.1
-2 -1 -14 571.34 34.5
-2 -1 -14 649.64 35.3
2 1 14 642.04 35.6
3 1 14 126.29 13.9
3 1 14 166.08 13.5
5 -2 -14 13.1 7.9
5 -2 -14 18 6.4
-5 2 14 16.5 4.9
-5 2 14 9 7.1
-5 2 14 12.3 5.2
4 -2 -14 206.28 16.8
-4 2 14 262.07 16.1
-4 2 14 203.48 14.2
-4 2 14 227.98 18.2
3 -2 -14 51.49 8.1
-3 2 14 34.8 7.8
2 -2 -14 645.64 34.8
1 -2 -14 213.18 16.3
1 -2 -14 175.68 13.5
1 -2 -14 177.58 13.5
-1 2 14 185.88 18.3
-1 2 14 242.18 16.8
0 -2 -14 182.88 14.1
0 -2 -14 187.08 15.7
0 2 14 202.18 16.1
-1 -2 -14 566.34 34.4
-1 -2 -14 609.14 35.7
1 2 14 599.34 34.4
-2 -2 -14 -1.1 5.9
-2 -2 -14 -2.5 4.4
2 2 14 6 6.6
2 2 14 2 5.9
-3 -2 -14 556.24 33.1
-3 -2 -14 562.94 33.5
5 -3 -14 8.1 7.6
5 -3 -14 -0.9 6.5
-5 3 14 0.7 7.4
-5 3 14 9.4 4.2
4 -3 -14 440.86 27.1
-4 3 14 465.95 25.4
-4 3 14 402.56 24.1
3 -3 -14 218.88 17.8
-3 3 14 261.47 15.9
-3 3 14 221.58 18.8
2 -3 -14 144.79 14.8
2 -3 -14 142.19 16
-2 3 14 177.48 15.4
1 -3 -14 12.1 6.2
1 -3 -14 5.9 5.4
-1 3 14 17 6.5
0 -3 -14 65.09 7.9
0 3 14 61.39 8.6
-1 -3 -14 459.25 27.2
-1 -3 -14 448.36 26.2
1 3 14 452.65 27.1
1 3 14 353.36 24.9
-2 -3 -14 156.58 15.1
-2 -3 -14 152.88 15.4
2 3 14 137.59 14.9
-3 -3 -14 135.89 14.8
-3 -3 -14 119.59 15.5
3 3 14 119.09 14.4
3 3 14 114.79 13.4
4 -4 -14 3.8 7.3
4 -4 -14 -4.6 7.6
-4 4 14 0.3 7.9
3 -4 -14 458.25 29
-3 4 14 473.45 29.7
2 -4 -14 35.7 6.2
2 -4 -14 42.1 8.4
-2 4 14 33.9 8.4
1 -4 -14 371.36 25.8
1 -4 -14 327.77 21.5
0 -4 -14 994.7 53.19
0 -4 -14 891.41 52.19
0 4 14 1048.3 55.79
0 4 14 921.21 50.69
-1 -4 -14 214.48 18.3
-1 -4 -14 207.98 19.5
-2 -4 -14 466.75 29.1
2 4 14 416.86 26.6
2 4 14 478.65 29
-3 5 14 143.39 17.3
2 -5 -14 383.26 25.7
-2 5 14 379.16 26.6
1 -5 -14 14 6.4
-1 5 14 14.2 8.6
0 -5 -14 139.69 14.5
0 -5 -14 156.68 16.3
0 5 14 174.48 17
-1 -5 -14 142.39 16.1
1 5 14 145.19 16.9
1 5 14 131.69 11.7
1 -6 -14 10.1 7.6
1 -6 -14 9.2 8.8
-1 6 14 10.5 9.1
2 5 -15 360.56 22.7
-2 -5 15 323.97 22.3
-1 -5 15 95.29 12.6
0 5 -15 295.37 20.1
0 -5 15 277.57 20
-1 5 -15 250.37 18.9
3 4 -15 354.76 25.1
-3 -4 15 375.76 24.7
-3 -4 15 416.46 23.5
2 4 -15 96.09 11
-2 -4 15 82.19 8.9
-2 -4 15 80.19 11.5
1 4 -15 647.74 35.9
-1 -4 15 603.04 35.7
0 4 -15 6 5.9
0 -4 15 -1 5.6
-1 4 -15 246.88 18.4
1 -4 15 254.27 18.2
-2 4 -15 44.9 7.7
4 3 -15 37.8 8.1
-4 -3 15 47.2 6.9
-3 -3 15 378.26 22.2
-3 -3 15 328.37 22.1
2 3 -15 35.6 5.9
-2 -3 15 41.6 7.5
-2 -3 15 42.5 6.8
-2 -3 15 49.6 6.5
1 3 -15 259.37 16.8
-1 -3 15 216.68 16.7
-1 -3 15 233.38 14.6
0 -3 15 545.55 31.3
-1 3 -15 17 5.7
-2 3 -15 944.51 50.69
2 -3 15 907.51 50.59
4 2 -15 172.78 17
-4 -2 15 212.58 15
3 2 -15 546.35 29.9
-3 -2 15 468.95 29.3
2 2 -15 902.51 45.6
-2 -2 15 842.52 45.7
-2 -2 15 777.92 45.5
1 2 -15 15.6 4.9
1 2 -15 22.8 6
-1 -2 15 23.9 5.5
0 2 -15 884.01 44.3
0 -2 15 718.73 47.9
-1 2 -15 191.18 15
1 -2 15 200.88 14.7
-2 2 -15 584.14 32.6
2 -2 15 554.64 32
2 -2 15 557.54 32.1
-3 2 -15 66.29 10.8
3 -2 15 46.4 6.7
4 1 -15 397.16 24.8
-4 -1 15 339.97 23.7
-4 -1 15 465.95 25.4
3 1 -15 191.48 15.3
-3 -1 15 190.78 15.3
2 1 -15 285.67 18.2
-2 -1 15 267.17 17.5
-2 -1 15 211.28 16.4
1 1 -15 552.84 32.5
1 1 -15 636.84 33.6
0 1 -15 162.88 13.4
0 1 -15 192.38 13
0 -1 15 163.08 13.9
-1 1 -15 1294.97 68.89
1 -1 15 1317.67 69.09
-2 1 -15 13.2 5.4
2 -1 15 20.8 5.3
2 -1 15 7.2 5.5
-3 1 -15 369.36 22.3
3 -1 15 387.66 22.4
3 -1 15 319.37 21.3
5 0 -15 31.1 8.6
5 0 -15 -8 6.6
-5 0 15 9.7 7.3
4 0 -15 71.09 11.9
-4 0 15 89.59 10.2
3 0 -15 251.07 18.3
-3 0 15 278.07 18.9
-3 0 15 225.38 18.1
2 0 -15 67.19 6.7
-2 0 15 94.19 11.5
1 0 -15 1017.7 53.79
1 0 -15 960 52.49
-1 0 15 1003.9 53.99
0 0 -15 399.26 24.1
0 0 -15 442.06 25.8
0 0 15 424.46 25.4
-1 0 -15 478.55 28.4
1 0 15 475.95 28.1
-2 0 -15 676.33 38.5
2 0 15 685.73 38.3
-3 0 -15 218.58 16.3
3 0 15 148.99 14.7
3 0 15 201.48 15.6
5 -1 -15 119.79 13
5 -1 -15 140.79 15.2
-5 1 15 107.69 14.6
4 -1 -15 -5 5.8
-4 1 15 2.5 6.9
-4 1 15 -7.4 5
3 -1 -15 475.95 30.9
-3 1 15 489.95 29.2
-3 1 15 583.74 31.4
2 -1 -15 342.47 22.5
2 -1 -15 382.86 20.6
-2 1 15 334.07 21.9
-2 1 15 423.66 24.1
1 -1 -15 350.86 23.8
-1 1 15 406.16 25.8
0 -1 -15 933.71 49.7
0 1 15 873.01 49.4
1 1 15 31 6.6
2 1 15 1150.58 61.89
3 1 15 129.09 14.2
3 1 15 142.29 13.5
4 -2 -15 28.4 7.5
-4 2 15 32.8 8.3
3 -2 -15 172.48 17.1
-3 2 15 234.08 15.9
-3 2 15 231.58 18.6
2 -2 -15 385.66 19.2
2 -2 -15 283.27 22.7
-2 2 15 333.07 23.6
1 -2 -15 13.5 7
-1 2 15 14.7 8
0 -2 -15 486.35 30
0 -2 -15 500.95 28.9
0 2 15 504.55 30.2
-1 -2 -15 722.13 39.9
-1 -2 -15 732.23 40.7
1 2 15 688.43 40.5
-2 -2 -15 278.17 19.3
2 2 15 257.67 19.4
2 2 15 205.18 17.6
-3 -2 -15 662.63 36.5
-3 -2 -15 670.13 36.1
3 2 15 587.54 35.8
3 2 15 516.15 35.1
4 -3 -15 677.23 36.6
-4 3 15 557.04 33.2
3 -3 -15 3.8 6.5
-3 3 15 -3.9 6.8
2 -3 -15 163.68 12.7
2 -3 -15 206.08 17.2
-2 3 15 213.48 17.5
1 -3 -15 71.69 10.7
1 -3 -15 109.19 15.9
-1 3 15 123.39 13.8
0 -3 -15 171.28 14.5
0 -3 -15 192.48 17
0 -3 -15 188.18 17
0 3 15 201.38 19.9
-1 -3 -15 353.36 25.3
-1 -3 -15 405.16 24.9
1 3 15 329.77 22.2
-2 -3 -15 -6.2 6.3
-2 -3 -15 14 7.8
2 3 15 8.3 7.2
2 3 15 3.5 6.7
3 -4 -15 26.3 9
-3 4 15 32.1 8.9
2 -4 -15 125.49 15.3
-2 4 15 142.89 16.6
1 -4 -15 121.79 12.2
0 -4 -15 53.99 8.7
0 -4 -15 51.99 9.3
0 4 15 58.29 9.5
0 4 15 57.19 7.1
-1 -4 -15 77.69 13.2
-1 -4 -15 75.59 10.6
1 4 15 67.29 8
1 4 15 69.29 10.6
2 -5 -15 -5 7.9
2 -5 -15 1 4.9
1 -5 -15 14.4 7.9
1 -5 -15 8.2 6.5
-1 5 15 11.2 8.4
0 -5 -15 134.59 15
0 -5 -15 166.98 17.5
0 5 15 181.88 18.1
2 4 -16 423.46 25.2
-2 -4 16 403.76 23.8
1 4 -16 600.44 33
-1 -4 16 534.35 33
0 4 -16 9.9 5.6
0 -4 16 7 6.2
-1 4 -16 278.97 19.8
1 -4 16 241.98 18.8
3 3 -16 355.36 21.5
-3 -3 16 320.97 21.7
2 3 -16 5.8 4.1
2 3 -16 10.2 5
-2 -3 16 9.6 5.4
1 3 -16 366.76 27.9
-1 -3 16 320.47 19.5
-1 -3 16 335.67 21.7
0 3 -16 -1 5.2
0 -3 16 6.4 5.8
-1 3 -16 102.99 12.5
1 -3 16 104.79 12.5
-2 3 -16 650.53 36.9
2 -3 16 633.34 36.3
4 2 -16 18.8 6.4
-4 -2 16 4.8 6.1
-4 -2 16 8.1 5.4
3 2 -16 650.33 34
-3 -2 16 543.65 33.3
-3 -2 16 562.04 33.2
-2 -2 16 182.38 15.7
-2 -2 16 207.68 15.2
1 2 -16 421.76 24.1
1 2 -16 383.96 23.7
0 2 -16 512.15 29.5
0 -2 16 504.05 29.4
-1 2 -16 31.1 6.1
1 -2 16 30.8 6.2
2 -2 16 201.98 15.4
-4 -1 16 295.37 21.1
-4 -1 16 385.46 23
3 1 -16 115.19 12.1
-3 -1 16 118.99 13.1
-3 -1 16 79.19 10.3
2 1 -16 522.35 29.1
-2 -1 16 452.55 28.3
1 1 -16 72.39 11.7
-1 -1 16 75.59 11
0 1 -16 358.56 21.9
0 -1 16 336.77 21.8
-1 1 -16 431.26 25.6
1 -1 16 425.26 25.7
-2 1 -16 266.37 18.2
2 -1 16 265.87 25.1
2 -1 16 261.77 16.9
4 0 -16 599.74 37.9
-4 0 16 750.72 38.6
-4 0 16 632.64 36.7
3 0 -16 90.39 12.4
-3 0 16 91.59 13.2
2 0 -16 489.95 27.4
2 0 -16 379.26 24.6
-2 0 16 489.35 27.3
1 0 -16 731.33 39.9
1 0 -16 725.53 41.2
-1 0 16 766.82 41.4
0 0 16 91.69 12.1
1 0 16 745.03 47.2
2 0 16 6.5 5.8
4 -1 -16 83.49 12.6
3 -1 -16 426.06 27.9
-3 1 16 455.75 28
2 -1 -16 44.1 6.3
2 -1 -16 34.5 7.1
2 -1 -16 33.7 5.5
-2 1 16 38.4 7.4
1 -1 -16 639.94 35.9
1 -1 -16 721.73 43.7
-1 1 16 654.23 38
0 -1 -16 278.77 19.8
0 1 16 277.77 20
-1 -1 -16 667.53 38.1
-2 -1 -16 417.76 25.7
2 1 16 392.86 25.7
4 -2 -16 41.5 8.4
-4 2 16 52.29 9.7
3 -2 -16 157.58 16.7
-3 2 16 217.18 18.1
2 -2 -16 309.57 23.5
2 -2 -16 355.06 19.1
-2 2 16 347.67 24
1 -2 -16 72.59 10.1
1 -2 -16 102.89 13.5
-1 2 16 118.69 14.8
0 -2 -16 982.2 53.79
0 2 16 1019.3 55.19
-1 -2 -16 88.59 12
-1 -2 -16 88.89 13.2
1 2 16 85.09 14.1
-2 -2 -16 336.07 21.6
-2 -2 -16 334.97 22.1
2 2 16 261.87 28.3
2 2 16 271.87 20.7
3 -3 -16 12.7 7.6
-3 3 16 3.2 8
2 -3 -16 429.36 29.7
-2 3 16 505.25 30.2
1 -3 -16 78.89 11.3
-1 3 16 115.29 14.5
0 -3 -16 248.48 18.6
0 -3 -16 286.37 20.8
0 3 16 295.77 21.2
-1 -3 -16 288.27 20.2
1 3 16 265.57 18.8
1 3 16 302.27 21.5
2 -4 -16 28.6 6.5
2 -4 -16 53.89 10
-2 4 16 49.6 10.3
1 -4 -16 291.17 21.9
1 -4 -16 248.78 19.4
-1 4 16 325.97 23.1
0 -4 -16 -7.2 10.3
0 -4 -16 5.9 7.2
0 4 16 1.8 5.5
0 4 16 8.4 7.9
2 3 -17 171.08 15.7
-2 -3 17 160.18 14.5
1 3 -17 200.58 15.8
-1 -3 17 202.58 15.7
-1 -3 17 199.78 13.2
0 -3 17 27.6 6.5
-3 -2 17 780.72 43.2
2 2 -17 82.39 12.9
-2 -2 17 63.59 9
1 2 -17 848.72 45.7
-1 -2 17 835.62 44.8
-1 -2 17 819.92 45.6
0 2 -17 616.54 33.9
0 -2 17 580.04 34
-1 2 -17 84.19 11.6
1 -2 17 90.59 11.8
3 1 -17 212.48 16.9
-3 -1 17 210.18 16.8
2 1 -17 275.57 19.1
-2 -1 17 255.47 18.7
1 1 -17 26.3 6.5
1 1 -17 48.3 7.6
-1 -1 17 27.1 6.3
0 1 -17 93.69 12.7
0 1 -17 94.69 12.7
0 -1 17 81.49 11.3
-1 1 -17 129.99 13.5
1 -1 17 119.39 12.6
-3 0 17 29.3 7.3
2 0 -17 566.74 33.3
-2 0 17 671.13 35.7
1 0 -17 46 7.4
1 0 -17 48.6 7.2
-1 0 17 34.3 6.8
0 0 -17 401.36 24.7
0 0 17 373.16 24.3
-1 0 -17 873.81 46.6
1 0 17 806.32 46.2
3 -1 -17 115.19 14.7
-3 1 17 113.89 15.2
2 -1 -17 115.29 16.2
2 -1 -17 85.39 7.8
-2 1 17 85.39 13.3
1 -1 -17 417.56 25.4
1 -1 -17 367.26 22.7
-1 1 17 391.66 25
0 -1 -17 108.39 14.1
0 1 17 132.19 13.9
1 1 17 285.27 20.2
2 -2 -17 10.5 5.4
2 -2 -17 25.3 7.8
1 -2 -17 416.56 25.9
1 -2 -17 337.17 22.8
-1 2 17 408.76 26.2
0 -2 -17 195.58 15.7
0 -2 -17 234.78 18.4
-1 -2 -17 317.27 21
1 2 17 296.57 22.3
2 -3 -17 197.98 18.8
-2 3 17 204.38 19.2
1 -3 -17 30.7 8
1 -3 -17 25.2 7.1
-1 3 17 39.2 9
0 -3 -17 532.55 32.2
0 -3 -17 485.45 32
0 3 17 524.85 32.2
1 1 -18 120.89 13.3
-1 -1 18 88.19 12.5
0 1 -18 844.82 45.9
0 -1 18 803.32 45.4
2 0 -18 1126.59 56.49
2 0 -18 938.01 53.79
-2 0 18 1024.9 56.09
1 0 -18 7.8 6.5
-1 0 18 10.1 6.4
0 0 -18 894.11 47.6
0 0 18 828.42 47.4
1 -1 -18 136.39 11.9
1 -1 -18 123.29 11.6
1 -1 -18 140.69 14.9
-1 1 18 117.19 14.4
