#------------------------------------------------------------------------------
#$Date: 2021-07-05 20:10:48 +0300 (Mon, 05 Jul 2021) $
#$Revision: 267123 $
#$URL: file:///home/coder/svn-repositories/cod/cif/7/24/28/7242875.cif $
#------------------------------------------------------------------------------
#
# This file is available in the Crystallography Open Database (COD),
# http://www.crystallography.net/
#
# All data on this site have been placed in the public domain by the
# contributors.
#
data_7242875
loop_
_publ_author_name
'Richardson, Jonathan G.'
'Mizuno, Asato'
'Shuku, Yoshiaki'
'Awaga, Kunio'
'Robertson, Neil'
'Morrison, Carole A.'
'Warren, Mark R.'
'Allan, David R.'
'Moggach, Stephen A.'
_publ_section_title
;
 Evaluating the high-pressure structural response and crystal lattice
 interactions of the magnetically-bistable organic radical TTTA
;
_journal_issue                   25
_journal_name_full               CrystEngComm
_journal_page_first              4444
_journal_page_last               4450
_journal_paper_doi               10.1039/D1CE00577D
_journal_volume                  23
_journal_year                    2021
_chemical_formula_moiety         'C2 N3 S3'
_chemical_formula_sum            'C2 N3 S3'
_chemical_formula_weight         162.24
_space_group_IT_number           14
_space_group_name_Hall           '-P 2ybc'
_space_group_name_H-M_alt        'P 1 21/c 1'
_symmetry_cell_setting           monoclinic
_symmetry_space_group_name_Hall  '-P 2ybc'
_symmetry_space_group_name_H-M   'P 1 21/c 1'
_atom_sites_solution_hydrogens   difmap
_atom_sites_solution_primary     direct
_audit_creation_date             2021-04-22
_audit_creation_method           CRYSTALS_ver_14.61_build_6999
_audit_update_record
;
2021-04-27 deposited with the CCDC.	2021-05-18 downloaded from the CCDC.
;
_cell_angle_alpha                90
_cell_angle_beta                 104.34(5)
_cell_angle_gamma                90
_cell_formula_units_Z            4
_cell_length_a                   9.280(10)
_cell_length_b                   3.3957(3)
_cell_length_c                   14.640(3)
_cell_measurement_reflns_used    888
_cell_measurement_temperature    293
_cell_measurement_theta_max      19
_cell_measurement_theta_min      4
_cell_volume                     447.0(5)
_computing_cell_refinement       'USER DEFINED CELL REFINEMENT'
_computing_data_collection       'USER DEFINED DATA COLLECTION'
_computing_data_reduction
; 
 CrysAlisPro (Rigaku Oxford Diffraction, 2017) 
;
_computing_molecular_graphics    'CAMERON (Watkin et al., 1996)'
_computing_publication_material  'CRYSTALS (Betteridge et al., 2003)'
_computing_structure_refinement  'CRYSTALS (Betteridge et al., 2003)'
_computing_structure_solution    'SHELXS 86 (Sheldrick, 1986)'
_diffrn_ambient_pressure         2110000
_diffrn_ambient_temperature      293
_diffrn_measured_fraction_theta_full 0.344
_diffrn_measured_fraction_theta_max 0.337
_diffrn_measurement_device       Area
_diffrn_measurement_device_type  Synchrotron
_diffrn_measurement_method       \w
_diffrn_radiation_monochromator  'focussing mirrors'
_diffrn_radiation_type           synchrotron
_diffrn_radiation_wavelength     0.48590
_diffrn_reflns_av_R_equivalents  0.019
_diffrn_reflns_av_unetI/netI     0.029
_diffrn_reflns_limit_h_max       6
_diffrn_reflns_limit_h_min       -6
_diffrn_reflns_limit_k_max       4
_diffrn_reflns_limit_k_min       -4
_diffrn_reflns_limit_l_max       17
_diffrn_reflns_limit_l_min       -17
_diffrn_reflns_number            1902
_diffrn_reflns_theta_full        14.322
_diffrn_reflns_theta_max         18.845
_diffrn_reflns_theta_min         3.850
_diffrn_standards_number         0
_exptl_absorpt_coefficient_mu    0.505
_exptl_absorpt_correction_T_max  0.95
_exptl_absorpt_correction_T_min  0.76
_exptl_absorpt_correction_type   multi-scan
_exptl_absorpt_process_details   'DENZO/SCALEPACK (Otwinowski & Minor, 1997)'
_exptl_crystal_colour            black
_exptl_crystal_density_diffrn    2.411
_exptl_crystal_density_meas      ?
_exptl_crystal_density_method    'not measured'
_exptl_crystal_description       block
_exptl_crystal_F_000             324
_exptl_crystal_size_max          0.120
_exptl_crystal_size_mid          0.100
_exptl_crystal_size_min          0.100
_refine_diff_density_max         0.31
_refine_diff_density_min         -0.38
_refine_ls_extinction_method     None
_refine_ls_goodness_of_fit_ref   1.0345
_refine_ls_hydrogen_treatment    noref
_refine_ls_matrix_type           full
_refine_ls_number_parameters     73
_refine_ls_number_reflns         374
_refine_ls_number_restraints     104
_refine_ls_R_factor_all          0.0490
_refine_ls_R_factor_gt           0.0396
_refine_ls_shift/su_max          0.0003774
_refine_ls_shift/su_mean         0.0000218
_refine_ls_structure_factor_coef Fsqd
_refine_ls_weighting_details
;
 Method= Modified Sheldrick 
 w=1/[\s^2^(F^2^) + ( 0.05P)^2^ + 2.64P] 
 ,where P=(max(Fo^2^,0) + 2Fc^2^)/3 
;
_refine_ls_weighting_scheme      calc
_refine_ls_wR_factor_all         0.1103
_refine_ls_wR_factor_gt          0.1041
_refine_ls_wR_factor_ref         0.1103
_reflns_limit_h_max              4
_reflns_limit_h_min              -6
_reflns_limit_k_max              4
_reflns_limit_k_min              0
_reflns_limit_l_max              17
_reflns_limit_l_min              0
_reflns_number_gt                303
_reflns_number_total             374
_reflns_threshold_expression     I>2.0\s(I)
_oxford_diffrn_Wilson_B_factor   0.00
_oxford_diffrn_Wilson_scale      0.00
_oxford_refine_ls_r_factor_ref   0.0490
_oxford_refine_ls_scale          0.761(6)
_oxford_reflns_number_all        374
_iucr_refine_instructions_details
;
#
# Punched on 22/04/21 at 21:11:47
#
#LIST     12                                                                    
BLOCK SCALE X'S  U'S 
END                                                                             
#
# Punched on 22/04/21 at 21:11:47
#
#LIST     16                                                                    
DIST   1.659,.01= S(1) TO N(2) 
DIST   1.734,.01= S(1) TO C(5) 
DIST   1.656,.01= N(2) TO S(3) 
DIST   1.735,.01= S(3) TO C(4) 
DIST   1.430,.01= C(4) TO C(5) 
DIST   1.313,.01= C(4) TO N(8) 
DIST   1.318,.01= C(5) TO N(6) 
DIST   1.645,.01= N(6) TO S(7) 
DIST   1.646,.01= S(7) TO N(8) 
ANGL  98,1= C(5) TO S(1) TO N(2) 
ANGL 117,1= S(3) TO N(2) TO S(1) 
ANGL  98,1= C(4) TO S(3) TO N(2) 
ANGL 114,1= C(5) TO C(4) TO S(3) 
ANGL 132,1= N(8) TO C(4) TO S(3) 
ANGL 114,1= N(8) TO C(4) TO C(5) 
ANGL 114,1= C(4) TO C(5) TO S(1) 
ANGL 132,1= N(6) TO C(5) TO S(1) 
ANGL 114,1= N(6) TO C(5) TO C(4) 
ANGL 106,1= S(7) TO N(6) TO C(5) 
ANGL  99,1= N(8) TO S(7) TO N(6) 
ANGL 106,1= S(7) TO N(8) TO C(4) 
REM   HREST   START (DO NOT REMOVE THIS LINE) 
REM   HREST   END (DO NOT REMOVE THIS LINE) 
PLANAR 0.01 N(2) S(1) S(3) C(4) C(5) N(6) S(7) N(8) 
REM   DELU   START (DO NOT REMOVE THIS LINE) 
VIBR .0, 0.00200 = S(1) TO N(2) 
VIBR .0, 0.00200 = S(1) TO C(5) 
VIBR .0, 0.00500 = C(5) TO N(2) 
VIBR .0, 0.00200 = N(2) TO S(3) 
VIBR .0, 0.00500 = S(3) TO S(1) 
VIBR .0, 0.00200 = S(3) TO C(4) 
VIBR .0, 0.00500 = C(4) TO N(2) 
VIBR .0, 0.00200 = C(4) TO C(5) 
VIBR .0, 0.00200 = C(4) TO N(8) 
VIBR .0, 0.00500 = C(5) TO S(3) 
VIBR .0, 0.00500 = N(8) TO S(3) 
VIBR .0, 0.00500 = N(8) TO C(5) 
VIBR .0, 0.00200 = C(5) TO N(6) 
VIBR .0, 0.00500 = S(1) TO C(4) 
VIBR .0, 0.00500 = N(6) TO C(4) 
VIBR .0, 0.00500 = N(6) TO S(1) 
VIBR .0, 0.00200 = N(6) TO S(7) 
VIBR .0, 0.00500 = S(7) TO C(5) 
VIBR .0, 0.00200 = S(7) TO N(8) 
VIBR .0, 0.00500 = N(8) TO N(6) 
VIBR .0, 0.00500 = S(7) TO C(4) 
REM   DELU   END (DO NOT REMOVE THIS LINE) 
REM   THERMSIM   START (DO NOT REMOVE THIS LINE) 
U(IJ) .0, 0.04000 = S(1) TO N(2) 
U(IJ) .0, 0.04000 = S(1) TO C(5) 
U(IJ) .0, 0.04000 = N(2) TO S(3) 
U(IJ) .0, 0.04000 = S(3) TO C(4) 
U(IJ) .0, 0.04000 = C(4) TO C(5) 
U(IJ) .0, 0.04000 = C(4) TO N(8) 
U(IJ) .0, 0.04000 = C(5) TO N(6) 
U(IJ) .0, 0.04000 = N(6) TO S(7) 
U(IJ) .0, 0.04000 = S(7) TO N(8) 
REM   THERMSIM   END (DO NOT REMOVE THIS LINE) 
END                                                                             
;
_cod_data_source_file            d1ce00577d2.cif
_cod_data_source_block           211GPa
_cod_depositor_comments
;
The following automatic conversions were performed:

data item '_exptl_crystal_density_meas' value 'not measured' was
changed to '?' -- the value is perceived as not measured.

Automatic conversion script
Id: cif_fix_values 7556 2019-12-06 15:28:31Z antanas 

 Adding full bibliography for 7242874--7242883.cif.
;
_cod_original_cell_volume        446.9(5)
_cod_original_sg_symbol_H-M      'P 1 21/c 1 '
_cod_database_code               7242875
_oxford_refine_reflns_threshold_expression_ref I>-10.0\s(I)
_iucr_refine_reflections_details
; 
 
# Data was input as F-squared 
# punching LIST  6 as LIST  6 with all keys set 
# NBGNXT=    36 
#LIST   6 
READ NCOEF= 8 TYPE=FIX, F'S = FSQ UNIT=DATA, CHECK=NO L30=NO ARCH=NO 
STORE  NCOEF= 6 
OUTPUT INDICES     /FO/        SIGMA(/FO/) RATIO/JCODE CORRECTIONS SERIAL 
CONT 
INPUT  H           K           L           /FO/        SIGMA(/FO/) JCODE 
CONT   CORRECTIONS SERIAL 
FOR (I4,I4,I4,F10.2,F8.2,F4.0,F7.4,F7.0) 
END 
   0  -1   0      0.55    0.71  0. 1.0000     0. 
   0  -1   0      1.09    0.70  0. 1.0000     0. 
   0   1   0      1.34    0.44  0. 1.0000     0. 
   0   1   0      0.62    0.52  0. 1.0000     0. 
   0   1   0     -0.05    0.70  0. 1.0000     0. 
   0   1   0      0.86    0.61  0. 1.0000     0. 
   1  -1   0   9703.28  175.16  0. 1.0000     0. 
  -1  -1   0   9732.58  173.90  0. 1.0000     0. 
  -1  -1   0   9499.03  176.72  0. 1.0000     0. 
   1  -1   0   9699.76  176.55  0. 1.0000     0. 
   1   1   0   9790.64  175.38  0. 1.0000     0. 
   1   1   0   9686.33  175.73  0. 1.0000     0. 
   1   1   0   9571.09  176.40  0. 1.0000     0. 
   1   1   0   9999.99  180.22  0. 1.0000     0. 
  -1   1   0   9735.03  175.63  0. 1.0000     0. 
  -1   1   0   9787.38  174.83  0. 1.0000     0. 
  -1   1   0   9630.76  178.94  0. 1.0000     0. 
   0   2   0    909.53   17.72  0. 1.0000     0. 
   0   2   0    939.44   20.00  0. 1.0000     0. 
   1  -2   0    991.45   21.92  0. 1.0000     0. 
  -1  -2   0    984.69   20.56  0. 1.0000     0. 
  -1   2   0    992.69   22.20  0. 1.0000     0. 
   1   2   0   1005.43   19.06  0. 1.0000     0. 
   1   2   0   1001.12   19.57  0. 1.0000     0. 
  -1   2   0   1004.82   18.48  0. 1.0000     0. 
   1   2   0   1002.96   20.57  0. 1.0000     0. 
  -1   2   0   1011.48   18.49  0. 1.0000     0. 
   0  -3   0     -4.30    2.85  0. 1.0000     0. 
   0  -3   0     -3.72    2.60  0. 1.0000     0. 
   0  -3   0     -1.20    1.59  0. 1.0000     0. 
   0  -3   0     -2.49    3.79  0. 1.0000     0. 
   0   3   0     -8.53    3.79  0. 1.0000     0. 
   0   3   0     -3.38    2.63  0. 1.0000     0. 
   0   3   0     -4.41    1.78  0. 1.0000     0. 
   0   3   0     -3.02    2.11  0. 1.0000     0. 
   1  -3   0     14.26    2.90  0. 1.0000     0. 
   1  -3   0      9.07    3.39  0. 1.0000     0. 
  -1  -3   0      0.08    3.75  0. 1.0000     0. 
   1  -3   0      5.28    1.74  0. 1.0000     0. 
  -1  -3   0      5.63    2.49  0. 1.0000     0. 
  -1  -3   0      8.97    2.86  0. 1.0000     0. 
  -1   3   0     10.43    2.13  0. 1.0000     0. 
   1   3   0      9.35    2.87  0. 1.0000     0. 
   1   3   0     17.79    2.36  0. 1.0000     0. 
   1   3   0     11.28    2.57  0. 1.0000     0. 
  -1   3   0      5.05    3.98  0. 1.0000     0. 
  -1   3   0     18.11    3.05  0. 1.0000     0. 
   1   3   0      8.71    3.55  0. 1.0000     0. 
  -1   3   0     15.20    1.78  0. 1.0000     0. 
   2  -3   0    600.14   17.36  0. 1.0000     0. 
   2  -3   0    665.25   12.11  0. 1.0000     0. 
  -2  -3   0    655.62   14.87  0. 1.0000     0. 
  -2  -3   0    662.58   12.99  0. 1.0000     0. 
  -2   3   0    628.93   13.65  0. 1.0000     0. 
   2   3   0    597.14   14.18  0. 1.0000     0. 
   2   3   0    667.61   14.16  0. 1.0000     0. 
  -3   3   0      5.35    1.92  0. 1.0000     0. 
  -3   3   0      1.67    2.80  0. 1.0000     0. 
   3   3   0      0.93    3.26  0. 1.0000     0. 
   1  -1  -1     74.93    2.26  0. 1.0000     0. 
  -1  -1   1     72.71    2.36  0. 1.0000     0. 
  -1  -1   1     70.82    2.31  0. 1.0000     0. 
   1  -1  -1     71.74    1.62  0. 1.0000     0. 
   1   1  -1     73.64    1.89  0. 1.0000     0. 
  -1   1   1     71.72    1.91  0. 1.0000     0. 
  -1   1   1     73.19    2.21  0. 1.0000     0. 
   1   1  -1     73.62    2.32  0. 1.0000     0. 
   1   1  -1     73.30    1.94  0. 1.0000     0. 
   1   1  -1     74.89    2.03  0. 1.0000     0. 
   0  -1  -1    526.98    9.87  0. 1.0000     0. 
   0  -1   1    521.68    9.98  0. 1.0000     0. 
   0  -1  -1    531.87   10.56  0. 1.0000     0. 
   0   1   1    522.08   10.07  0. 1.0000     0. 
   0   1  -1    523.49   10.16  0. 1.0000     0. 
   0   1  -1    521.63    9.98  0. 1.0000     0. 
   0   1  -1    541.13   10.80  0. 1.0000     0. 
   0   1   1    521.83   10.20  0. 1.0000     0. 
   0   1   1    511.91   10.81  0. 1.0000     0. 
   0   1   1    536.32   10.02  0. 1.0000     0. 
   0   1  -1    509.88   10.09  0. 1.0000     0. 
   1  -1   1   3244.55   59.74  0. 1.0000     0. 
  -1  -1  -1   3296.49   62.98  0. 1.0000     0. 
   1   1   1   3296.91   61.44  0. 1.0000     0. 
   1   1   1   3335.07   59.95  0. 1.0000     0. 
   1   1   1   3357.55   59.47  0. 1.0000     0. 
  -1   1  -1   3333.61   63.00  0. 1.0000     0. 
   3   2  -1    220.11    6.15  0. 1.0000     0. 
   1  -2  -1   1257.18   23.12  0. 1.0000     0. 
  -1  -2   1   1279.27   24.61  0. 1.0000     0. 
  -1  -2   1   1270.73   25.62  0. 1.0000     0. 
   1  -2  -1   1292.12   24.96  0. 1.0000     0. 
  -1   2   1   1253.67   24.97  0. 1.0000     0. 
   1   2  -1   1249.50   24.65  0. 1.0000     0. 
  -1   2   1   1263.11   23.94  0. 1.0000     0. 
   1   2  -1   1291.22   24.87  0. 1.0000     0. 
   1   2  -1   1308.80   24.63  0. 1.0000     0. 
  -1   2   1   1278.32   27.57  0. 1.0000     0. 
   0  -2  -1    280.19    6.55  0. 1.0000     0. 
   0  -2  -1    283.54    7.28  0. 1.0000     0. 
   0  -2   1    282.23    7.18  0. 1.0000     0. 
   0   2  -1    289.28    8.21  0. 1.0000     0. 
   0   2   1    278.43    6.61  0. 1.0000     0. 
   0   2  -1    278.76    6.26  0. 1.0000     0. 
   0   2  -1    272.47    5.83  0. 1.0000     0. 
   0   2   1    273.59    6.31  0. 1.0000     0. 
   1  -2   1      3.88    1.05  0. 1.0000     0. 
  -1  -2  -1      5.11    2.47  0. 1.0000     0. 
   1   2   1      5.81    1.87  0. 1.0000     0. 
  -1   2  -1      3.41    1.55  0. 1.0000     0. 
   1   2   1      4.34    1.62  0. 1.0000     0. 
  -1   2  -1      2.85    2.27  0. 1.0000     0. 
   1   2   1      4.09    1.77  0. 1.0000     0. 
  -1   2  -1      3.30    1.13  0. 1.0000     0. 
   4   3  -1     25.95    3.38  0. 1.0000     0. 
  -3  -3   1     13.46    2.79  0. 1.0000     0. 
   3   3  -1     10.41    3.02  0. 1.0000     0. 
  -3   3   1     13.35    2.06  0. 1.0000     0. 
   3   3  -1     12.97    2.94  0. 1.0000     0. 
  -3   3   1     16.58    2.78  0. 1.0000     0. 
  -2  -3   1    120.42    4.73  0. 1.0000     0. 
   2  -3  -1    111.48    5.38  0. 1.0000     0. 
   2  -3  -1    118.36    3.77  0. 1.0000     0. 
  -2  -3   1    117.19    6.25  0. 1.0000     0. 
   2   3  -1    123.97    4.06  0. 1.0000     0. 
  -2   3   1    121.62    4.61  0. 1.0000     0. 
   2   3  -1    125.25    4.91  0. 1.0000     0. 
   2   3  -1    121.63    5.25  0. 1.0000     0. 
  -2   3   1    120.00    3.61  0. 1.0000     0. 
   1  -3  -1    177.08    4.58  0. 1.0000     0. 
   1  -3  -1    190.29    5.94  0. 1.0000     0. 
   1  -3  -1    178.58    6.32  0. 1.0000     0. 
  -1  -3   1    180.25    6.61  0. 1.0000     0. 
  -1  -3   1    175.87    6.11  0. 1.0000     0. 
  -1   3   1    189.05    5.37  0. 1.0000     0. 
  -1   3   1    181.87    4.57  0. 1.0000     0. 
   1   3  -1    184.11    5.02  0. 1.0000     0. 
   1   3  -1    181.92    4.90  0. 1.0000     0. 
   1   3  -1    184.71    5.50  0. 1.0000     0. 
   1   3  -1    163.40    7.35  0. 1.0000     0. 
  -1   3   1    185.47    4.93  0. 1.0000     0. 
   0  -3  -1     46.04    3.25  0. 1.0000     0. 
   0  -3  -1     44.15    3.18  0. 1.0000     0. 
   0  -3  -1     36.29    4.77  0. 1.0000     0. 
   0  -3   1     39.22    2.24  0. 1.0000     0. 
   0  -3   1     41.94    3.63  0. 1.0000     0. 
   0  -3   1     35.82    4.47  0. 1.0000     0. 
   0  -3   1     36.36    3.27  0. 1.0000     0. 
   0   3   1     38.93    4.36  0. 1.0000     0. 
   0   3   1     43.34    2.35  0. 1.0000     0. 
   0   3   1     41.65    3.27  0. 1.0000     0. 
   0   3  -1     42.55    2.90  0. 1.0000     0. 
   0   3  -1     28.69    4.50  0. 1.0000     0. 
   0   3  -1     40.83    2.27  0. 1.0000     0. 
   0   3   1     39.08    2.73  0. 1.0000     0. 
  -1  -3  -1     69.95    4.82  0. 1.0000     0. 
  -1  -3  -1     54.35    3.59  0. 1.0000     0. 
   1  -3   1     61.39    2.47  0. 1.0000     0. 
  -1  -3  -1     50.16    4.17  0. 1.0000     0. 
   1  -3   1     59.54    4.08  0. 1.0000     0. 
   1   3   1     61.92    4.35  0. 1.0000     0. 
   1   3   1     64.51    2.64  0. 1.0000     0. 
  -1   3  -1     57.01    2.65  0. 1.0000     0. 
   1   3   1     61.16    3.20  0. 1.0000     0. 
   1   3   1     58.20    3.72  0. 1.0000     0. 
  -1   3  -1     53.71    5.36  0. 1.0000     0. 
  -1   3  -1     55.64    3.41  0. 1.0000     0. 
   2  -3   1    237.80    5.34  0. 1.0000     0. 
  -2  -3  -1    250.60    6.21  0. 1.0000     0. 
  -2  -3  -1    246.03    8.12  0. 1.0000     0. 
   2  -3   1    215.78    8.87  0. 1.0000     0. 
  -2   3  -1    224.85    5.91  0. 1.0000     0. 
   2   3   1    221.72    7.72  0. 1.0000     0. 
   2   3   1    231.94    6.73  0. 1.0000     0. 
  -2   3  -1    233.04    6.42  0. 1.0000     0. 
   3   3   1    350.40    7.85  0. 1.0000     0. 
   3   3   1    350.14    8.54  0. 1.0000     0. 
   2  -1  -2   1049.08   19.68  0. 1.0000     0. 
  -2  -1   2   1032.87   20.41  0. 1.0000     0. 
   2   1  -2   1044.75   21.03  0. 1.0000     0. 
  -1  -1   2    102.41    2.72  0. 1.0000     0. 
  -1  -1   2    109.00    2.96  0. 1.0000     0. 
   1  -1  -2    108.41    2.89  0. 1.0000     0. 
   1   1  -2    104.89    2.49  0. 1.0000     0. 
  -1   1   2    102.03    2.55  0. 1.0000     0. 
  -1   1   2    104.10    3.02  0. 1.0000     0. 
   1   1  -2    101.13    3.23  0. 1.0000     0. 
   1   1  -2    107.34    2.38  0. 1.0000     0. 
   0  -1   2   1262.13   23.05  0. 1.0000     0. 
   0  -1  -2   1264.78   23.56  0. 1.0000     0. 
   0  -1   2   1275.61   22.69  0. 1.0000     0. 
   0   1   2   1287.46   23.83  0. 1.0000     0. 
   0   1  -2   1267.16   23.90  0. 1.0000     0. 
   0   1   2   1190.29   24.23  0. 1.0000     0. 
   0   1  -2   1262.22   23.53  0. 1.0000     0. 
   0   1   2   1336.30   23.27  0. 1.0000     0. 
   0   1   2   1266.06   23.94  0. 1.0000     0. 
   0   1  -2   1278.39   23.86  0. 1.0000     0. 
   0   1  -2   1229.53   22.87  0. 1.0000     0. 
   1  -1   2   1630.24   29.30  0. 1.0000     0. 
  -1  -1  -2   1587.50   32.11  0. 1.0000     0. 
   1   1   2   1610.03   30.50  0. 1.0000     0. 
  -1   1  -2   1643.77   30.77  0. 1.0000     0. 
   1   1   2   1584.93   29.84  0. 1.0000     0. 
   3   2  -2    650.87   14.22  0. 1.0000     0. 
   1  -2  -2    148.93    4.28  0. 1.0000     0. 
  -1  -2   2    145.46    4.75  0. 1.0000     0. 
  -1   2   2    146.82    4.14  0. 1.0000     0. 
   1   2  -2    150.22    3.68  0. 1.0000     0. 
  -1   2   2    142.64    3.71  0. 1.0000     0. 
   1   2  -2    134.89    3.81  0. 1.0000     0. 
   1   2  -2    143.98    5.06  0. 1.0000     0. 
  -1   2   2    146.10    3.34  0. 1.0000     0. 
   0  -2   2    402.45    9.56  0. 1.0000     0. 
   0  -2  -2    420.73    9.70  0. 1.0000     0. 
   0  -2  -2    428.59   10.09  0. 1.0000     0. 
   0  -2   2    419.93    8.27  0. 1.0000     0. 
   0  -2  -2    408.14    9.06  0. 1.0000     0. 
   0  -2   2    423.92   10.28  0. 1.0000     0. 
   0   2  -2    412.79    8.59  0. 1.0000     0. 
   0   2   2    411.66    8.86  0. 1.0000     0. 
   0   2   2    419.59    8.73  0. 1.0000     0. 
   0   2  -2    416.52    8.21  0. 1.0000     0. 
   0   2   2    430.28    8.45  0. 1.0000     0. 
   0   2  -2    422.01   10.94  0. 1.0000     0. 
   2  -2   2   1441.94   27.72  0. 1.0000     0. 
  -2  -2  -2   1450.24   27.02  0. 1.0000     0. 
   4   3  -2     23.46    3.53  0. 1.0000     0. 
   3  -3  -2     10.50    3.39  0. 1.0000     0. 
  -3  -3   2     15.53    3.18  0. 1.0000     0. 
  -3   3   2      6.58    2.78  0. 1.0000     0. 
   3   3  -2     10.92    2.92  0. 1.0000     0. 
   3   3  -2      7.69    2.56  0. 1.0000     0. 
   2  -3  -2    215.48    7.70  0. 1.0000     0. 
  -2  -3   2    213.39    7.96  0. 1.0000     0. 
  -2  -3   2    230.31    6.45  0. 1.0000     0. 
  -2   3   2    220.34    6.54  0. 1.0000     0. 
   2   3  -2    217.25    5.79  0. 1.0000     0. 
   2   3  -2    222.41    7.40  0. 1.0000     0. 
  -1  -3   2      6.22    2.84  0. 1.0000     0. 
  -1  -3   2      2.37    2.30  0. 1.0000     0. 
   1  -3  -2      3.13    2.91  0. 1.0000     0. 
  -1  -3   2      4.24    1.69  0. 1.0000     0. 
  -1   3   2      9.14    2.86  0. 1.0000     0. 
   1   3  -2      8.24    3.44  0. 1.0000     0. 
   1   3  -2      9.91    2.10  0. 1.0000     0. 
  -1   3   2      6.74    2.12  0. 1.0000     0. 
   0  -3   2      5.47    2.50  0. 1.0000     0. 
   0  -3   2      2.35    3.08  0. 1.0000     0. 
   0  -3  -2      9.22    2.79  0. 1.0000     0. 
   0  -3   2      8.84    3.86  0. 1.0000     0. 
   0  -3   2      1.67    1.73  0. 1.0000     0. 
   0  -3  -2      8.26    4.29  0. 1.0000     0. 
   0   3  -2     15.56    4.31  0. 1.0000     0. 
   0   3   2      9.41    2.95  0. 1.0000     0. 
   0   3   2      6.58    2.58  0. 1.0000     0. 
   0   3  -2      5.34    2.00  0. 1.0000     0. 
  -1  -3  -2    538.92   13.36  0. 1.0000     0. 
   1  -3   2    549.50   14.31  0. 1.0000     0. 
   1  -3   2    567.71   10.67  0. 1.0000     0. 
   1   3   2    542.63   11.96  0. 1.0000     0. 
  -1   3  -2    536.12   11.18  0. 1.0000     0. 
   1   3   2    538.08   11.98  0. 1.0000     0. 
   2  -3   2     53.47    2.62  0. 1.0000     0. 
  -2  -3  -2     56.95    5.09  0. 1.0000     0. 
   2   3   2     59.60    4.19  0. 1.0000     0. 
  -2   3  -2     57.81    2.70  0. 1.0000     0. 
  -3  -3  -2      9.95    4.16  0. 1.0000     0. 
   3   3   2     39.67    3.83  0. 1.0000     0. 
  -4   4   2      5.74    3.47  0. 1.0000     0. 
   3  -4  -2     -4.04    4.40  0. 1.0000     0. 
  -3   4   2      8.92    3.70  0. 1.0000     0. 
  -2  -4   2      6.92    2.27  0. 1.0000     0. 
   2  -4  -2      2.69    3.79  0. 1.0000     0. 
  -2   4   2      7.66    2.99  0. 1.0000     0. 
  -2   4   2      3.98    3.40  0. 1.0000     0. 
   2  -4   2     19.94    5.11  0. 1.0000     0. 
  -2  -4  -2     25.43    4.30  0. 1.0000     0. 
  -2  -4  -2     28.67    6.09  0. 1.0000     0. 
  -2   4  -2     30.30    3.21  0. 1.0000     0. 
   2   4   2     24.66    4.74  0. 1.0000     0. 
   2   4   2     42.34    3.93  0. 1.0000     0. 
  -3  -4  -2      2.86    3.89  0. 1.0000     0. 
  -3  -4  -2      2.64    5.19  0. 1.0000     0. 
   3   4   2      1.79    3.54  0. 1.0000     0. 
  -3   4  -2      2.18    2.56  0. 1.0000     0. 
   4   4   2      8.56    4.16  0. 1.0000     0. 
  -1   0   3      0.11    0.28  0. 1.0000     0. 
  -1   0   3      0.34    0.37  0. 1.0000     0. 
  -1   0   3      0.02    0.38  0. 1.0000     0. 
   1   0  -3      0.06    0.27  0. 1.0000     0. 
   1   0  -3     -0.05    0.33  0. 1.0000     0. 
   1   0  -3      0.01    0.34  0. 1.0000     0. 
   0   0   3      0.18    0.40  0. 1.0000     0. 
   0   0  -3      0.13    0.49  0. 1.0000     0. 
   0   0   3      0.37    0.22  0. 1.0000     0. 
   0   0  -3     -0.04    0.24  0. 1.0000     0. 
   0   0   3     -0.05    0.39  0. 1.0000     0. 
   0   0  -3      0.13    0.47  0. 1.0000     0. 
   2  -1  -3    316.92    7.02  0. 1.0000     0. 
  -2  -1   3    314.49    7.07  0. 1.0000     0. 
   2   1  -3    310.78    6.43  0. 1.0000     0. 
  -2   1   3    308.19    6.57  0. 1.0000     0. 
   1  -1  -3    427.29    9.57  0. 1.0000     0. 
   1   1  -3    429.00    8.27  0. 1.0000     0. 
   1   1  -3    423.90    7.69  0. 1.0000     0. 
  -1   1   3    400.22    8.48  0. 1.0000     0. 
   0   1  -3    179.91    3.65  0. 1.0000     0. 
   0   1   3    176.64    3.70  0. 1.0000     0. 
   0   1   3    181.18    4.04  0. 1.0000     0. 
   0   1  -3    182.24    4.02  0. 1.0000     0. 
   1   1   3    673.57   13.28  0. 1.0000     0. 
  -3  -2   3    331.61    8.89  0. 1.0000     0. 
   3  -2  -3    349.37    8.75  0. 1.0000     0. 
   3   2  -3    335.55    9.14  0. 1.0000     0. 
  -3   2   3    336.16    7.79  0. 1.0000     0. 
  -2  -2   3    211.59    6.10  0. 1.0000     0. 
   2  -2  -3    214.74    5.81  0. 1.0000     0. 
   2   2  -3    207.74    6.21  0. 1.0000     0. 
  -2   2   3    203.72    5.06  0. 1.0000     0. 
  -2   2   3    213.62    5.35  0. 1.0000     0. 
  -1  -2  -3    130.51    5.12  0. 1.0000     0. 
   1   2   3    138.93    4.28  0. 1.0000     0. 
  -1   2  -3    136.28    3.52  0. 1.0000     0. 
   1   2   3    136.81    4.24  0. 1.0000     0. 
   1   2   3    140.24    4.14  0. 1.0000     0. 
   2  -2   3    116.34    3.28  0. 1.0000     0. 
  -2  -2  -3    116.09    5.26  0. 1.0000     0. 
   2   2   3    119.19    4.58  0. 1.0000     0. 
  -2   2  -3    117.22    3.33  0. 1.0000     0. 
   2   2   3    113.28    4.33  0. 1.0000     0. 
   3  -3  -3    289.07    9.01  0. 1.0000     0. 
  -3  -3   3    280.17    7.86  0. 1.0000     0. 
   3   3  -3    273.75    8.73  0. 1.0000     0. 
  -2  -3   3      5.31    2.74  0. 1.0000     0. 
   2  -3  -3      0.64    2.58  0. 1.0000     0. 
  -2   3   3      0.71    2.72  0. 1.0000     0. 
  -2   3   3      0.79    2.13  0. 1.0000     0. 
   2   3  -3      9.68    3.36  0. 1.0000     0. 
   2   3  -3      2.23    2.06  0. 1.0000     0. 
  -1  -3   3      4.17    1.75  0. 1.0000     0. 
   1  -3  -3      5.85    2.80  0. 1.0000     0. 
  -1  -3   3      6.26    2.83  0. 1.0000     0. 
   1   3  -3      6.27    3.31  0. 1.0000     0. 
   1   3  -3      5.70    1.92  0. 1.0000     0. 
  -1   3   3      4.71    2.79  0. 1.0000     0. 
  -1   3   3      4.90    2.28  0. 1.0000     0. 
   0  -3  -3    190.05    7.38  0. 1.0000     0. 
   0  -3   3    197.81    4.71  0. 1.0000     0. 
   0  -3   3    191.25    6.72  0. 1.0000     0. 
   0  -3  -3    185.43    6.56  0. 1.0000     0. 
   0   3  -3    179.32    8.63  0. 1.0000     0. 
   0   3   3    185.86    5.41  0. 1.0000     0. 
   0   3   3    188.19    5.93  0. 1.0000     0. 
   0   3  -3    184.92    5.04  0. 1.0000     0. 
  -1  -3  -3     88.44    4.88  0. 1.0000     0. 
  -1  -3  -3     99.86    5.16  0. 1.0000     0. 
   1  -3   3     91.14    3.09  0. 1.0000     0. 
   1   3   3     91.71    4.01  0. 1.0000     0. 
  -1   3  -3     90.27    3.24  0. 1.0000     0. 
   2  -3   3      1.34    1.94  0. 1.0000     0. 
  -2  -3  -3      6.15    4.11  0. 1.0000     0. 
  -2   3  -3     -0.99    3.46  0. 1.0000     0. 
  -2   3  -3      2.64    1.93  0. 1.0000     0. 
   2   3   3      3.48    3.43  0. 1.0000     0. 
   2   3   3      2.62    2.91  0. 1.0000     0. 
   5   4  -3     -1.00    3.95  0. 1.0000     0. 
   4   4  -3    216.66    8.88  0. 1.0000     0. 
  -3  -4   3      3.94    3.69  0. 1.0000     0. 
   3  -4  -3      2.61    4.15  0. 1.0000     0. 
   3   4  -3      2.95    3.00  0. 1.0000     0. 
  -3   4   3      2.62    3.67  0. 1.0000     0. 
   3   4  -3      5.82    4.50  0. 1.0000     0. 
   2  -4  -3      6.57    4.05  0. 1.0000     0. 
  -2  -4   3     13.23    3.52  0. 1.0000     0. 
  -2  -4   3      7.71    2.35  0. 1.0000     0. 
   2   4  -3     12.54    4.64  0. 1.0000     0. 
   2   4  -3     10.15    2.82  0. 1.0000     0. 
  -2   4   3     13.89    3.77  0. 1.0000     0. 
  -2   4   3      6.82    3.13  0. 1.0000     0. 
  -1  -4   3     66.55    4.46  0. 1.0000     0. 
   1   4  -3     66.25    6.48  0. 1.0000     0. 
   1   4  -3     58.73    3.25  0. 1.0000     0. 
  -1   4   3     59.66    3.73  0. 1.0000     0. 
  -1   4   3     62.96    4.52  0. 1.0000     0. 
   0  -4  -3      2.38    3.42  0. 1.0000     0. 
   0  -4   3      2.46    4.14  0. 1.0000     0. 
   0   4   3     -1.15    3.11  0. 1.0000     0. 
   0   4  -3     -2.93    2.53  0. 1.0000     0. 
   0   4   3     -1.53    4.00  0. 1.0000     0. 
   1  -4   3     15.13    2.56  0. 1.0000     0. 
  -1  -4  -3     10.32    3.71  0. 1.0000     0. 
   1  -4   3      8.78    4.17  0. 1.0000     0. 
  -1  -4  -3      7.34    5.42  0. 1.0000     0. 
   1   4   3     14.28    4.26  0. 1.0000     0. 
  -1   4  -3     15.11    2.68  0. 1.0000     0. 
   1   4   3     17.30    3.44  0. 1.0000     0. 
  -1   4  -3      9.69    5.50  0. 1.0000     0. 
  -2  -4  -3      3.71    4.16  0. 1.0000     0. 
  -2  -4  -3      4.93    5.53  0. 1.0000     0. 
   2  -4   3     -0.82    4.45  0. 1.0000     0. 
   2  -4   3      2.14    2.31  0. 1.0000     0. 
   2   4   3      1.41    4.31  0. 1.0000     0. 
   2   4   3     -3.97    3.31  0. 1.0000     0. 
  -2   4  -3      2.79    2.53  0. 1.0000     0. 
  -3  -4  -3      2.21    5.69  0. 1.0000     0. 
  -3  -4  -3      3.24    4.05  0. 1.0000     0. 
   3   4   3      0.63    3.58  0. 1.0000     0. 
  -3   4  -3      3.76    2.67  0. 1.0000     0. 
   4   4   3     15.99    4.34  0. 1.0000     0. 
   1   0  -4   2649.11   46.63  0. 1.0000     0. 
  -1   0   4   2517.10   46.10  0. 1.0000     0. 
   1   0  -4   2387.44   48.53  0. 1.0000     0. 
   1   0  -4   2564.63   46.63  0. 1.0000     0. 
  -1   0   4   2575.58   46.06  0. 1.0000     0. 
  -1   0   4   2544.48   46.09  0. 1.0000     0. 
   0   0  -4   2379.99   43.68  0. 1.0000     0. 
   0   0  -4   2309.33   44.54  0. 1.0000     0. 
   0   0   4   2356.12   41.82  0. 1.0000     0. 
   0   0   4   2256.81   43.12  0. 1.0000     0. 
   0   0  -4   2318.86   42.47  0. 1.0000     0. 
  -2   1   4    100.98    3.03  0. 1.0000     0. 
  -1  -1   4   1764.97   32.79  0. 1.0000     0. 
   1  -1  -4   1703.89   32.50  0. 1.0000     0. 
   1   1  -4   1756.75   32.85  0. 1.0000     0. 
  -1   1   4   1737.96   32.53  0. 1.0000     0. 
   0   1  -4   1000.87   19.01  0. 1.0000     0. 
   0   1   4    989.11   19.04  0. 1.0000     0. 
   3  -2  -4    621.95   13.39  0. 1.0000     0. 
  -3  -2   4    606.58   13.22  0. 1.0000     0. 
  -3   2   4    607.80   12.33  0. 1.0000     0. 
   3   2  -4    609.18   12.73  0. 1.0000     0. 
   3   2  -4    597.51   15.38  0. 1.0000     0. 
  -3   2   4    612.31   12.74  0. 1.0000     0. 
   2  -2  -4     40.07    2.92  0. 1.0000     0. 
  -2  -2   4     45.72    2.81  0. 1.0000     0. 
   2   2  -4     49.62    3.08  0. 1.0000     0. 
  -2   2   4     42.83    2.75  0. 1.0000     0. 
  -2   2   4     45.84    2.20  0. 1.0000     0. 
   2   2  -4     41.68    2.18  0. 1.0000     0. 
  -1  -2   4    150.86    5.27  0. 1.0000     0. 
   1  -2  -4    150.89    4.78  0. 1.0000     0. 
   1  -2  -4    154.02    4.12  0. 1.0000     0. 
  -1  -2   4    149.28    4.70  0. 1.0000     0. 
  -1  -2   4    148.16    4.27  0. 1.0000     0. 
  -1   2   4    151.17    3.39  0. 1.0000     0. 
   1   2  -4    149.72    3.88  0. 1.0000     0. 
   1   2  -4    149.06    3.52  0. 1.0000     0. 
  -1   2   4    152.39    3.93  0. 1.0000     0. 
   1   2  -4    154.47    3.80  0. 1.0000     0. 
   1   2  -4    157.35    5.62  0. 1.0000     0. 
  -1   2   4    162.79    4.43  0. 1.0000     0. 
  -1   2   4    156.31    4.64  0. 1.0000     0. 
   0  -2  -4     29.97    2.63  0. 1.0000     0. 
   0  -2  -4     29.94    3.20  0. 1.0000     0. 
   0  -2  -4     24.38    1.62  0. 1.0000     0. 
   0  -2   4     17.41    2.78  0. 1.0000     0. 
   0  -2   4     22.19    1.84  0. 1.0000     0. 
   0  -2   4     22.59    1.52  0. 1.0000     0. 
   0   2   4     25.99    2.12  0. 1.0000     0. 
   0   2  -4     25.37    3.19  0. 1.0000     0. 
   0   2  -4     26.22    1.54  0. 1.0000     0. 
   0   2   4     22.85    1.99  0. 1.0000     0. 
   0   2   4     25.24    2.25  0. 1.0000     0. 
   0   2  -4     23.55    1.72  0. 1.0000     0. 
   0   2   4     27.33    1.33  0. 1.0000     0. 
  -1  -2  -4    149.94    5.36  0. 1.0000     0. 
   1  -2   4    141.60    3.87  0. 1.0000     0. 
  -1   2  -4    153.66    3.82  0. 1.0000     0. 
   1   2   4    150.33    4.63  0. 1.0000     0. 
   1   2   4    151.44    4.25  0. 1.0000     0. 
   1   2   4    151.83    4.56  0. 1.0000     0. 
   2  -2   4    228.39    5.38  0. 1.0000     0. 
  -2  -2  -4    232.30    7.41  0. 1.0000     0. 
  -3  -3   4     -0.97    2.69  0. 1.0000     0. 
   3  -3  -4      2.85    3.04  0. 1.0000     0. 
   3   3  -4      0.70    2.12  0. 1.0000     0. 
  -3   3   4      4.07    2.68  0. 1.0000     0. 
  -3   3   4      2.90    2.38  0. 1.0000     0. 
   3   3  -4      0.86    2.96  0. 1.0000     0. 
  -2  -3   4    124.99    5.04  0. 1.0000     0. 
   2  -3  -4    123.35    5.60  0. 1.0000     0. 
   2   3  -4    119.61    4.25  0. 1.0000     0. 
  -2   3   4    126.10    4.87  0. 1.0000     0. 
  -2   3   4    127.32    4.15  0. 1.0000     0. 
   2   3  -4    118.32    5.85  0. 1.0000     0. 
  -1  -3   4     16.95    3.26  0. 1.0000     0. 
  -1  -3   4     17.92    1.99  0. 1.0000     0. 
   1  -3  -4     21.61    2.93  0. 1.0000     0. 
  -1   3   4     21.60    3.22  0. 1.0000     0. 
   1   3  -4     19.73    2.23  0. 1.0000     0. 
   1   3  -4     23.36    4.03  0. 1.0000     0. 
  -1   3   4     19.61    2.59  0. 1.0000     0. 
   0  -3  -4     89.25    4.44  0. 1.0000     0. 
   0  -3  -4     87.37    5.50  0. 1.0000     0. 
   0  -3   4     83.99    5.30  0. 1.0000     0. 
   0  -3   4     79.07    3.19  0. 1.0000     0. 
   0   3  -4     86.17    3.16  0. 1.0000     0. 
   0   3   4     90.33    3.66  0. 1.0000     0. 
   0   3  -4     66.26    5.72  0. 1.0000     0. 
   0   3   4     87.73    4.16  0. 1.0000     0. 
  -1  -3  -4     19.14    3.57  0. 1.0000     0. 
  -1  -3  -4     19.43    4.26  0. 1.0000     0. 
   1  -3   4     20.59    2.08  0. 1.0000     0. 
   1   3   4     21.49    3.33  0. 1.0000     0. 
   1   3   4     23.72    3.08  0. 1.0000     0. 
  -1   3  -4     17.31    2.20  0. 1.0000     0. 
  -1   3  -4     15.75    4.17  0. 1.0000     0. 
   2  -3   4      3.89    2.02  0. 1.0000     0. 
  -2  -3  -4      2.60    4.27  0. 1.0000     0. 
   2   3   4     -3.71    3.62  0. 1.0000     0. 
  -2   3  -4     -2.07    3.58  0. 1.0000     0. 
  -2   3  -4      1.45    1.95  0. 1.0000     0. 
   2   3   4      1.29    3.18  0. 1.0000     0. 
   5   4  -4      2.11    3.81  0. 1.0000     0. 
  -4  -4   4      4.56    3.42  0. 1.0000     0. 
   4   4  -4      6.18    4.07  0. 1.0000     0. 
  -4   4   4      3.27    3.80  0. 1.0000     0. 
   3  -4  -4     -0.10    3.88  0. 1.0000     0. 
  -3  -4   4      0.07    3.43  0. 1.0000     0. 
  -3   4   4     -1.74    3.17  0. 1.0000     0. 
   3   4  -4      0.50    2.85  0. 1.0000     0. 
   3   4  -4      3.98    4.29  0. 1.0000     0. 
  -3   4   4      4.93    3.72  0. 1.0000     0. 
   2  -4  -4      6.01    3.85  0. 1.0000     0. 
  -2  -4   4     -0.15    2.30  0. 1.0000     0. 
  -2  -4   4     -1.50    3.51  0. 1.0000     0. 
  -2   4   4      0.96    3.83  0. 1.0000     0. 
   2   4  -4      4.07    4.54  0. 1.0000     0. 
   2   4  -4     -0.07    2.62  0. 1.0000     0. 
  -2   4   4      0.09    2.96  0. 1.0000     0. 
  -1  -4   4      1.62    2.33  0. 1.0000     0. 
   1  -4  -4      3.16    5.63  0. 1.0000     0. 
  -1  -4   4      5.65    3.65  0. 1.0000     0. 
   1  -4  -4      2.28    3.39  0. 1.0000     0. 
  -1   4   4      3.10    2.99  0. 1.0000     0. 
   1   4  -4     -0.46    5.00  0. 1.0000     0. 
  -1   4   4      1.38    3.70  0. 1.0000     0. 
   1   4  -4     -0.14    2.40  0. 1.0000     0. 
   0  -4   4     -4.41    2.28  0. 1.0000     0. 
   0  -4  -4      0.88    3.69  0. 1.0000     0. 
   0  -4  -4      5.28    5.77  0. 1.0000     0. 
   0  -4   4     -1.10    4.16  0. 1.0000     0. 
   0   4  -4      0.14    2.41  0. 1.0000     0. 
   0   4   4     -7.30    3.97  0. 1.0000     0. 
   0   4   4     -0.46    3.08  0. 1.0000     0. 
   0   4  -4      2.51    5.13  0. 1.0000     0. 
   1  -4   4      3.97    4.48  0. 1.0000     0. 
  -1  -4  -4      1.39    3.62  0. 1.0000     0. 
   1  -4   4      2.33    2.40  0. 1.0000     0. 
  -1  -4  -4     -1.93    5.31  0. 1.0000     0. 
   1   4   4      1.99    3.25  0. 1.0000     0. 
  -1   4  -4      0.92    5.15  0. 1.0000     0. 
   1   4   4      2.11    4.20  0. 1.0000     0. 
  -1   4  -4      2.56    2.49  0. 1.0000     0. 
  -2  -4  -4     -0.69    3.96  0. 1.0000     0. 
   2  -4   4     -0.98    2.28  0. 1.0000     0. 
   2  -4   4      1.07    4.65  0. 1.0000     0. 
  -2  -4  -4      2.98    5.47  0. 1.0000     0. 
  -2   4  -4      4.92    2.61  0. 1.0000     0. 
   2   4   4      0.73    3.43  0. 1.0000     0. 
   2   4   4      0.94    4.67  0. 1.0000     0. 
  -3  -4  -4     11.53    6.28  0. 1.0000     0. 
   3   4   4      4.34    3.76  0. 1.0000     0. 
  -3   4  -4     10.66    2.78  0. 1.0000     0. 
   4   4   4      1.42    4.06  0. 1.0000     0. 
   2   0  -5      0.10    0.64  0. 1.0000     0. 
  -2   0   5     -0.21    0.79  0. 1.0000     0. 
  -1   0   5      0.18    0.65  0. 1.0000     0. 
   1   0  -5      0.43    0.67  0. 1.0000     0. 
   1   0  -5      0.01    0.47  0. 1.0000     0. 
   1   0  -5      0.33    0.57  0. 1.0000     0. 
  -1   0   5      0.29    0.79  0. 1.0000     0. 
  -1   0   5     -0.10    0.54  0. 1.0000     0. 
   0   0  -5      0.01    0.44  0. 1.0000     0. 
   0   0   5      0.51    0.82  0. 1.0000     0. 
   0   0  -5      0.42    1.05  0. 1.0000     0. 
   0   0   5     -0.07    0.46  0. 1.0000     0. 
   0   0   5     -0.05    0.76  0. 1.0000     0. 
   0   0  -5     -0.12    1.01  0. 1.0000     0. 
   3  -1  -5   1085.73   21.55  0. 1.0000     0. 
  -3  -1   5    973.66   20.59  0. 1.0000     0. 
  -3   1   5   1048.29   21.02  0. 1.0000     0. 
   3   1  -5   1084.45   20.49  0. 1.0000     0. 
   2   1  -5    255.85    6.38  0. 1.0000     0. 
  -2   1   5    256.97    6.07  0. 1.0000     0. 
   0  -1  -5    135.84    4.56  0. 1.0000     0. 
   0  -1   5    137.90    3.15  0. 1.0000     0. 
   0   1   5    135.44    3.96  0. 1.0000     0. 
   0   1  -5    141.72    4.73  0. 1.0000     0. 
   1  -1   5    230.08    5.15  0. 1.0000     0. 
  -1  -1  -5    236.37    6.98  0. 1.0000     0. 
  -1   1  -5    242.74    5.11  0. 1.0000     0. 
  -1   1  -5    231.92    7.55  0. 1.0000     0. 
   1   1   5    236.41    6.02  0. 1.0000     0. 
   1   1   5    239.81    5.79  0. 1.0000     0. 
   3  -2  -5     40.09    3.04  0. 1.0000     0. 
  -3  -2   5     42.26    2.90  0. 1.0000     0. 
  -3   2   5     36.12    2.35  0. 1.0000     0. 
   3   2  -5     35.67    2.90  0. 1.0000     0. 
  -3   2   5     36.34    2.76  0. 1.0000     0. 
   3   2  -5     30.72    2.17  0. 1.0000     0. 
   2  -2  -5    370.14    8.73  0. 1.0000     0. 
  -2  -2   5    357.07    9.24  0. 1.0000     0. 
  -2   2   5    363.66    8.35  0. 1.0000     0. 
   2   2  -5    362.22    8.21  0. 1.0000     0. 
   2   2  -5    369.06    9.66  0. 1.0000     0. 
  -2   2   5    362.51    7.76  0. 1.0000     0. 
  -1  -2   5     82.35    3.25  0. 1.0000     0. 
  -1  -2   5     85.14    2.76  0. 1.0000     0. 
   1  -2  -5     83.01    2.54  0. 1.0000     0. 
  -1  -2   5     78.78    4.23  0. 1.0000     0. 
   1  -2  -5     89.09    3.58  0. 1.0000     0. 
  -1   2   5     84.90    3.27  0. 1.0000     0. 
   1   2  -5     76.38    4.49  0. 1.0000     0. 
  -1   2   5     85.67    3.12  0. 1.0000     0. 
   1   2  -5     81.09    2.76  0. 1.0000     0. 
   0  -2  -5    259.98    7.46  0. 1.0000     0. 
   0  -2   5    252.06    5.42  0. 1.0000     0. 
   0  -2  -5    240.90    7.49  0. 1.0000     0. 
   0   2   5    235.72    6.77  0. 1.0000     0. 
   0   2  -5    244.51    7.96  0. 1.0000     0. 
   0   2  -5    247.92    5.63  0. 1.0000     0. 
   0   2   5    250.48    6.26  0. 1.0000     0. 
   1  -2   5      2.72    1.33  0. 1.0000     0. 
  -1  -2  -5      1.41    2.95  0. 1.0000     0. 
  -1   2  -5      0.21    2.58  0. 1.0000     0. 
  -1   2  -5      0.27    1.40  0. 1.0000     0. 
   1   2   5      1.81    2.24  0. 1.0000     0. 
   1   2   5      2.76    2.14  0. 1.0000     0. 
   2  -2   5     82.59    2.84  0. 1.0000     0. 
  -2  -2  -5     89.41    5.12  0. 1.0000     0. 
   2   2   5     87.31    4.57  0. 1.0000     0. 
   2   2   5     83.53    3.96  0. 1.0000     0. 
   4  -3  -5     36.78    4.29  0. 1.0000     0. 
  -4  -3   5     28.94    3.74  0. 1.0000     0. 
   3  -3  -5    212.47    8.00  0. 1.0000     0. 
  -3  -3   5    215.47    7.06  0. 1.0000     0. 
   3   3  -5    224.19    7.58  0. 1.0000     0. 
   3   3  -5    214.40    6.09  0. 1.0000     0. 
  -3   3   5    217.17    5.98  0. 1.0000     0. 
  -3   3   5    214.31    6.68  0. 1.0000     0. 
  -2  -3   5    268.70    8.46  0. 1.0000     0. 
   2  -3  -5    279.18    8.09  0. 1.0000     0. 
  -2   3   5    284.51    7.34  0. 1.0000     0. 
  -2   3   5    279.29    6.78  0. 1.0000     0. 
   2   3  -5    281.94    9.35  0. 1.0000     0. 
   2   3  -5    264.84    6.91  0. 1.0000     0. 
  -1  -3   5    218.38    5.56  0. 1.0000     0. 
   1  -3  -5    220.60    7.77  0. 1.0000     0. 
  -1  -3   5    218.29    7.79  0. 1.0000     0. 
   1  -3  -5    220.47    7.27  0. 1.0000     0. 
   1   3  -5    215.08    5.70  0. 1.0000     0. 
  -1   3   5    215.38    5.99  0. 1.0000     0. 
  -1   3   5    220.00    6.17  0. 1.0000     0. 
   1   3  -5    209.28    9.03  0. 1.0000     0. 
   0  -3  -5      0.75    2.90  0. 1.0000     0. 
   0  -3   5      0.08    3.23  0. 1.0000     0. 
   0  -3   5      0.59    1.78  0. 1.0000     0. 
   0  -3  -5      4.88    4.31  0. 1.0000     0. 
   0   3  -5      1.23    1.99  0. 1.0000     0. 
   0   3   5      1.68    3.06  0. 1.0000     0. 
   0   3  -5     -1.35    3.70  0. 1.0000     0. 
   0   3   5      3.77    2.68  0. 1.0000     0. 
  -1  -3  -5     13.81    4.58  0. 1.0000     0. 
  -1  -3  -5      6.45    3.37  0. 1.0000     0. 
   1  -3   5     14.33    2.01  0. 1.0000     0. 
   1   3   5     11.54    3.36  0. 1.0000     0. 
  -1   3  -5     16.09    4.53  0. 1.0000     0. 
   1   3   5     10.41    3.05  0. 1.0000     0. 
  -1   3  -5     10.77    2.16  0. 1.0000     0. 
  -3  -3  -5      5.87    4.77  0. 1.0000     0. 
   5   4  -5      6.30    4.26  0. 1.0000     0. 
  -4  -4   5      4.71    3.66  0. 1.0000     0. 
   4  -4  -5     10.18    4.78  0. 1.0000     0. 
   4   4  -5      6.03    4.43  0. 1.0000     0. 
  -4   4   5     13.70    3.85  0. 1.0000     0. 
  -3  -4   5     88.41    5.34  0. 1.0000     0. 
   3  -4  -5     87.77    5.99  0. 1.0000     0. 
  -3   4   5     93.17    5.48  0. 1.0000     0. 
  -3   4   5     90.18    4.61  0. 1.0000     0. 
   3   4  -5     87.38    6.79  0. 1.0000     0. 
  -2  -4   5    202.72    7.74  0. 1.0000     0. 
   2  -4  -5    201.04    7.56  0. 1.0000     0. 
  -2   4   5    206.85    6.77  0. 1.0000     0. 
   2   4  -5    196.99    6.09  0. 1.0000     0. 
   2   4  -5    193.80    9.73  0. 1.0000     0. 
  -2   4   5    212.01    6.20  0. 1.0000     0. 
  -1  -4   5    120.37    6.50  0. 1.0000     0. 
   1  -4  -5    130.66    7.79  0. 1.0000     0. 
  -1  -4   5    126.68    4.25  0. 1.0000     0. 
   1  -4  -5    130.38    6.32  0. 1.0000     0. 
   1   4  -5    108.34    8.43  0. 1.0000     0. 
   1   4  -5    115.65    4.55  0. 1.0000     0. 
  -1   4   5    132.87    4.73  0. 1.0000     0. 
  -1   4   5    132.93    5.74  0. 1.0000     0. 
   0  -4  -5     56.07    5.23  0. 1.0000     0. 
   0  -4  -5     72.27    6.84  0. 1.0000     0. 
   0  -4   5     65.88    5.85  0. 1.0000     0. 
   0  -4   5     70.74    3.23  0. 1.0000     0. 
   0   4   5     71.89    4.04  0. 1.0000     0. 
   0   4   5     72.66    4.93  0. 1.0000     0. 
   0   4  -5     67.45    3.50  0. 1.0000     0. 
   1  -4   5    144.49    8.45  0. 1.0000     0. 
  -1  -4  -5    159.47    7.84  0. 1.0000     0. 
  -1   4  -5    150.66    4.85  0. 1.0000     0. 
   2  -4   5      4.76    4.90  0. 1.0000     0. 
  -2  -4  -5     -0.47    5.62  0. 1.0000     0. 
   2  -4   5      1.59    2.39  0. 1.0000     0. 
  -2  -4  -5      0.30    4.05  0. 1.0000     0. 
   2   4   5      2.12    3.69  0. 1.0000     0. 
   2   4   5      2.33    4.84  0. 1.0000     0. 
  -2   4  -5      0.07    2.56  0. 1.0000     0. 
  -3  -4  -5     45.98    7.36  0. 1.0000     0. 
  -2   0   6   1724.02   34.08  0. 1.0000     0. 
   2   0  -6   1712.85   32.48  0. 1.0000     0. 
  -2   0   6   1749.84   31.08  0. 1.0000     0. 
   2   0  -6   1733.12   32.45  0. 1.0000     0. 
   1   0  -6     61.00    1.80  0. 1.0000     0. 
   1   0  -6     59.24    1.60  0. 1.0000     0. 
  -1   0   6     59.16    1.92  0. 1.0000     0. 
  -1   0   6     59.99    1.67  0. 1.0000     0. 
  -1   0   6     65.01    2.05  0. 1.0000     0. 
   0   0  -6    215.78    4.38  0. 1.0000     0. 
   0   0   6    218.99    4.56  0. 1.0000     0. 
   0   0  -6    215.94    5.85  0. 1.0000     0. 
   0   0  -6    206.47    5.36  0. 1.0000     0. 
   0   0   6    214.49    4.34  0. 1.0000     0. 
   0   0   6    214.63    4.86  0. 1.0000     0. 
  -3  -1   6   1559.57   30.00  0. 1.0000     0. 
   3  -1  -6   1575.35   28.33  0. 1.0000     0. 
   3   1  -6   1565.36   29.91  0. 1.0000     0. 
  -3   1   6   1537.75   31.15  0. 1.0000     0. 
   3   1  -6   1548.41   30.48  0. 1.0000     0. 
   2  -1  -6      0.30    1.33  0. 1.0000     0. 
  -2  -1   6      1.28    1.37  0. 1.0000     0. 
  -2   1   6     -0.41    1.10  0. 1.0000     0. 
   2   1  -6      1.87    1.34  0. 1.0000     0. 
   2   1  -6      0.85    1.00  0. 1.0000     0. 
  -2   1   6      0.21    1.40  0. 1.0000     0. 
   1  -1  -6     30.77    2.00  0. 1.0000     0. 
  -1  -1   6     28.85    2.48  0. 1.0000     0. 
  -1   1   6     28.53    1.77  0. 1.0000     0. 
   1   1  -6     29.20    1.39  0. 1.0000     0. 
   1   1  -6     28.86    2.28  0. 1.0000     0. 
  -1   1   6     28.76    2.06  0. 1.0000     0. 
   0  -1   6   1496.82   27.12  0. 1.0000     0. 
   0  -1  -6   1451.55   30.38  0. 1.0000     0. 
   0   1  -6   1470.96   28.34  0. 1.0000     0. 
   0   1   6   1459.04   28.94  0. 1.0000     0. 
   0   1  -6   1554.80   28.83  0. 1.0000     0. 
   0   1   6   1482.41   27.92  0. 1.0000     0. 
   1  -1   6      5.57    1.01  0. 1.0000     0. 
  -1  -1  -6      6.58    2.32  0. 1.0000     0. 
  -1   1  -6      5.58    2.01  0. 1.0000     0. 
   1   1   6      3.74    1.80  0. 1.0000     0. 
   1   1   6      5.15    1.92  0. 1.0000     0. 
  -1   1  -6      4.24    1.14  0. 1.0000     0. 
   4  -2  -6    531.11   14.35  0. 1.0000     0. 
  -4  -2   6    548.62   11.81  0. 1.0000     0. 
   4   2  -6    554.78   13.16  0. 1.0000     0. 
   3  -2  -6    627.95   14.93  0. 1.0000     0. 
  -3  -2   6    631.38   13.77  0. 1.0000     0. 
   3   2  -6    623.66   13.30  0. 1.0000     0. 
  -3   2   6    627.11   12.80  0. 1.0000     0. 
   3   2  -6    624.17   14.19  0. 1.0000     0. 
  -2  -2   6    238.86    7.54  0. 1.0000     0. 
   2  -2  -6    241.19    6.43  0. 1.0000     0. 
   2   2  -6    241.60    7.25  0. 1.0000     0. 
   2   2  -6    243.85    5.84  0. 1.0000     0. 
  -2   2   6    243.81    5.82  0. 1.0000     0. 
  -1  -2   6    212.66    7.20  0. 1.0000     0. 
   1  -2  -6    212.29    6.41  0. 1.0000     0. 
  -1  -2   6    216.44    4.89  0. 1.0000     0. 
   1   2  -6    214.58    7.12  0. 1.0000     0. 
   1   2  -6    213.92    5.25  0. 1.0000     0. 
  -1   2   6    214.23    5.45  0. 1.0000     0. 
   0  -2   6    754.96   14.97  0. 1.0000     0. 
   0   2  -6    771.90   20.45  0. 1.0000     0. 
   0   2   6    779.03   15.51  0. 1.0000     0. 
   0   2  -6    785.17   15.08  0. 1.0000     0. 
   1  -2   6    219.91    4.96  0. 1.0000     0. 
   1   2   6    219.40    5.97  0. 1.0000     0. 
  -1   2  -6    196.46    9.16  0. 1.0000     0. 
  -1   2  -6    210.03    5.28  0. 1.0000     0. 
   2  -2   6      9.03    1.81  0. 1.0000     0. 
  -2   2  -6     12.13    1.86  0. 1.0000     0. 
   2   2   6     11.99    3.66  0. 1.0000     0. 
   2   2   6      4.39    2.80  0. 1.0000     0. 
   5   3  -6      6.11    3.02  0. 1.0000     0. 
   4   3  -6    131.05    6.17  0. 1.0000     0. 
  -4   3   6    129.49    5.30  0. 1.0000     0. 
   2  -3  -6    123.51    5.56  0. 1.0000     0. 
  -2  -3   6    134.19    5.58  0. 1.0000     0. 
  -2   3   6    132.63    4.36  0. 1.0000     0. 
   2   3  -6    127.44    4.22  0. 1.0000     0. 
   1  -3  -6    102.95    5.36  0. 1.0000     0. 
  -1  -3   6    108.19    3.53  0. 1.0000     0. 
   1   3  -6     97.93    6.39  0. 1.0000     0. 
  -1   3   6    114.55    4.17  0. 1.0000     0. 
   1   3  -6    103.46    3.67  0. 1.0000     0. 
   0  -3   6     12.81    3.80  0. 1.0000     0. 
   0  -3  -6      5.74    3.12  0. 1.0000     0. 
   0   3   6     10.44    2.98  0. 1.0000     0. 
   0   3  -6      9.58    2.21  0. 1.0000     0. 
  -2  -3  -6     62.76    6.12  0. 1.0000     0. 
  -3  -3  -6     21.85    5.03  0. 1.0000     0. 
   5   4  -6      9.52    4.30  0. 1.0000     0. 
   4  -4  -6      2.48    4.64  0. 1.0000     0. 
  -4  -4   6      8.79    4.42  0. 1.0000     0. 
   4   4  -6      6.04    4.09  0. 1.0000     0. 
   4   4  -6      1.04    3.27  0. 1.0000     0. 
  -4   4   6      4.89    3.79  0. 1.0000     0. 
  -3  -4   6      1.78    3.59  0. 1.0000     0. 
   3  -4  -6     -0.10    3.93  0. 1.0000     0. 
   3   4  -6     -0.82    4.57  0. 1.0000     0. 
   3   4  -6      2.11    3.03  0. 1.0000     0. 
  -3   4   6     -0.46    3.60  0. 1.0000     0. 
  -3   4   6      3.54    3.12  0. 1.0000     0. 
  -2  -4   6      1.93    2.43  0. 1.0000     0. 
   2  -4  -6      2.17    3.79  0. 1.0000     0. 
   2  -4  -6     -2.41    5.33  0. 1.0000     0. 
  -2  -4   6     -1.36    3.42  0. 1.0000     0. 
   2   4  -6     -0.60    4.81  0. 1.0000     0. 
   2   4  -6      1.10    2.82  0. 1.0000     0. 
  -2   4   6     -0.09    3.03  0. 1.0000     0. 
  -2   4   6     -1.10    3.58  0. 1.0000     0. 
   1  -4  -6      7.58    3.71  0. 1.0000     0. 
  -1  -4   6      7.98    3.80  0. 1.0000     0. 
   1  -4  -6      5.99    5.62  0. 1.0000     0. 
  -1  -4   6     16.97    2.62  0. 1.0000     0. 
  -1   4   6      6.12    3.24  0. 1.0000     0. 
  -1   4   6      2.46    3.72  0. 1.0000     0. 
   1   4  -6     10.98    2.78  0. 1.0000     0. 
   1   4  -6      6.47    5.52  0. 1.0000     0. 
   0  -4   6      4.66    2.33  0. 1.0000     0. 
   0  -4   6      3.13    4.30  0. 1.0000     0. 
   0  -4  -6      0.33    3.17  0. 1.0000     0. 
   0  -4  -6      2.88    5.84  0. 1.0000     0. 
   0   4  -6      1.76    5.37  0. 1.0000     0. 
   0   4   6      1.36    4.10  0. 1.0000     0. 
   0   4  -6      2.60    2.65  0. 1.0000     0. 
   0   4   6     -1.28    3.26  0. 1.0000     0. 
   1  -4   6      2.56    4.62  0. 1.0000     0. 
   1  -4   6      5.87    2.62  0. 1.0000     0. 
  -1  -4  -6      3.71    5.68  0. 1.0000     0. 
  -1  -4  -6      3.85    3.97  0. 1.0000     0. 
   1   4   6      1.35    3.76  0. 1.0000     0. 
  -1   4  -6      3.69    5.19  0. 1.0000     0. 
   1   4   6      9.30    4.50  0. 1.0000     0. 
  -1   4  -6      2.39    2.77  0. 1.0000     0. 
   2  -4   6      8.37    2.62  0. 1.0000     0. 
  -2  -4  -6      1.23    4.13  0. 1.0000     0. 
   2  -4   6      0.57    4.89  0. 1.0000     0. 
  -2  -4  -6      3.24    5.86  0. 1.0000     0. 
  -2   4  -6      8.53    2.66  0. 1.0000     0. 
   2   4   6      0.81    3.78  0. 1.0000     0. 
   2   4   6     -3.32    5.02  0. 1.0000     0. 
  -3  -4  -6      1.31    5.80  0. 1.0000     0. 
   3   4   6     -0.98    4.06  0. 1.0000     0. 
  -3   4  -6      5.06    2.83  0. 1.0000     0. 
  -3   0   7      0.52    1.35  0. 1.0000     0. 
  -2   0   7     -0.23    1.09  0. 1.0000     0. 
   2   0  -7      0.16    1.02  0. 1.0000     0. 
  -2   0   7      0.60    0.90  0. 1.0000     0. 
  -2   0   7      1.06    1.12  0. 1.0000     0. 
   2   0  -7      0.59    1.00  0. 1.0000     0. 
   2   0  -7      0.39    0.82  0. 1.0000     0. 
   1   0  -7      0.27    0.76  0. 1.0000     0. 
  -1   0   7     -0.02    0.61  0. 1.0000     0. 
   1   0  -7     -0.40    1.16  0. 1.0000     0. 
  -1   0   7     -0.10    1.31  0. 1.0000     0. 
   1   0  -7     -0.14    0.94  0. 1.0000     0. 
  -1   0   7      0.13    1.01  0. 1.0000     0. 
  -1   0   7      0.25    1.07  0. 1.0000     0. 
   1   0  -7     -0.19    1.44  0. 1.0000     0. 
   0   0  -7      0.22    1.46  0. 1.0000     0. 
   0   0   7      0.73    1.14  0. 1.0000     0. 
   0   0  -7      0.41    1.61  0. 1.0000     0. 
   0   0   7      0.78    1.43  0. 1.0000     0. 
   0   0  -7      0.47    0.80  0. 1.0000     0. 
   0   0   7      0.10    0.75  0. 1.0000     0. 
   4   1  -7    192.11    6.17  0. 1.0000     0. 
   3  -1  -7     11.71    1.81  0. 1.0000     0. 
  -3  -1   7     11.74    1.91  0. 1.0000     0. 
  -3   1   7     12.20    1.85  0. 1.0000     0. 
  -3   1   7     12.14    1.58  0. 1.0000     0. 
   3   1  -7     12.56    1.51  0. 1.0000     0. 
   3   1  -7     13.48    1.87  0. 1.0000     0. 
  -2  -1   7    225.12    5.24  0. 1.0000     0. 
   2  -1  -7    204.88    5.95  0. 1.0000     0. 
   2  -1  -7    227.15    4.59  0. 1.0000     0. 
   2   1  -7    218.76    4.92  0. 1.0000     0. 
   2   1  -7    225.97    5.22  0. 1.0000     0. 
  -2   1   7    223.86    4.95  0. 1.0000     0. 
  -2   1   7    217.12    4.98  0. 1.0000     0. 
   1  -1  -7   1225.60   23.66  0. 1.0000     0. 
  -1  -1   7   1220.50   24.23  0. 1.0000     0. 
   1   1  -7   1181.25   23.75  0. 1.0000     0. 
  -1   1   7   1214.65   23.19  0. 1.0000     0. 
  -1   1   7   1215.95   23.13  0. 1.0000     0. 
   1   1  -7   1236.66   24.65  0. 1.0000     0. 
   0  -1  -7    106.40    4.62  0. 1.0000     0. 
   0  -1   7    106.89    2.88  0. 1.0000     0. 
   0   1  -7    113.45    3.07  0. 1.0000     0. 
   0   1   7    107.93    3.72  0. 1.0000     0. 
   0   1  -7    111.29    4.62  0. 1.0000     0. 
   0   1   7    110.97    3.54  0. 1.0000     0. 
  -1  -1  -7    905.26   20.52  0. 1.0000     0. 
   1  -1   7    918.43   17.80  0. 1.0000     0. 
   1   1   7    935.83   18.12  0. 1.0000     0. 
  -1   1  -7    926.79   17.96  0. 1.0000     0. 
  -1   1  -7    941.05   20.86  0. 1.0000     0. 
   1   1   7    922.98   18.71  0. 1.0000     0. 
   4  -2  -7     50.86    3.89  0. 1.0000     0. 
  -4  -2   7     46.21    3.67  0. 1.0000     0. 
   4   2  -7     51.15    2.99  0. 1.0000     0. 
  -3  -2   7    199.90    6.46  0. 1.0000     0. 
   3  -2  -7    198.43    6.24  0. 1.0000     0. 
   3   2  -7    189.57    5.27  0. 1.0000     0. 
  -3   2   7    202.89    5.17  0. 1.0000     0. 
   1  -2  -7    108.51    4.55  0. 1.0000     0. 
  -1  -2   7    109.72    4.99  0. 1.0000     0. 
   1   2  -7    108.42    3.41  0. 1.0000     0. 
  -1   2   7    109.11    3.73  0. 1.0000     0. 
   1   2   7     25.92    2.96  0. 1.0000     0. 
  -5  -3   7      4.44    3.28  0. 1.0000     0. 
   5   3  -7      8.23    3.18  0. 1.0000     0. 
   4   3  -7    163.61    6.44  0. 1.0000     0. 
  -4   3   7    160.87    5.96  0. 1.0000     0. 
   3   3  -7     26.49    4.24  0. 1.0000     0. 
  -3   3   7     22.78    3.49  0. 1.0000     0. 
  -2  -3   7     14.17    3.28  0. 1.0000     0. 
   2  -3  -7     11.60    3.60  0. 1.0000     0. 
   2   3  -7      3.06    2.41  0. 1.0000     0. 
  -2   3   7     10.79    2.80  0. 1.0000     0. 
  -1   3   7    409.17    9.67  0. 1.0000     0. 
   0  -3   7     10.63    3.96  0. 1.0000     0. 
   0  -3  -7     22.98    3.75  0. 1.0000     0. 
   0   3  -7     22.59    2.48  0. 1.0000     0. 
   0   3   7     27.26    3.26  0. 1.0000     0. 
   1  -3   7     28.43    2.74  0. 1.0000     0. 
  -1  -3  -7     29.45    4.97  0. 1.0000     0. 
  -1   3  -7     13.04    5.21  0. 1.0000     0. 
   1   3   7     26.45    4.00  0. 1.0000     0. 
  -2  -3  -7     35.32    5.61  0. 1.0000     0. 
   2  -3   7     17.91    2.23  0. 1.0000     0. 
   2   3   7      8.94    4.20  0. 1.0000     0. 
  -3  -3  -7     -0.47    3.91  0. 1.0000     0. 
   3   3   7     17.94    4.14  0. 1.0000     0. 
   4  -4  -7     10.05    4.49  0. 1.0000     0. 
  -4  -4   7     11.79    4.17  0. 1.0000     0. 
   4   4  -7      4.17    4.55  0. 1.0000     0. 
  -4   4   7      6.50    3.82  0. 1.0000     0. 
   4   4  -7      5.35    3.36  0. 1.0000     0. 
  -3  -4   7      1.31    2.34  0. 1.0000     0. 
   3  -4  -7      2.75    4.14  0. 1.0000     0. 
  -3  -4   7      0.57    3.67  0. 1.0000     0. 
  -3   4   7      4.78    3.28  0. 1.0000     0. 
   3   4  -7      4.32    4.50  0. 1.0000     0. 
  -3   4   7      6.02    3.57  0. 1.0000     0. 
   3   4  -7      0.26    2.96  0. 1.0000     0. 
   2  -4  -7     59.44    6.75  0. 1.0000     0. 
  -2  -4   7     64.03    5.20  0. 1.0000     0. 
  -2   4   7     52.84    4.60  0. 1.0000     0. 
   2   4  -7     60.34    6.41  0. 1.0000     0. 
  -2   4   7     58.09    4.14  0. 1.0000     0. 
  -1  -4   7     12.26    2.49  0. 1.0000     0. 
  -1  -4   7      7.32    4.24  0. 1.0000     0. 
   1  -4  -7      9.71    4.08  0. 1.0000     0. 
   1  -4  -7     14.39    5.94  0. 1.0000     0. 
   1   4  -7      9.83    2.74  0. 1.0000     0. 
   1   4  -7      1.13    5.06  0. 1.0000     0. 
  -1   4   7      2.02    3.98  0. 1.0000     0. 
  -1   4   7     15.06    3.60  0. 1.0000     0. 
   0  -4   7     20.59    4.82  0. 1.0000     0. 
   0  -4  -7     12.48    3.92  0. 1.0000     0. 
   0  -4  -7     25.12    5.63  0. 1.0000     0. 
   0  -4   7     19.39    2.67  0. 1.0000     0. 
   0   4   7     15.97    4.14  0. 1.0000     0. 
   0   4   7     22.61    3.47  0. 1.0000     0. 
   0   4  -7     16.94    5.78  0. 1.0000     0. 
   0   4  -7     21.22    2.68  0. 1.0000     0. 
   1  -4   7     22.24    2.89  0. 1.0000     0. 
  -1  -4  -7     22.76    4.38  0. 1.0000     0. 
   1  -4   7      9.08    4.96  0. 1.0000     0. 
  -1  -4  -7     30.08    6.42  0. 1.0000     0. 
   1   4   7     26.87    4.96  0. 1.0000     0. 
  -1   4  -7     20.95    3.03  0. 1.0000     0. 
  -1   4  -7     12.28    5.65  0. 1.0000     0. 
   1   4   7     27.42    4.10  0. 1.0000     0. 
   2  -4   7      0.24    4.93  0. 1.0000     0. 
  -2  -4  -7      1.26    4.19  0. 1.0000     0. 
   2  -4   7      1.52    2.69  0. 1.0000     0. 
  -2  -4  -7      5.14    5.64  0. 1.0000     0. 
   2   4   7      3.91    3.96  0. 1.0000     0. 
   2   4   7      1.60    5.10  0. 1.0000     0. 
  -2   4  -7      2.26    2.65  0. 1.0000     0. 
  -2   0   8     57.11    2.09  0. 1.0000     0. 
   2   0  -8     54.19    1.80  0. 1.0000     0. 
  -2   0   8     52.96    2.26  0. 1.0000     0. 
   2   0  -8     50.61    2.35  0. 1.0000     0. 
  -2   0   8     52.41    1.83  0. 1.0000     0. 
   2   0  -8     54.03    2.06  0. 1.0000     0. 
   1   0  -8    832.42   16.92  0. 1.0000     0. 
   1   0  -8    833.47   17.75  0. 1.0000     0. 
  -1   0   8    839.49   15.34  0. 1.0000     0. 
   1   0  -8    833.36   16.37  0. 1.0000     0. 
  -1   0   8    842.28   17.40  0. 1.0000     0. 
  -1   0   8    855.84   15.73  0. 1.0000     0. 
   1   0  -8    839.86   16.55  0. 1.0000     0. 
  -1   0   8    846.92   15.55  0. 1.0000     0. 
   0   0  -8    648.28   15.48  0. 1.0000     0. 
   0   0  -8    647.08   12.37  0. 1.0000     0. 
   0   0   8    647.79   12.41  0. 1.0000     0. 
   0   0  -8    638.74   13.58  0. 1.0000     0. 
   0   0   8    640.59   12.30  0. 1.0000     0. 
  -4  -1   8     66.87    3.42  0. 1.0000     0. 
   4   1  -8     66.59    3.31  0. 1.0000     0. 
  -4   1   8     69.44    3.17  0. 1.0000     0. 
   3  -1  -8      0.41    1.88  0. 1.0000     0. 
  -3  -1   8      0.57    1.95  0. 1.0000     0. 
  -3   1   8     -0.05    1.59  0. 1.0000     0. 
  -3   1   8      0.16    1.92  0. 1.0000     0. 
   3   1  -8      0.63    1.70  0. 1.0000     0. 
   3   1  -8      0.15    1.53  0. 1.0000     0. 
   1  -1   8   1035.69   18.82  0. 1.0000     0. 
  -1  -1  -8   1019.89   22.79  0. 1.0000     0. 
  -1   1  -8   1044.28   22.80  0. 1.0000     0. 
  -1   1  -8   1031.99   19.82  0. 1.0000     0. 
   1   1   8   1025.94   21.73  0. 1.0000     0. 
   1   1   8   1015.41   21.08  0. 1.0000     0. 
   4  -2  -8     70.40    4.19  0. 1.0000     0. 
  -4  -2   8     65.96    3.90  0. 1.0000     0. 
   4   2  -8     70.04    3.99  0. 1.0000     0. 
   4   2  -8     67.21    3.37  0. 1.0000     0. 
  -4   2   8     67.80    3.94  0. 1.0000     0. 
   3  -2  -8      1.08    2.28  0. 1.0000     0. 
  -3  -2   8      0.30    2.58  0. 1.0000     0. 
  -3   2   8      3.00    2.29  0. 1.0000     0. 
   3   2  -8      0.84    1.92  0. 1.0000     0. 
  -3   2   8      2.46    2.05  0. 1.0000     0. 
   3   2  -8     -2.26    2.46  0. 1.0000     0. 
   2  -2  -8    134.60    4.83  0. 1.0000     0. 
  -2  -2   8    138.93    5.45  0. 1.0000     0. 
  -2   2   8    124.13    4.76  0. 1.0000     0. 
   2   2  -8    135.02    5.98  0. 1.0000     0. 
  -2   2   8    139.53    4.18  0. 1.0000     0. 
   2   2  -8    136.46    4.01  0. 1.0000     0. 
  -1  -2   8     25.77    3.68  0. 1.0000     0. 
  -1  -2   8     27.38    2.03  0. 1.0000     0. 
   1  -2  -8     28.41    4.17  0. 1.0000     0. 
   1  -2  -8     31.92    2.95  0. 1.0000     0. 
  -1   2   8     29.14    2.53  0. 1.0000     0. 
  -1   2   8     30.19    2.88  0. 1.0000     0. 
   1   2  -8     33.76    3.99  0. 1.0000     0. 
   1   2  -8     30.48    2.18  0. 1.0000     0. 
   0  -2  -8    104.23    5.88  0. 1.0000     0. 
   0  -2   8    102.67    3.35  0. 1.0000     0. 
   0   2  -8    102.18    3.28  0. 1.0000     0. 
   0   2   8    106.30    4.14  0. 1.0000     0. 
   0   2  -8     97.27    5.83  0. 1.0000     0. 
   0   2   8    102.32    4.11  0. 1.0000     0. 
   1  -2   8    156.59    4.23  0. 1.0000     0. 
  -1  -2  -8    157.04    6.83  0. 1.0000     0. 
  -1   2  -8    154.89    4.33  0. 1.0000     0. 
   1   2   8    150.50    5.97  0. 1.0000     0. 
  -2  -2  -8     82.56    6.13  0. 1.0000     0. 
  -5  -3   8     51.82    4.25  0. 1.0000     0. 
   5   3  -8     52.12    4.33  0. 1.0000     0. 
  -4  -3   8    156.52    6.44  0. 1.0000     0. 
   4  -3  -8    162.15    6.94  0. 1.0000     0. 
   4   3  -8    151.99    5.26  0. 1.0000     0. 
  -4   3   8    155.43    5.74  0. 1.0000     0. 
   4   3  -8    162.57    7.08  0. 1.0000     0. 
  -4   3   8    159.24    5.29  0. 1.0000     0. 
  -3   3   8     11.18    3.35  0. 1.0000     0. 
   3   3  -8     17.51    3.87  0. 1.0000     0. 
  -2  -3   8     -0.07    1.93  0. 1.0000     0. 
  -2   3   8      4.88    3.28  0. 1.0000     0. 
   2   3  -8     -1.89    3.73  0. 1.0000     0. 
  -1  -3   8    162.50    4.57  0. 1.0000     0. 
   1  -3  -8    157.15    7.72  0. 1.0000     0. 
  -1   3   8    157.54    5.95  0. 1.0000     0. 
   0  -3   8      3.78    2.09  0. 1.0000     0. 
   0  -3  -8      3.13    4.77  0. 1.0000     0. 
   0   3   8      4.43    3.48  0. 1.0000     0. 
   0   3  -8     -2.81    4.36  0. 1.0000     0. 
   1  -3   8     39.66    2.65  0. 1.0000     0. 
  -1  -3  -8     41.69    5.27  0. 1.0000     0. 
  -1  -3  -8     37.16    4.28  0. 1.0000     0. 
  -1   3  -8     29.48    5.69  0. 1.0000     0. 
   1   3   8     41.04    3.85  0. 1.0000     0. 
  -1   3  -8     37.51    2.84  0. 1.0000     0. 
   1   3   8     20.01    4.19  0. 1.0000     0. 
   2  -3   8    120.24    3.95  0. 1.0000     0. 
  -3  -3  -8     -0.48    3.27  0. 1.0000     0. 
   3   3   8     -0.39    3.80  0. 1.0000     0. 
   3  -4  -8      0.71    4.07  0. 1.0000     0. 
  -3  -4   8      1.30    3.65  0. 1.0000     0. 
  -3  -4   8      2.34    2.52  0. 1.0000     0. 
   3   4  -8      1.54    4.71  0. 1.0000     0. 
  -3   4   8      5.34    3.98  0. 1.0000     0. 
   3   4  -8      6.86    2.96  0. 1.0000     0. 
  -3   4   8      2.37    3.54  0. 1.0000     0. 
  -2  -4   8      3.09    3.83  0. 1.0000     0. 
   2  -4  -8      5.53    5.71  0. 1.0000     0. 
  -2  -4   8      0.26    2.45  0. 1.0000     0. 
   2  -4  -8     -1.74    3.67  0. 1.0000     0. 
   2   4  -8      3.45    2.76  0. 1.0000     0. 
   2   4  -8     -0.78    5.00  0. 1.0000     0. 
  -2   4   8     -0.69    3.41  0. 1.0000     0. 
  -2   4   8      5.90    3.32  0. 1.0000     0. 
  -1  -4   8      1.58    4.07  0. 1.0000     0. 
  -1  -4   8      0.28    2.60  0. 1.0000     0. 
   1  -4  -8     -1.70    6.14  0. 1.0000     0. 
   1  -4  -8      4.62    3.74  0. 1.0000     0. 
  -1   4   8      0.10    4.02  0. 1.0000     0. 
  -1   4   8      5.37    3.24  0. 1.0000     0. 
   1   4  -8     -2.08    4.91  0. 1.0000     0. 
   1   4  -8     -0.08    2.82  0. 1.0000     0. 
   0  -4   8      9.00    2.74  0. 1.0000     0. 
   0  -4   8      7.41    4.49  0. 1.0000     0. 
   0  -4  -8     17.62    5.29  0. 1.0000     0. 
   0  -4  -8     11.66    3.75  0. 1.0000     0. 
   0   4   8     14.99    4.21  0. 1.0000     0. 
   0   4   8     11.31    3.31  0. 1.0000     0. 
   0   4  -8      7.90    2.57  0. 1.0000     0. 
   0   4  -8      4.42    5.43  0. 1.0000     0. 
   1  -4   8     -5.43    4.88  0. 1.0000     0. 
  -1  -4  -8     -2.39    5.80  0. 1.0000     0. 
   1  -4   8     -1.94    2.62  0. 1.0000     0. 
  -1  -4  -8      2.82    4.18  0. 1.0000     0. 
   1   4   8     -4.27    4.00  0. 1.0000     0. 
   1   4   8     -2.03    4.83  0. 1.0000     0. 
  -1   4  -8     -4.52    2.96  0. 1.0000     0. 
  -1   4  -8     -2.89    5.31  0. 1.0000     0. 
   4   0  -9      0.05    1.65  0. 1.0000     0. 
   4  -1  -9     53.99    3.49  0. 1.0000     0. 
  -4  -1   9     44.81    3.17  0. 1.0000     0. 
  -4   1   9     46.22    3.03  0. 1.0000     0. 
   4   1  -9     45.28    3.23  0. 1.0000     0. 
  -3  -1   9     44.60    2.94  0. 1.0000     0. 
   3  -1  -9     45.05    2.92  0. 1.0000     0. 
   3   1  -9     49.96    2.95  0. 1.0000     0. 
  -3   1   9     44.54    2.48  0. 1.0000     0. 
   3   1  -9     47.04    2.30  0. 1.0000     0. 
  -3   1   9     46.65    2.86  0. 1.0000     0. 
  -2  -1   9     38.99    2.88  0. 1.0000     0. 
   2  -1  -9     40.79    2.60  0. 1.0000     0. 
   2   1  -9     44.79    2.99  0. 1.0000     0. 
  -2   1   9     41.46    2.67  0. 1.0000     0. 
  -2   1   9     38.88    2.32  0. 1.0000     0. 
   2   1  -9     40.27    2.02  0. 1.0000     0. 
   1  -1  -9    308.55    8.17  0. 1.0000     0. 
   1  -1  -9    314.79    7.89  0. 1.0000     0. 
  -1  -1   9    303.22    6.47  0. 1.0000     0. 
  -1  -1   9    295.97    8.47  0. 1.0000     0. 
  -1   1   9    303.12    7.03  0. 1.0000     0. 
   1   1  -9    308.44    6.69  0. 1.0000     0. 
  -1   1   9    300.65    7.18  0. 1.0000     0. 
   1   1  -9    312.58    8.63  0. 1.0000     0. 
   0  -1   9     15.60    1.38  0. 1.0000     0. 
   0  -1  -9     14.82    2.91  0. 1.0000     0. 
   0   1  -9     12.31    2.89  0. 1.0000     0. 
   0   1   9     17.85    2.40  0. 1.0000     0. 
   0   1  -9     18.28    1.65  0. 1.0000     0. 
   0   1   9     18.48    2.32  0. 1.0000     0. 
  -1  -1  -9      7.94    3.04  0. 1.0000     0. 
   1  -1   9      9.92    1.50  0. 1.0000     0. 
  -1   1  -9      5.88    1.55  0. 1.0000     0. 
   1   1   9      6.24    3.13  0. 1.0000     0. 
   1   1   9      7.33    2.33  0. 1.0000     0. 
  -5  -2   9      0.73    2.72  0. 1.0000     0. 
   5   2  -9      2.44    2.92  0. 1.0000     0. 
   4  -2  -9    416.24   11.70  0. 1.0000     0. 
  -4  -2   9    432.49   11.05  0. 1.0000     0. 
   4   2  -9    428.03    9.79  0. 1.0000     0. 
   4   2  -9    435.14   10.77  0. 1.0000     0. 
  -4   2   9    424.61   10.37  0. 1.0000     0. 
  -4   2   9    429.04    9.56  0. 1.0000     0. 
  -3  -2   9     40.34    3.35  0. 1.0000     0. 
   3  -2  -9     38.67    3.50  0. 1.0000     0. 
  -3   2   9     42.94    2.76  0. 1.0000     0. 
  -3   2   9     43.36    3.36  0. 1.0000     0. 
   3   2  -9     34.84    2.71  0. 1.0000     0. 
   3   2  -9     36.90    3.68  0. 1.0000     0. 
  -2  -2   9     71.88    4.40  0. 1.0000     0. 
   2  -2  -9     72.05    3.84  0. 1.0000     0. 
  -2   2   9     71.58    3.69  0. 1.0000     0. 
   2   2  -9     68.80    4.88  0. 1.0000     0. 
   2   2  -9     74.59    2.96  0. 1.0000     0. 
  -2   2   9     73.70    3.38  0. 1.0000     0. 
   1  -2  -9      3.87    2.67  0. 1.0000     0. 
   1  -2  -9      1.14    3.68  0. 1.0000     0. 
  -1  -2   9      1.38    1.55  0. 1.0000     0. 
  -1  -2   9     -1.57    3.19  0. 1.0000     0. 
  -1   2   9     -2.94    2.47  0. 1.0000     0. 
  -1   2   9     -0.07    2.42  0. 1.0000     0. 
   1   2  -9      2.92    3.36  0. 1.0000     0. 
   1   2  -9      3.59    1.82  0. 1.0000     0. 
   0  -2  -9     -1.97    2.85  0. 1.0000     0. 
   0  -2   9      0.25    1.66  0. 1.0000     0. 
   0  -2  -9     -0.95    3.70  0. 1.0000     0. 
   0   2  -9      1.54    1.76  0. 1.0000     0. 
   0   2   9     -2.37    2.67  0. 1.0000     0. 
   0   2   9      1.42    2.76  0. 1.0000     0. 
   0   2  -9      3.64    3.52  0. 1.0000     0. 
  -1  -2  -9     81.98    5.52  0. 1.0000     0. 
   1  -2   9     76.88    3.02  0. 1.0000     0. 
   1   2   9     78.31    4.80  0. 1.0000     0. 
  -1   2  -9     59.65    5.91  0. 1.0000     0. 
  -1   2  -9     77.93    3.08  0. 1.0000     0. 
  -2  -2  -9     -2.61    4.93  0. 1.0000     0. 
   2  -2   9      3.03    1.94  0. 1.0000     0. 
  -2   2  -9      2.67    2.02  0. 1.0000     0. 
   2   2   9      6.46    3.27  0. 1.0000     0. 
   5  -3  -9     -1.82    3.84  0. 1.0000     0. 
  -5  -3   9     -0.68    3.37  0. 1.0000     0. 
   5   3  -9     -3.07    3.43  0. 1.0000     0. 
  -5   3   9      2.17    3.37  0. 1.0000     0. 
  -4  -3   9    164.18    6.56  0. 1.0000     0. 
   4  -3  -9    162.80    6.92  0. 1.0000     0. 
  -4   3   9    157.56    5.49  0. 1.0000     0. 
   4   3  -9    162.47    6.85  0. 1.0000     0. 
   4   3  -9    151.57    5.17  0. 1.0000     0. 
  -4   3   9    153.31    6.09  0. 1.0000     0. 
   3  -3  -9      7.75    3.40  0. 1.0000     0. 
  -3  -3   9      7.11    3.35  0. 1.0000     0. 
  -3   3   9      8.41    2.78  0. 1.0000     0. 
   3   3  -9     10.62    4.04  0. 1.0000     0. 
  -3   3   9     12.22    3.50  0. 1.0000     0. 
   3   3  -9     11.97    2.68  0. 1.0000     0. 
  -2  -3   9    268.84    8.66  0. 1.0000     0. 
  -2  -3   9    266.70    6.67  0. 1.0000     0. 
   2  -3  -9    273.68    8.24  0. 1.0000     0. 
   2   3  -9    265.43    6.93  0. 1.0000     0. 
  -2   3   9    265.26    7.79  0. 1.0000     0. 
   2   3  -9    251.21   10.25  0. 1.0000     0. 
  -2   3   9    271.78    7.18  0. 1.0000     0. 
   1  -3  -9     14.07    3.36  0. 1.0000     0. 
   1  -3  -9      7.88    4.94  0. 1.0000     0. 
  -1  -3   9      8.54    3.96  0. 1.0000     0. 
  -1  -3   9     14.15    2.36  0. 1.0000     0. 
   1   3  -9     16.63    2.41  0. 1.0000     0. 
  -1   3   9     13.92    3.74  0. 1.0000     0. 
   1   3  -9     11.47    4.91  0. 1.0000     0. 
  -1   3   9     16.46    2.79  0. 1.0000     0. 
   0  -3   9     -0.45    2.03  0. 1.0000     0. 
   0  -3  -9      0.43    3.32  0. 1.0000     0. 
   0  -3   9      1.93    3.91  0. 1.0000     0. 
   0  -3  -9      1.67    4.75  0. 1.0000     0. 
   0   3  -9      2.14    2.22  0. 1.0000     0. 
   0   3  -9      1.10    4.43  0. 1.0000     0. 
   0   3   9     -2.70    3.26  0. 1.0000     0. 
   0   3   9      2.61    3.73  0. 1.0000     0. 
   1  -3   9    117.45    4.22  0. 1.0000     0. 
  -1  -3  -9    128.29    7.65  0. 1.0000     0. 
  -1   3  -9    121.09    4.26  0. 1.0000     0. 
  -2  -3  -9     -0.14    4.94  0. 1.0000     0. 
   2  -3   9      0.09    2.29  0. 1.0000     0. 
  -2   3  -9     -0.66    2.62  0. 1.0000     0. 
   2   3   9      2.06    3.54  0. 1.0000     0. 
   2   3   9      2.36    4.96  0. 1.0000     0. 
   1   4  -9     24.85    6.23  0. 1.0000     0. 
  -4   0  10      1.87    2.03  0. 1.0000     0. 
   4   0 -10      0.43    1.67  0. 1.0000     0. 
   3   0 -10   3065.44   57.45  0. 1.0000     0. 
   2   0 -10      2.29    1.75  0. 1.0000     0. 
   2   0 -10      1.45    1.47  0. 1.0000     0. 
  -2   0  10      1.83    1.32  0. 1.0000     0. 
  -1   0  10    462.06    9.49  0. 1.0000     0. 
  -1   0  10    464.09    9.18  0. 1.0000     0. 
   1   0 -10    470.00   10.91  0. 1.0000     0. 
   1   0 -10    460.72    9.84  0. 1.0000     0. 
   0   0  10   2581.12   45.72  0. 1.0000     0. 
   0   0 -10   2527.75   54.48  0. 1.0000     0. 
   1   0  10   1291.56   23.59  0. 1.0000     0. 
  -1   0 -10   1234.52   24.53  0. 1.0000     0. 
  -4  -1  10   1032.45   21.09  0. 1.0000     0. 
   4  -1 -10    977.56   22.92  0. 1.0000     0. 
   4   1 -10   1015.68   20.46  0. 1.0000     0. 
   4   1 -10   1014.56   20.37  0. 1.0000     0. 
  -4   1  10   1026.83   20.80  0. 1.0000     0. 
   3  -1 -10      4.55    2.00  0. 1.0000     0. 
   3   1 -10      3.12    2.12  0. 1.0000     0. 
  -3   1  10      3.53    2.17  0. 1.0000     0. 
  -2  -1  10     59.90    3.70  0. 1.0000     0. 
   2  -1 -10     59.76    3.26  0. 1.0000     0. 
  -2   1  10     63.90    2.84  0. 1.0000     0. 
  -2   1  10     61.74    3.17  0. 1.0000     0. 
   2   1 -10     61.63    3.80  0. 1.0000     0. 
   2   1 -10     58.39    2.51  0. 1.0000     0. 
   1  -1 -10    101.59    4.44  0. 1.0000     0. 
  -1  -1  10    112.58    4.70  0. 1.0000     0. 
   1  -1 -10    103.89    5.13  0. 1.0000     0. 
  -1  -1  10    105.07    2.97  0. 1.0000     0. 
   1   1 -10    105.25    3.23  0. 1.0000     0. 
  -1   1  10    109.13    3.74  0. 1.0000     0. 
  -1   1  10    102.17    4.33  0. 1.0000     0. 
   1   1 -10    111.42    5.31  0. 1.0000     0. 
   1  -1  10    814.47   15.47  0. 1.0000     0. 
  -1  -1 -10    809.18   18.84  0. 1.0000     0. 
   1   1  10    810.89   16.51  0. 1.0000     0. 
  -1   1 -10    810.64   16.72  0. 1.0000     0. 
   2   1  10    182.69    5.84  0. 1.0000     0. 
  -5  -2  10     74.39    4.29  0. 1.0000     0. 
   5  -2 -10     66.86    5.37  0. 1.0000     0. 
   4  -2 -10    691.09   15.47  0. 1.0000     0. 
  -4  -2  10    660.66   15.83  0. 1.0000     0. 
  -4   2  10    661.16   15.62  0. 1.0000     0. 
   4   2 -10    679.22   16.06  0. 1.0000     0. 
   4   2 -10    681.59   14.02  0. 1.0000     0. 
  -4   2  10    682.30   14.18  0. 1.0000     0. 
  -3  -2  10      6.50    2.83  0. 1.0000     0. 
   3  -2 -10     10.49    2.92  0. 1.0000     0. 
   3   2 -10     10.25    3.25  0. 1.0000     0. 
  -3   2  10     11.96    2.52  0. 1.0000     0. 
  -3   2  10     10.79    2.95  0. 1.0000     0. 
   3   2 -10      7.30    2.28  0. 1.0000     0. 
   2  -2 -10    137.27    5.29  0. 1.0000     0. 
  -2  -2  10    126.37    5.85  0. 1.0000     0. 
  -2  -2  10    134.34    3.91  0. 1.0000     0. 
  -2   2  10    128.77    4.56  0. 1.0000     0. 
   2   2 -10    137.53    4.11  0. 1.0000     0. 
   2   2 -10    131.33    6.37  0. 1.0000     0. 
  -2   2  10    138.60    5.13  0. 1.0000     0. 
  -1  -2  10    556.98   11.28  0. 1.0000     0. 
   1  -2 -10    565.34   13.64  0. 1.0000     0. 
   1  -2 -10    553.98   14.06  0. 1.0000     0. 
  -1  -2  10    529.11   14.81  0. 1.0000     0. 
   1   2 -10    535.23   15.42  0. 1.0000     0. 
  -1   2  10    561.21   12.30  0. 1.0000     0. 
  -1   2  10    562.62   11.89  0. 1.0000     0. 
   1   2 -10    556.36   11.46  0. 1.0000     0. 
   0  -2 -10     -0.08    2.99  0. 1.0000     0. 
   0  -2  10     -0.08    3.49  0. 1.0000     0. 
   0  -2  10     -2.17    1.70  0. 1.0000     0. 
   0  -2 -10     -0.09    3.65  0. 1.0000     0. 
   0   2 -10      0.40    1.79  0. 1.0000     0. 
   0   2  10      1.01    2.91  0. 1.0000     0. 
   0   2  10     -0.43    2.77  0. 1.0000     0. 
   0   2 -10      3.04    3.86  0. 1.0000     0. 
  -1  -2 -10     23.87    4.66  0. 1.0000     0. 
   1   2  10     18.56    3.87  0. 1.0000     0. 
   1   2  10     15.97    3.49  0. 1.0000     0. 
  -2   2 -10     11.47    2.41  0. 1.0000     0. 
   4  -3 -10      2.92    3.60  0. 1.0000     0. 
  -4  -3  10      8.31    3.45  0. 1.0000     0. 
   4   3 -10     -0.63    2.60  0. 1.0000     0. 
   4   3 -10      0.80    3.71  0. 1.0000     0. 
  -4   3  10      5.31    2.91  0. 1.0000     0. 
  -3  -3  10     30.03    3.84  0. 1.0000     0. 
   3  -3 -10     24.71    4.12  0. 1.0000     0. 
  -3   3  10     19.55    3.12  0. 1.0000     0. 
   3   3 -10     30.07    3.10  0. 1.0000     0. 
   3   3 -10     31.34    4.97  0. 1.0000     0. 
   2  -3 -10    143.27    6.55  0. 1.0000     0. 
  -2  -3  10    152.94    6.44  0. 1.0000     0. 
   2   3 -10    145.90    4.84  0. 1.0000     0. 
  -2   3  10    150.48    5.41  0. 1.0000     0. 
   1  -3 -10    170.68    6.66  0. 1.0000     0. 
  -1  -3  10    145.87    7.41  0. 1.0000     0. 
  -1   3  10    176.92    5.32  0. 1.0000     0. 
   1   3 -10    172.15    4.87  0. 1.0000     0. 
   0   3  10     90.69    4.71  0. 1.0000     0. 
   0   3 -10     90.22    3.78  0. 1.0000     0. 
  -1  -3 -10     -4.35    3.68  0. 1.0000     0. 
  -1   3 -10      3.27    2.30  0. 1.0000     0. 
   1   3  10      3.14    3.50  0. 1.0000     0. 
   3   3  10     -0.25    3.74  0. 1.0000     0. 
  -4   0  11     -1.10    2.35  0. 1.0000     0. 
   4   0 -11      0.39    1.90  0. 1.0000     0. 
   2   0 -11      1.05    2.55  0. 1.0000     0. 
  -2   0  11     -1.17    1.88  0. 1.0000     0. 
   2   0 -11      0.21    1.99  0. 1.0000     0. 
  -2   0  11     -0.43    1.17  0. 1.0000     0. 
  -1   0  11     -1.04    1.13  0. 1.0000     0. 
   1   0 -11     -0.81    2.48  0. 1.0000     0. 
   1   0 -11     -0.48    2.39  0. 1.0000     0. 
  -1   0  11      0.65    2.16  0. 1.0000     0. 
   1   0  11      0.42    2.44  0. 1.0000     0. 
  -1   0 -11      0.35    1.39  0. 1.0000     0. 
  -5   1  11    847.56   18.27  0. 1.0000     0. 
   5   1 -11    844.92   18.06  0. 1.0000     0. 
  -4  -1  11      2.45    2.71  0. 1.0000     0. 
   4  -1 -11      3.27    2.51  0. 1.0000     0. 
   4   1 -11      2.84    2.43  0. 1.0000     0. 
  -4   1  11      3.24    2.46  0. 1.0000     0. 
   4   1 -11      3.10    2.10  0. 1.0000     0. 
   3  -1 -11    143.23    5.05  0. 1.0000     0. 
  -3  -1  11    141.80    5.36  0. 1.0000     0. 
   3   1 -11    144.14    4.08  0. 1.0000     0. 
   3   1 -11    140.08    5.24  0. 1.0000     0. 
  -3   1  11    142.42    4.19  0. 1.0000     0. 
  -3   1  11    142.08    4.98  0. 1.0000     0. 
  -2  -1  11   1048.18   20.14  0. 1.0000     0. 
   2  -1 -11   1062.22   20.56  0. 1.0000     0. 
  -2  -1  11   1068.07   21.81  0. 1.0000     0. 
  -2   1  11   1041.72   22.93  0. 1.0000     0. 
   2   1 -11   1075.18   21.82  0. 1.0000     0. 
   2   1 -11   1013.38   20.83  0. 1.0000     0. 
  -2   1  11   1067.88   20.16  0. 1.0000     0. 
   1  -1 -11    218.29    7.52  0. 1.0000     0. 
   1  -1 -11    216.53    6.64  0. 1.0000     0. 
  -1  -1  11    216.74    6.95  0. 1.0000     0. 
  -1  -1  11    212.46    4.99  0. 1.0000     0. 
  -1   1  11    218.16    6.16  0. 1.0000     0. 
   1   1 -11    215.99    5.24  0. 1.0000     0. 
   1   1 -11    201.97    8.32  0. 1.0000     0. 
  -1   1  11    214.89    5.76  0. 1.0000     0. 
   0  -1  11     41.82    2.14  0. 1.0000     0. 
   0  -1 -11     41.65    4.30  0. 1.0000     0. 
   0   1  11     42.46    3.24  0. 1.0000     0. 
   0   1 -11     50.56    4.75  0. 1.0000     0. 
   0   1  11     41.52    3.74  0. 1.0000     0. 
   0   1 -11     43.15    2.21  0. 1.0000     0. 
   1  -1  11    397.87    8.63  0. 1.0000     0. 
  -1  -1 -11    403.06   11.76  0. 1.0000     0. 
   1   1  11    394.11    9.65  0. 1.0000     0. 
  -1   1 -11    392.98    8.86  0. 1.0000     0. 
   2   1  11    253.35    7.21  0. 1.0000     0. 
  -5  -2  11     46.30    4.04  0. 1.0000     0. 
   5  -2 -11     36.71    4.39  0. 1.0000     0. 
  -3  -2  11    222.73    7.64  0. 1.0000     0. 
   3  -2 -11    221.96    7.15  0. 1.0000     0. 
   3   2 -11    223.65    5.93  0. 1.0000     0. 
  -3   2  11    222.93    6.80  0. 1.0000     0. 
   3   2 -11    229.87    7.89  0. 1.0000     0. 
  -3   2  11    231.50    6.11  0. 1.0000     0. 
  -2  -2  11     18.81    3.68  0. 1.0000     0. 
  -2  -2  11     13.65    2.08  0. 1.0000     0. 
   2  -2 -11     11.06    3.02  0. 1.0000     0. 
  -2   2  11     13.81    2.95  0. 1.0000     0. 
   2   2 -11     13.49    2.23  0. 1.0000     0. 
   2   2 -11     19.81    3.85  0. 1.0000     0. 
  -2   2  11     15.61    2.82  0. 1.0000     0. 
  -1  -2  11    756.99   14.81  0. 1.0000     0. 
  -1  -2  11    754.16   18.41  0. 1.0000     0. 
   1  -2 -11    751.25   17.04  0. 1.0000     0. 
   1  -2 -11    679.20   18.80  0. 1.0000     0. 
  -1   2  11    744.89   16.66  0. 1.0000     0. 
   1   2 -11    763.92   14.98  0. 1.0000     0. 
  -1   2  11    749.72   15.41  0. 1.0000     0. 
   1   2 -11    793.61   19.06  0. 1.0000     0. 
   0  -2 -11    131.37    6.51  0. 1.0000     0. 
   0  -2  11    131.60    3.84  0. 1.0000     0. 
   0  -2  11    133.32    6.46  0. 1.0000     0. 
   0  -2 -11    112.92    6.02  0. 1.0000     0. 
   0   2 -11    132.32    3.94  0. 1.0000     0. 
   0   2  11    126.14    5.60  0. 1.0000     0. 
   0   2 -11    125.97    7.35  0. 1.0000     0. 
   0   2  11    136.22    5.11  0. 1.0000     0. 
  -2  -2 -11    254.63   11.50  0. 1.0000     0. 
  -5  -3  11    159.23    7.23  0. 1.0000     0. 
   5   3 -11    153.50    5.79  0. 1.0000     0. 
  -5   3  11    158.22    6.16  0. 1.0000     0. 
   3  -3 -11      2.36    3.38  0. 1.0000     0. 
  -3  -3  11      8.48    2.35  0. 1.0000     0. 
  -3  -3  11      4.80    3.63  0. 1.0000     0. 
  -3   3  11      3.61    3.14  0. 1.0000     0. 
  -3   3  11      3.62    3.49  0. 1.0000     0. 
   3   3 -11      8.87    2.88  0. 1.0000     0. 
   2  -3 -11    102.59    7.02  0. 1.0000     0. 
   2  -3 -11    105.53    5.70  0. 1.0000     0. 
  -2  -3  11    105.09    3.84  0. 1.0000     0. 
  -2  -3  11     91.13    5.76  0. 1.0000     0. 
   2   3 -11    103.59    3.96  0. 1.0000     0. 
  -2   3  11    106.34    4.95  0. 1.0000     0. 
  -2   3  11    103.81    4.55  0. 1.0000     0. 
   1  -3 -11     12.58    5.50  0. 1.0000     0. 
  -1  -3  11      7.01    4.08  0. 1.0000     0. 
   1  -3 -11      9.84    3.61  0. 1.0000     0. 
  -1  -3  11      5.79    2.33  0. 1.0000     0. 
   1   3 -11      4.61    2.34  0. 1.0000     0. 
  -1   3  11      6.16    3.79  0. 1.0000     0. 
  -1   3  11     10.99    3.00  0. 1.0000     0. 
   1  -3  11      9.81    4.95  0. 1.0000     0. 
  -1  -3 -11     17.87    5.68  0. 1.0000     0. 
   1  -3  11     17.69    2.58  0. 1.0000     0. 
  -1  -3 -11     15.73    4.32  0. 1.0000     0. 
   1   3  11     17.98    3.77  0. 1.0000     0. 
   1   3  11     12.46    4.67  0. 1.0000     0. 
  -1   3 -11     13.79    2.60  0. 1.0000     0. 
   2  -3  11      5.51    2.65  0. 1.0000     0. 
  -2  -3 -11     16.59    6.79  0. 1.0000     0. 
  -2   3 -11      7.76    2.68  0. 1.0000     0. 
   2   3  11      5.60    4.18  0. 1.0000     0. 
   5   0 -12    450.62   10.72  0. 1.0000     0. 
   4   0 -12   1512.74   29.85  0. 1.0000     0. 
   3   0 -12    233.81    5.33  0. 1.0000     0. 
   3   0 -12    218.83    6.74  0. 1.0000     0. 
   2   0 -12    577.88   12.61  0. 1.0000     0. 
   2   0 -12    574.23   11.82  0. 1.0000     0. 
   1   0 -12      8.62    2.99  0. 1.0000     0. 
   1   0 -12      8.53    1.51  0. 1.0000     0. 
   0   0 -12    780.86   15.39  0. 1.0000     0. 
  -5   1  12     38.46    3.53  0. 1.0000     0. 
   5   1 -12     41.80    3.51  0. 1.0000     0. 
  -4  -1  12    107.73    5.00  0. 1.0000     0. 
   4  -1 -12    107.72    4.97  0. 1.0000     0. 
  -4   1  12    111.16    4.43  0. 1.0000     0. 
   4   1 -12    108.50    4.92  0. 1.0000     0. 
   4   1 -12    111.73    4.14  0. 1.0000     0. 
  -3  -1  12   1196.38   25.52  0. 1.0000     0. 
   3  -1 -12   1199.66   25.34  0. 1.0000     0. 
  -3   1  12   1186.48   23.21  0. 1.0000     0. 
   3   1 -12   1206.01   23.37  0. 1.0000     0. 
  -3   1  12   1207.42   24.07  0. 1.0000     0. 
   3   1 -12   1226.52   23.97  0. 1.0000     0. 
  -2  -1  12    538.72   10.49  0. 1.0000     0. 
  -2  -1  12    533.23   12.97  0. 1.0000     0. 
   2  -1 -12    492.10   12.81  0. 1.0000     0. 
   2  -1 -12    529.99   12.82  0. 1.0000     0. 
   2   1 -12    508.95   11.08  0. 1.0000     0. 
  -2   1  12    530.96   11.73  0. 1.0000     0. 
   2   1 -12    531.98   13.39  0. 1.0000     0. 
  -2   1  12    530.38   10.96  0. 1.0000     0. 
   1  -1 -12     27.31    4.01  0. 1.0000     0. 
  -1  -1  12     31.85    3.70  0. 1.0000     0. 
  -1  -1  12     32.84    2.09  0. 1.0000     0. 
   1  -1 -12     28.18    3.14  0. 1.0000     0. 
  -1   1  12     25.98    2.89  0. 1.0000     0. 
   1   1 -12     34.97    3.92  0. 1.0000     0. 
   1   1 -12     26.37    2.02  0. 1.0000     0. 
  -1   1  12     24.95    3.19  0. 1.0000     0. 
   0  -1  12    179.96    4.52  0. 1.0000     0. 
   0  -1 -12    169.73    7.56  0. 1.0000     0. 
   0   1 -12    183.69    7.59  0. 1.0000     0. 
   0   1 -12    177.75    4.71  0. 1.0000     0. 
   0   1  12    177.84    6.38  0. 1.0000     0. 
   0   1  12    175.47    5.66  0. 1.0000     0. 
   1  -1  12     13.09    1.99  0. 1.0000     0. 
  -1  -1 -12     10.95    4.95  0. 1.0000     0. 
  -1   1 -12      9.59    2.06  0. 1.0000     0. 
   1   1  12     12.33    3.12  0. 1.0000     0. 
   2   1  12    328.10    8.59  0. 1.0000     0. 
   6   2 -12      0.35    2.87  0. 1.0000     0. 
   5   2 -12     14.83    3.63  0. 1.0000     0. 
  -5   2  12     19.73    3.57  0. 1.0000     0. 
   4  -2 -12     17.14    3.69  0. 1.0000     0. 
   4   2 -12     22.66    3.68  0. 1.0000     0. 
  -4   2  12     21.55    2.94  0. 1.0000     0. 
   3  -2 -12    334.42    9.09  0. 1.0000     0. 
  -3  -2  12    338.60   10.05  0. 1.0000     0. 
  -3   2  12    355.27    8.11  0. 1.0000     0. 
   3   2 -12    343.07    8.20  0. 1.0000     0. 
   2  -2 -12    109.59    5.15  0. 1.0000     0. 
  -2  -2  12     93.91    5.74  0. 1.0000     0. 
   2   2 -12     99.69    3.79  0. 1.0000     0. 
  -2   2  12     95.72    4.31  0. 1.0000     0. 
  -1  -2  12    336.63   10.56  0. 1.0000     0. 
   1  -2 -12    354.80    9.99  0. 1.0000     0. 
  -1   2  12    328.02    8.58  0. 1.0000     0. 
   1   2 -12    336.42    7.99  0. 1.0000     0. 
   0  -2 -12      0.08    3.30  0. 1.0000     0. 
   0  -2  12      2.69    3.86  0. 1.0000     0. 
   0   2 -12      3.11    2.18  0. 1.0000     0. 
   0   2  12      3.77    3.02  0. 1.0000     0. 
   1  -2  12    413.00    8.81  0. 1.0000     0. 
   1   2  12    405.83   11.55  0. 1.0000     0. 
  -2  -2 -12      9.95    4.02  0. 1.0000     0. 
  -2   2 -12     16.56    2.43  0. 1.0000     0. 
  -6  -3  12      0.09    3.56  0. 1.0000     0. 
   6   3 -12     -0.10    3.46  0. 1.0000     0. 
   5  -3 -12     17.11    4.42  0. 1.0000     0. 
  -5  -3  12     11.65    4.12  0. 1.0000     0. 
   5   3 -12     18.14    4.24  0. 1.0000     0. 
  -5   3  12     14.41    3.79  0. 1.0000     0. 
   5   3 -12     10.52    3.19  0. 1.0000     0. 
   4  -3 -12      2.19    3.91  0. 1.0000     0. 
  -4  -3  12      1.41    3.69  0. 1.0000     0. 
  -4   3  12      5.21    3.17  0. 1.0000     0. 
   4   3 -12      4.06    2.92  0. 1.0000     0. 
  -4   3  12      5.98    3.91  0. 1.0000     0. 
   4   3 -12      3.54    4.25  0. 1.0000     0. 
   3  -3 -12     -1.28    3.64  0. 1.0000     0. 
  -3  -3  12      1.47    3.82  0. 1.0000     0. 
  -3  -3  12      0.60    2.41  0. 1.0000     0. 
   3   3 -12     -0.14    4.35  0. 1.0000     0. 
  -3   3  12      1.17    2.97  0. 1.0000     0. 
   3   3 -12     -1.00    2.73  0. 1.0000     0. 
  -3   3  12      0.48    3.71  0. 1.0000     0. 
   2  -3 -12    233.98    9.95  0. 1.0000     0. 
  -2  -3  12    234.50    9.04  0. 1.0000     0. 
   2  -3 -12    234.73    8.18  0. 1.0000     0. 
  -2  -3  12    238.09    6.40  0. 1.0000     0. 
  -2   3  12    242.99    7.79  0. 1.0000     0. 
   2   3 -12    233.11   10.27  0. 1.0000     0. 
  -2   3  12    239.12    6.75  0. 1.0000     0. 
   2   3 -12    231.41    6.25  0. 1.0000     0. 
  -1  -3  12      1.62    3.97  0. 1.0000     0. 
   1  -3 -12      1.56    3.28  0. 1.0000     0. 
   1  -3 -12      0.13    5.55  0. 1.0000     0. 
  -1  -3  12      3.33    2.60  0. 1.0000     0. 
  -1   3  12      4.73    2.94  0. 1.0000     0. 
  -1   3  12     -1.96    4.04  0. 1.0000     0. 
   1   3 -12      0.16    4.83  0. 1.0000     0. 
   1   3 -12     -2.49    2.36  0. 1.0000     0. 
   0  -3  12      1.91    4.42  0. 1.0000     0. 
   0  -3  12      1.77    2.44  0. 1.0000     0. 
   0  -3 -12      7.81    5.34  0. 1.0000     0. 
   0  -3 -12      2.08    3.64  0. 1.0000     0. 
   0   3 -12     -4.55    5.21  0. 1.0000     0. 
   0   3  12      0.53    4.09  0. 1.0000     0. 
   0   3  12      5.22    3.47  0. 1.0000     0. 
   0   3 -12      6.01    2.74  0. 1.0000     0. 
   1  -3  12     10.40    4.87  0. 1.0000     0. 
  -1  -3 -12     12.83    4.36  0. 1.0000     0. 
   1  -3  12     11.73    2.72  0. 1.0000     0. 
  -1  -3 -12     15.06    5.60  0. 1.0000     0. 
  -1   3 -12     19.68    2.70  0. 1.0000     0. 
  -1   3 -12     16.83    5.23  0. 1.0000     0. 
   1   3  12     11.58    3.76  0. 1.0000     0. 
   1   3  12      2.74    4.67  0. 1.0000     0. 
  -2  -3 -12    242.23   12.28  0. 1.0000     0. 
  -4  -1  13      1.09    2.85  0. 1.0000     0. 
   4  -1 -13      0.67    2.59  0. 1.0000     0. 
   4   1 -13     -0.40    2.33  0. 1.0000     0. 
  -4   1  13      2.29    2.96  0. 1.0000     0. 
  -4   1  13      0.61    2.24  0. 1.0000     0. 
   4   1 -13     -0.16    2.89  0. 1.0000     0. 
   3  -1 -13      9.39    2.77  0. 1.0000     0. 
  -3  -1  13     10.59    2.91  0. 1.0000     0. 
   3   1 -13     10.58    3.27  0. 1.0000     0. 
  -3   1  13      8.51    3.09  0. 1.0000     0. 
  -3   1  13      9.22    2.39  0. 1.0000     0. 
   3   1 -13      8.53    2.24  0. 1.0000     0. 
  -2  -1  13     16.59    3.45  0. 1.0000     0. 
   2  -1 -13     11.79    2.80  0. 1.0000     0. 
   2  -1 -13     11.82    3.90  0. 1.0000     0. 
  -2  -1  13     13.73    1.77  0. 1.0000     0. 
   2   1 -13     14.15    2.07  0. 1.0000     0. 
   2   1 -13     17.42    3.70  0. 1.0000     0. 
  -2   1  13     11.93    3.12  0. 1.0000     0. 
  -2   1  13     15.06    2.52  0. 1.0000     0. 
   1  -1 -13     12.65    3.61  0. 1.0000     0. 
   1  -1 -13     15.23    2.98  0. 1.0000     0. 
  -1  -1  13     14.05    3.96  0. 1.0000     0. 
  -1  -1  13     14.95    1.85  0. 1.0000     0. 
  -1   1  13     15.34    2.67  0. 1.0000     0. 
   1   1 -13     12.12    3.92  0. 1.0000     0. 
  -1   1  13     15.23    3.13  0. 1.0000     0. 
   1   1 -13     15.13    2.00  0. 1.0000     0. 
   0  -1 -13    106.17    5.85  0. 1.0000     0. 
   0  -1  13    116.10    3.44  0. 1.0000     0. 
   0   1 -13    109.63    3.64  0. 1.0000     0. 
   0   1  13    107.29    4.32  0. 1.0000     0. 
   0   1 -13    104.40    6.34  0. 1.0000     0. 
   0   1  13    108.76    5.26  0. 1.0000     0. 
   2   1  13    143.64    5.40  0. 1.0000     0. 
   6   2 -13     11.20    3.46  0. 1.0000     0. 
   5  -2 -13     40.79    4.74  0. 1.0000     0. 
  -5  -2  13     43.21    4.51  0. 1.0000     0. 
   5   2 -13     41.47    3.55  0. 1.0000     0. 
  -5   2  13     40.90    3.98  0. 1.0000     0. 
   5   2 -13     38.90    4.24  0. 1.0000     0. 
  -4   2  13     69.70    4.56  0. 1.0000     0. 
   4   2 -13     70.15    5.37  0. 1.0000     0. 
   3   2 -13      2.54    3.77  0. 1.0000     0. 
  -3   2  13      6.99    3.43  0. 1.0000     0. 
   2  -2 -13      2.19    4.65  0. 1.0000     0. 
  -2  -2  13      1.24    2.12  0. 1.0000     0. 
  -2   2  13      4.18    3.41  0. 1.0000     0. 
   2   2 -13      1.78    3.94  0. 1.0000     0. 
   1  -2 -13    107.54    6.45  0. 1.0000     0. 
  -1  -2  13    102.93    3.92  0. 1.0000     0. 
   1   2 -13    101.11    6.77  0. 1.0000     0. 
  -1   2  13    105.63    5.21  0. 1.0000     0. 
   0  -2  13     20.18    2.73  0. 1.0000     0. 
   0  -2 -13     19.88    5.10  0. 1.0000     0. 
   0   2  13     18.93    4.16  0. 1.0000     0. 
   0   2 -13     20.12    5.27  0. 1.0000     0. 
  -1  -2 -13    194.67    8.05  0. 1.0000     0. 
   1  -2  13    179.75    5.06  0. 1.0000     0. 
   1   2  13    175.16    8.18  0. 1.0000     0. 
  -2   2 -13      0.37    2.34  0. 1.0000     0. 
   2   2  13      9.68    3.84  0. 1.0000     0. 
  -6   3  13      2.63    3.52  0. 1.0000     0. 
   6   3 -13     15.69    4.55  0. 1.0000     0. 
  -5  -3  13     59.52    5.28  0. 1.0000     0. 
   5  -3 -13     61.03    5.40  0. 1.0000     0. 
  -5   3  13     61.89    4.89  0. 1.0000     0. 
   5   3 -13     56.80    4.21  0. 1.0000     0. 
   5   3 -13     64.91    5.99  0. 1.0000     0. 
  -4  -3  13     66.49    5.43  0. 1.0000     0. 
   4  -3 -13     76.81    5.70  0. 1.0000     0. 
   4   3 -13     79.24    4.22  0. 1.0000     0. 
  -4   3  13     79.66    4.65  0. 1.0000     0. 
   4   3 -13     80.11    6.59  0. 1.0000     0. 
  -4   3  13     75.45    5.15  0. 1.0000     0. 
   3  -3 -13     86.24    5.41  0. 1.0000     0. 
  -3  -3  13     80.40    5.85  0. 1.0000     0. 
   3  -3 -13     79.95    7.08  0. 1.0000     0. 
  -3  -3  13     79.45    4.02  0. 1.0000     0. 
  -3   3  13     87.80    5.07  0. 1.0000     0. 
  -3   3  13     84.06    4.56  0. 1.0000     0. 
   3   3 -13     90.82    4.03  0. 1.0000     0. 
   3   3 -13     73.43    6.91  0. 1.0000     0. 
   2  -3 -13     89.02    7.09  0. 1.0000     0. 
  -2  -3  13     79.65    6.16  0. 1.0000     0. 
   2  -3 -13     83.08    5.47  0. 1.0000     0. 
  -2  -3  13     80.96    3.98  0. 1.0000     0. 
  -2   3  13     89.15    5.16  0. 1.0000     0. 
   2   3 -13     77.64    7.43  0. 1.0000     0. 
   2   3 -13     94.60    3.86  0. 1.0000     0. 
  -2   3  13     85.77    4.42  0. 1.0000     0. 
   1  -3 -13     27.60    3.98  0. 1.0000     0. 
  -1  -3  13     28.25    2.92  0. 1.0000     0. 
   1  -3 -13     30.43    6.18  0. 1.0000     0. 
  -1  -3  13     20.34    4.94  0. 1.0000     0. 
   1   3 -13     24.20    3.06  0. 1.0000     0. 
  -1   3  13     28.30    4.72  0. 1.0000     0. 
  -1   3  13     24.82    3.51  0. 1.0000     0. 
   1   3 -13     22.87    5.95  0. 1.0000     0. 
   0  -3 -13    200.28    8.99  0. 1.0000     0. 
   0  -3  13    191.71    6.45  0. 1.0000     0. 
   0   3 -13    219.19    5.72  0. 1.0000     0. 
   0   3  13    214.32    6.94  0. 1.0000     0. 
   0   3 -13    197.81   11.11  0. 1.0000     0. 
   1  -3  13     -2.09    2.54  0. 1.0000     0. 
  -1  -3 -13      2.07    4.01  0. 1.0000     0. 
   1  -3  13      0.12    4.98  0. 1.0000     0. 
  -1  -3 -13      0.46    5.47  0. 1.0000     0. 
   1   3  13     -2.07    3.77  0. 1.0000     0. 
   1   3  13     -0.36    4.77  0. 1.0000     0. 
  -1   3 -13      0.97    2.63  0. 1.0000     0. 
  -1   3 -13     -7.27    4.82  0. 1.0000     0. 
  -5  -1  14     63.18    4.32  0. 1.0000     0. 
   5   1 -14     66.49    4.55  0. 1.0000     0. 
  -5   1  14     60.77    4.16  0. 1.0000     0. 
   4  -1 -14    502.85   12.35  0. 1.0000     0. 
  -4  -1  14    492.82   12.64  0. 1.0000     0. 
  -4   1  14    505.98   11.01  0. 1.0000     0. 
  -4   1  14    497.39   12.40  0. 1.0000     0. 
   4   1 -14    505.03   10.94  0. 1.0000     0. 
   4   1 -14    508.32   12.97  0. 1.0000     0. 
   1  -1 -14    708.85   16.99  0. 1.0000     0. 
   1  -1 -14    700.08   16.36  0. 1.0000     0. 
  -1  -1  14    742.36   16.71  0. 1.0000     0. 
  -1  -1  14    708.33   14.06  0. 1.0000     0. 
   1   1 -14    701.17   14.41  0. 1.0000     0. 
  -1   1  14    708.48   15.09  0. 1.0000     0. 
   1   1 -14    730.69   17.69  0. 1.0000     0. 
  -1   1  14    690.87   16.54  0. 1.0000     0. 
   0  -1 -14     60.32    5.18  0. 1.0000     0. 
   0  -1  14     66.60    2.75  0. 1.0000     0. 
   0  -1 -14     58.34    4.38  0. 1.0000     0. 
   0   1 -14     60.56    2.76  0. 1.0000     0. 
   0   1  14     57.77    4.92  0. 1.0000     0. 
   0   1  14     59.04    3.70  0. 1.0000     0. 
   0   1 -14     51.22    5.32  0. 1.0000     0. 
  -1   1 -14     17.79    2.43  0. 1.0000     0. 
   1   1  14     15.69    3.30  0. 1.0000     0. 
   2   1  14    360.68    9.30  0. 1.0000     0. 
   6   2 -14    129.60    6.77  0. 1.0000     0. 
  -6   2  14    142.58    5.94  0. 1.0000     0. 
  -5  -2  14    250.86    8.63  0. 1.0000     0. 
   5  -2 -14    250.91    8.95  0. 1.0000     0. 
   5   2 -14    245.37    7.14  0. 1.0000     0. 
  -5   2  14    244.97    8.03  0. 1.0000     0. 
   5   2 -14    244.54    8.83  0. 1.0000     0. 
  -4  -2  14      0.92    3.53  0. 1.0000     0. 
   4  -2 -14     -0.62    3.39  0. 1.0000     0. 
   4   2 -14      2.86    4.11  0. 1.0000     0. 
  -4   2  14     -2.13    3.75  0. 1.0000     0. 
   4   2 -14     -0.81    2.79  0. 1.0000     0. 
  -4   2  14      0.44    3.04  0. 1.0000     0. 
   3  -2 -14     17.64    4.73  0. 1.0000     0. 
   3  -2 -14     24.27    3.58  0. 1.0000     0. 
  -3  -2  14     23.42    2.54  0. 1.0000     0. 
  -3  -2  14     24.17    3.88  0. 1.0000     0. 
   3   2 -14     21.63    2.76  0. 1.0000     0. 
  -3   2  14     21.00    3.62  0. 1.0000     0. 
  -3   2  14     16.68    3.10  0. 1.0000     0. 
   3   2 -14     20.63    4.49  0. 1.0000     0. 
  -2  -2  14     55.02    4.85  0. 1.0000     0. 
   2  -2 -14     50.18    5.39  0. 1.0000     0. 
  -2  -2  14     44.20    2.83  0. 1.0000     0. 
   2  -2 -14     41.12    4.30  0. 1.0000     0. 
   2   2 -14     55.39    5.49  0. 1.0000     0. 
   2   2 -14     41.87    3.10  0. 1.0000     0. 
  -2   2  14     37.58    4.24  0. 1.0000     0. 
  -1  -2  14      1.86    4.10  0. 1.0000     0. 
  -1  -2  14      2.04    2.14  0. 1.0000     0. 
   1  -2 -14      2.75    3.36  0. 1.0000     0. 
   1  -2 -14      5.48    4.47  0. 1.0000     0. 
  -1   2  14      5.91    3.73  0. 1.0000     0. 
   1   2 -14      2.82    2.49  0. 1.0000     0. 
   1   2 -14      0.30    4.53  0. 1.0000     0. 
  -1   2  14      5.58    3.09  0. 1.0000     0. 
   0  -2  14      4.45    2.32  0. 1.0000     0. 
   0  -2  14      6.50    4.41  0. 1.0000     0. 
   0  -2 -14      6.13    5.05  0. 1.0000     0. 
   0   2 -14      6.76    4.43  0. 1.0000     0. 
   0   2 -14      9.60    2.51  0. 1.0000     0. 
   0   2  14      4.51    3.46  0. 1.0000     0. 
   0   2  14      4.48    4.30  0. 1.0000     0. 
   2   2  14      1.63    3.83  0. 1.0000     0. 
  -2   2 -14      0.46    2.44  0. 1.0000     0. 
  -4  -3  14     -3.12    3.85  0. 1.0000     0. 
   4  -3 -14      0.10    3.96  0. 1.0000     0. 
  -4  -3  14      0.09    2.45  0. 1.0000     0. 
  -4   3  14     -1.05    3.64  0. 1.0000     0. 
  -4   3  14     -0.20    3.99  0. 1.0000     0. 
   4   3 -14      2.09    4.57  0. 1.0000     0. 
   4   3 -14     -2.17    3.10  0. 1.0000     0. 
   3  -3 -14      2.36    3.55  0. 1.0000     0. 
   3  -3 -14     -3.64    5.57  0. 1.0000     0. 
  -3  -3  14      0.64    4.03  0. 1.0000     0. 
  -3  -3  14      2.04    2.52  0. 1.0000     0. 
  -3   3  14      3.52    3.21  0. 1.0000     0. 
  -3   3  14      4.49    3.50  0. 1.0000     0. 
   3   3 -14     -8.22    4.86  0. 1.0000     0. 
   3   3 -14     -1.55    2.94  0. 1.0000     0. 
  -2  -3  14     19.97    4.47  0. 1.0000     0. 
   2  -3 -14     17.40    3.95  0. 1.0000     0. 
  -2  -3  14     18.55    2.98  0. 1.0000     0. 
   2  -3 -14     22.77    6.38  0. 1.0000     0. 
   2   3 -14     17.89    5.64  0. 1.0000     0. 
  -2   3  14     14.92    3.42  0. 1.0000     0. 
  -2   3  14     21.11    4.77  0. 1.0000     0. 
   2   3 -14     16.18    2.76  0. 1.0000     0. 
   1  -3 -14     -6.74    5.28  0. 1.0000     0. 
  -1  -3  14     -2.56    2.46  0. 1.0000     0. 
   1  -3 -14      0.45    3.53  0. 1.0000     0. 
  -1  -3  14     -0.21    4.59  0. 1.0000     0. 
  -1   3  14     -1.06    3.18  0. 1.0000     0. 
   1   3 -14      0.33    2.87  0. 1.0000     0. 
  -1   3  14      0.74    4.07  0. 1.0000     0. 
   1   3 -14     -4.31    5.18  0. 1.0000     0. 
   0  -3  14     21.18    2.88  0. 1.0000     0. 
   0  -3 -14     29.09    6.29  0. 1.0000     0. 
   0  -3  14     10.51    5.45  0. 1.0000     0. 
   0   3  14     22.67    5.33  0. 1.0000     0. 
   0   3 -14     12.97    5.77  0. 1.0000     0. 
   0   3  14     22.11    4.14  0. 1.0000     0. 
   0   3 -14     19.93    2.95  0. 1.0000     0. 
  -5  -1  15    313.14    8.76  0. 1.0000     0. 
   5   1 -15    306.24    9.63  0. 1.0000     0. 
  -5   1  15    311.88    9.04  0. 1.0000     0. 
  -4  -1  15    149.30    5.69  0. 1.0000     0. 
  -4   1  15    120.70    6.25  0. 1.0000     0. 
   4   1 -15    147.74    4.69  0. 1.0000     0. 
   4   1 -15    150.54    6.63  0. 1.0000     0. 
  -3  -1  15     64.69    2.92  0. 1.0000     0. 
  -3  -1  15     65.78    4.29  0. 1.0000     0. 
  -3   1  15     65.98    4.04  0. 1.0000     0. 
  -3   1  15     63.27    3.65  0. 1.0000     0. 
   3   1 -15     65.65    5.09  0. 1.0000     0. 
   3   1 -15     65.51    3.34  0. 1.0000     0. 
  -2  -1  15    242.63    5.77  0. 1.0000     0. 
  -2  -1  15    241.97    7.78  0. 1.0000     0. 
  -2   1  15    235.51    7.67  0. 1.0000     0. 
   2   1 -15    239.53    8.87  0. 1.0000     0. 
   2   1 -15    235.00    6.15  0. 1.0000     0. 
  -2   1  15    237.44    6.52  0. 1.0000     0. 
  -1  -1  15     93.08    3.27  0. 1.0000     0. 
  -1  -1  15     93.61    5.52  0. 1.0000     0. 
  -1   1  15     95.21    5.28  0. 1.0000     0. 
   1   1 -15     95.31    6.79  0. 1.0000     0. 
  -1   1  15     85.69    4.36  0. 1.0000     0. 
   1   1 -15     92.82    3.53  0. 1.0000     0. 
   0  -1  15      1.79    4.03  0. 1.0000     0. 
   0  -1  15      5.61    2.05  0. 1.0000     0. 
   0   1  15      1.65    3.11  0. 1.0000     0. 
   0   1 -15      2.58    2.09  0. 1.0000     0. 
   1   1  15     82.31    4.76  0. 1.0000     0. 
  -1   1 -15     81.18    3.64  0. 1.0000     0. 
   6   2 -15    238.56    7.96  0. 1.0000     0. 
  -6   2  15    230.56    7.30  0. 1.0000     0. 
  -5  -2  15     36.05    4.62  0. 1.0000     0. 
   5  -2 -15     39.68    4.81  0. 1.0000     0. 
   5   2 -15     36.40    4.93  0. 1.0000     0. 
  -5   2  15     33.35    4.33  0. 1.0000     0. 
   5   2 -15     32.76    3.39  0. 1.0000     0. 
  -4  -2  15    120.35    6.11  0. 1.0000     0. 
   4  -2 -15    119.78    6.32  0. 1.0000     0. 
  -4   2  15    125.46    5.53  0. 1.0000     0. 
  -4   2  15    120.11    5.26  0. 1.0000     0. 
   4   2 -15    118.15    4.77  0. 1.0000     0. 
   0  -2  15     92.71    3.67  0. 1.0000     0. 
   0  -2  15     85.23    6.70  0. 1.0000     0. 
   0  -2 -15     94.45    6.76  0. 1.0000     0. 
   0   2  15     91.35    4.65  0. 1.0000     0. 
   0   2  15     74.73    6.18  0. 1.0000     0. 
   0   2 -15     93.21    3.56  0. 1.0000     0. 
   0   2 -15     96.32    7.16  0. 1.0000     0. 
   1  -2  15      8.34    2.62  0. 1.0000     0. 
  -1  -2 -15      3.29    4.03  0. 1.0000     0. 
  -1  -2 -15     12.33    6.38  0. 1.0000     0. 
   1   2  15      0.31    3.53  0. 1.0000     0. 
  -1   2 -15      1.95    2.68  0. 1.0000     0. 
   2   2  15      2.09    4.09  0. 1.0000     0. 
  -6  -2  16     31.52    4.45  0. 1.0000     0. 
   6   2 -16     29.43    4.75  0. 1.0000     0. 
  -6   2  16     36.35    4.52  0. 1.0000     0. 
   5  -2 -16     -0.71    4.17  0. 1.0000     0. 
  -5  -2  16      0.09    4.10  0. 1.0000     0. 
  -5   2  16      0.93    4.19  0. 1.0000     0. 
   5   2 -16     -1.88    4.30  0. 1.0000     0. 
   5   2 -16      1.74    3.12  0. 1.0000     0. 
  -4  -2  16      1.53    2.49  0. 1.0000     0. 
   4  -2 -16      2.02    3.74  0. 1.0000     0. 
  -4  -2  16      2.13    3.93  0. 1.0000     0. 
  -4   2  16      2.54    3.61  0. 1.0000     0. 
   4   2 -16      5.79    3.07  0. 1.0000     0. 
   4   2 -16     -0.13    4.36  0. 1.0000     0. 
  -4   2  16      3.98    4.15  0. 1.0000     0. 
   3  -2 -16    549.05   14.69  0. 1.0000     0. 
  -3  -2  16    553.07   14.15  0. 1.0000     0. 
   3  -2 -16    547.41   12.49  0. 1.0000     0. 
  -3  -2  16    544.66   12.17  0. 1.0000     0. 
   3   2 -16    552.43   12.05  0. 1.0000     0. 
  -3   2  16    536.60   12.19  0. 1.0000     0. 
  -3   2  16    534.80   15.05  0. 1.0000     0. 
   3   2 -16    550.49   16.06  0. 1.0000     0. 
  -2  -2  16      0.99    4.14  0. 1.0000     0. 
   2  -2 -16      0.49    3.37  0. 1.0000     0. 
   2  -2 -16     -2.77    5.31  0. 1.0000     0. 
  -2  -2  16     -1.26    2.63  0. 1.0000     0. 
   2   2 -16      0.16    2.75  0. 1.0000     0. 
  -2   2  16     -2.88    3.35  0. 1.0000     0. 
   2   2 -16     -0.46    4.73  0. 1.0000     0. 
  -2   2  16      0.72    4.18  0. 1.0000     0. 
  -1  -2  16     23.84    2.76  0. 1.0000     0. 
   1  -2 -16     23.29    5.51  0. 1.0000     0. 
   1  -2 -16     22.65    4.01  0. 1.0000     0. 
  -1  -2  16     31.15    4.75  0. 1.0000     0. 
  -1   2  16     27.17    3.73  0. 1.0000     0. 
   1   2 -16     29.79    5.83  0. 1.0000     0. 
   1   2 -16     27.81    2.89  0. 1.0000     0. 
  -1   2  16     25.06    4.95  0. 1.0000     0. 
   0  -2  16    247.13    9.79  0. 1.0000     0. 
   0  -2  16    239.10    6.49  0. 1.0000     0. 
   0  -2 -16    256.76   10.17  0. 1.0000     0. 
   0   2  16    243.16    7.70  0. 1.0000     0. 
   0   2 -16    236.55   11.37  0. 1.0000     0. 
   0   2 -16    256.40    6.41  0. 1.0000     0. 
  -1  -2 -16      3.67    4.10  0. 1.0000     0. 
  -1  -2 -16      2.21    6.18  0. 1.0000     0. 
  -1   2 -16      4.85    2.69  0. 1.0000     0. 
   1   2  16      4.33    3.90  0. 1.0000     0. 
   5   2 -17     74.15    6.42  0. 1.0000     0. 
  -5   2  17     66.13    5.44  0. 1.0000     0. 
   4  -2 -17     51.02    5.03  0. 1.0000     0. 
   4  -2 -17     34.12    6.16  0. 1.0000     0. 
  -4  -2  17     51.01    4.94  0. 1.0000     0. 
  -4  -2  17     42.74    3.38  0. 1.0000     0. 
  -4   2  17     39.12    4.14  0. 1.0000     0. 
   4   2 -17     44.62    3.72  0. 1.0000     0. 
   4   2 -17     48.41    5.79  0. 1.0000     0. 
  -4   2  17     38.86    4.67  0. 1.0000     0. 
   3  -2 -17     73.76    5.08  0. 1.0000     0. 
  -3  -2  17     75.58    3.87  0. 1.0000     0. 
  -3  -2  17     79.13    5.49  0. 1.0000     0. 
   3  -2 -17     79.14    6.85  0. 1.0000     0. 
   3   2 -17     81.26    7.34  0. 1.0000     0. 
  -3   2  17     78.29    5.76  0. 1.0000     0. 
   3   2 -17     77.23    4.06  0. 1.0000     0. 
  -3   2  17     70.49    4.26  0. 1.0000     0. 
   2  -2 -17     26.32    3.94  0. 1.0000     0. 
  -2  -2  17     22.22    2.84  0. 1.0000     0. 
  -2  -2  17     27.71    4.73  0. 1.0000     0. 
   2  -2 -17     25.00    5.49  0. 1.0000     0. 
  -2   2  17     26.78    3.78  0. 1.0000     0. 
   2   2 -17     26.88    5.98  0. 1.0000     0. 
  -2   2  17     25.53    4.68  0. 1.0000     0. 
   2   2 -17     24.78    3.09  0. 1.0000     0. 
   1  -2 -17      4.77    5.88  0. 1.0000     0. 
   1  -2 -17      2.52    3.53  0. 1.0000     0. 
  -1  -2  17      3.92    2.76  0. 1.0000     0. 
  -1  -2  17      0.38    4.26  0. 1.0000     0. 
   1   2 -17      5.58    5.51  0. 1.0000     0. 
  -1   2  17      0.86    5.09  0. 1.0000     0. 
  -1   2  17     -1.24    3.59  0. 1.0000     0. 
   1   2 -17     -2.62    2.54  0. 1.0000     0. 
-512 
#   1976 reflections output 
;
loop_
_symmetry_equiv_pos_as_xyz
x,y,z
-x,-y,-z
-x,y+1/2,-z+1/2
x,-y+1/2,z+1/2
loop_
_atom_site_label
_atom_site_type_symbol
_atom_site_fract_x
_atom_site_fract_y
_atom_site_fract_z
_atom_site_U_iso_or_equiv
_atom_site_occupancy
_atom_site_adp_type
_atom_site_refinement_flags_posn
_atom_site_refinement_flags_adp
_atom_site_refinement_flags_occupancy
_atom_site_disorder_assembly
_atom_site_disorder_group
_atom_site_attached_hydrogens
S1 S 0.4397(4) 0.2975(5) 0.33830(13) 0.0392 1.0000 Uani D U . . . .
N2 N 0.3143(8) 0.1837(13) 0.2402(3) 0.0400 1.0000 Uani D U . . . .
S3 S 0.1459(4) 0.0681(4) 0.25003(11) 0.0346 1.0000 Uani D U . . . .
C4 C 0.1781(8) 0.1246(13) 0.3714(3) 0.0296 1.0000 Uani D U . . . .
C5 C 0.3267(7) 0.2417(13) 0.4158(3) 0.0268 1.0000 Uani D U . . . .
N6 N 0.3512(8) 0.2941(12) 0.5075(3) 0.0312 1.0000 Uani D U . . . .
S7 S 0.1943(4) 0.1825(4) 0.53573(11) 0.0304 1.0000 Uani D U . . . .
N8 N 0.0918(8) 0.0728(13) 0.4296(3) 0.0308 1.0000 Uani D U . . . .
loop_
_atom_site_aniso_label
_atom_site_aniso_U_11
_atom_site_aniso_U_22
_atom_site_aniso_U_33
_atom_site_aniso_U_23
_atom_site_aniso_U_13
_atom_site_aniso_U_12
S1 0.046(4) 0.0501(9) 0.0293(10) 0.0117(6) 0.0242(16) 0.0081(13)
N2 0.060(5) 0.047(3) 0.022(2) 0.005(2) 0.027(2) 0.006(4)
S3 0.052(4) 0.0384(8) 0.0170(8) 0.0028(5) 0.0160(14) 0.0089(11)
C4 0.044(6) 0.031(2) 0.0183(17) -0.000(2) 0.017(3) -0.001(4)
C5 0.035(6) 0.028(2) 0.0211(19) 0.0074(19) 0.016(2) 0.011(4)
N6 0.038(5) 0.037(2) 0.0233(19) 0.0015(19) 0.016(3) 0.004(4)
S7 0.042(5) 0.0344(7) 0.0184(8) -0.0020(5) 0.0152(15) -0.0039(10)
N8 0.042(6) 0.035(2) 0.0201(19) -0.0011(18) 0.017(2) -0.007(4)
loop_
_atom_type_symbol
_atom_type_scat_dispersion_real
_atom_type_scat_dispersion_imag
_atom_type_scat_Cromer_Mann_a1
_atom_type_scat_Cromer_Mann_b1
_atom_type_scat_Cromer_Mann_a2
_atom_type_scat_Cromer_Mann_b2
_atom_type_scat_Cromer_Mann_a3
_atom_type_scat_Cromer_Mann_b3
_atom_type_scat_Cromer_Mann_a4
_atom_type_scat_Cromer_Mann_b4
_atom_type_scat_Cromer_Mann_c
_atom_type_scat_source
C 0.0006 0.0007 2.3100 20.8439 1.0200 10.2075 1.5886 0.5687 0.8650 51.6512
0.2156 'International Tables Vol C 4.2.6.8 and 6.1.1.4'
N 0.0016 0.0014 12.2126 0.0057 3.1322 9.8933 2.0125 28.9975 1.1663 0.5826
-11.5290 'International Tables Vol C 4.2.6.8 and 6.1.1.4'
S 0.0630 0.0572 6.9053 1.4679 5.2034 22.2151 1.4379 0.2536 1.5863 56.1720
0.8669 'International Tables Vol C 4.2.6.8 and 6.1.1.4'
loop_
_geom_angle_atom_site_label_1
_geom_angle_site_symmetry_1
_geom_angle_atom_site_label_2
_geom_angle_site_symmetry_2
_geom_angle_atom_site_label_3
_geom_angle_site_symmetry_3
_geom_angle
_geom_angle_publ_flag
N2 . S1 . C5 . 97.7(3) yes
S1 . N2 . S3 . 117.1(3) yes
N2 . S3 . C4 . 97.8(3) yes
S3 . C4 . C5 . 113.5(4) yes
S3 . C4 . N8 . 131.9(4) yes
C5 . C4 . N8 . 114.6(4) yes
C4 . C5 . S1 . 113.9(3) yes
C4 . C5 . N6 . 113.9(4) yes
S1 . C5 . N6 . 132.2(4) yes
C5 . N6 . S7 . 106.5(4) yes
N6 . S7 . N8 . 98.9(3) yes
C4 . N8 . S7 . 106.1(4) yes
loop_
_geom_bond_atom_site_label_1
_geom_bond_site_symmetry_1
_geom_bond_atom_site_label_2
_geom_bond_site_symmetry_2
_geom_bond_distance
_geom_bond_publ_flag
S1 . N2 . 1.655(6) yes
S1 . C5 . 1.735(5) yes
N2 . S3 . 1.653(7) yes
S3 . C4 . 1.738(4) yes
C4 . C5 . 1.427(7) yes
C4 . N8 . 1.318(6) yes
C5 . N6 . 1.318(5) yes
N6 . S7 . 1.653(7) yes
S7 . N8 . 1.651(5) yes
