#------------------------------------------------------------------------------
#$Date: 2021-07-05 20:10:48 +0300 (Mon, 05 Jul 2021) $
#$Revision: 267123 $
#$URL: file:///home/coder/svn-repositories/cod/cif/7/24/28/7242876.cif $
#------------------------------------------------------------------------------
#
# This file is available in the Crystallography Open Database (COD),
# http://www.crystallography.net/
#
# All data on this site have been placed in the public domain by the
# contributors.
#
data_7242876
loop_
_publ_author_name
'Richardson, Jonathan G.'
'Mizuno, Asato'
'Shuku, Yoshiaki'
'Awaga, Kunio'
'Robertson, Neil'
'Morrison, Carole A.'
'Warren, Mark R.'
'Allan, David R.'
'Moggach, Stephen A.'
_publ_section_title
;
 Evaluating the high-pressure structural response and crystal lattice
 interactions of the magnetically-bistable organic radical TTTA
;
_journal_issue                   25
_journal_name_full               CrystEngComm
_journal_page_first              4444
_journal_page_last               4450
_journal_paper_doi               10.1039/D1CE00577D
_journal_volume                  23
_journal_year                    2021
_chemical_formula_moiety         'C2 N3 S3'
_chemical_formula_sum            'C2 N3 S3'
_chemical_formula_weight         162.24
_space_group_IT_number           14
_space_group_name_Hall           '-P 2ybc'
_space_group_name_H-M_alt        'P 1 21/c 1'
_symmetry_cell_setting           monoclinic
_symmetry_space_group_name_Hall  '-P 2ybc'
_symmetry_space_group_name_H-M   'P 1 21/c 1'
_atom_sites_solution_hydrogens   difmap
_atom_sites_solution_primary     direct
_audit_creation_date             2021-04-22
_audit_creation_method           CRYSTALS_ver_14.61_build_6999
_audit_update_record
;
2021-04-27 deposited with the CCDC.	2021-05-18 downloaded from the CCDC.
;
_cell_angle_alpha                90
_cell_angle_beta                 104.44(6)
_cell_angle_gamma                90
_cell_formula_units_Z            4
_cell_length_a                   9.191(12)
_cell_length_b                   3.3508(4)
_cell_length_c                   14.562(3)
_cell_measurement_reflns_used    865
_cell_measurement_temperature    293
_cell_measurement_theta_max      20
_cell_measurement_theta_min      4
_cell_volume                     434.3(6)
_computing_cell_refinement       'USER DEFINED CELL REFINEMENT'
_computing_data_collection       'USER DEFINED DATA COLLECTION'
_computing_data_reduction
; 
 CrysAlisPro (Rigaku Oxford Diffraction, 2017) 
;
_computing_molecular_graphics    'CAMERON (Watkin et al., 1996)'
_computing_publication_material  'CRYSTALS (Betteridge et al., 2003)'
_computing_structure_refinement  'CRYSTALS (Betteridge et al., 2003)'
_computing_structure_solution    'SHELXS 86 (Sheldrick, 1986)'
_diffrn_ambient_pressure         2910000
_diffrn_ambient_temperature      293
_diffrn_measured_fraction_theta_full 0.341
_diffrn_measured_fraction_theta_max 0.309
_diffrn_measurement_device       Area
_diffrn_measurement_device_type  Synchrotron
_diffrn_measurement_method       \w
_diffrn_radiation_monochromator  'focussing mirrors'
_diffrn_radiation_type           synchrotron
_diffrn_radiation_wavelength     0.48590
_diffrn_reflns_av_R_equivalents  0.040
_diffrn_reflns_av_unetI/netI     0.058
_diffrn_reflns_limit_h_max       6
_diffrn_reflns_limit_h_min       -6
_diffrn_reflns_limit_k_max       4
_diffrn_reflns_limit_k_min       -4
_diffrn_reflns_limit_l_max       18
_diffrn_reflns_limit_l_min       -18
_diffrn_reflns_number            2098
_diffrn_reflns_theta_full        15.857
_diffrn_reflns_theta_max         20.329
_diffrn_reflns_theta_min         3.870
_diffrn_standards_number         0
_exptl_absorpt_coefficient_mu    0.520
_exptl_absorpt_correction_T_max  0.95
_exptl_absorpt_correction_T_min  0.80
_exptl_absorpt_correction_type   multi-scan
_exptl_absorpt_process_details   'DENZO/SCALEPACK (Otwinowski & Minor, 1997)'
_exptl_crystal_colour            black
_exptl_crystal_density_diffrn    2.481
_exptl_crystal_density_meas      ?
_exptl_crystal_density_method    'not measured'
_exptl_crystal_description       block
_exptl_crystal_F_000             324
_exptl_crystal_size_max          0.120
_exptl_crystal_size_mid          0.100
_exptl_crystal_size_min          0.100
_refine_diff_density_max         0.53
_refine_diff_density_min         -0.48
_refine_ls_extinction_method     None
_refine_ls_goodness_of_fit_ref   0.9887
_refine_ls_hydrogen_treatment    noref
_refine_ls_matrix_type           full
_refine_ls_number_parameters     73
_refine_ls_number_reflns         403
_refine_ls_number_restraints     104
_refine_ls_R_factor_all          0.0930
_refine_ls_R_factor_gt           0.0707
_refine_ls_shift/su_max          0.0003129
_refine_ls_shift/su_mean         0.0000268
_refine_ls_structure_factor_coef Fsqd
_refine_ls_weighting_details
;
 Method= Modified Sheldrick 
 w=1/[\s^2^(F^2^) + ( 0.15P)^2^ + 0.25P] 
 ,where P=(max(Fo^2^,0) + 2Fc^2^)/3 
;
_refine_ls_weighting_scheme      calc
_refine_ls_wR_factor_all         0.2935
_refine_ls_wR_factor_gt          0.2252
_refine_ls_wR_factor_ref         0.1772
_reflns_limit_h_max              4
_reflns_limit_h_min              -6
_reflns_limit_k_max              4
_reflns_limit_k_min              0
_reflns_limit_l_max              18
_reflns_limit_l_min              0
_reflns_number_gt                305
_reflns_number_total             411
_reflns_threshold_expression     I>2.0\s(I)
_oxford_diffrn_Wilson_B_factor   0.00
_oxford_diffrn_Wilson_scale      0.00
_oxford_refine_ls_r_factor_ref   0.0754
_oxford_refine_ls_scale          0.802(12)
_oxford_reflns_number_all        411
_iucr_refine_instructions_details
;
#
# Punched on 22/04/21 at 21:27:24
#
#LIST     12                                                                    
BLOCK SCALE X'S  U'S 
END                                                                             
#
# Punched on 22/04/21 at 21:27:24
#
#LIST     16                                                                    
DIST   1.659,.01= S(1) TO N(2) 
DIST   1.734,.01= S(1) TO C(5) 
DIST   1.656,.01= N(2) TO S(3) 
DIST   1.735,.01= S(3) TO C(4) 
DIST   1.430,.01= C(4) TO C(5) 
DIST   1.313,.01= C(4) TO N(8) 
DIST   1.318,.01= C(5) TO N(6) 
DIST   1.645,.01= N(6) TO S(7) 
DIST   1.646,.01= S(7) TO N(8) 
ANGL  98,1= C(5) TO S(1) TO N(2) 
ANGL 117,1= S(3) TO N(2) TO S(1) 
ANGL  98,1= C(4) TO S(3) TO N(2) 
ANGL 114,1= C(5) TO C(4) TO S(3) 
ANGL 132,1= N(8) TO C(4) TO S(3) 
ANGL 114,1= N(8) TO C(4) TO C(5) 
ANGL 114,1= C(4) TO C(5) TO S(1) 
ANGL 132,1= N(6) TO C(5) TO S(1) 
ANGL 114,1= N(6) TO C(5) TO C(4) 
ANGL 106,1= S(7) TO N(6) TO C(5) 
ANGL  99,1= N(8) TO S(7) TO N(6) 
ANGL 106,1= S(7) TO N(8) TO C(4) 
REM   HREST   START (DO NOT REMOVE THIS LINE) 
REM   HREST   END (DO NOT REMOVE THIS LINE) 
PLANAR 0.01 N(2) S(1) S(3) C(4) C(5) N(6) S(7) N(8) 
REM   DELU   START (DO NOT REMOVE THIS LINE) 
VIBR .0, 0.00200 = S(1) TO N(2) 
VIBR .0, 0.00200 = S(1) TO C(5) 
VIBR .0, 0.00500 = C(5) TO N(2) 
VIBR .0, 0.00200 = N(2) TO S(3) 
VIBR .0, 0.00500 = S(3) TO S(1) 
VIBR .0, 0.00200 = S(3) TO C(4) 
VIBR .0, 0.00500 = C(4) TO N(2) 
VIBR .0, 0.00200 = C(4) TO C(5) 
VIBR .0, 0.00200 = C(4) TO N(8) 
VIBR .0, 0.00500 = C(5) TO S(3) 
VIBR .0, 0.00500 = N(8) TO S(3) 
VIBR .0, 0.00500 = N(8) TO C(5) 
VIBR .0, 0.00200 = C(5) TO N(6) 
VIBR .0, 0.00500 = S(1) TO C(4) 
VIBR .0, 0.00500 = N(6) TO C(4) 
VIBR .0, 0.00500 = N(6) TO S(1) 
VIBR .0, 0.00200 = N(6) TO S(7) 
VIBR .0, 0.00500 = S(7) TO C(5) 
VIBR .0, 0.00200 = S(7) TO N(8) 
VIBR .0, 0.00500 = N(8) TO N(6) 
VIBR .0, 0.00500 = S(7) TO C(4) 
REM   DELU   END (DO NOT REMOVE THIS LINE) 
REM   THERMSIM   START (DO NOT REMOVE THIS LINE) 
U(IJ) .0, 0.04000 = S(1) TO N(2) 
U(IJ) .0, 0.04000 = S(1) TO C(5) 
U(IJ) .0, 0.04000 = N(2) TO S(3) 
U(IJ) .0, 0.04000 = S(3) TO C(4) 
U(IJ) .0, 0.04000 = C(4) TO C(5) 
U(IJ) .0, 0.04000 = C(4) TO N(8) 
U(IJ) .0, 0.04000 = C(5) TO N(6) 
U(IJ) .0, 0.04000 = N(6) TO S(7) 
U(IJ) .0, 0.04000 = S(7) TO N(8) 
REM   THERMSIM   END (DO NOT REMOVE THIS LINE) 
END                                                                             
;
_cod_data_source_file            d1ce00577d2.cif
_cod_data_source_block           291GPa
_cod_depositor_comments
;
The following automatic conversions were performed:

data item '_exptl_crystal_density_meas' value 'not measured' was
changed to '?' -- the value is perceived as not measured.

Automatic conversion script
Id: cif_fix_values 7556 2019-12-06 15:28:31Z antanas 

 Adding full bibliography for 7242874--7242883.cif.
;
_cod_original_sg_symbol_H-M      'P 1 21/c 1 '
_cod_database_code               7242876
_oxford_refine_reflns_threshold_expression_ref I>-10.0\s(I)
_iucr_refine_reflections_details
; 
 
# Data was input as F-squared 
# punching LIST  6 as LIST  6 with all keys set 
# NBGNXT=    36 
#LIST   6 
READ NCOEF= 8 TYPE=FIX, F'S = FSQ UNIT=DATA, CHECK=NO L30=NO ARCH=NO 
STORE  NCOEF= 6 
OUTPUT INDICES     /FO/        SIGMA(/FO/) RATIO/JCODE CORRECTIONS SERIAL 
CONT 
INPUT  H           K           L           /FO/        SIGMA(/FO/) JCODE 
CONT   CORRECTIONS SERIAL 
FOR (I4,I4,I4,F10.2,F8.2,F4.0,F7.4,F7.0) 
END 
   0  -1   0      0.22    0.54  0. 1.0000     0. 
   0  -1   0      0.80    0.79  0. 1.0000     0. 
   0   1   0      0.90    0.94  0. 1.0000     0. 
   0   1   0      0.41    0.46  0. 1.0000     0. 
   0   1   0      0.29    0.82  0. 1.0000     0. 
   0   1   0      0.81    0.65  0. 1.0000     0. 
  -1  -1   0   9743.74  401.62  0. 1.0000     0. 
  -1  -1   0   9721.23  434.13  0. 1.0000     0. 
   1  -1   0   8861.08  474.02  0. 1.0000     0. 
   1  -1   0   9999.99  446.85  0. 1.0000     0. 
  -1   1   0   9394.55  403.91  0. 1.0000     0. 
   1   1   0   9844.41  403.50  0. 1.0000     0. 
  -1   1   0   9811.56  397.50  0. 1.0000     0. 
  -1   1   0   9800.91  395.59  0. 1.0000     0. 
   0   2   0    824.64   34.13  0. 1.0000     0. 
   0   2   0    773.43   37.33  0. 1.0000     0. 
   0   2   0    784.87   35.42  0. 1.0000     0. 
   1  -2   0    877.98   46.50  0. 1.0000     0. 
   1  -2   0    864.96   43.66  0. 1.0000     0. 
   1   2   0    953.73   39.07  0. 1.0000     0. 
   1   2   0    928.00   42.45  0. 1.0000     0. 
   1   2   0    867.46   43.11  0. 1.0000     0. 
  -1   2   0    913.34   43.10  0. 1.0000     0. 
   1   2   0    928.15   37.71  0. 1.0000     0. 
  -1   2   0    925.62   39.34  0. 1.0000     0. 
  -1   2   0    926.15   38.70  0. 1.0000     0. 
  -2  -2   0     44.54    3.60  0. 1.0000     0. 
   2  -2   0     41.92    6.33  0. 1.0000     0. 
   2   2   0     45.19    3.66  0. 1.0000     0. 
  -2   2   0     38.70    4.67  0. 1.0000     0. 
   1  -3   0     -1.47    6.70  0. 1.0000     0. 
  -1  -3   0     -2.23    3.15  0. 1.0000     0. 
   1  -3   0      5.25    2.34  0. 1.0000     0. 
  -1  -3   0      3.73    2.17  0. 1.0000     0. 
  -1  -3   0     -0.48    3.44  0. 1.0000     0. 
   1  -3   0      4.46    2.25  0. 1.0000     0. 
   1   3   0     -3.27    3.25  0. 1.0000     0. 
  -1   3   0     -5.14    3.69  0. 1.0000     0. 
   1   3   0     -1.77    3.08  0. 1.0000     0. 
   1   3   0     -2.20    2.22  0. 1.0000     0. 
   1   3   0    -10.94    6.02  0. 1.0000     0. 
  -1   3   0     -2.42    4.56  0. 1.0000     0. 
  -1   3   0     -2.52    3.15  0. 1.0000     0. 
  -1   3   0      6.56    2.60  0. 1.0000     0. 
   2  -3   0    633.22   32.80  0. 1.0000     0. 
  -2  -3   0    605.01   26.23  0. 1.0000     0. 
  -2  -3   0    585.62   27.88  0. 1.0000     0. 
   2  -3   0    548.37   28.36  0. 1.0000     0. 
  -2   3   0    589.41   27.44  0. 1.0000     0. 
  -2   3   0    585.38   28.93  0. 1.0000     0. 
   2   3   0    579.48   25.18  0. 1.0000     0. 
  -2   3   0    574.21   25.57  0. 1.0000     0. 
   3   3   0      8.11    2.85  0. 1.0000     0. 
  -3   3   0     13.05    5.39  0. 1.0000     0. 
   3   3   0      5.42    3.56  0. 1.0000     0. 
   1  -1  -1     76.03    3.97  0. 1.0000     0. 
  -1  -1   1     73.16    3.78  0. 1.0000     0. 
  -1  -1   1     74.42    3.53  0. 1.0000     0. 
   1  -1  -1     68.73    4.85  0. 1.0000     0. 
   1   1  -1     73.55    3.88  0. 1.0000     0. 
  -1   1   1     74.62    3.82  0. 1.0000     0. 
  -1   1   1     72.96    3.52  0. 1.0000     0. 
   1   1  -1     75.38    3.87  0. 1.0000     0. 
  -1   1   1     72.42    3.57  0. 1.0000     0. 
  -1   1   1     73.55    4.21  0. 1.0000     0. 
   0  -1  -1    450.84   18.54  0. 1.0000     0. 
   0  -1   1    430.08   20.39  0. 1.0000     0. 
   0   1   1    417.45   18.94  0. 1.0000     0. 
   0   1  -1    440.95   19.26  0. 1.0000     0. 
   0   1   1    431.09   20.75  0. 1.0000     0. 
   0   1   1    453.13   18.42  0. 1.0000     0. 
   0   1  -1    453.50   18.28  0. 1.0000     0. 
   0   1  -1    453.84   18.81  0. 1.0000     0. 
   0   1   1    429.42   19.95  0. 1.0000     0. 
   0   1  -1    443.90   21.01  0. 1.0000     0. 
   1  -1   1   3108.43  149.14  0. 1.0000     0. 
   1  -1   1   3331.28  160.59  0. 1.0000     0. 
  -1  -1  -1   3326.95  134.69  0. 1.0000     0. 
  -1   1  -1   3136.98  135.40  0. 1.0000     0. 
   1   1   1   3247.40  134.49  0. 1.0000     0. 
  -1   1  -1   3253.08  133.36  0. 1.0000     0. 
  -1   1  -1   3206.25  151.27  0. 1.0000     0. 
  -2   2   1    124.55    7.64  0. 1.0000     0. 
  -1  -2   1   1074.69   48.65  0. 1.0000     0. 
   1  -2  -1    994.31   50.10  0. 1.0000     0. 
  -1  -2   1   1120.98   43.95  0. 1.0000     0. 
  -1   2   1   1047.04   46.71  0. 1.0000     0. 
   1   2  -1   1164.84   48.61  0. 1.0000     0. 
   1   2  -1   1000.00   49.97  0. 1.0000     0. 
  -1   2   1   1014.29   45.50  0. 1.0000     0. 
   0  -2   1    244.29   12.14  0. 1.0000     0. 
   0  -2  -1    251.90   13.39  0. 1.0000     0. 
   0  -2  -1    267.32   11.17  0. 1.0000     0. 
   0  -2   1    257.65   11.36  0. 1.0000     0. 
   0   2   1    259.45   11.10  0. 1.0000     0. 
   0   2  -1    258.58   12.93  0. 1.0000     0. 
   0   2   1    245.25   11.79  0. 1.0000     0. 
   0   2   1    259.79   13.59  0. 1.0000     0. 
   0   2  -1    251.15   12.94  0. 1.0000     0. 
   0   2  -1    252.31   11.58  0. 1.0000     0. 
   1  -2   1      4.95    3.90  0. 1.0000     0. 
  -1  -2  -1      3.74    1.40  0. 1.0000     0. 
   1   2   1      2.99    3.49  0. 1.0000     0. 
  -1   2  -1      1.85    2.34  0. 1.0000     0. 
  -1   2  -1      1.75    1.64  0. 1.0000     0. 
   1   2   1      2.36    1.36  0. 1.0000     0. 
   1   2   1      3.58    1.85  0. 1.0000     0. 
  -1   2  -1      7.33    2.58  0. 1.0000     0. 
  -2  -2  -1   1458.48   59.03  0. 1.0000     0. 
   2  -2   1   1407.20   69.52  0. 1.0000     0. 
   2   2   1   1379.17   62.74  0. 1.0000     0. 
  -2   2  -1   1396.57   58.82  0. 1.0000     0. 
  -2   2  -1   1354.06   59.31  0. 1.0000     0. 
   2   2   1   1388.41   56.94  0. 1.0000     0. 
  -2   2  -1   1344.49   66.56  0. 1.0000     0. 
   3  -3  -1     18.25    2.99  0. 1.0000     0. 
  -3   3   1     15.46    3.97  0. 1.0000     0. 
   3   3  -1     18.52    3.00  0. 1.0000     0. 
   3   3  -1      7.57    3.54  0. 1.0000     0. 
  -3   3   1      7.56    4.76  0. 1.0000     0. 
   2  -3  -1     96.21    9.38  0. 1.0000     0. 
  -2  -3   1    101.20    6.26  0. 1.0000     0. 
   2  -3  -1     70.87    5.55  0. 1.0000     0. 
  -2  -3   1     77.40    5.50  0. 1.0000     0. 
  -2   3   1     94.46    5.77  0. 1.0000     0. 
  -2   3   1     95.95    7.61  0. 1.0000     0. 
   2   3  -1     91.00    4.75  0. 1.0000     0. 
  -2   3   1     93.17    6.50  0. 1.0000     0. 
   2   3  -1     91.47    5.88  0. 1.0000     0. 
   1  -3  -1    180.82   13.53  0. 1.0000     0. 
  -1  -3   1    197.49    9.03  0. 1.0000     0. 
  -1  -3   1    176.26   10.85  0. 1.0000     0. 
   1  -3  -1    189.19    9.80  0. 1.0000     0. 
  -1  -3   1    185.02    9.95  0. 1.0000     0. 
   1   3  -1    178.99   10.50  0. 1.0000     0. 
  -1   3   1    189.67   10.51  0. 1.0000     0. 
   1   3  -1    204.70    8.81  0. 1.0000     0. 
  -1   3   1    190.18    9.32  0. 1.0000     0. 
  -1   3   1    189.29   12.32  0. 1.0000     0. 
   0   3   1     42.69    4.05  0. 1.0000     0. 
  -1  -3  -1     41.36    4.95  0. 1.0000     0. 
  -1  -3  -1     42.74    3.45  0. 1.0000     0. 
   1  -3   1     37.09    7.45  0. 1.0000     0. 
  -1  -3  -1     44.52    4.06  0. 1.0000     0. 
   1  -3   1     43.55    3.42  0. 1.0000     0. 
   1  -3   1     39.31    3.52  0. 1.0000     0. 
  -1   3  -1     43.60    5.66  0. 1.0000     0. 
   1   3   1     38.12    3.89  0. 1.0000     0. 
  -1   3  -1     31.58    4.69  0. 1.0000     0. 
  -1   3  -1     34.01    4.13  0. 1.0000     0. 
  -1   3  -1     42.13    3.81  0. 1.0000     0. 
   1   3   1     42.95    2.95  0. 1.0000     0. 
   1   3   1     27.19    6.82  0. 1.0000     0. 
   2  -3   1    243.01   12.10  0. 1.0000     0. 
  -2  -3  -1    236.68   11.91  0. 1.0000     0. 
   2  -3   1    276.52   17.67  0. 1.0000     0. 
  -2   3  -1    237.23   13.39  0. 1.0000     0. 
  -2   3  -1    242.94   11.53  0. 1.0000     0. 
   2   3   1    212.77   12.25  0. 1.0000     0. 
   2   3   1    240.19   10.91  0. 1.0000     0. 
   3   3   1    323.75   15.15  0. 1.0000     0. 
  -3   3  -1    321.00   18.11  0. 1.0000     0. 
   2  -1  -2   1054.98   48.37  0. 1.0000     0. 
  -2  -1   2   1039.65   48.68  0. 1.0000     0. 
  -2   1   2   1051.56   43.80  0. 1.0000     0. 
   1  -1  -2     97.75    4.96  0. 1.0000     0. 
  -1  -1   2     91.41    4.72  0. 1.0000     0. 
   1  -1  -2     90.11    5.55  0. 1.0000     0. 
  -1   1   2     94.04    4.89  0. 1.0000     0. 
   1   1  -2     97.81    4.67  0. 1.0000     0. 
  -1   1   2     95.64    4.84  0. 1.0000     0. 
   1   1  -2     90.03    4.78  0. 1.0000     0. 
  -1   1   2     92.07    4.28  0. 1.0000     0. 
  -1   1   2     94.08    4.47  0. 1.0000     0. 
   0  -1   2   1130.01   49.32  0. 1.0000     0. 
   0  -1  -2   1043.18   47.98  0. 1.0000     0. 
   0  -1  -2   1070.26   44.64  0. 1.0000     0. 
   0   1  -2   1069.62   44.42  0. 1.0000     0. 
   0   1  -2   1051.83   49.29  0. 1.0000     0. 
   0   1  -2   1063.90   43.71  0. 1.0000     0. 
   0   1   2   1064.93   43.84  0. 1.0000     0. 
   0   1   2   1061.95   46.20  0. 1.0000     0. 
   0   1  -2   1057.58   44.66  0. 1.0000     0. 
   0   1   2   1018.43   45.55  0. 1.0000     0. 
   0   1   2   1047.11   48.39  0. 1.0000     0. 
   1  -1   2   1710.24   82.68  0. 1.0000     0. 
  -1  -1  -2   1686.11   69.93  0. 1.0000     0. 
   1   1   2   1583.83   75.56  0. 1.0000     0. 
  -1   1  -2   1639.97   68.82  0. 1.0000     0. 
  -1   1  -2   1661.93   77.67  0. 1.0000     0. 
   3  -2  -2    706.04   33.87  0. 1.0000     0. 
  -3   2   2    748.94   32.42  0. 1.0000     0. 
   3   2  -2    733.09   34.08  0. 1.0000     0. 
   2  -2  -2      0.30    1.56  0. 1.0000     0. 
  -2  -2   2      3.24    2.11  0. 1.0000     0. 
   2  -2  -2      5.81    5.33  0. 1.0000     0. 
  -2   2   2      0.46    2.31  0. 1.0000     0. 
  -2   2   2     -2.10    2.53  0. 1.0000     0. 
   2   2  -2      3.72    2.17  0. 1.0000     0. 
   2   2  -2      0.12    1.74  0. 1.0000     0. 
   1   2  -2    145.97    7.26  0. 1.0000     0. 
   1   2  -2    141.75    6.51  0. 1.0000     0. 
   0  -2   2    402.29   21.60  0. 1.0000     0. 
   0  -2  -2    376.45   19.09  0. 1.0000     0. 
   0  -2   2    376.45   18.67  0. 1.0000     0. 
   0  -2  -2    397.55   20.34  0. 1.0000     0. 
   0  -2  -2    419.54   16.99  0. 1.0000     0. 
   0   2   2    393.24   18.61  0. 1.0000     0. 
   0   2  -2    409.49   17.30  0. 1.0000     0. 
   0   2   2    396.86   16.82  0. 1.0000     0. 
   0   2  -2    393.53   19.44  0. 1.0000     0. 
   2  -2   2   1343.50   66.28  0. 1.0000     0. 
  -2  -2  -2   1362.66   56.61  0. 1.0000     0. 
   2   2   2   1300.63   58.81  0. 1.0000     0. 
  -2   2  -2   1332.37   63.44  0. 1.0000     0. 
   3  -3  -2      3.57    2.59  0. 1.0000     0. 
  -3  -3   2      9.25    3.53  0. 1.0000     0. 
   3   3  -2      9.61    3.72  0. 1.0000     0. 
  -3   3   2      3.49    4.16  0. 1.0000     0. 
  -3   3   2      8.08    4.10  0. 1.0000     0. 
  -2  -3   2    230.59   11.60  0. 1.0000     0. 
   2  -3  -2    214.34   11.57  0. 1.0000     0. 
  -2   3   2    222.43   12.66  0. 1.0000     0. 
   2   3  -2    208.94   11.40  0. 1.0000     0. 
   1  -3  -2      3.41    2.46  0. 1.0000     0. 
   1  -3  -2     -6.16    5.99  0. 1.0000     0. 
   1  -3  -2      1.48    2.56  0. 1.0000     0. 
   1  -3  -2      0.18    2.53  0. 1.0000     0. 
  -1  -3   2      1.05    2.50  0. 1.0000     0. 
  -1   3   2     -4.09    2.76  0. 1.0000     0. 
   1   3  -2      4.25    2.98  0. 1.0000     0. 
  -1   3   2      0.37    4.70  0. 1.0000     0. 
   1   3  -2      0.10    2.99  0. 1.0000     0. 
   0  -3  -2     -1.21    2.41  0. 1.0000     0. 
   0  -3  -2      1.52    2.89  0. 1.0000     0. 
   0  -3  -2     -1.77    2.31  0. 1.0000     0. 
   0  -3  -2    -14.63    6.45  0. 1.0000     0. 
   0  -3   2     -3.52    2.70  0. 1.0000     0. 
   0  -3   2     -3.59    6.69  0. 1.0000     0. 
   0   3  -2     -2.10    2.61  0. 1.0000     0. 
   0   3  -2     -4.59    3.64  0. 1.0000     0. 
   0   3   2      2.68    2.45  0. 1.0000     0. 
   0   3   2     -4.60    6.20  0. 1.0000     0. 
  -1  -3  -2    532.88   27.63  0. 1.0000     0. 
  -1  -3  -2    532.07   23.54  0. 1.0000     0. 
   1  -3   2    528.94   29.68  0. 1.0000     0. 
  -1   3  -2    549.91   23.51  0. 1.0000     0. 
   1   3   2    529.19   22.70  0. 1.0000     0. 
  -1   3  -2    525.39   26.08  0. 1.0000     0. 
  -2  -3  -2     34.20    3.63  0. 1.0000     0. 
   2  -3   2     49.78    8.97  0. 1.0000     0. 
  -2   3  -2     52.07    5.50  0. 1.0000     0. 
  -2   3  -2     46.02    4.12  0. 1.0000     0. 
   2   3   2     29.05    2.92  0. 1.0000     0. 
   3  -3   2     10.31    9.76  0. 1.0000     0. 
   3   3   2     18.88    2.97  0. 1.0000     0. 
   4   4  -2     -1.31    4.67  0. 1.0000     0. 
  -3  -4   2     11.76    5.26  0. 1.0000     0. 
   3   4  -2      2.30    4.46  0. 1.0000     0. 
  -2  -4   2      9.26    4.42  0. 1.0000     0. 
   2   4  -2      6.02    3.94  0. 1.0000     0. 
   2   4  -2      5.99    4.12  0. 1.0000     0. 
  -1  -4   2     -2.44    3.97  0. 1.0000     0. 
   1  -4  -2      3.22    3.17  0. 1.0000     0. 
  -1  -4   2    -13.75    9.83  0. 1.0000     0. 
   1   4  -2     -0.96    3.87  0. 1.0000     0. 
   1   4  -2      0.13    3.25  0. 1.0000     0. 
   0  -4  -2     -1.58    3.06  0. 1.0000     0. 
   0  -4   2     -6.24    9.00  0. 1.0000     0. 
   0   4  -2     -2.67    3.34  0. 1.0000     0. 
   0   4  -2      0.48    3.81  0. 1.0000     0. 
   1  -4   2     -0.30    3.73  0. 1.0000     0. 
   1  -4   2      2.73    8.62  0. 1.0000     0. 
  -1  -4  -2      0.24    3.24  0. 1.0000     0. 
  -1   4  -2      1.82    4.72  0. 1.0000     0. 
  -1   4  -2      2.50    3.34  0. 1.0000     0. 
  -2  -4  -2     44.17    6.87  0. 1.0000     0. 
   2  -4   2     36.94    4.18  0. 1.0000     0. 
   2  -4   2     26.48    9.46  0. 1.0000     0. 
  -2   4  -2     46.28    6.32  0. 1.0000     0. 
  -2   4  -2     37.59    5.04  0. 1.0000     0. 
   3  -4   2     12.36    3.53  0. 1.0000     0. 
   3  -4   2      7.30   12.41  0. 1.0000     0. 
  -3   4  -2      3.92    6.22  0. 1.0000     0. 
  -4   4  -2      4.86    6.35  0. 1.0000     0. 
  -1   0   3      0.31    0.54  0. 1.0000     0. 
   1   0  -3      0.02    0.39  0. 1.0000     0. 
   1   0  -3      0.11    0.36  0. 1.0000     0. 
   1   0  -3     -0.34    0.53  0. 1.0000     0. 
  -1   0   3     -0.02    0.41  0. 1.0000     0. 
  -1   0   3      0.15    0.40  0. 1.0000     0. 
   0   0   3      0.18    0.28  0. 1.0000     0. 
   0   0  -3      0.13    0.29  0. 1.0000     0. 
   0   0  -3      0.06    0.72  0. 1.0000     0. 
   0   0   3      0.03    0.76  0. 1.0000     0. 
   0   0   3     -0.05    0.73  0. 1.0000     0. 
   0   0  -3     -0.07    0.35  0. 1.0000     0. 
  -2  -1   3    328.60   16.10  0. 1.0000     0. 
  -2   1   3    350.45   14.86  0. 1.0000     0. 
   2   1  -3    342.08   16.33  0. 1.0000     0. 
  -1  -1   3    414.88   19.88  0. 1.0000     0. 
  -1   1   3    431.30   20.50  0. 1.0000     0. 
   1   1  -3    427.49   20.08  0. 1.0000     0. 
  -1   1   3    435.94   18.02  0. 1.0000     0. 
  -1   1   3    442.97   18.75  0. 1.0000     0. 
   0  -1   3    153.22    7.49  0. 1.0000     0. 
   0   1   3    160.99    6.79  0. 1.0000     0. 
   0   1  -3    155.49    6.95  0. 1.0000     0. 
   0   1   3    157.67    6.76  0. 1.0000     0. 
   0   1  -3    158.88    8.01  0. 1.0000     0. 
  -1   1  -3    762.96   36.47  0. 1.0000     0. 
  -3  -2   3    277.77   13.86  0. 1.0000     0. 
   3  -2  -3    276.78   13.75  0. 1.0000     0. 
  -3   2   3    281.14   13.29  0. 1.0000     0. 
   3   2  -3    263.43   13.90  0. 1.0000     0. 
  -2  -2   3    206.10   11.03  0. 1.0000     0. 
   2  -2  -3    217.62   11.11  0. 1.0000     0. 
   2   2  -3    223.70   11.06  0. 1.0000     0. 
  -2   2   3    220.34   11.70  0. 1.0000     0. 
  -2   2   3    217.57   11.00  0. 1.0000     0. 
  -1  -2  -3    112.90    5.45  0. 1.0000     0. 
   1  -2   3    112.17    8.44  0. 1.0000     0. 
  -1   2  -3    104.95    6.09  0. 1.0000     0. 
   1   2   3    112.11    5.27  0. 1.0000     0. 
   1   2   3    114.07    9.10  0. 1.0000     0. 
  -1   2  -3    109.54    6.75  0. 1.0000     0. 
  -1   2  -3     99.29    5.80  0. 1.0000     0. 
   2  -2   3     97.39    8.47  0. 1.0000     0. 
  -2  -2  -3     73.74    4.92  0. 1.0000     0. 
  -2   2  -3     94.37    5.34  0. 1.0000     0. 
  -2   2  -3     98.79    7.24  0. 1.0000     0. 
   2   2   3     90.72    4.41  0. 1.0000     0. 
   3  -3  -3    264.82   14.07  0. 1.0000     0. 
   3   3  -3    280.88   13.91  0. 1.0000     0. 
  -3   3   3    260.17   15.50  0. 1.0000     0. 
  -2  -3   3      4.41    3.04  0. 1.0000     0. 
   2  -3  -3      0.11    2.36  0. 1.0000     0. 
  -2   3   3      0.18    4.68  0. 1.0000     0. 
   2   3  -3      1.39    3.08  0. 1.0000     0. 
  -2   3   3      7.54    3.40  0. 1.0000     0. 
   2   3  -3      4.35    3.06  0. 1.0000     0. 
  -1  -3   3      5.40    2.52  0. 1.0000     0. 
   1  -3  -3      8.71    2.66  0. 1.0000     0. 
   1  -3  -3      3.74    2.65  0. 1.0000     0. 
  -1   3   3      4.96    2.81  0. 1.0000     0. 
   1   3  -3      4.10    3.13  0. 1.0000     0. 
   1   3  -3      4.33    2.96  0. 1.0000     0. 
  -1   3   3      3.21    4.95  0. 1.0000     0. 
   0  -3   3    156.23    8.87  0. 1.0000     0. 
   0  -3  -3    170.43    8.39  0. 1.0000     0. 
   0  -3  -3    139.68    9.43  0. 1.0000     0. 
   0  -3   3    171.46   13.05  0. 1.0000     0. 
   0   3  -3    164.02    8.84  0. 1.0000     0. 
   0   3  -3    181.16    9.76  0. 1.0000     0. 
   0   3   3    140.73   12.48  0. 1.0000     0. 
   0   3   3    181.09    8.04  0. 1.0000     0. 
   1  -3   3     88.72    9.02  0. 1.0000     0. 
  -1  -3  -3     89.68    7.12  0. 1.0000     0. 
  -1  -3  -3     60.36    4.70  0. 1.0000     0. 
   1   3   3     67.15    8.68  0. 1.0000     0. 
  -1   3  -3     78.58    6.11  0. 1.0000     0. 
  -1   3  -3     74.71    5.37  0. 1.0000     0. 
   1   3   3     81.32    4.57  0. 1.0000     0. 
  -2  -3  -3      0.59    2.44  0. 1.0000     0. 
   2  -3   3      3.51    7.21  0. 1.0000     0. 
   2   3   3      0.96    2.05  0. 1.0000     0. 
  -2   3  -3      6.03    4.59  0. 1.0000     0. 
  -2   3  -3      3.13    2.76  0. 1.0000     0. 
   4   4  -3    124.45    8.76  0. 1.0000     0. 
  -3  -4   3      2.86    3.90  0. 1.0000     0. 
   3  -4  -3      8.87    3.23  0. 1.0000     0. 
   3   4  -3      5.31    4.67  0. 1.0000     0. 
  -3   4   3      0.64    4.81  0. 1.0000     0. 
  -3   4   3      2.88    6.32  0. 1.0000     0. 
  -2  -4   3     12.77    4.31  0. 1.0000     0. 
   2  -4  -3      8.46    3.15  0. 1.0000     0. 
  -2   4   3      8.80    4.99  0. 1.0000     0. 
  -2   4   3      2.18    6.87  0. 1.0000     0. 
   2   4  -3      9.32    3.82  0. 1.0000     0. 
   2   4  -3     17.18    4.24  0. 1.0000     0. 
  -1  -4   3     73.85    5.62  0. 1.0000     0. 
   1  -4  -3     73.79    5.16  0. 1.0000     0. 
   1  -4  -3     44.29    5.07  0. 1.0000     0. 
  -1  -4   3     60.57   11.13  0. 1.0000     0. 
  -1   4   3     43.92   10.27  0. 1.0000     0. 
   1   4  -3     70.23    5.53  0. 1.0000     0. 
   0  -4   3     -2.06    3.49  0. 1.0000     0. 
   0  -4  -3      2.44    3.18  0. 1.0000     0. 
   0  -4  -3      0.35    3.10  0. 1.0000     0. 
   0  -4   3      9.67    8.85  0. 1.0000     0. 
   0   4   3      3.47    3.47  0. 1.0000     0. 
   0   4   3     -2.57    8.43  0. 1.0000     0. 
   0   4  -3      1.54    3.31  0. 1.0000     0. 
   0   4  -3      1.27    4.39  0. 1.0000     0. 
   1  -4   3      9.89    3.83  0. 1.0000     0. 
  -1  -4  -3     15.38    3.56  0. 1.0000     0. 
  -1  -4  -3     11.24    4.25  0. 1.0000     0. 
   1  -4   3      8.13    8.46  0. 1.0000     0. 
  -1   4  -3      8.08    3.66  0. 1.0000     0. 
  -1   4  -3      8.35    5.10  0. 1.0000     0. 
   1   4   3      6.69    7.01  0. 1.0000     0. 
   1   4   3      7.33    3.66  0. 1.0000     0. 
  -2  -4  -3     -2.07    5.34  0. 1.0000     0. 
   2  -4   3      4.25    3.58  0. 1.0000     0. 
  -2  -4  -3      3.18    3.35  0. 1.0000     0. 
   2  -4   3      1.39    8.33  0. 1.0000     0. 
  -2   4  -3      3.36    4.01  0. 1.0000     0. 
  -2   4  -3      1.21    5.28  0. 1.0000     0. 
   2   4   3      0.19    2.82  0. 1.0000     0. 
   3  -4   3      1.00    3.52  0. 1.0000     0. 
   3  -4   3      6.29   13.06  0. 1.0000     0. 
   3   4   3      3.21    3.22  0. 1.0000     0. 
  -3   4  -3      6.34    5.99  0. 1.0000     0. 
  -4   4  -3      9.48    6.68  0. 1.0000     0. 
   1   0  -4   4349.98  172.07  0. 1.0000     0. 
  -1   0   4   4139.42  171.44  0. 1.0000     0. 
   1   0  -4   3399.40  186.59  0. 1.0000     0. 
  -1   0   4   4133.34  172.32  0. 1.0000     0. 
  -1   0   4   4399.90  187.46  0. 1.0000     0. 
   1   0  -4   4476.08  192.21  0. 1.0000     0. 
   0   0  -4   3265.15  149.46  0. 1.0000     0. 
   0   0   4   3162.99  133.72  0. 1.0000     0. 
   0   0  -4   3385.28  134.06  0. 1.0000     0. 
   0   0   4   2958.53  160.68  0. 1.0000     0. 
   0   0   4   3542.61  132.81  0. 1.0000     0. 
   0   0  -4   3032.28  134.77  0. 1.0000     0. 
   3  -1  -4      2.46    0.81  0. 1.0000     0. 
   2   1  -4     94.06    5.07  0. 1.0000     0. 
  -1  -1   4   1741.86   78.85  0. 1.0000     0. 
  -1   1   4   1719.10   71.91  0. 1.0000     0. 
   1   1  -4   1751.23   79.92  0. 1.0000     0. 
   0   1   4    930.88   38.95  0. 1.0000     0. 
   0   1  -4    938.48   43.59  0. 1.0000     0. 
   3  -2  -4    625.01   29.76  0. 1.0000     0. 
   3   2  -4    615.19   29.97  0. 1.0000     0. 
  -3   2   4    623.19   28.14  0. 1.0000     0. 
  -2  -2   4     40.81    3.18  0. 1.0000     0. 
   2   2  -4     39.00    3.46  0. 1.0000     0. 
   2   2  -4     52.24    4.08  0. 1.0000     0. 
  -2   2   4     38.49    3.26  0. 1.0000     0. 
  -2   2   4     38.39    3.27  0. 1.0000     0. 
  -2   2   4     31.69    4.43  0. 1.0000     0. 
   1  -2  -4    146.52    9.35  0. 1.0000     0. 
   1  -2  -4    148.30    7.50  0. 1.0000     0. 
   1  -2  -4    148.81    8.29  0. 1.0000     0. 
  -1  -2   4    149.62    7.85  0. 1.0000     0. 
  -1  -2   4    146.91    7.82  0. 1.0000     0. 
  -1   2   4    157.12    7.11  0. 1.0000     0. 
   1   2  -4    159.81    7.82  0. 1.0000     0. 
  -1   2   4    152.91    9.23  0. 1.0000     0. 
  -1   2   4    153.59    7.69  0. 1.0000     0. 
  -1   2   4    152.72    7.02  0. 1.0000     0. 
   1   2  -4    152.27    8.17  0. 1.0000     0. 
   1   2  -4    151.35    9.45  0. 1.0000     0. 
   0  -2  -4     32.11    2.61  0. 1.0000     0. 
   0  -2   4     40.31    2.37  0. 1.0000     0. 
   0  -2   4     35.39    5.69  0. 1.0000     0. 
   0  -2  -4     34.57    4.09  0. 1.0000     0. 
   0  -2  -4     34.86    2.73  0. 1.0000     0. 
   0   2  -4     24.59    2.80  0. 1.0000     0. 
   0   2   4     31.21    5.23  0. 1.0000     0. 
   0   2   4     26.00    2.37  0. 1.0000     0. 
   0   2  -4     32.56    3.33  0. 1.0000     0. 
   0   2   4     33.21    2.36  0. 1.0000     0. 
   0   2  -4     31.90    3.51  0. 1.0000     0. 
   1  -2   4    139.55    9.70  0. 1.0000     0. 
  -1  -2  -4    139.02    6.42  0. 1.0000     0. 
  -1   2  -4    126.90    7.10  0. 1.0000     0. 
  -1   2  -4    133.97    6.95  0. 1.0000     0. 
  -1   2  -4    137.75    7.94  0. 1.0000     0. 
   1   2   4    126.15    7.22  0. 1.0000     0. 
   2  -2   4    254.29   16.02  0. 1.0000     0. 
  -2  -2  -4    249.79   11.83  0. 1.0000     0. 
   4  -3  -4     39.71    4.10  0. 1.0000     0. 
  -4   3   4     29.36    5.37  0. 1.0000     0. 
   3  -3  -4      3.57    2.76  0. 1.0000     0. 
  -3  -3   4      1.10    3.37  0. 1.0000     0. 
   3   3  -4     -3.23    3.37  0. 1.0000     0. 
  -3   3   4      2.81    4.38  0. 1.0000     0. 
   3   3  -4      3.67    3.77  0. 1.0000     0. 
  -3   3   4     -0.55    3.84  0. 1.0000     0. 
   2  -3  -4    101.23    7.04  0. 1.0000     0. 
  -2  -3   4    107.91    6.89  0. 1.0000     0. 
  -2   3   4    111.44    8.98  0. 1.0000     0. 
   2   3  -4    114.01    6.99  0. 1.0000     0. 
  -2   3   4    109.68    6.43  0. 1.0000     0. 
   2   3  -4    112.08    7.52  0. 1.0000     0. 
  -1  -3   4     20.11    3.24  0. 1.0000     0. 
   1  -3  -4     18.11    3.19  0. 1.0000     0. 
   1  -3  -4     18.90    3.31  0. 1.0000     0. 
   1   3  -4     25.80    3.89  0. 1.0000     0. 
  -1   3   4     23.23    3.09  0. 1.0000     0. 
  -1   3   4     14.17    5.53  0. 1.0000     0. 
   1   3  -4     17.41    3.29  0. 1.0000     0. 
   0  -3  -4     97.09    5.51  0. 1.0000     0. 
   0  -3   4     73.36    5.62  0. 1.0000     0. 
   0  -3   4    104.43   10.20  0. 1.0000     0. 
   0  -3  -4    112.76    7.75  0. 1.0000     0. 
   0   3   4     89.90    5.15  0. 1.0000     0. 
   0   3  -4     71.43    5.73  0. 1.0000     0. 
   0   3   4     97.53    9.59  0. 1.0000     0. 
   0   3  -4     96.75    6.39  0. 1.0000     0. 
   1  -3   4     24.37    3.02  0. 1.0000     0. 
  -1  -3  -4      9.78    2.57  0. 1.0000     0. 
   1  -3   4     20.99    6.84  0. 1.0000     0. 
  -1  -3  -4     13.18    4.93  0. 1.0000     0. 
  -1   3  -4     16.00    4.57  0. 1.0000     0. 
   1   3   4     16.50    6.84  0. 1.0000     0. 
  -1   3  -4     20.40    3.37  0. 1.0000     0. 
   1   3   4     16.47    2.66  0. 1.0000     0. 
  -2  -3  -4      1.33    2.58  0. 1.0000     0. 
   3   3   4     12.82    3.00  0. 1.0000     0. 
  -5   4   4      7.68    5.86  0. 1.0000     0. 
   4  -4  -4      5.85    3.60  0. 1.0000     0. 
   4   4  -4      8.45    5.35  0. 1.0000     0. 
  -4   4   4      3.62    5.79  0. 1.0000     0. 
  -3  -4   4     -2.06    4.43  0. 1.0000     0. 
   3  -4  -4      1.24    3.43  0. 1.0000     0. 
  -3   4   4      5.82    6.61  0. 1.0000     0. 
  -3   4   4      1.75    5.04  0. 1.0000     0. 
   3   4  -4     -6.42    4.81  0. 1.0000     0. 
   2  -4  -4     -1.89    3.15  0. 1.0000     0. 
  -2  -4   4      0.54    4.44  0. 1.0000     0. 
   2  -4  -4     -4.84    3.78  0. 1.0000     0. 
   2   4  -4      1.68    4.03  0. 1.0000     0. 
   2   4  -4     -0.44    3.85  0. 1.0000     0. 
  -2   4   4      0.24    6.56  0. 1.0000     0. 
  -2   4   4      0.92    4.59  0. 1.0000     0. 
  -1  -4   4      5.12    3.79  0. 1.0000     0. 
   1  -4  -4      0.30    3.14  0. 1.0000     0. 
  -1  -4   4     -3.80    9.19  0. 1.0000     0. 
   1  -4  -4      0.38    3.37  0. 1.0000     0. 
  -1   4   4      0.73    8.67  0. 1.0000     0. 
   1   4  -4     -2.36    3.71  0. 1.0000     0. 
   1   4  -4      5.69    4.20  0. 1.0000     0. 
  -1   4   4      2.80    3.52  0. 1.0000     0. 
   0  -4  -4      0.66    3.46  0. 1.0000     0. 
   0  -4  -4      2.27    3.17  0. 1.0000     0. 
   0  -4   4     -1.53    8.64  0. 1.0000     0. 
   0  -4   4     -0.13    3.03  0. 1.0000     0. 
   0   4  -4     -0.70    4.32  0. 1.0000     0. 
   0   4  -4     -0.93    3.44  0. 1.0000     0. 
   0   4   4     -1.87    3.45  0. 1.0000     0. 
   0   4   4     -8.82    8.64  0. 1.0000     0. 
   1  -4   4      2.71    3.50  0. 1.0000     0. 
  -1  -4  -4      9.79    3.48  0. 1.0000     0. 
   1  -4   4      2.03    8.27  0. 1.0000     0. 
  -1  -4  -4      2.64    5.27  0. 1.0000     0. 
   1   4   4      8.41    3.59  0. 1.0000     0. 
  -1   4  -4      5.26    3.57  0. 1.0000     0. 
  -1   4  -4      6.74    5.04  0. 1.0000     0. 
   1   4   4     -0.72    6.99  0. 1.0000     0. 
  -2  -4  -4     -1.00    3.27  0. 1.0000     0. 
   2  -4   4     -2.74    3.54  0. 1.0000     0. 
  -2  -4  -4      0.26    5.36  0. 1.0000     0. 
   2  -4   4      5.18    8.67  0. 1.0000     0. 
  -2   4  -4     -3.40    4.21  0. 1.0000     0. 
  -2   4  -4     -5.11    5.20  0. 1.0000     0. 
   2   4   4     -5.07    2.99  0. 1.0000     0. 
   3  -4   4      8.72   14.10  0. 1.0000     0. 
   3  -4   4      4.48    3.51  0. 1.0000     0. 
   3   4   4      4.61    3.13  0. 1.0000     0. 
  -3   4  -4     11.31    6.29  0. 1.0000     0. 
  -2   0   5      0.23    0.78  0. 1.0000     0. 
   2   0  -5      0.31    1.01  0. 1.0000     0. 
   1   0  -5      0.32    0.62  0. 1.0000     0. 
  -1   0   5      0.18    0.84  0. 1.0000     0. 
   1   0  -5      0.26    0.81  0. 1.0000     0. 
  -1   0   5     -0.14    0.63  0. 1.0000     0. 
   1   0  -5     -0.38    0.64  0. 1.0000     0. 
  -1   0   5     -0.09    0.52  0. 1.0000     0. 
   0   0   5      0.15    1.63  0. 1.0000     0. 
   0   0   5      0.20    0.59  0. 1.0000     0. 
   0   0  -5      0.65    1.27  0. 1.0000     0. 
   0   0  -5      0.05    0.57  0. 1.0000     0. 
   0   0   5     -0.52    1.26  0. 1.0000     0. 
   0   0  -5      0.75    0.77  0. 1.0000     0. 
   3  -1  -5   1078.01   50.20  0. 1.0000     0. 
  -3  -1   5   1082.61   51.28  0. 1.0000     0. 
  -3   1   5   1100.34   46.65  0. 1.0000     0. 
   3   1  -5   1109.15   46.95  0. 1.0000     0. 
  -2   1   5    291.99   13.66  0. 1.0000     0. 
   2   1  -5    290.89   13.39  0. 1.0000     0. 
  -1   1   5    379.25   17.90  0. 1.0000     0. 
   1   1  -5    388.87   16.95  0. 1.0000     0. 
   0  -1   5    187.98   10.72  0. 1.0000     0. 
   0  -1  -5    169.51    7.92  0. 1.0000     0. 
   0   1  -5    165.68    8.14  0. 1.0000     0. 
   1  -1   5    278.02   15.43  0. 1.0000     0. 
  -1  -1  -5    252.90   11.87  0. 1.0000     0. 
  -1   1  -5    252.47   11.89  0. 1.0000     0. 
  -1   1  -5    258.86   13.80  0. 1.0000     0. 
   1   1   5    260.42   15.09  0. 1.0000     0. 
   1   1   5    265.91   11.16  0. 1.0000     0. 
  -3  -2   5     26.89    3.30  0. 1.0000     0. 
   3  -2  -5     27.74    3.12  0. 1.0000     0. 
   3   2  -5     29.54    3.14  0. 1.0000     0. 
  -3   2   5     37.65    4.21  0. 1.0000     0. 
  -3   2   5     27.48    3.47  0. 1.0000     0. 
   3   2  -5     26.78    3.72  0. 1.0000     0. 
  -2  -2   5    322.71   16.10  0. 1.0000     0. 
   2  -2  -5    332.66   16.90  0. 1.0000     0. 
  -2   2   5    338.92   14.53  0. 1.0000     0. 
   2   2  -5    341.40   16.21  0. 1.0000     0. 
   2   2  -5    335.97   15.64  0. 1.0000     0. 
  -2   2   5    331.39   16.88  0. 1.0000     0. 
  -1  -2   5     90.97    5.33  0. 1.0000     0. 
   1  -2  -5     95.23    4.70  0. 1.0000     0. 
   1   2  -5     78.12    5.84  0. 1.0000     0. 
  -1   2   5     95.07    6.85  0. 1.0000     0. 
  -1   2   5     96.06    4.78  0. 1.0000     0. 
   1   2  -5     94.82    5.84  0. 1.0000     0. 
   0  -2  -5    234.96   10.62  0. 1.0000     0. 
   0  -2   5    228.25   11.27  0. 1.0000     0. 
   0  -2   5    229.81   14.32  0. 1.0000     0. 
   0   2   5    234.97   14.71  0. 1.0000     0. 
   0   2   5    226.19   10.34  0. 1.0000     0. 
   0   2  -5    228.49   12.37  0. 1.0000     0. 
  -1  -2  -5      1.34    1.73  0. 1.0000     0. 
   1  -2   5      3.63    5.01  0. 1.0000     0. 
  -1   2  -5     -0.79    2.98  0. 1.0000     0. 
   1   2   5      2.31    1.69  0. 1.0000     0. 
   1   2   5     -0.24    4.25  0. 1.0000     0. 
  -1   2  -5      1.59    1.99  0. 1.0000     0. 
  -2  -2  -5     92.19    5.15  0. 1.0000     0. 
   2  -2   5     98.41    9.63  0. 1.0000     0. 
  -2   2  -5     68.33    7.42  0. 1.0000     0. 
  -4  -3   5     22.50    4.67  0. 1.0000     0. 
   4  -3  -5     43.65    4.13  0. 1.0000     0. 
   2  -3  -5    277.76   15.29  0. 1.0000     0. 
  -2  -3   5    298.63   14.51  0. 1.0000     0. 
  -2   3   5    290.82   16.65  0. 1.0000     0. 
  -2   3   5    291.59   13.53  0. 1.0000     0. 
   2   3  -5    300.55   14.99  0. 1.0000     0. 
   2   3  -5    283.27   14.54  0. 1.0000     0. 
  -1  -3   5    203.71   10.65  0. 1.0000     0. 
   1  -3  -5    210.01   11.24  0. 1.0000     0. 
   1  -3  -5    203.22   10.22  0. 1.0000     0. 
  -1   3   5    206.49    9.81  0. 1.0000     0. 
   1   3  -5    229.55   11.39  0. 1.0000     0. 
   1   3  -5    182.24   10.91  0. 1.0000     0. 
   0  -3   5      3.10    7.04  0. 1.0000     0. 
   0  -3  -5      2.64    3.99  0. 1.0000     0. 
   0  -3   5     -0.11    2.51  0. 1.0000     0. 
   0  -3  -5     -0.50    2.60  0. 1.0000     0. 
   0   3   5     -2.12    2.54  0. 1.0000     0. 
   0   3  -5      0.71    3.00  0. 1.0000     0. 
   0   3   5      4.39    6.12  0. 1.0000     0. 
   0   3  -5      5.64    3.98  0. 1.0000     0. 
   1  -3   5     15.59    2.95  0. 1.0000     0. 
   1  -3   5     18.94    7.41  0. 1.0000     0. 
  -1  -3  -5     13.83    2.71  0. 1.0000     0. 
   1   3   5     15.29    2.89  0. 1.0000     0. 
  -1   3  -5     12.09    4.76  0. 1.0000     0. 
   1   3   5      3.44    6.06  0. 1.0000     0. 
  -1   3  -5     15.26    3.13  0. 1.0000     0. 
   3  -3   5     -0.49   10.05  0. 1.0000     0. 
  -4  -4   5     18.94    4.98  0. 1.0000     0. 
   4  -4  -5     10.58    3.64  0. 1.0000     0. 
  -4   4   5     11.73    7.04  0. 1.0000     0. 
   4   4  -5      6.80    4.64  0. 1.0000     0. 
   3  -4  -5     99.91    7.24  0. 1.0000     0. 
  -3   4   5    106.49   10.38  0. 1.0000     0. 
   3   4  -5     92.90    8.47  0. 1.0000     0. 
  -2  -4   5    186.69   11.79  0. 1.0000     0. 
   2  -4  -5    212.25   11.66  0. 1.0000     0. 
   2  -4  -5    202.32   10.63  0. 1.0000     0. 
   2   4  -5    203.66   11.21  0. 1.0000     0. 
   2   4  -5    202.54   11.79  0. 1.0000     0. 
  -2   4   5    197.40   15.41  0. 1.0000     0. 
  -1  -4   5    130.36   13.76  0. 1.0000     0. 
  -1  -4   5    128.61    8.42  0. 1.0000     0. 
   1  -4  -5    147.40    9.22  0. 1.0000     0. 
   1  -4  -5    145.39    8.03  0. 1.0000     0. 
  -1   4   5    141.61    7.87  0. 1.0000     0. 
   1   4  -5    133.95    8.90  0. 1.0000     0. 
   1   4  -5    147.88    9.14  0. 1.0000     0. 
  -1   4   5    111.14   12.97  0. 1.0000     0. 
   0  -4  -5     77.74    6.57  0. 1.0000     0. 
   0  -4   5     70.47    5.71  0. 1.0000     0. 
   0  -4   5     82.70   10.76  0. 1.0000     0. 
   0  -4  -5     73.76    5.47  0. 1.0000     0. 
   0   4   5     54.74   10.65  0. 1.0000     0. 
   0   4   5     65.43    5.57  0. 1.0000     0. 
   0   4  -5     71.93    5.94  0. 1.0000     0. 
   0   4  -5     79.16    6.85  0. 1.0000     0. 
   1  -4   5    168.43   14.16  0. 1.0000     0. 
  -1  -4  -5    156.56   11.78  0. 1.0000     0. 
   1   4   5    157.35    8.58  0. 1.0000     0. 
  -1   4  -5    161.90    9.30  0. 1.0000     0. 
  -1   4  -5    169.47   10.66  0. 1.0000     0. 
  -2  -4  -5     -3.76    5.67  0. 1.0000     0. 
   2  -4   5      1.24    8.79  0. 1.0000     0. 
   2  -4   5      2.53    3.60  0. 1.0000     0. 
  -2  -4  -5      2.68    3.35  0. 1.0000     0. 
  -2   4  -5      6.73    5.41  0. 1.0000     0. 
  -2   4  -5      3.11    4.28  0. 1.0000     0. 
   2   4   5      1.71    3.06  0. 1.0000     0. 
   3  -4   5     36.96    4.65  0. 1.0000     0. 
   3   4   5     35.64    3.86  0. 1.0000     0. 
   2   0  -6   2836.72  113.43  0. 1.0000     0. 
  -2   0   6   2704.33  119.71  0. 1.0000     0. 
   2   0  -6   2587.90  126.96  0. 1.0000     0. 
  -2   0   6   2912.99  123.65  0. 1.0000     0. 
  -1   0   6     78.95    3.84  0. 1.0000     0. 
   1   0  -6     85.01    4.07  0. 1.0000     0. 
   1   0  -6     69.05    4.20  0. 1.0000     0. 
  -1   0   6     80.75    4.17  0. 1.0000     0. 
  -1   0   6     76.09    3.65  0. 1.0000     0. 
   1   0  -6     77.47    3.88  0. 1.0000     0. 
   0   0  -6    378.97   15.96  0. 1.0000     0. 
   0   0   6    396.06   16.40  0. 1.0000     0. 
   0   0  -6    374.67   17.86  0. 1.0000     0. 
   0   0  -6    382.56   15.87  0. 1.0000     0. 
   0   0   6    373.47   15.86  0. 1.0000     0. 
   0   0   6    309.36   19.74  0. 1.0000     0. 
  -3   1   6   1749.19   74.30  0. 1.0000     0. 
  -3   1   6   1747.72   72.86  0. 1.0000     0. 
  -2  -1   6     -0.13    1.35  0. 1.0000     0. 
   2  -1  -6     -0.72    1.26  0. 1.0000     0. 
   2   1  -6      0.67    1.56  0. 1.0000     0. 
   2   1  -6      0.18    1.63  0. 1.0000     0. 
  -2   1   6     -0.30    1.69  0. 1.0000     0. 
  -2   1   6     -1.21    1.63  0. 1.0000     0. 
   1   1  -6     39.94    2.98  0. 1.0000     0. 
  -1   1   6     40.80    2.34  0. 1.0000     0. 
  -1   1   6     32.96    3.58  0. 1.0000     0. 
   1   1  -6     36.45    3.14  0. 1.0000     0. 
   0  -1  -6   1641.17   71.02  0. 1.0000     0. 
   0  -1   6   1714.35   84.72  0. 1.0000     0. 
   0   1  -6   1651.50   78.81  0. 1.0000     0. 
   0   1  -6   1685.51   71.17  0. 1.0000     0. 
   0   1   6   1704.63   69.07  0. 1.0000     0. 
   0   1   6   1678.19   73.92  0. 1.0000     0. 
  -1  -1  -6      7.30    1.52  0. 1.0000     0. 
   1  -1   6     14.71    4.35  0. 1.0000     0. 
   1   1   6      7.03    1.33  0. 1.0000     0. 
  -1   1  -6     11.80    3.26  0. 1.0000     0. 
  -1   1  -6      7.12    1.86  0. 1.0000     0. 
   1   1   6      6.51    3.70  0. 1.0000     0. 
  -4   2   6    461.71   21.78  0. 1.0000     0. 
   3  -2  -6    592.36   27.30  0. 1.0000     0. 
  -3  -2   6    560.73   26.98  0. 1.0000     0. 
   3   2  -6    522.40   26.68  0. 1.0000     0. 
   3   2  -6    578.24   27.05  0. 1.0000     0. 
  -3   2   6    591.16   25.67  0. 1.0000     0. 
  -2  -2   6    223.46   11.95  0. 1.0000     0. 
   2  -2  -6    243.15   12.53  0. 1.0000     0. 
   2   2  -6    236.91   12.01  0. 1.0000     0. 
  -2   2   6    235.59   10.73  0. 1.0000     0. 
  -2   2   6    226.93   13.13  0. 1.0000     0. 
   2   2  -6    252.89   11.56  0. 1.0000     0. 
  -1  -2   6    212.96   10.43  0. 1.0000     0. 
   1  -2  -6    194.83   11.44  0. 1.0000     0. 
  -1   2   6    194.87   12.09  0. 1.0000     0. 
   1   2  -6    207.88   10.21  0. 1.0000     0. 
   1   2  -6    217.75   11.27  0. 1.0000     0. 
  -1   2   6    207.64    9.34  0. 1.0000     0. 
   0  -2  -6    782.82   31.74  0. 1.0000     0. 
   0  -2  -6    673.11   37.77  0. 1.0000     0. 
   0   2   6    774.46   31.40  0. 1.0000     0. 
   0   2  -6    749.82   36.25  0. 1.0000     0. 
   0   2   6    753.07   35.91  0. 1.0000     0. 
   0   2  -6    731.84   32.68  0. 1.0000     0. 
  -1  -2  -6    203.89    9.48  0. 1.0000     0. 
   1   2   6    196.28    9.20  0. 1.0000     0. 
  -2  -2  -6     12.58    2.51  0. 1.0000     0. 
   2   2   6     16.20    2.34  0. 1.0000     0. 
  -2   2  -6     14.55    5.03  0. 1.0000     0. 
  -2   2  -6     11.72    3.20  0. 1.0000     0. 
  -5   3   6      2.81    4.52  0. 1.0000     0. 
   4   3  -6    111.00    7.84  0. 1.0000     0. 
   3  -3  -6    162.14   10.13  0. 1.0000     0. 
  -3  -3   6    179.47   10.19  0. 1.0000     0. 
  -3   3   6    194.81    9.89  0. 1.0000     0. 
   3   3  -6    183.70   10.10  0. 1.0000     0. 
   2  -3   6     57.11    9.02  0. 1.0000     0. 
  -2  -3  -6     30.23    3.86  0. 1.0000     0. 
   3  -3   6     42.49   12.61  0. 1.0000     0. 
   4  -4  -6      4.25    3.69  0. 1.0000     0. 
  -4  -4   6      7.29    4.64  0. 1.0000     0. 
   4   4  -6     -1.43    5.17  0. 1.0000     0. 
  -4   4   6     12.85    6.83  0. 1.0000     0. 
  -4   4   6      0.18    5.31  0. 1.0000     0. 
  -3  -4   6      0.57    4.44  0. 1.0000     0. 
   3  -4  -6      3.23    3.61  0. 1.0000     0. 
   3  -4  -6      2.90    3.69  0. 1.0000     0. 
   3   4  -6      1.06    4.44  0. 1.0000     0. 
  -3   4   6      2.65    7.48  0. 1.0000     0. 
  -3   4   6     -0.99    4.85  0. 1.0000     0. 
   3   4  -6      0.39    4.01  0. 1.0000     0. 
  -2  -4   6     -6.35    9.10  0. 1.0000     0. 
   2  -4  -6      0.83    3.72  0. 1.0000     0. 
  -2  -4   6     -3.05    4.20  0. 1.0000     0. 
   2  -4  -6     -1.86    3.74  0. 1.0000     0. 
   2   4  -6     -1.65    3.81  0. 1.0000     0. 
  -2   4   6     -2.69    7.62  0. 1.0000     0. 
   2   4  -6     -2.52    4.38  0. 1.0000     0. 
  -2   4   6      2.66    4.20  0. 1.0000     0. 
  -1  -4   6      6.96    3.91  0. 1.0000     0. 
  -1  -4   6      8.37   10.01  0. 1.0000     0. 
   1  -4  -6     13.07    3.57  0. 1.0000     0. 
   1  -4  -6      7.14    4.07  0. 1.0000     0. 
   1   4  -6      9.76    4.06  0. 1.0000     0. 
  -1   4   6     10.93    8.68  0. 1.0000     0. 
  -1   4   6      9.86    4.01  0. 1.0000     0. 
   1   4  -6      6.20    4.40  0. 1.0000     0. 
   0  -4  -6      1.85    3.88  0. 1.0000     0. 
   0  -4   6      4.96    9.08  0. 1.0000     0. 
   0  -4  -6      1.64    3.27  0. 1.0000     0. 
   0  -4   6      4.44    3.27  0. 1.0000     0. 
   0   4   6     -1.43    7.83  0. 1.0000     0. 
   0   4  -6      3.79    3.78  0. 1.0000     0. 
   0   4   6      4.82    3.79  0. 1.0000     0. 
   0   4  -6      1.55    4.81  0. 1.0000     0. 
   1  -4   6      9.51    9.53  0. 1.0000     0. 
  -1  -4  -6      0.41    3.57  0. 1.0000     0. 
   1  -4   6      3.82    3.72  0. 1.0000     0. 
  -1  -4  -6     -1.26    5.07  0. 1.0000     0. 
   1   4   6      5.87    3.60  0. 1.0000     0. 
  -1   4  -6     -2.86    5.55  0. 1.0000     0. 
   1   4   6      3.00    7.93  0. 1.0000     0. 
  -1   4  -6      1.54    3.55  0. 1.0000     0. 
   2  -4   6      5.09    3.97  0. 1.0000     0. 
  -2  -4  -6      1.10    5.32  0. 1.0000     0. 
   2  -4   6      3.61    9.34  0. 1.0000     0. 
  -2  -4  -6      9.17    3.58  0. 1.0000     0. 
  -2   4  -6      8.33    4.06  0. 1.0000     0. 
  -2   4  -6      3.49    5.55  0. 1.0000     0. 
   2   4   6      2.46    3.05  0. 1.0000     0. 
   3   0  -7     -0.13    1.72  0. 1.0000     0. 
   2   0  -7      0.35    1.12  0. 1.0000     0. 
   2   0  -7      0.41    1.30  0. 1.0000     0. 
   2   0  -7     -0.62    1.20  0. 1.0000     0. 
  -2   0   7      1.74    1.27  0. 1.0000     0. 
  -2   0   7      0.86    1.61  0. 1.0000     0. 
  -2   0   7      0.05    1.40  0. 1.0000     0. 
   1   0  -7     -0.36    1.26  0. 1.0000     0. 
  -1   0   7     -0.32    1.58  0. 1.0000     0. 
   1   0  -7      1.08    1.55  0. 1.0000     0. 
  -1   0   7      0.43    2.36  0. 1.0000     0. 
   1   0  -7      0.29    1.01  0. 1.0000     0. 
  -1   0   7      0.03    0.83  0. 1.0000     0. 
  -1   0   7      0.68    0.96  0. 1.0000     0. 
   1   0  -7     -0.33    0.90  0. 1.0000     0. 
   0   0   7      0.58    1.19  0. 1.0000     0. 
   0   0   7      1.02    2.34  0. 1.0000     0. 
   0   0  -7      0.30    0.97  0. 1.0000     0. 
   0   0  -7      0.05    1.27  0. 1.0000     0. 
   0   0   7      1.27    2.65  0. 1.0000     0. 
   0   0  -7      0.19    2.12  0. 1.0000     0. 
  -3  -1   7     12.19    2.29  0. 1.0000     0. 
   3  -1  -7     12.49    2.11  0. 1.0000     0. 
  -3   1   7     13.13    2.66  0. 1.0000     0. 
   3   1  -7     11.76    2.28  0. 1.0000     0. 
  -3   1   7     10.70    2.47  0. 1.0000     0. 
   3   1  -7     12.98    2.79  0. 1.0000     0. 
  -2  -1   7    280.12   12.77  0. 1.0000     0. 
   2  -1  -7    258.56   13.06  0. 1.0000     0. 
   2   1  -7    272.30   12.87  0. 1.0000     0. 
   2   1  -7    275.49   11.88  0. 1.0000     0. 
  -2   1   7    275.42   11.45  0. 1.0000     0. 
  -2   1   7    284.30   12.32  0. 1.0000     0. 
   1  -1  -7   1478.63   67.82  0. 1.0000     0. 
   1  -1  -7   1431.77   60.14  0. 1.0000     0. 
  -1  -1   7   1392.81   64.78  0. 1.0000     0. 
   1   1  -7   1437.80   60.81  0. 1.0000     0. 
  -1   1   7   1407.05   62.68  0. 1.0000     0. 
   1   1  -7   1434.91   66.72  0. 1.0000     0. 
  -1   1   7   1447.17   59.26  0. 1.0000     0. 
   0  -1   7    112.68    8.00  0. 1.0000     0. 
   0  -1  -7    109.25    5.66  0. 1.0000     0. 
   0   1   7    115.86    8.02  0. 1.0000     0. 
   0   1  -7    111.84    5.65  0. 1.0000     0. 
   0   1   7    106.84    5.28  0. 1.0000     0. 
   0   1  -7    112.35    6.75  0. 1.0000     0. 
  -1  -1  -7   1073.06   47.31  0. 1.0000     0. 
   1  -1   7   1065.06   55.72  0. 1.0000     0. 
  -1   1  -7   1106.19   51.27  0. 1.0000     0. 
   1   1   7   1107.83   44.53  0. 1.0000     0. 
   1   1   7   1071.00   51.04  0. 1.0000     0. 
  -1   1  -7   1078.35   46.55  0. 1.0000     0. 
   4  -2  -7     42.83    3.75  0. 1.0000     0. 
  -4  -2   7     37.46    3.92  0. 1.0000     0. 
  -4   2   7     35.78    4.46  0. 1.0000     0. 
  -3   2   7    210.09   10.35  0. 1.0000     0. 
   3   2  -7    215.02   11.47  0. 1.0000     0. 
  -1  -2   7    109.19    5.84  0. 1.0000     0. 
  -1   2   7     99.28    5.47  0. 1.0000     0. 
   1   2  -7     98.08    6.57  0. 1.0000     0. 
   1   2   7     26.57    2.52  0. 1.0000     0. 
  -1   2  -7     22.75    4.15  0. 1.0000     0. 
  -2   2  -7     61.04    7.01  0. 1.0000     0. 
   5  -3  -7      8.99    3.31  0. 1.0000     0. 
  -5   3   7     10.53    4.94  0. 1.0000     0. 
   4   3  -7    139.37    9.45  0. 1.0000     0. 
  -3   3   7     13.48    5.74  0. 1.0000     0. 
   3   3  -7     31.56    4.47  0. 1.0000     0. 
   2  -3  -7     14.76    3.27  0. 1.0000     0. 
   2   3  -7     22.80    4.07  0. 1.0000     0. 
  -2   3   7     17.74    3.40  0. 1.0000     0. 
  -2   3   7     17.46    6.55  0. 1.0000     0. 
  -1  -3   7    379.91   17.32  0. 1.0000     0. 
   1  -3  -7    311.38   18.55  0. 1.0000     0. 
  -1   3   7    359.43   15.96  0. 1.0000     0. 
   1   3  -7    360.94   16.80  0. 1.0000     0. 
   0  -3  -7     18.64    3.30  0. 1.0000     0. 
   0  -3   7     33.39    8.31  0. 1.0000     0. 
   0   3   7     25.26    8.13  0. 1.0000     0. 
   0   3  -7     25.90    3.70  0. 1.0000     0. 
  -1  -3  -7     21.06    3.38  0. 1.0000     0. 
   1  -3   7     22.17    7.63  0. 1.0000     0. 
   1   3   7     19.84    6.68  0. 1.0000     0. 
  -1   3  -7     16.56    3.62  0. 1.0000     0. 
  -2  -3  -7     21.58    3.55  0. 1.0000     0. 
   2  -3   7     23.40    8.20  0. 1.0000     0. 
  -2   3  -7     12.10    5.58  0. 1.0000     0. 
   2   3   7     13.28    2.66  0. 1.0000     0. 
  -2   3  -7     24.90    4.35  0. 1.0000     0. 
   3  -3   7      3.12    8.93  0. 1.0000     0. 
  -3   3  -7     34.71    7.26  0. 1.0000     0. 
   5  -4  -7     34.62    5.03  0. 1.0000     0. 
  -5   4   7     42.39    7.89  0. 1.0000     0. 
   3  -4  -7     -4.66    3.70  0. 1.0000     0. 
  -3  -4   7      2.47    4.30  0. 1.0000     0. 
   3  -4  -7      2.96    3.62  0. 1.0000     0. 
  -3   4   7      1.71    7.45  0. 1.0000     0. 
  -3   4   7      9.59    5.03  0. 1.0000     0. 
   3   4  -7      3.08    3.95  0. 1.0000     0. 
   3   4  -7      0.55    4.80  0. 1.0000     0. 
   2  -4  -7     38.03    5.42  0. 1.0000     0. 
  -2  -4   7     44.12   11.38  0. 1.0000     0. 
   2  -4  -7     55.11    5.09  0. 1.0000     0. 
  -2  -4   7     58.86    5.53  0. 1.0000     0. 
  -2   4   7     31.80    9.33  0. 1.0000     0. 
   2   4  -7     40.45    5.86  0. 1.0000     0. 
   2   4  -7     57.52    5.47  0. 1.0000     0. 
  -2   4   7     65.18    5.72  0. 1.0000     0. 
  -1  -4   7      3.22    9.38  0. 1.0000     0. 
   1  -4  -7      7.35    3.66  0. 1.0000     0. 
  -1  -4   7     14.34    4.09  0. 1.0000     0. 
   1  -4  -7      1.47    3.88  0. 1.0000     0. 
  -1   4   7      4.45    7.60  0. 1.0000     0. 
   1   4  -7     11.68    4.72  0. 1.0000     0. 
  -1   4   7      7.33    3.93  0. 1.0000     0. 
   1   4  -7     11.75    4.29  0. 1.0000     0. 
   0  -4   7     13.15    9.34  0. 1.0000     0. 
   0  -4  -7     12.09    3.57  0. 1.0000     0. 
   0  -4   7     11.36    4.03  0. 1.0000     0. 
   0  -4  -7     18.35    4.36  0. 1.0000     0. 
   0   4   7      3.16    7.50  0. 1.0000     0. 
   0   4   7     11.88    3.79  0. 1.0000     0. 
   0   4  -7     15.30    4.14  0. 1.0000     0. 
   0   4  -7     17.69    5.03  0. 1.0000     0. 
   1  -4   7     42.16   11.73  0. 1.0000     0. 
   1  -4   7     19.55    4.25  0. 1.0000     0. 
  -1  -4  -7     38.71    6.43  0. 1.0000     0. 
  -1  -4  -7     16.49    4.06  0. 1.0000     0. 
  -1   4  -7     41.92    6.54  0. 1.0000     0. 
  -1   4  -7     19.26    4.46  0. 1.0000     0. 
   1   4   7     11.97    9.22  0. 1.0000     0. 
   1   4   7      8.64    3.75  0. 1.0000     0. 
   3  -4   7     -4.88    3.95  0. 1.0000     0. 
   3  -4   7     -3.65   11.48  0. 1.0000     0. 
  -3   4  -7      9.04    6.82  0. 1.0000     0. 
  -2   0   8     76.98    3.85  0. 1.0000     0. 
  -2   0   8     58.05    3.99  0. 1.0000     0. 
   2   0  -8     65.72    4.13  0. 1.0000     0. 
   2   0  -8     71.83    3.98  0. 1.0000     0. 
  -2   0   8     62.76    4.25  0. 1.0000     0. 
   2   0  -8     73.64    3.64  0. 1.0000     0. 
   1   0  -8   1125.91   48.80  0. 1.0000     0. 
   1   0  -8   1229.95   48.18  0. 1.0000     0. 
   1   0  -8   1375.21   53.42  0. 1.0000     0. 
  -1   0   8    998.21   58.69  0. 1.0000     0. 
  -1   0   8   1183.30   48.87  0. 1.0000     0. 
   1   0  -8   1143.18   54.31  0. 1.0000     0. 
  -1   0   8   1169.64   52.09  0. 1.0000     0. 
  -1   0   8   1034.03   48.65  0. 1.0000     0. 
   0   0  -8    896.12   41.81  0. 1.0000     0. 
   0   0   8    895.48   37.31  0. 1.0000     0. 
   0   0   8    867.69   47.12  0. 1.0000     0. 
   0   0  -8    900.78   37.64  0. 1.0000     0. 
   4  -1  -8    131.48    7.31  0. 1.0000     0. 
  -4   1   8    124.41    7.85  0. 1.0000     0. 
   4   1  -8    125.28    8.23  0. 1.0000     0. 
   3  -1  -8     -0.26    1.73  0. 1.0000     0. 
  -3  -1   8      0.87    2.13  0. 1.0000     0. 
   3   1  -8      0.92    2.17  0. 1.0000     0. 
  -3   1   8     -0.40    2.53  0. 1.0000     0. 
  -3   1   8     -1.09    2.42  0. 1.0000     0. 
   3   1  -8     -0.67    2.01  0. 1.0000     0. 
   0  -1   8     43.31    5.52  0. 1.0000     0. 
   0  -1  -8     47.50    2.94  0. 1.0000     0. 
   0  -1   8     38.17    2.36  0. 1.0000     0. 
   0   1  -8     47.47    3.27  0. 1.0000     0. 
   0   1   8     69.70    6.77  0. 1.0000     0. 
   0   1   8     47.83    2.62  0. 1.0000     0. 
   0   1  -8     44.09    4.22  0. 1.0000     0. 
   1  -1   8   1184.16   63.26  0. 1.0000     0. 
  -1  -1  -8   1236.67   53.51  0. 1.0000     0. 
  -1   1  -8   1225.77   53.57  0. 1.0000     0. 
  -1   1  -8   1286.81   58.89  0. 1.0000     0. 
   1   1   8   1245.92   50.86  0. 1.0000     0. 
   5  -2  -8     -0.15    0.74  0. 1.0000     0. 
   4  -2  -8     63.77    4.95  0. 1.0000     0. 
  -4  -2   8     67.01    5.02  0. 1.0000     0. 
  -4   2   8     60.73    6.00  0. 1.0000     0. 
   4   2  -8     54.60    5.16  0. 1.0000     0. 
  -3  -2   8      1.65    2.88  0. 1.0000     0. 
   3  -2  -8      5.62    2.55  0. 1.0000     0. 
   3   2  -8      1.65    3.00  0. 1.0000     0. 
  -3   2   8      6.91    3.89  0. 1.0000     0. 
  -3   2   8      5.10    3.04  0. 1.0000     0. 
   3   2  -8      6.99    3.23  0. 1.0000     0. 
   2  -2  -8    165.42    9.22  0. 1.0000     0. 
  -2  -2   8    150.21    8.70  0. 1.0000     0. 
  -2   2   8    163.65    7.89  0. 1.0000     0. 
  -2   2   8    162.14   10.23  0. 1.0000     0. 
   2   2  -8    166.49    8.76  0. 1.0000     0. 
   2   2  -8    160.23    9.07  0. 1.0000     0. 
  -1  -2   8     30.71    6.52  0. 1.0000     0. 
   1  -2  -8     30.90    3.07  0. 1.0000     0. 
  -1  -2   8     26.70    3.08  0. 1.0000     0. 
   1  -2  -8     35.56    4.22  0. 1.0000     0. 
  -1   2   8     30.96    2.88  0. 1.0000     0. 
   1   2  -8     19.86    3.11  0. 1.0000     0. 
   1   2  -8     31.65    3.86  0. 1.0000     0. 
  -1   2   8     27.69    5.86  0. 1.0000     0. 
   0  -2  -8    135.24    7.16  0. 1.0000     0. 
   0  -2  -8    158.32   10.06  0. 1.0000     0. 
   0  -2   8    137.14   10.79  0. 1.0000     0. 
   0   2   8    131.92    6.66  0. 1.0000     0. 
   0   2   8    128.91   11.02  0. 1.0000     0. 
   0   2  -8    131.01    8.88  0. 1.0000     0. 
  -1  -2  -8    196.59    9.84  0. 1.0000     0. 
   1  -2   8    202.05   14.45  0. 1.0000     0. 
   5  -3  -8     35.14    4.42  0. 1.0000     0. 
  -5   3   8     40.44    6.05  0. 1.0000     0. 
   4  -3  -8    168.40    9.64  0. 1.0000     0. 
  -4   3   8    170.64   11.28  0. 1.0000     0. 
  -4   3   8    163.00    9.60  0. 1.0000     0. 
   4   3  -8    134.40    9.88  0. 1.0000     0. 
   3  -3  -8     10.58    3.37  0. 1.0000     0. 
  -3  -3   8     11.92    4.08  0. 1.0000     0. 
  -3   3   8      5.42    3.97  0. 1.0000     0. 
   3   3  -8      9.63    3.74  0. 1.0000     0. 
   3   3  -8      9.92    4.33  0. 1.0000     0. 
  -3   3   8     11.51    5.71  0. 1.0000     0. 
   2  -3  -8     -3.30    3.11  0. 1.0000     0. 
  -2   3   8      2.80    5.96  0. 1.0000     0. 
   2   3  -8     -0.42    3.54  0. 1.0000     0. 
  -1  -3   8    186.72   14.11  0. 1.0000     0. 
   1  -3  -8    179.45    9.18  0. 1.0000     0. 
   1   3  -8    163.70    9.78  0. 1.0000     0. 
   0  -3  -8     -1.15    2.62  0. 1.0000     0. 
   0  -3   8      0.50    6.98  0. 1.0000     0. 
   0   3  -8      0.61    2.99  0. 1.0000     0. 
   0   3   8      2.10    7.63  0. 1.0000     0. 
  -1  -3  -8     30.30    3.66  0. 1.0000     0. 
   1  -3   8     27.82    7.54  0. 1.0000     0. 
   1  -3   8     29.99    3.77  0. 1.0000     0. 
   1   3   8     21.57    3.35  0. 1.0000     0. 
   1   3   8     16.53    6.82  0. 1.0000     0. 
  -1   3  -8     24.26    3.88  0. 1.0000     0. 
  -1   3  -8     25.19    6.04  0. 1.0000     0. 
   3  -3   8     -1.60    7.67  0. 1.0000     0. 
  -3   3  -8      2.59    6.37  0. 1.0000     0. 
   5  -4  -8     19.44    4.33  0. 1.0000     0. 
  -5   4   8     24.47    6.95  0. 1.0000     0. 
   5   4  -8      8.79    5.32  0. 1.0000     0. 
  -4  -4   8      5.42    4.66  0. 1.0000     0. 
  -4   4   8     -4.12    5.96  0. 1.0000     0. 
   3  -4  -8      1.16    3.92  0. 1.0000     0. 
  -2  -4   8     -3.72    3.83  0. 1.0000     0. 
  -2  -4   8    -11.06   10.24  0. 1.0000     0. 
   2  -4  -8     -2.78    3.82  0. 1.0000     0. 
   2  -4  -8     -0.68    3.57  0. 1.0000     0. 
   2   4  -8      1.24    3.91  0. 1.0000     0. 
  -2   4   8     -0.36    8.32  0. 1.0000     0. 
  -2   4   8      0.61    4.35  0. 1.0000     0. 
   2   4  -8      0.14    4.26  0. 1.0000     0. 
  -1  -4   8      1.61    3.76  0. 1.0000     0. 
   1  -4  -8      0.19    4.05  0. 1.0000     0. 
   1  -4  -8     -2.11    3.68  0. 1.0000     0. 
  -1  -4   8     -5.42   10.44  0. 1.0000     0. 
   1   4  -8      2.35    4.50  0. 1.0000     0. 
  -1   4   8     -1.10    8.09  0. 1.0000     0. 
  -1   4   8     10.46    3.91  0. 1.0000     0. 
   1   4  -8      2.60    4.02  0. 1.0000     0. 
   0  -4  -8      8.32    4.57  0. 1.0000     0. 
   0  -4  -8      5.62    3.40  0. 1.0000     0. 
   0  -4   8     14.20    4.34  0. 1.0000     0. 
   0  -4   8     12.57    8.87  0. 1.0000     0. 
   0   4  -8      9.01    5.31  0. 1.0000     0. 
   0   4  -8     12.06    4.32  0. 1.0000     0. 
   0   4   8      7.34    8.72  0. 1.0000     0. 
   0   4   8      6.82    4.06  0. 1.0000     0. 
  -2  -4  -8      4.12    3.85  0. 1.0000     0. 
  -2  -4  -8      6.33    5.90  0. 1.0000     0. 
   2  -4   8      0.18    4.00  0. 1.0000     0. 
   2  -4   8     10.33   11.21  0. 1.0000     0. 
  -2   4  -8     -2.33    5.80  0. 1.0000     0. 
   2   4   8      2.40    3.05  0. 1.0000     0. 
  -2   4  -8      2.00    4.34  0. 1.0000     0. 
   3  -4   8      0.62   10.13  0. 1.0000     0. 
   3  -4   8     -0.69    3.82  0. 1.0000     0. 
  -3   4  -8      1.16    6.74  0. 1.0000     0. 
  -3   0   9     -0.43    1.66  0. 1.0000     0. 
   0   0   9     -0.89    1.27  0. 1.0000     0. 
   0   0  -9      0.33    2.80  0. 1.0000     0. 
   4  -1  -9     66.26    4.40  0. 1.0000     0. 
  -4  -1   9     59.66    4.86  0. 1.0000     0. 
  -4   1   9     58.72    5.01  0. 1.0000     0. 
   4   1  -9     58.04    5.20  0. 1.0000     0. 
   3  -1  -9     49.49    3.78  0. 1.0000     0. 
  -3  -1   9     50.33    3.86  0. 1.0000     0. 
  -3   1   9     50.36    4.36  0. 1.0000     0. 
  -3   1   9     48.95    3.98  0. 1.0000     0. 
   3   1  -9     48.76    3.91  0. 1.0000     0. 
   3   1  -9     43.77    4.03  0. 1.0000     0. 
  -2  -1   9     46.08    3.31  0. 1.0000     0. 
   2  -1  -9     44.20    3.58  0. 1.0000     0. 
  -2   1   9     41.13    3.16  0. 1.0000     0. 
   2   1  -9     43.88    3.86  0. 1.0000     0. 
  -2   1   9     44.85    4.70  0. 1.0000     0. 
   2   1  -9     50.88    3.52  0. 1.0000     0. 
  -1  -1   9    412.29   23.87  0. 1.0000     0. 
  -1  -1   9    443.91   19.97  0. 1.0000     0. 
   1  -1  -9    401.08   19.31  0. 1.0000     0. 
   1  -1  -9    444.99   22.28  0. 1.0000     0. 
  -1   1   9    442.86   20.69  0. 1.0000     0. 
   1   1  -9    443.32   18.78  0. 1.0000     0. 
   1   1  -9    422.90   21.11  0. 1.0000     0. 
  -1   1   9    434.00   18.47  0. 1.0000     0. 
   0  -1   9     30.90    5.52  0. 1.0000     0. 
   0  -1  -9     38.04    2.89  0. 1.0000     0. 
   0   1  -9     37.39    4.14  0. 1.0000     0. 
   0   1   9     39.23    5.64  0. 1.0000     0. 
   0   1  -9     38.86    3.18  0. 1.0000     0. 
   0   1   9     39.23    2.64  0. 1.0000     0. 
   1  -1   9     11.52    5.68  0. 1.0000     0. 
  -1  -1  -9     10.01    2.11  0. 1.0000     0. 
  -1   1  -9      9.63    4.23  0. 1.0000     0. 
   1   1   9      6.79    2.07  0. 1.0000     0. 
  -1   1  -9      9.87    2.60  0. 1.0000     0. 
  -2   1  -9    312.24   17.45  0. 1.0000     0. 
   5  -2  -9      0.13    2.71  0. 1.0000     0. 
  -5   2   9      1.33    3.94  0. 1.0000     0. 
  -4  -2   9    387.14   20.08  0. 1.0000     0. 
   4  -2  -9    393.13   20.00  0. 1.0000     0. 
   4   2  -9    414.67   20.07  0. 1.0000     0. 
   4   2  -9    404.69   19.11  0. 1.0000     0. 
  -3  -2   9     33.44    3.90  0. 1.0000     0. 
   3  -2  -9     40.89    3.98  0. 1.0000     0. 
  -3   2   9     34.55    4.04  0. 1.0000     0. 
  -3   2   9     42.03    5.58  0. 1.0000     0. 
   3   2  -9     40.79    4.58  0. 1.0000     0. 
   3   2  -9     38.27    4.08  0. 1.0000     0. 
   2  -2  -9     89.20    6.15  0. 1.0000     0. 
  -2  -2   9     80.98    5.42  0. 1.0000     0. 
  -2   2   9     87.89    4.97  0. 1.0000     0. 
   2   2  -9     83.21    6.09  0. 1.0000     0. 
   2   2  -9     89.45    6.07  0. 1.0000     0. 
  -2   2   9     77.95    7.72  0. 1.0000     0. 
  -1  -2   9      4.07    6.14  0. 1.0000     0. 
   1  -2  -9      1.08    2.33  0. 1.0000     0. 
   1  -2  -9      6.12    3.62  0. 1.0000     0. 
  -1  -2   9     -0.59    2.19  0. 1.0000     0. 
  -1   2   9     -1.73    2.33  0. 1.0000     0. 
   1   2  -9     -0.30    2.44  0. 1.0000     0. 
  -1   2   9      2.15    4.94  0. 1.0000     0. 
   1   2  -9      3.39    3.41  0. 1.0000     0. 
   0  -2  -9      0.60    2.25  0. 1.0000     0. 
   0  -2   9      2.39    5.46  0. 1.0000     0. 
   0  -2   9     -1.57    2.24  0. 1.0000     0. 
   0  -2  -9      3.00    4.43  0. 1.0000     0. 
   0   2  -9      3.22    2.64  0. 1.0000     0. 
   0   2   9      0.08    2.23  0. 1.0000     0. 
   0   2  -9     -2.85    4.27  0. 1.0000     0. 
   0   2   9      2.28    5.98  0. 1.0000     0. 
  -1  -2  -9    118.85    7.06  0. 1.0000     0. 
   1  -2   9    142.16   12.44  0. 1.0000     0. 
  -2  -2  -9      1.63    2.44  0. 1.0000     0. 
   2  -2   9      5.08    8.97  0. 1.0000     0. 
  -2   2  -9      6.76    5.70  0. 1.0000     0. 
   2   2   9      5.02    2.79  0. 1.0000     0. 
  -5  -3   9      0.40    4.11  0. 1.0000     0. 
   5  -3  -9      6.59    3.27  0. 1.0000     0. 
   5   3  -9     -3.48    5.27  0. 1.0000     0. 
  -5   3   9      6.07    5.45  0. 1.0000     0. 
   4  -3  -9    130.06    9.15  0. 1.0000     0. 
  -4  -3   9    153.00    9.20  0. 1.0000     0. 
   4   3  -9    165.51    9.91  0. 1.0000     0. 
  -4   3   9    155.15   11.47  0. 1.0000     0. 
  -4   3   9    154.49    9.24  0. 1.0000     0. 
  -3  -3   9      7.12    3.87  0. 1.0000     0. 
   3  -3  -9      6.99    3.40  0. 1.0000     0. 
  -3   3   9     13.51    3.95  0. 1.0000     0. 
   3   3  -9      7.38    4.37  0. 1.0000     0. 
  -3   3   9      9.03    5.77  0. 1.0000     0. 
   3   3  -9     10.28    4.13  0. 1.0000     0. 
   2  -3  -9    294.75   15.58  0. 1.0000     0. 
  -2  -3   9    280.95   14.79  0. 1.0000     0. 
   2  -3  -9    270.98   14.24  0. 1.0000     0. 
   2   3  -9    297.69   13.92  0. 1.0000     0. 
  -2   3   9    282.76   13.19  0. 1.0000     0. 
   2   3  -9    292.52   14.66  0. 1.0000     0. 
  -2   3   9    247.12   18.06  0. 1.0000     0. 
  -1  -3   9     13.60    3.57  0. 1.0000     0. 
   1  -3  -9     11.33    3.35  0. 1.0000     0. 
  -1  -3   9      9.90    8.06  0. 1.0000     0. 
   1  -3  -9     13.07    3.73  0. 1.0000     0. 
   1   3  -9     15.05    4.44  0. 1.0000     0. 
  -1   3   9     16.03    8.17  0. 1.0000     0. 
  -1   3   9      7.79    3.27  0. 1.0000     0. 
   1   3  -9     15.95    4.01  0. 1.0000     0. 
   0  -3  -9     -4.86    2.82  0. 1.0000     0. 
   0  -3   9     -0.13    2.96  0. 1.0000     0. 
   0  -3  -9      0.25    4.99  0. 1.0000     0. 
   0  -3   9     -2.86    7.50  0. 1.0000     0. 
   0   3  -9     -5.83    4.86  0. 1.0000     0. 
   0   3   9      4.02    3.07  0. 1.0000     0. 
   0   3  -9      0.26    3.34  0. 1.0000     0. 
   0   3   9     -6.13    7.33  0. 1.0000     0. 
  -1  -3  -9    144.81    8.00  0. 1.0000     0. 
  -2  -3  -9     -3.86    3.06  0. 1.0000     0. 
   2  -3   9      6.07    8.95  0. 1.0000     0. 
  -2   3  -9     -4.29    5.56  0. 1.0000     0. 
  -2   3  -9      1.17    3.71  0. 1.0000     0. 
   2   3   9     -2.95    2.43  0. 1.0000     0. 
  -3   3  -9      0.23    6.17  0. 1.0000     0. 
  -5  -4   9     -1.85    4.76  0. 1.0000     0. 
   5  -4  -9     -0.31    3.36  0. 1.0000     0. 
   5   4  -9      0.23    5.77  0. 1.0000     0. 
  -5   4   9     -2.49    7.37  0. 1.0000     0. 
   4  -4  -9      1.22    3.94  0. 1.0000     0. 
  -4  -4   9      1.54    5.02  0. 1.0000     0. 
   4   4  -9     12.18    4.69  0. 1.0000     0. 
  -4   4   9      0.77    5.37  0. 1.0000     0. 
   4   4  -9     -1.62    6.25  0. 1.0000     0. 
  -4   4   9      3.39    7.22  0. 1.0000     0. 
   3  -4  -9    326.61   17.46  0. 1.0000     0. 
  -3  -4   9    295.34   17.12  0. 1.0000     0. 
   3  -4  -9    325.46   16.47  0. 1.0000     0. 
   3   4  -9    336.66   17.41  0. 1.0000     0. 
  -3   4   9    333.63   15.93  0. 1.0000     0. 
   3   4  -9    315.34   16.28  0. 1.0000     0. 
   0  -4  -9     52.24    6.58  0. 1.0000     0. 
   0   4  -9     82.20    7.43  0. 1.0000     0. 
   0   4   9     35.27   10.75  0. 1.0000     0. 
   1  -4   9     10.11   10.32  0. 1.0000     0. 
   1  -4   9      4.94    4.18  0. 1.0000     0. 
  -1  -4  -9      3.30    3.60  0. 1.0000     0. 
  -1  -4  -9      0.53    5.09  0. 1.0000     0. 
   1   4   9    -12.57    8.84  0. 1.0000     0. 
  -1   4  -9     -3.20    4.00  0. 1.0000     0. 
   1   4   9      3.46    3.51  0. 1.0000     0. 
  -1   4  -9      8.25    6.06  0. 1.0000     0. 
   2  -4   9     16.14   12.04  0. 1.0000     0. 
  -2  -4  -9     18.12    4.06  0. 1.0000     0. 
  -2  -4  -9     13.28    6.10  0. 1.0000     0. 
   2  -4   9      9.31    4.41  0. 1.0000     0. 
  -2   4  -9     17.58    4.93  0. 1.0000     0. 
  -2   4  -9     19.90    6.19  0. 1.0000     0. 
   2   4   9      0.62    3.06  0. 1.0000     0. 
   4   0 -10     -0.76    3.00  0. 1.0000     0. 
  -4   0  10      0.08    2.27  0. 1.0000     0. 
  -2   0  10      0.98    2.24  0. 1.0000     0. 
  -2   0  10      0.70    1.48  0. 1.0000     0. 
   2   0 -10      0.66    1.91  0. 1.0000     0. 
   1   0 -10    691.65   29.08  0. 1.0000     0. 
   1   0 -10    671.94   32.48  0. 1.0000     0. 
   0   0 -10   4331.81  167.61  0. 1.0000     0. 
   0   0  10   3666.58  221.56  0. 1.0000     0. 
  -1   0 -10   1975.62   89.59  0. 1.0000     0. 
   1   0  10   1919.29   81.07  0. 1.0000     0. 
   4  -1 -10   1159.99   52.05  0. 1.0000     0. 
  -4  -1  10   1088.13   51.70  0. 1.0000     0. 
  -4   1  10   1123.17   47.74  0. 1.0000     0. 
   4   1 -10   1109.65   49.38  0. 1.0000     0. 
  -3  -1  10     -0.65    2.61  0. 1.0000     0. 
   3   1 -10      4.82    2.61  0. 1.0000     0. 
  -3   1  10      5.15    2.97  0. 1.0000     0. 
   2  -1 -10     93.68    6.03  0. 1.0000     0. 
  -2  -1  10     94.43    5.37  0. 1.0000     0. 
   2   1 -10     95.74    5.69  0. 1.0000     0. 
   2   1 -10     88.29    6.04  0. 1.0000     0. 
  -2   1  10     96.86    5.00  0. 1.0000     0. 
  -2   1  10     98.91    6.90  0. 1.0000     0. 
  -1  -1  10    127.37   10.39  0. 1.0000     0. 
   1  -1 -10    143.47    7.15  0. 1.0000     0. 
   1  -1 -10    136.39    8.82  0. 1.0000     0. 
  -1  -1  10    147.88    7.34  0. 1.0000     0. 
  -1   1  10    165.35   10.25  0. 1.0000     0. 
  -1   1  10    126.74    6.93  0. 1.0000     0. 
   1   1 -10    154.38    7.39  0. 1.0000     0. 
   1   1 -10    149.08    8.47  0. 1.0000     0. 
  -1  -1 -10   1203.16   54.07  0. 1.0000     0. 
   1  -1  10   1222.20   65.56  0. 1.0000     0. 
  -1   1 -10   1258.12   58.29  0. 1.0000     0. 
   1   1  10   1290.29   52.08  0. 1.0000     0. 
  -2   1 -10    278.55   16.21  0. 1.0000     0. 
   4  -2 -10    674.89   32.85  0. 1.0000     0. 
  -4  -2  10    672.02   31.80  0. 1.0000     0. 
  -4   2  10    701.54   31.71  0. 1.0000     0. 
  -4   2  10    642.40   30.06  0. 1.0000     0. 
   4   2 -10    679.29   32.57  0. 1.0000     0. 
   3  -2 -10     10.70    3.16  0. 1.0000     0. 
  -3  -2  10      7.25    2.99  0. 1.0000     0. 
   3   2 -10      7.31    3.30  0. 1.0000     0. 
  -3   2  10     12.40    4.65  0. 1.0000     0. 
  -3   2  10      8.62    3.26  0. 1.0000     0. 
   3   2 -10     16.05    3.58  0. 1.0000     0. 
   2  -2 -10    149.65    7.99  0. 1.0000     0. 
  -2  -2  10    145.25    8.09  0. 1.0000     0. 
   2  -2 -10    162.52    8.95  0. 1.0000     0. 
  -2   2  10    142.24   10.16  0. 1.0000     0. 
   2   2 -10    155.02    8.93  0. 1.0000     0. 
   2   2 -10    128.24    8.33  0. 1.0000     0. 
  -2   2  10    149.52    7.43  0. 1.0000     0. 
  -1  -2  10    620.24   32.31  0. 1.0000     0. 
   1  -2 -10    555.58   30.50  0. 1.0000     0. 
   1  -2 -10    592.41   25.85  0. 1.0000     0. 
  -1  -2  10    611.28   27.73  0. 1.0000     0. 
   1   2 -10    582.22   26.84  0. 1.0000     0. 
  -1   2  10    596.71   25.11  0. 1.0000     0. 
   1   2 -10    574.91   28.99  0. 1.0000     0. 
   0  -2 -10      0.19    2.39  0. 1.0000     0. 
   0  -2  10     -1.17    2.40  0. 1.0000     0. 
   0  -2  10     -0.45    6.06  0. 1.0000     0. 
   0  -2 -10      2.18    4.38  0. 1.0000     0. 
   0   2 -10      0.11    2.67  0. 1.0000     0. 
   0   2  10      0.50    2.30  0. 1.0000     0. 
   0   2  10      1.42    5.99  0. 1.0000     0. 
   0   2 -10      1.30    4.19  0. 1.0000     0. 
   1  -2  10     18.42    7.55  0. 1.0000     0. 
  -1  -2 -10     13.68    2.88  0. 1.0000     0. 
  -1   2 -10     14.95    3.47  0. 1.0000     0. 
  -1   2 -10      9.41    4.91  0. 1.0000     0. 
   1   2  10      7.98    6.30  0. 1.0000     0. 
   1   2  10     23.38    2.87  0. 1.0000     0. 
   5  -3 -10    309.86   16.08  0. 1.0000     0. 
  -5   3  10    292.47   18.11  0. 1.0000     0. 
  -4  -3  10      7.50    4.05  0. 1.0000     0. 
   4  -3 -10      0.94    3.41  0. 1.0000     0. 
  -4   3  10      1.34    5.77  0. 1.0000     0. 
  -4   3  10      0.15    4.29  0. 1.0000     0. 
   4   3 -10     -3.46    3.87  0. 1.0000     0. 
   3  -3 -10     23.45    4.08  0. 1.0000     0. 
  -3  -3  10     22.77    4.27  0. 1.0000     0. 
  -3   3  10     27.14    4.33  0. 1.0000     0. 
  -3   3  10     18.58    6.65  0. 1.0000     0. 
   3   3 -10     21.89    4.24  0. 1.0000     0. 
  -2  -3  10    143.04    7.86  0. 1.0000     0. 
   2  -3 -10    126.57    8.66  0. 1.0000     0. 
  -2   3  10    127.73    7.16  0. 1.0000     0. 
   2   3 -10    122.40    8.25  0. 1.0000     0. 
  -2   3  10    102.27   11.68  0. 1.0000     0. 
  -1   3  10    184.95    9.49  0. 1.0000     0. 
   1   3 -10    186.78   11.24  0. 1.0000     0. 
   0  -3  10     71.94    5.74  0. 1.0000     0. 
   0   3 -10     86.23    7.39  0. 1.0000     0. 
  -1  -3 -10     -6.22    5.59  0. 1.0000     0. 
   1  -3  10      0.14    3.20  0. 1.0000     0. 
  -1   3 -10     -3.95    5.59  0. 1.0000     0. 
   1   3  10      1.02    2.83  0. 1.0000     0. 
  -2   3 -10     30.68    6.58  0. 1.0000     0. 
  -5   4  10      0.28    7.04  0. 1.0000     0. 
   5   4 -10      2.82    5.42  0. 1.0000     0. 
  -4  -4  10      0.22    5.07  0. 1.0000     0. 
   4  -4 -10      7.66    4.04  0. 1.0000     0. 
   4  -4 -10      9.21    4.38  0. 1.0000     0. 
  -4   4  10      0.19    5.68  0. 1.0000     0. 
  -4   4  10      8.21    8.14  0. 1.0000     0. 
   4   4 -10      5.34    5.44  0. 1.0000     0. 
   4   4 -10      9.02    5.18  0. 1.0000     0. 
   3  -4 -10      6.02    3.95  0. 1.0000     0. 
  -3  -4  10     -0.95    4.51  0. 1.0000     0. 
   3  -4 -10      2.94    3.93  0. 1.0000     0. 
  -3  -4  10      5.14    9.67  0. 1.0000     0. 
   3   4 -10     -2.01    4.82  0. 1.0000     0. 
   3   4 -10      4.70    4.60  0. 1.0000     0. 
  -3   4  10      0.35    4.92  0. 1.0000     0. 
  -3   4  10     -5.59    9.14  0. 1.0000     0. 
  -2  -4  10      4.01    9.87  0. 1.0000     0. 
   2  -4 -10      6.60    3.92  0. 1.0000     0. 
   2  -4 -10     14.57    4.08  0. 1.0000     0. 
  -2   4  10     14.54   10.56  0. 1.0000     0. 
  -2   4  10     22.76    4.84  0. 1.0000     0. 
   2   4 -10      8.76    4.59  0. 1.0000     0. 
   2   4 -10      6.49    5.24  0. 1.0000     0. 
  -1  -4  10      4.54    4.30  0. 1.0000     0. 
   1  -4 -10     11.29    4.72  0. 1.0000     0. 
   1  -4 -10      6.35    3.69  0. 1.0000     0. 
  -1  -4  10      6.88    9.29  0. 1.0000     0. 
  -1   4  10      5.54    3.84  0. 1.0000     0. 
   1   4 -10      8.48    5.33  0. 1.0000     0. 
   1   4 -10      6.84    4.07  0. 1.0000     0. 
  -1   4  10      4.79    9.66  0. 1.0000     0. 
   0  -4  10      0.19    4.41  0. 1.0000     0. 
   0  -4 -10      3.89    4.51  0. 1.0000     0. 
   0  -4  10      6.34    9.60  0. 1.0000     0. 
   0  -4 -10      7.84    3.51  0. 1.0000     0. 
   0   4  10     -4.19    8.36  0. 1.0000     0. 
   0   4 -10      3.87    5.61  0. 1.0000     0. 
   0   4 -10      3.67    4.10  0. 1.0000     0. 
   0   4  10      4.04    4.06  0. 1.0000     0. 
  -1  -4 -10     10.15    4.02  0. 1.0000     0. 
   1  -4  10      5.92   10.97  0. 1.0000     0. 
  -1  -4 -10     11.03    5.78  0. 1.0000     0. 
   1  -4  10      6.68    4.52  0. 1.0000     0. 
  -1   4 -10     14.59    6.68  0. 1.0000     0. 
   1   4  10     -3.69    8.78  0. 1.0000     0. 
  -1   4 -10      4.50    4.60  0. 1.0000     0. 
   1   4  10      4.50    3.69  0. 1.0000     0. 
   4   0 -11      1.25    2.46  0. 1.0000     0. 
  -4   0  11     -1.06    2.40  0. 1.0000     0. 
  -2   0  11      1.27    4.22  0. 1.0000     0. 
  -2   0  11     -0.75    3.14  0. 1.0000     0. 
   2   0 -11     -0.21    1.73  0. 1.0000     0. 
   2   0 -11      0.23    1.84  0. 1.0000     0. 
   2   0 -11      0.14    1.79  0. 1.0000     0. 
  -1   0  11     -0.52    4.00  0. 1.0000     0. 
   1   0 -11     -0.26    1.63  0. 1.0000     0. 
   1   0 -11      0.09    2.19  0. 1.0000     0. 
   1   0 -11     -0.48    1.85  0. 1.0000     0. 
  -1   0  11     -0.30    3.52  0. 1.0000     0. 
  -1   0 -11      1.63    4.06  0. 1.0000     0. 
   1   0  11      1.98    1.82  0. 1.0000     0. 
   4  -1 -11      5.89    2.43  0. 1.0000     0. 
  -4  -1  11      1.46    2.72  0. 1.0000     0. 
   4   1 -11      3.88    2.87  0. 1.0000     0. 
  -4   1  11      2.66    3.54  0. 1.0000     0. 
  -4   1  11      2.13    3.35  0. 1.0000     0. 
   3  -1 -11    180.04   10.09  0. 1.0000     0. 
  -3  -1  11    192.65    9.77  0. 1.0000     0. 
   3   1 -11    176.06   10.52  0. 1.0000     0. 
  -3   1  11    188.49   10.70  0. 1.0000     0. 
  -3   1  11    186.55    9.15  0. 1.0000     0. 
   3   1 -11    189.70    9.29  0. 1.0000     0. 
   2  -1 -11   1208.60   61.22  0. 1.0000     0. 
  -2  -1  11   1369.98   58.62  0. 1.0000     0. 
   2  -1 -11   1271.65   55.60  0. 1.0000     0. 
   2   1 -11   1311.87   55.04  0. 1.0000     0. 
   2   1 -11   1232.68   60.84  0. 1.0000     0. 
  -2   1  11   1255.62   54.30  0. 1.0000     0. 
  -2   1  11   1388.11   54.51  0. 1.0000     0. 
   1  -1 -11    268.72   13.08  0. 1.0000     0. 
  -1  -1  11    261.59   17.89  0. 1.0000     0. 
   1  -1 -11    295.91   15.65  0. 1.0000     0. 
  -1  -1  11    297.05   13.64  0. 1.0000     0. 
  -1   1  11    288.50   12.72  0. 1.0000     0. 
   1   1 -11    288.91   13.56  0. 1.0000     0. 
   1   1 -11    295.80   14.92  0. 1.0000     0. 
   0  -1 -11     40.64    3.33  0. 1.0000     0. 
   0  -1  11     48.42    7.15  0. 1.0000     0. 
   0   1  11     44.54    3.10  0. 1.0000     0. 
   0   1  11     45.39    6.41  0. 1.0000     0. 
   0   1 -11     46.35    4.90  0. 1.0000     0. 
   0   1 -11     41.48    3.71  0. 1.0000     0. 
  -1  -1 -11    505.43   24.01  0. 1.0000     0. 
   1  -1  11    586.37   32.16  0. 1.0000     0. 
  -1   1 -11    526.12   26.64  0. 1.0000     0. 
   1   1  11    530.75   23.10  0. 1.0000     0. 
  -2   1 -11    379.84   20.56  0. 1.0000     0. 
  -5  -2  11     43.35    5.23  0. 1.0000     0. 
  -5   2  11     35.07    5.66  0. 1.0000     0. 
   5   2 -11     41.76    5.19  0. 1.0000     0. 
  -3  -2  11    202.52   10.89  0. 1.0000     0. 
   3  -2 -11    211.85   11.77  0. 1.0000     0. 
   3   2 -11    211.77   11.09  0. 1.0000     0. 
  -3   2  11    205.31   10.37  0. 1.0000     0. 
   3   2 -11    214.39   11.55  0. 1.0000     0. 
   2  -2 -11      8.18    3.18  0. 1.0000     0. 
  -2  -2  11     11.22    2.75  0. 1.0000     0. 
   2  -2 -11     11.64    2.98  0. 1.0000     0. 
   2   2 -11     10.82    3.83  0. 1.0000     0. 
   2   2 -11     11.74    3.46  0. 1.0000     0. 
  -2   2  11     18.20    5.85  0. 1.0000     0. 
  -2   2  11     12.37    2.91  0. 1.0000     0. 
  -1  -2  11    735.78   34.92  0. 1.0000     0. 
  -1  -2  11    789.38   40.31  0. 1.0000     0. 
   1  -2 -11    753.46   32.55  0. 1.0000     0. 
   1  -2 -11    753.12   38.20  0. 1.0000     0. 
  -1   2  11    668.03   39.31  0. 1.0000     0. 
   1   2 -11    787.44   36.56  0. 1.0000     0. 
   1   2 -11    730.82   33.71  0. 1.0000     0. 
  -1   2  11    786.25   31.51  0. 1.0000     0. 
   1   2  11     30.06    3.05  0. 1.0000     0. 
  -1   2 -11     14.70    5.72  0. 1.0000     0. 
   6  -3 -11     -0.19    1.32  0. 1.0000     0. 
   5  -3 -11    132.36    8.57  0. 1.0000     0. 
  -5   3  11    131.90    8.73  0. 1.0000     0. 
   5   3 -11    133.81    9.23  0. 1.0000     0. 
   4  -3 -11     14.15    3.83  0. 1.0000     0. 
  -4  -3  11     14.39    4.36  0. 1.0000     0. 
   4   3 -11     10.26    4.03  0. 1.0000     0. 
   4   3 -11     15.86    5.04  0. 1.0000     0. 
  -4   3  11     10.09    4.82  0. 1.0000     0. 
  -2  -3  11     91.53    6.42  0. 1.0000     0. 
  -2  -3  11     96.49   11.48  0. 1.0000     0. 
   2  -3 -11     94.51    6.47  0. 1.0000     0. 
   2   3 -11     82.49    6.64  0. 1.0000     0. 
  -1  -3 -11      1.41    5.48  0. 1.0000     0. 
   1  -3  11     10.41    3.60  0. 1.0000     0. 
  -1  -3 -11     16.34    3.51  0. 1.0000     0. 
   1  -3  11     13.86    9.41  0. 1.0000     0. 
   1   3  11     11.97    7.84  0. 1.0000     0. 
  -1   3 -11     19.01    4.37  0. 1.0000     0. 
   1   3  11      7.97    3.05  0. 1.0000     0. 
  -1   3 -11     11.94    5.92  0. 1.0000     0. 
  -2  -3 -11      9.68    3.51  0. 1.0000     0. 
   2  -3  11     10.98   12.07  0. 1.0000     0. 
   2   3  11      1.69    2.67  0. 1.0000     0. 
  -2   3 -11      2.09    5.96  0. 1.0000     0. 
  -3  -4  11      8.87    4.73  0. 1.0000     0. 
   3  -4 -11     10.28    4.42  0. 1.0000     0. 
   3  -4 -11      1.04    3.92  0. 1.0000     0. 
  -3  -4  11     12.03   11.44  0. 1.0000     0. 
   3   4 -11      2.73    4.34  0. 1.0000     0. 
  -3   4  11      7.66    5.28  0. 1.0000     0. 
  -3   4  11      1.97    8.21  0. 1.0000     0. 
   3   4 -11      7.90    5.13  0. 1.0000     0. 
  -2  -4  11     -2.36    9.94  0. 1.0000     0. 
  -2  -4  11      3.04    4.20  0. 1.0000     0. 
   2  -4 -11      2.68    3.77  0. 1.0000     0. 
   2  -4 -11      9.48    4.12  0. 1.0000     0. 
  -2   4  11      4.83    9.39  0. 1.0000     0. 
   2   4 -11      4.39    4.97  0. 1.0000     0. 
   2   4 -11      5.92    4.59  0. 1.0000     0. 
  -2   4  11      3.65    4.50  0. 1.0000     0. 
  -1  -4  11     15.96   10.03  0. 1.0000     0. 
  -1  -4  11     18.57    4.72  0. 1.0000     0. 
   1  -4 -11     26.07    5.49  0. 1.0000     0. 
   1  -4 -11     11.94    4.02  0. 1.0000     0. 
   1   4 -11     22.64    4.95  0. 1.0000     0. 
   1   4 -11     24.12    6.09  0. 1.0000     0. 
  -1   4  11     16.73    4.44  0. 1.0000     0. 
  -1   4  11     19.79   10.07  0. 1.0000     0. 
   0  -4  11     38.93    5.60  0. 1.0000     0. 
   0  -4 -11     36.07    4.80  0. 1.0000     0. 
   0  -4 -11     35.12    5.84  0. 1.0000     0. 
   0  -4  11     37.01   10.36  0. 1.0000     0. 
   0   4 -11     36.98    6.79  0. 1.0000     0. 
   0   4  11     27.12    4.80  0. 1.0000     0. 
   0   4 -11     38.84    5.16  0. 1.0000     0. 
   0   4  11     14.05    8.49  0. 1.0000     0. 
  -4   0  12   1686.34   71.81  0. 1.0000     0. 
  -3   0  12    276.59   13.67  0. 1.0000     0. 
  -3   0  12    287.44   13.18  0. 1.0000     0. 
  -2   0  12    767.15   34.46  0. 1.0000     0. 
  -2   0  12    777.01   32.81  0. 1.0000     0. 
  -1   0  12     34.82    5.28  0. 1.0000     0. 
  -1   0  12     29.95    2.70  0. 1.0000     0. 
   5   1 -12     23.66    4.23  0. 1.0000     0. 
  -5   1  12     22.79    4.82  0. 1.0000     0. 
   4  -1 -12    125.82    7.58  0. 1.0000     0. 
  -4  -1  12    119.68    7.58  0. 1.0000     0. 
  -4   1  12    122.95    7.94  0. 1.0000     0. 
   4   1 -12    130.93    7.46  0. 1.0000     0. 
  -4   1  12    123.60    8.45  0. 1.0000     0. 
  -2  -1  12    671.27   38.30  0. 1.0000     0. 
  -2  -1  12    727.94   32.68  0. 1.0000     0. 
   2  -1 -12    709.18   34.56  0. 1.0000     0. 
   2  -1 -12    706.00   31.42  0. 1.0000     0. 
   2   1 -12    701.26   31.35  0. 1.0000     0. 
  -2   1  12    763.84   31.06  0. 1.0000     0. 
  -2   1  12    725.03   30.14  0. 1.0000     0. 
   2   1 -12    661.07   33.91  0. 1.0000     0. 
  -1  -1  12     24.24    6.20  0. 1.0000     0. 
   1  -1 -12     36.20    3.36  0. 1.0000     0. 
  -1   1  12     38.15    3.17  0. 1.0000     0. 
   1   1 -12     35.53    3.49  0. 1.0000     0. 
  -1   1  12     42.01    6.56  0. 1.0000     0. 
   0  -1 -12    188.13    9.60  0. 1.0000     0. 
   0  -1  12    195.76   14.40  0. 1.0000     0. 
   0   1  12    174.27   12.81  0. 1.0000     0. 
   0   1 -12    206.40    9.58  0. 1.0000     0. 
   0   1  12    189.24    9.17  0. 1.0000     0. 
   0   1 -12    200.82   11.14  0. 1.0000     0. 
  -1  -1 -12      5.53    2.44  0. 1.0000     0. 
   1  -1  12      5.73   10.62  0. 1.0000     0. 
   1   1  12      4.69    2.57  0. 1.0000     0. 
  -1   1 -12      3.74    4.91  0. 1.0000     0. 
  -5   2  12     27.34    6.00  0. 1.0000     0. 
   5   2 -12     22.61    5.31  0. 1.0000     0. 
   4   2 -12     13.35    3.95  0. 1.0000     0. 
  -4   2  12     13.23    5.70  0. 1.0000     0. 
   3  -2 -12    352.13   19.64  0. 1.0000     0. 
  -3  -2  12    359.11   18.16  0. 1.0000     0. 
   3   2 -12    382.51   18.81  0. 1.0000     0. 
  -3   2  12    400.22   16.77  0. 1.0000     0. 
  -2  -2  12    108.24    6.89  0. 1.0000     0. 
   2  -2 -12    124.78    7.83  0. 1.0000     0. 
   2   2 -12    134.11    8.17  0. 1.0000     0. 
  -2   2  12    119.38    6.73  0. 1.0000     0. 
  -1  -2  12    383.61   18.03  0. 1.0000     0. 
   1  -2 -12    356.83   19.98  0. 1.0000     0. 
  -1   2  12    379.50   16.23  0. 1.0000     0. 
   1   2 -12    352.41   19.31  0. 1.0000     0. 
   0  -2 -12      9.01    2.89  0. 1.0000     0. 
   0  -2  12      5.90    2.88  0. 1.0000     0. 
   0   2 -12      6.47    4.80  0. 1.0000     0. 
   0   2  12      3.11    6.44  0. 1.0000     0. 
   1  -2  12    589.23   34.66  0. 1.0000     0. 
   2  -2  12     20.17    9.95  0. 1.0000     0. 
   2   2  12      9.80    2.83  0. 1.0000     0. 
   6  -3 -12      0.56    3.50  0. 1.0000     0. 
  -6   3  12     -0.91    6.08  0. 1.0000     0. 
   5  -3 -12     29.61    4.17  0. 1.0000     0. 
  -5  -3  12     19.57    4.56  0. 1.0000     0. 
  -5   3  12     18.87    7.00  0. 1.0000     0. 
   5   3 -12     18.07    5.08  0. 1.0000     0. 
  -5   3  12     20.77    5.23  0. 1.0000     0. 
  -4  -3  12     -3.45    4.07  0. 1.0000     0. 
   4  -3 -12      6.60    3.64  0. 1.0000     0. 
  -4   3  12      0.51    6.75  0. 1.0000     0. 
   4   3 -12      4.59    4.66  0. 1.0000     0. 
  -4   3  12      1.14    4.52  0. 1.0000     0. 
   4   3 -12      2.63    3.83  0. 1.0000     0. 
   3  -3 -12     -5.07    3.66  0. 1.0000     0. 
  -3  -3  12      3.61    3.61  0. 1.0000     0. 
   3  -3 -12     -3.29    3.79  0. 1.0000     0. 
  -3   3  12      0.60    4.14  0. 1.0000     0. 
   3   3 -12      4.99    4.32  0. 1.0000     0. 
  -3   3  12     -2.56    7.18  0. 1.0000     0. 
   3   3 -12     -1.39    3.86  0. 1.0000     0. 
   2  -3 -12    217.08   13.54  0. 1.0000     0. 
   2  -3 -12    225.18   12.12  0. 1.0000     0. 
  -2  -3  12    233.50   12.49  0. 1.0000     0. 
  -2  -3  12    237.85   17.19  0. 1.0000     0. 
   2   3 -12    246.46   12.22  0. 1.0000     0. 
   2   3 -12    241.90   12.79  0. 1.0000     0. 
  -2   3  12    201.79   16.90  0. 1.0000     0. 
  -2   3  12    246.61   11.37  0. 1.0000     0. 
  -1  -3  12      2.20    8.11  0. 1.0000     0. 
  -1  -3  12     -0.49    3.61  0. 1.0000     0. 
   1  -3 -12     -1.51    3.26  0. 1.0000     0. 
   1  -3 -12      2.11    4.03  0. 1.0000     0. 
   1   3 -12      5.62    4.78  0. 1.0000     0. 
  -1   3  12      0.98    3.40  0. 1.0000     0. 
  -1   3  12     -0.38    8.72  0. 1.0000     0. 
   1   3 -12     -4.14    3.64  0. 1.0000     0. 
   0  -3  12      0.57    3.29  0. 1.0000     0. 
   0  -3 -12      4.08    5.25  0. 1.0000     0. 
   0  -3  12     -4.75    8.50  0. 1.0000     0. 
   0  -3 -12      3.43    3.06  0. 1.0000     0. 
   0   3  12     -7.25    3.34  0. 1.0000     0. 
   0   3 -12      1.66    3.52  0. 1.0000     0. 
   0   3  12      2.43    7.24  0. 1.0000     0. 
   0   3 -12      0.37    5.50  0. 1.0000     0. 
  -1  -3 -12     10.69    3.71  0. 1.0000     0. 
  -1  -3 -12     14.30    6.33  0. 1.0000     0. 
   1  -3  12     11.90    3.87  0. 1.0000     0. 
   1  -3  12     15.22    9.85  0. 1.0000     0. 
   1   3  12     14.03    3.10  0. 1.0000     0. 
  -1   3 -12     14.14    6.10  0. 1.0000     0. 
  -1   3 -12     16.43    4.19  0. 1.0000     0. 
   1   3  12      1.23    7.51  0. 1.0000     0. 
   4  -1 -13     -0.52    2.85  0. 1.0000     0. 
  -4  -1  13      1.17    3.34  0. 1.0000     0. 
  -4   1  13      2.08    4.12  0. 1.0000     0. 
   4   1 -13     -0.42    3.34  0. 1.0000     0. 
   4   1 -13     -1.07    3.29  0. 1.0000     0. 
  -4   1  13      0.91    3.95  0. 1.0000     0. 
   3  -1 -13     20.48    3.23  0. 1.0000     0. 
  -3  -1  13     19.69    3.21  0. 1.0000     0. 
  -3   1  13     19.09    4.90  0. 1.0000     0. 
   3   1 -13     23.46    3.55  0. 1.0000     0. 
  -3   1  13     21.48    3.56  0. 1.0000     0. 
   3   1 -13     17.20    3.54  0. 1.0000     0. 
   2  -1 -13     20.01    2.83  0. 1.0000     0. 
  -2  -1  13     17.43    6.32  0. 1.0000     0. 
  -2  -1  13     22.65    2.70  0. 1.0000     0. 
   2  -1 -13     17.84    3.55  0. 1.0000     0. 
  -2   1  13     24.55    3.13  0. 1.0000     0. 
  -2   1  13     23.43    5.50  0. 1.0000     0. 
   2   1 -13     24.07    3.84  0. 1.0000     0. 
   2   1 -13     20.70    3.18  0. 1.0000     0. 
   1  -1 -13     38.08    5.04  0. 1.0000     0. 
  -1  -1  13     34.51    3.31  0. 1.0000     0. 
  -1  -1  13     23.26    6.15  0. 1.0000     0. 
   1  -1 -13     31.24    3.24  0. 1.0000     0. 
   1   1 -13     35.46    4.85  0. 1.0000     0. 
   1   1 -13     37.04    3.88  0. 1.0000     0. 
  -1   1  13     47.87    7.84  0. 1.0000     0. 
  -1   1  13     31.93    3.16  0. 1.0000     0. 
   0  -1  13    185.07    9.42  0. 1.0000     0. 
   0  -1 -13    184.40    9.29  0. 1.0000     0. 
   0  -1  13    168.98   14.17  0. 1.0000     0. 
   0   1 -13    182.83   11.03  0. 1.0000     0. 
   0   1 -13    189.88    9.61  0. 1.0000     0. 
   0   1  13    206.85   13.83  0. 1.0000     0. 
   0   1  13    180.15    9.07  0. 1.0000     0. 
  -2   1 -13    219.20   13.66  0. 1.0000     0. 
  -6   2  13      5.42    4.56  0. 1.0000     0. 
  -5  -2  13     19.88    4.13  0. 1.0000     0. 
   5  -2 -13     19.22    3.85  0. 1.0000     0. 
   5   2 -13     18.93    4.64  0. 1.0000     0. 
  -5   2  13     13.27    5.97  0. 1.0000     0. 
  -5   2  13     27.96    5.21  0. 1.0000     0. 
   4  -2 -13     60.20    5.33  0. 1.0000     0. 
  -4   2  13     62.73    8.09  0. 1.0000     0. 
   4   2 -13     61.08    6.29  0. 1.0000     0. 
   3  -2 -13     -0.80    3.12  0. 1.0000     0. 
  -3   2  13      3.50    5.66  0. 1.0000     0. 
   3   2 -13      1.65    3.34  0. 1.0000     0. 
  -2  -2  13     -0.46    7.26  0. 1.0000     0. 
   2  -2 -13      7.84    3.13  0. 1.0000     0. 
  -2   2  13      0.27    6.42  0. 1.0000     0. 
   2   2 -13      2.75    3.27  0. 1.0000     0. 
   1  -2 -13    114.29    6.80  0. 1.0000     0. 
  -1  -2  13    113.07   10.83  0. 1.0000     0. 
  -1   2  13    106.29   12.04  0. 1.0000     0. 
   1   2 -13    115.56    6.98  0. 1.0000     0. 
   0  -2  13     26.67    8.36  0. 1.0000     0. 
   0  -2 -13     28.11    3.67  0. 1.0000     0. 
   0   2 -13     31.11    3.97  0. 1.0000     0. 
   0   2  13     17.97    6.96  0. 1.0000     0. 
   1  -2  13    264.34   19.04  0. 1.0000     0. 
  -1  -2 -13    244.09   12.84  0. 1.0000     0. 
  -1   2 -13    256.22   12.96  0. 1.0000     0. 
   2   2  13      0.78    2.60  0. 1.0000     0. 
  -2   2 -13      2.30    5.68  0. 1.0000     0. 
   5  -3 -13     67.33    5.67  0. 1.0000     0. 
  -5  -3  13     44.90    6.11  0. 1.0000     0. 
   5   3 -13     59.12    7.21  0. 1.0000     0. 
  -5   3  13     52.37    9.29  0. 1.0000     0. 
  -5   3  13     46.45    6.81  0. 1.0000     0. 
  -4  -3  13     49.85    5.79  0. 1.0000     0. 
   4  -3 -13     73.65    5.98  0. 1.0000     0. 
  -4   3  13     71.57    9.52  0. 1.0000     0. 
   4   3 -13     77.01    6.74  0. 1.0000     0. 
  -4   3  13     55.52    6.30  0. 1.0000     0. 
   3  -3 -13     89.11    7.13  0. 1.0000     0. 
  -3  -3  13     92.10    6.65  0. 1.0000     0. 
   3  -3 -13     84.74    6.45  0. 1.0000     0. 
  -3  -3  13    102.12   11.67  0. 1.0000     0. 
   3   3 -13     91.38    6.89  0. 1.0000     0. 
  -3   3  13     86.59    6.77  0. 1.0000     0. 
  -3   3  13     81.89   11.06  0. 1.0000     0. 
   3   3 -13     80.64    7.24  0. 1.0000     0. 
   2  -3 -13    102.07    7.82  0. 1.0000     0. 
   2  -3 -13     96.10    6.85  0. 1.0000     0. 
  -2  -3  13    114.38   12.98  0. 1.0000     0. 
  -2  -3  13    107.91    7.06  0. 1.0000     0. 
   2   3 -13     87.19    7.06  0. 1.0000     0. 
  -2   3  13     92.72    6.45  0. 1.0000     0. 
  -2   3  13     88.35   13.02  0. 1.0000     0. 
   2   3 -13     96.91    7.60  0. 1.0000     0. 
   1  -3 -13     24.06    3.85  0. 1.0000     0. 
   1  -3 -13     16.30    4.48  0. 1.0000     0. 
  -1  -3  13     32.32    9.47  0. 1.0000     0. 
  -1  -3  13     20.14    4.57  0. 1.0000     0. 
  -1   3  13     18.91    4.15  0. 1.0000     0. 
   1   3 -13     15.80    5.47  0. 1.0000     0. 
   1   3 -13     22.26    4.63  0. 1.0000     0. 
  -1   3  13     18.73    9.91  0. 1.0000     0. 
   0  -3  13    225.97   15.79  0. 1.0000     0. 
   0  -3 -13    213.26   10.98  0. 1.0000     0. 
   0   3  13    208.75   10.47  0. 1.0000     0. 
   0   3 -13    215.41   13.21  0. 1.0000     0. 
   1  -3  13      0.33    3.64  0. 1.0000     0. 
  -1  -3 -13     -2.95    3.76  0. 1.0000     0. 
  -1  -3 -13      4.03    5.77  0. 1.0000     0. 
   1  -3  13      0.23    8.25  0. 1.0000     0. 
  -1   3 -13      7.21    5.49  0. 1.0000     0. 
  -1   3 -13     -1.55    4.19  0. 1.0000     0. 
   1   3  13      0.83    6.85  0. 1.0000     0. 
   1   3  13      0.10    2.80  0. 1.0000     0. 
   5  -1 -14     82.04    5.87  0. 1.0000     0. 
  -5   1  14     74.01    7.31  0. 1.0000     0. 
   5   1 -14     74.17    6.37  0. 1.0000     0. 
   4  -1 -14    649.44   30.99  0. 1.0000     0. 
  -4  -1  14    660.43   30.52  0. 1.0000     0. 
  -4   1  14    649.81   28.39  0. 1.0000     0. 
  -4   1  14    655.22   29.28  0. 1.0000     0. 
   4   1 -14    627.24   31.96  0. 1.0000     0. 
   4   1 -14    613.65   29.43  0. 1.0000     0. 
   3  -1 -14     -0.73    2.81  0. 1.0000     0. 
  -3  -1  14     -4.65    3.07  0. 1.0000     0. 
   3  -1 -14      2.54    2.73  0. 1.0000     0. 
  -3   1  14     -3.15    4.95  0. 1.0000     0. 
  -3   1  14     -4.62    3.57  0. 1.0000     0. 
   3   1 -14     -4.15    4.11  0. 1.0000     0. 
   3   1 -14      1.41    2.93  0. 1.0000     0. 
  -2  -1  14     13.18    2.69  0. 1.0000     0. 
  -2  -1  14      4.62    6.68  0. 1.0000     0. 
   2   1 -14      4.37    4.09  0. 1.0000     0. 
  -2   1  14      6.65    2.85  0. 1.0000     0. 
  -1  -1  14    895.23   49.36  0. 1.0000     0. 
   1  -1 -14    897.99   45.58  0. 1.0000     0. 
  -1  -1  14    963.39   41.91  0. 1.0000     0. 
   1  -1 -14    900.47   40.27  0. 1.0000     0. 
   1   1 -14    926.46   39.56  0. 1.0000     0. 
   1   1 -14    939.19   45.01  0. 1.0000     0. 
  -1   1  14    873.65   38.80  0. 1.0000     0. 
  -1   1  14    966.99   41.71  0. 1.0000     0. 
   0  -1  14     94.28    5.68  0. 1.0000     0. 
   0  -1 -14     88.28    8.03  0. 1.0000     0. 
   0  -1  14     89.27   10.17  0. 1.0000     0. 
   0  -1 -14     98.79    5.90  0. 1.0000     0. 
   0   1 -14     96.13    6.57  0. 1.0000     0. 
   0   1 -14     92.87    7.60  0. 1.0000     0. 
   0   1  14     89.52    5.34  0. 1.0000     0. 
   0   1  14    100.69   10.18  0. 1.0000     0. 
  -1   1 -14     21.38    4.81  0. 1.0000     0. 
   1   1  14     17.59    2.71  0. 1.0000     0. 
  -2   1 -14    609.83   31.31  0. 1.0000     0. 
   6  -2 -14     -0.75    1.22  0. 1.0000     0. 
   4  -2 -14     -0.42    2.99  0. 1.0000     0. 
   4   2 -14     -3.13    4.01  0. 1.0000     0. 
   4   2 -14     -1.37    4.33  0. 1.0000     0. 
  -4   2  14      1.07    4.33  0. 1.0000     0. 
  -4   2  14      0.22    5.71  0. 1.0000     0. 
   3  -2 -14     21.85    4.09  0. 1.0000     0. 
  -3  -2  14     22.03    3.59  0. 1.0000     0. 
   3  -2 -14     25.86    4.02  0. 1.0000     0. 
   3   2 -14     24.00    4.34  0. 1.0000     0. 
   3   2 -14     25.61    4.39  0. 1.0000     0. 
  -3   2  14     27.37    7.44  0. 1.0000     0. 
  -3   2  14     24.28    4.38  0. 1.0000     0. 
   2  -2 -14     38.47    4.13  0. 1.0000     0. 
  -2  -2  14     40.50    8.98  0. 1.0000     0. 
  -2  -2  14     38.30    3.95  0. 1.0000     0. 
   2  -2 -14     23.32    4.36  0. 1.0000     0. 
   2   2 -14     36.86    5.34  0. 1.0000     0. 
   2   2 -14     45.96    4.72  0. 1.0000     0. 
  -2   2  14     35.81    4.09  0. 1.0000     0. 
  -2   2  14     24.73    8.58  0. 1.0000     0. 
   1  -2 -14      5.09    4.30  0. 1.0000     0. 
   1  -2 -14     10.64    3.05  0. 1.0000     0. 
  -1  -2  14      7.79    3.26  0. 1.0000     0. 
  -1  -2  14      9.34    7.51  0. 1.0000     0. 
   1   2 -14      9.79    3.48  0. 1.0000     0. 
  -1   2  14     11.33    7.76  0. 1.0000     0. 
  -1   2  14     12.50    3.28  0. 1.0000     0. 
   1   2 -14     14.02    4.71  0. 1.0000     0. 
   0  -2  14      3.26    8.87  0. 1.0000     0. 
   0  -2 -14      3.51    3.12  0. 1.0000     0. 
   0  -2  14      6.38    3.27  0. 1.0000     0. 
   0  -2 -14     12.40    5.78  0. 1.0000     0. 
   0   2 -14      5.57    3.64  0. 1.0000     0. 
   0   2  14      2.07    2.89  0. 1.0000     0. 
   0   2  14      5.57    6.09  0. 1.0000     0. 
   0   2 -14     10.78    4.82  0. 1.0000     0. 
  -2   2 -14     -6.48    5.42  0. 1.0000     0. 
   6  -3 -14     20.05    4.68  0. 1.0000     0. 
   6   3 -14     12.13    5.10  0. 1.0000     0. 
  -6   3  14     29.48    7.80  0. 1.0000     0. 
  -5  -3  14     44.24    5.89  0. 1.0000     0. 
  -5   3  14     39.03    6.98  0. 1.0000     0. 
  -3  -3  14     -2.86    9.36  0. 1.0000     0. 
   3  -3 -14      0.84    3.64  0. 1.0000     0. 
  -3  -3  14      2.68    4.00  0. 1.0000     0. 
   3  -3 -14      4.61    3.81  0. 1.0000     0. 
  -3   3  14     -0.30    7.27  0. 1.0000     0. 
   3   3 -14      5.33    4.46  0. 1.0000     0. 
  -3   3  14      0.16    4.60  0. 1.0000     0. 
   3   3 -14      3.92    4.27  0. 1.0000     0. 
  -2  -3  14     22.28    9.38  0. 1.0000     0. 
  -2  -3  14     15.78    3.95  0. 1.0000     0. 
   2  -3 -14     11.08    4.31  0. 1.0000     0. 
   2  -3 -14     16.94    3.87  0. 1.0000     0. 
  -2   3  14      9.13    8.60  0. 1.0000     0. 
   2   3 -14     24.54    4.71  0. 1.0000     0. 
  -2   3  14     11.45    4.00  0. 1.0000     0. 
   2   3 -14     15.65    4.65  0. 1.0000     0. 
  -1  -3  14     -2.26    8.05  0. 1.0000     0. 
   1  -3 -14      2.09    3.30  0. 1.0000     0. 
  -1  -3  14      3.80    3.92  0. 1.0000     0. 
   1  -3 -14     -3.22    4.29  0. 1.0000     0. 
  -1   3  14     -1.62    3.85  0. 1.0000     0. 
   1   3 -14     -3.77    5.01  0. 1.0000     0. 
  -1   3  14     -4.09    7.83  0. 1.0000     0. 
   1   3 -14      3.37    3.95  0. 1.0000     0. 
  -1  -3 -14      0.30    6.15  0. 1.0000     0. 
   1  -3  14     23.24   10.48  0. 1.0000     0. 
   1  -3  14      9.76    4.15  0. 1.0000     0. 
  -1  -3 -14     18.78    4.19  0. 1.0000     0. 
   1   3  14     10.33    3.13  0. 1.0000     0. 
  -1   3 -14      7.72    5.47  0. 1.0000     0. 
  -1   3 -14     18.29    5.11  0. 1.0000     0. 
   2  -3  14     -2.95   11.94  0. 1.0000     0. 
   2  -3  14      2.67    3.76  0. 1.0000     0. 
  -2   3 -14      1.94    6.54  0. 1.0000     0. 
   5  -1 -15    354.69   17.42  0. 1.0000     0. 
  -5   1  15    338.18   18.65  0. 1.0000     0. 
   5   1 -15    331.71   17.34  0. 1.0000     0. 
   4  -1 -15    185.82   10.36  0. 1.0000     0. 
  -4   1  15    174.14   10.12  0. 1.0000     0. 
  -4   1  15    179.52   11.52  0. 1.0000     0. 
   4   1 -15    180.00   10.63  0. 1.0000     0. 
   3  -1 -15     65.40    5.01  0. 1.0000     0. 
   3  -1 -15     64.94    5.29  0. 1.0000     0. 
   3   1 -15     67.78    5.12  0. 1.0000     0. 
  -3   1  15     67.66    5.23  0. 1.0000     0. 
  -3   1  15     64.07    7.14  0. 1.0000     0. 
   2  -1 -15    277.65   14.80  0. 1.0000     0. 
   2  -1 -15    271.92   13.22  0. 1.0000     0. 
  -2   1  15    274.67   12.78  0. 1.0000     0. 
   2   1 -15    276.17   13.39  0. 1.0000     0. 
  -2   1  15    281.48   16.66  0. 1.0000     0. 
   1  -1 -15    113.68    6.67  0. 1.0000     0. 
   1  -1 -15    121.00    8.50  0. 1.0000     0. 
  -1   1  15    122.38    6.60  0. 1.0000     0. 
   1   1 -15    122.04    8.34  0. 1.0000     0. 
   1   1 -15    127.21    7.21  0. 1.0000     0. 
  -1   1  15    124.57   10.63  0. 1.0000     0. 
   0  -1 -15     15.18    3.32  0. 1.0000     0. 
   0  -1 -15     12.28    4.94  0. 1.0000     0. 
   0   1 -15     16.18    5.34  0. 1.0000     0. 
   0   1  15     12.17    2.69  0. 1.0000     0. 
  -1   1 -15     86.07    7.61  0. 1.0000     0. 
   1   1  15     79.33    5.05  0. 1.0000     0. 
  -6   2  15    217.40   14.83  0. 1.0000     0. 
  -5  -2  15     31.06    5.11  0. 1.0000     0. 
   5  -2 -15     37.52    4.58  0. 1.0000     0. 
  -5   2  15     42.96    5.68  0. 1.0000     0. 
   5   2 -15     36.13    5.79  0. 1.0000     0. 
  -5   2  15     42.68    7.63  0. 1.0000     0. 
   4  -2 -15     99.97    7.15  0. 1.0000     0. 
  -4  -2  15    100.30    7.35  0. 1.0000     0. 
   4   2 -15    110.19    7.61  0. 1.0000     0. 
  -4   2  15    109.05    7.46  0. 1.0000     0. 
  -4   2  15    100.46    9.91  0. 1.0000     0. 
   4   2 -15     99.65    7.60  0. 1.0000     0. 
  -3  -2  15    316.36   15.42  0. 1.0000     0. 
  -3  -2  15    319.93   20.18  0. 1.0000     0. 
   3  -2 -15    306.19   15.21  0. 1.0000     0. 
   3  -2 -15    305.87   16.85  0. 1.0000     0. 
   3   2 -15    301.32   16.15  0. 1.0000     0. 
   3   2 -15    306.76   15.19  0. 1.0000     0. 
  -3   2  15    305.76   19.69  0. 1.0000     0. 
  -3   2  15    302.55   14.70  0. 1.0000     0. 
  -2  -2  15     38.69    9.62  0. 1.0000     0. 
  -2  -2  15     25.90    3.83  0. 1.0000     0. 
   2  -2 -15     20.86    3.77  0. 1.0000     0. 
   2  -2 -15     22.93    4.66  0. 1.0000     0. 
   2   2 -15     21.41    5.21  0. 1.0000     0. 
  -2   2  15     24.63    8.44  0. 1.0000     0. 
  -2   2  15     20.29    3.88  0. 1.0000     0. 
  -1  -2  15     11.02    3.55  0. 1.0000     0. 
   1  -2 -15     12.03    3.29  0. 1.0000     0. 
   1  -2 -15      8.87    4.61  0. 1.0000     0. 
  -1  -2  15      8.48    8.26  0. 1.0000     0. 
   1   2 -15      3.62    4.75  0. 1.0000     0. 
  -1   2  15      7.39    3.44  0. 1.0000     0. 
  -1   2  15     11.32    6.98  0. 1.0000     0. 
   1   2 -15      6.62    3.66  0. 1.0000     0. 
   0  -2 -15     86.66    5.96  0. 1.0000     0. 
   0  -2 -15     70.74    8.51  0. 1.0000     0. 
   0  -2  15    118.80   12.91  0. 1.0000     0. 
   0   2 -15     83.30    6.37  0. 1.0000     0. 
   0   2 -15     88.00    7.49  0. 1.0000     0. 
   0   2  15     87.37    5.28  0. 1.0000     0. 
   0   2  15     60.59   10.23  0. 1.0000     0. 
  -1  -2 -15     -3.13    3.46  0. 1.0000     0. 
   1  -2  15      2.08    3.13  0. 1.0000     0. 
   1  -2  15      8.49   11.47  0. 1.0000     0. 
   1   2  15      1.61    3.24  0. 1.0000     0. 
  -1   2 -15     -0.92    5.71  0. 1.0000     0. 
  -2   2 -15     -2.48    6.21  0. 1.0000     0. 
   6  -3 -15     45.95    5.56  0. 1.0000     0. 
  -6   3  15     48.42    9.37  0. 1.0000     0. 
   6   3 -15     38.23    6.84  0. 1.0000     0. 
   5  -3 -15      0.20    4.34  0. 1.0000     0. 
  -5  -3  15      5.10    4.82  0. 1.0000     0. 
   5   3 -15      3.06    5.16  0. 1.0000     0. 
  -5   3  15     -0.20    5.67  0. 1.0000     0. 
  -5   3  15      4.14    7.81  0. 1.0000     0. 
   5   3 -15      4.36    5.27  0. 1.0000     0. 
  -4  -3  15     -4.33    4.49  0. 1.0000     0. 
   4  -3 -15      1.39    4.15  0. 1.0000     0. 
   4  -3 -15     -0.51    3.72  0. 1.0000     0. 
   4   3 -15     -1.18    4.58  0. 1.0000     0. 
   4   3 -15     -2.27    4.76  0. 1.0000     0. 
  -4   3  15     -6.77    8.30  0. 1.0000     0. 
  -4   3  15     -0.19    5.26  0. 1.0000     0. 
  -3  -3  15     33.91    9.98  0. 1.0000     0. 
   3  -3 -15     26.06    4.70  0. 1.0000     0. 
   3  -3 -15     33.72    4.82  0. 1.0000     0. 
  -3  -3  15     35.07    4.80  0. 1.0000     0. 
   3   3 -15     46.48    5.78  0. 1.0000     0. 
  -3   3  15     19.16    9.90  0. 1.0000     0. 
   3   3 -15     24.66    4.92  0. 1.0000     0. 
  -3   3  15     38.00    5.41  0. 1.0000     0. 
   2  -3 -15      4.43    4.31  0. 1.0000     0. 
   2  -3 -15     -2.47    3.92  0. 1.0000     0. 
  -2  -3  15      3.02    8.96  0. 1.0000     0. 
  -2  -3  15      1.48    3.62  0. 1.0000     0. 
   2   3 -15      4.26    4.09  0. 1.0000     0. 
  -2   3  15     -2.36    3.81  0. 1.0000     0. 
  -2   3  15      0.38    8.76  0. 1.0000     0. 
   2   3 -15     -1.44    4.58  0. 1.0000     0. 
  -1  -3  15     47.13   10.33  0. 1.0000     0. 
  -1  -3  15     42.98    5.47  0. 1.0000     0. 
   1  -3 -15     43.95    5.90  0. 1.0000     0. 
   1  -3 -15     37.09    4.47  0. 1.0000     0. 
   1   3 -15     40.82    5.33  0. 1.0000     0. 
  -1   3  15     45.06    4.79  0. 1.0000     0. 
   1   3 -15     52.56    6.17  0. 1.0000     0. 
  -1   3  15     35.25   10.29  0. 1.0000     0. 
   0  -3  15     17.88   10.24  0. 1.0000     0. 
   0  -3 -15      7.71    3.76  0. 1.0000     0. 
   0  -3  15      0.33    3.79  0. 1.0000     0. 
   0  -3 -15      7.63    5.50  0. 1.0000     0. 
   0   3  15      4.48    8.57  0. 1.0000     0. 
   0   3  15      8.68    3.63  0. 1.0000     0. 
   0   3 -15      4.33    4.25  0. 1.0000     0. 
   0   3 -15      3.52    5.76  0. 1.0000     0. 
   1  -3  15      8.03   11.93  0. 1.0000     0. 
   1  -3  15      4.61    4.19  0. 1.0000     0. 
  -1  -3 -15      4.45    6.69  0. 1.0000     0. 
  -1  -3 -15      9.65    3.83  0. 1.0000     0. 
  -1   3 -15      5.04    4.37  0. 1.0000     0. 
  -1   3 -15      6.57    5.78  0. 1.0000     0. 
   1   3  15      6.21    3.34  0. 1.0000     0. 
   6  -2 -16     53.82    5.46  0. 1.0000     0. 
   6   2 -16     32.47    5.77  0. 1.0000     0. 
  -6   2  16     45.41    8.11  0. 1.0000     0. 
  -5  -2  16      3.16    4.31  0. 1.0000     0. 
   5  -2 -16     -3.90    3.30  0. 1.0000     0. 
  -5   2  16      0.25    6.41  0. 1.0000     0. 
  -5   2  16      1.97    4.98  0. 1.0000     0. 
   5   2 -16      2.75    4.66  0. 1.0000     0. 
  -4  -2  16      4.93    4.34  0. 1.0000     0. 
   4  -2 -16      3.35    3.36  0. 1.0000     0. 
   4  -2 -16      5.72    3.83  0. 1.0000     0. 
  -4   2  16      4.61    4.94  0. 1.0000     0. 
   4   2 -16     -0.61    3.94  0. 1.0000     0. 
   4   2 -16      6.29    4.78  0. 1.0000     0. 
  -4   2  16      9.54    6.94  0. 1.0000     0. 
   3  -2 -16    621.16   27.70  0. 1.0000     0. 
   3  -2 -16    646.70   31.71  0. 1.0000     0. 
  -3  -2  16    587.92   34.66  0. 1.0000     0. 
  -3  -2  16    622.35   28.94  0. 1.0000     0. 
   3   2 -16    626.98   28.05  0. 1.0000     0. 
  -3   2  16    593.42   33.65  0. 1.0000     0. 
   3   2 -16    621.61   29.99  0. 1.0000     0. 
  -3   2  16    595.24   26.93  0. 1.0000     0. 
   2  -2 -16     -1.39    3.45  0. 1.0000     0. 
  -2  -2  16      3.96    3.53  0. 1.0000     0. 
   2  -2 -16     -4.39    3.97  0. 1.0000     0. 
  -2  -2  16     -2.67    8.13  0. 1.0000     0. 
  -2   2  16      7.28    8.27  0. 1.0000     0. 
   2   2 -16      3.90    4.83  0. 1.0000     0. 
   2   2 -16     -0.70    3.63  0. 1.0000     0. 
  -2   2  16      3.40    3.78  0. 1.0000     0. 
   1  -2 -16     31.32    3.94  0. 1.0000     0. 
  -1  -2  16     27.10    8.69  0. 1.0000     0. 
   1  -2 -16     27.58    5.13  0. 1.0000     0. 
  -1  -2  16     35.46    4.47  0. 1.0000     0. 
   1   2 -16     33.89    5.99  0. 1.0000     0. 
  -1   2  16     14.66    7.63  0. 1.0000     0. 
  -1   2  16     28.72    4.29  0. 1.0000     0. 
   1   2 -16     31.95    4.40  0. 1.0000     0. 
   0  -2 -16    316.39   15.37  0. 1.0000     0. 
   0  -2 -16    336.96   19.49  0. 1.0000     0. 
   0  -2  16    334.94   21.63  0. 1.0000     0. 
   0   2  16    306.49   14.79  0. 1.0000     0. 
   0   2 -16    323.15   17.65  0. 1.0000     0. 
   0   2 -16    304.56   16.26  0. 1.0000     0. 
  -1  -2 -16      0.92    6.07  0. 1.0000     0. 
   1  -2  16      3.17    3.44  0. 1.0000     0. 
   1  -2  16      1.12   14.11  0. 1.0000     0. 
  -1   2 -16      5.97    6.21  0. 1.0000     0. 
   1   2  16      4.25    3.37  0. 1.0000     0. 
  -2   2 -16      3.25    6.32  0. 1.0000     0. 
   4  -3 -16     74.93    6.54  0. 1.0000     0. 
  -4  -3  16     82.22   12.35  0. 1.0000     0. 
   4  -3 -16     67.15    6.46  0. 1.0000     0. 
  -4  -3  16     78.67    7.05  0. 1.0000     0. 
  -4   3  16     65.41   11.57  0. 1.0000     0. 
  -4   3  16     65.79    7.26  0. 1.0000     0. 
   4   3 -16     71.24    7.20  0. 1.0000     0. 
   4   3 -16     75.88    6.86  0. 1.0000     0. 
   3  -3 -16      2.99    3.92  0. 1.0000     0. 
  -3  -3  16      8.08    9.59  0. 1.0000     0. 
  -3  -3  16      5.52    4.10  0. 1.0000     0. 
   3  -3 -16      2.38    4.35  0. 1.0000     0. 
  -3   3  16      8.43   10.15  0. 1.0000     0. 
   3   3 -16     -2.91    4.95  0. 1.0000     0. 
  -3   3  16      2.68    4.83  0. 1.0000     0. 
   3   3 -16      8.70    4.66  0. 1.0000     0. 
   2  -3 -16    144.51    8.95  0. 1.0000     0. 
   2  -3 -16    143.50   10.33  0. 1.0000     0. 
  -2  -3  16    145.54    9.19  0. 1.0000     0. 
  -2  -3  16    172.05   14.50  0. 1.0000     0. 
   2   3 -16    153.93    9.21  0. 1.0000     0. 
  -2   3  16    147.96    8.67  0. 1.0000     0. 
   2   3 -16    163.76   10.20  0. 1.0000     0. 
  -2   3  16    113.92   15.80  0. 1.0000     0. 
   1  -3 -16     61.78    5.12  0. 1.0000     0. 
  -1  -3  16     65.25   10.78  0. 1.0000     0. 
  -1  -3  16     53.86    5.35  0. 1.0000     0. 
   1  -3 -16     28.28    5.86  0. 1.0000     0. 
   1   3 -16     59.52    5.58  0. 1.0000     0. 
   1   3 -16     49.04    6.84  0. 1.0000     0. 
  -1   3  16     27.90    9.58  0. 1.0000     0. 
  -1   3  16     57.19    5.21  0. 1.0000     0. 
   6  -2 -17     11.96    4.22  0. 1.0000     0. 
  -6   2  17      2.56    6.93  0. 1.0000     0. 
   6   2 -17      2.30    5.23  0. 1.0000     0. 
  -4  -2  17     39.36   10.18  0. 1.0000     0. 
   4  -2 -17     34.59    4.91  0. 1.0000     0. 
  -4  -2  17     45.03    5.40  0. 1.0000     0. 
   4  -2 -17     46.41    5.12  0. 1.0000     0. 
   4   2 -17     39.16    5.31  0. 1.0000     0. 
   4   2 -17     41.08    5.75  0. 1.0000     0. 
  -4   2  17     49.53    6.05  0. 1.0000     0. 
  -4   2  17     27.02    7.71  0. 1.0000     0. 
  -3  -2  17     87.52   11.50  0. 1.0000     0. 
  -3  -2  17    104.10    6.70  0. 1.0000     0. 
   3  -2 -17    105.13    7.56  0. 1.0000     0. 
   3  -2 -17     86.18    6.68  0. 1.0000     0. 
   3   2 -17     91.06    7.52  0. 1.0000     0. 
  -3   2  17     89.16   12.42  0. 1.0000     0. 
  -3   2  17     89.42    6.96  0. 1.0000     0. 
   3   2 -17    105.53    7.46  0. 1.0000     0. 
   2  -2 -17     24.27    4.90  0. 1.0000     0. 
  -2  -2  17     38.94    4.76  0. 1.0000     0. 
  -2  -2  17     24.76    9.02  0. 1.0000     0. 
   2  -2 -17     28.74    4.14  0. 1.0000     0. 
  -2   2  17     26.85    9.72  0. 1.0000     0. 
   2   2 -17     40.61    6.03  0. 1.0000     0. 
   2   2 -17     25.61    4.57  0. 1.0000     0. 
  -2   2  17     31.28    4.59  0. 1.0000     0. 
  -1  -2  17     -3.35   10.64  0. 1.0000     0. 
   1  -2 -17     -0.13    3.48  0. 1.0000     0. 
  -1   2  17     -3.92    6.83  0. 1.0000     0. 
   1   2 -17     -3.29    5.60  0. 1.0000     0. 
   1   2 -17      0.16    4.24  0. 1.0000     0. 
  -1  -2 -17     58.10    8.07  0. 1.0000     0. 
   1  -2  17     57.62    5.37  0. 1.0000     0. 
  -1   2 -17     70.94    7.96  0. 1.0000     0. 
   1   2  17     56.24    4.69  0. 1.0000     0. 
   6  -2 -18     79.29    6.65  0. 1.0000     0. 
  -6   2  18     74.26   10.12  0. 1.0000     0. 
   5  -2 -18      0.17    3.71  0. 1.0000     0. 
   5  -2 -18      0.15    4.43  0. 1.0000     0. 
  -5   2  18     -5.27    7.29  0. 1.0000     0. 
   5   2 -18     -1.82    4.28  0. 1.0000     0. 
  -5   2  18     -1.92    5.68  0. 1.0000     0. 
   4  -2 -18      2.65    3.67  0. 1.0000     0. 
   4  -2 -18     -1.47    4.02  0. 1.0000     0. 
   4   2 -18      4.59    4.43  0. 1.0000     0. 
  -4   2  18      0.30    7.27  0. 1.0000     0. 
  -4   2  18     -0.35    5.31  0. 1.0000     0. 
   3  -2 -18      0.56    4.27  0. 1.0000     0. 
   3  -2 -18      3.01    3.69  0. 1.0000     0. 
   3   2 -18      0.15    3.87  0. 1.0000     0. 
  -3   2  18     -3.39    4.83  0. 1.0000     0. 
  -3   2  18     -0.33    7.61  0. 1.0000     0. 
   2  -2 -18      1.16    4.21  0. 1.0000     0. 
   2  -2 -18      2.13    3.63  0. 1.0000     0. 
  -2   2  18      4.14    7.38  0. 1.0000     0. 
  -2   2  18     -0.69    4.02  0. 1.0000     0. 
   2   2 -18      1.88    4.25  0. 1.0000     0. 
   1  -2 -18      8.29    4.95  0. 1.0000     0. 
   1  -2 -18      1.37    3.78  0. 1.0000     0. 
  -1   2  18      0.43    8.18  0. 1.0000     0. 
   1   2 -18      7.79    4.65  0. 1.0000     0. 
  -1   2  18      7.15    4.21  0. 1.0000     0. 
   0  -2 -18     27.58    4.45  0. 1.0000     0. 
   0  -2 -18     23.83    6.94  0. 1.0000     0. 
   0   2  18     34.56    4.50  0. 1.0000     0. 
-512 
#   2168 reflections output 
;
loop_
_symmetry_equiv_pos_as_xyz
x,y,z
-x,-y,-z
-x,y+1/2,-z+1/2
x,-y+1/2,z+1/2
loop_
_atom_site_label
_atom_site_type_symbol
_atom_site_fract_x
_atom_site_fract_y
_atom_site_fract_z
_atom_site_U_iso_or_equiv
_atom_site_occupancy
_atom_site_adp_type
_atom_site_refinement_flags_posn
_atom_site_refinement_flags_adp
_atom_site_refinement_flags_occupancy
_atom_site_disorder_assembly
_atom_site_disorder_group
_atom_site_attached_hydrogens
S1 S 0.4418(5) 0.2956(5) 0.33843(12) 0.0378 1.0000 Uani D U . . . .
N2 N 0.3149(8) 0.1856(13) 0.2401(3) 0.0366 1.0000 Uani D U . . . .
S3 S 0.1446(4) 0.0651(4) 0.24927(9) 0.0328 1.0000 Uani D U . . . .
C4 C 0.1778(8) 0.1243(13) 0.3715(3) 0.0264 1.0000 Uani D U . . . .
C5 C 0.3279(8) 0.2443(13) 0.4160(3) 0.0282 1.0000 Uani D U . . . .
N6 N 0.3532(8) 0.2963(12) 0.5087(3) 0.0293 1.0000 Uani D U . . . .
S7 S 0.1945(4) 0.1835(4) 0.53681(11) 0.0289 1.0000 Uani D U . . . .
N8 N 0.0908(8) 0.0747(12) 0.4300(3) 0.0278 1.0000 Uani D U . . . .
loop_
_atom_site_aniso_label
_atom_site_aniso_U_11
_atom_site_aniso_U_22
_atom_site_aniso_U_33
_atom_site_aniso_U_23
_atom_site_aniso_U_13
_atom_site_aniso_U_12
S1 0.041(6) 0.0543(9) 0.0224(10) 0.0103(5) 0.016(2) 0.0085(12)
N2 0.052(6) 0.045(2) 0.0184(19) 0.0038(17) 0.019(3) 0.003(4)
S3 0.044(6) 0.0429(8) 0.0127(8) 0.0020(4) 0.0101(17) 0.0058(10)
C4 0.034(7) 0.034(2) 0.0123(17) 0.0020(15) 0.008(3) 0.003(4)
C5 0.033(7) 0.037(2) 0.0165(19) 0.0016(16) 0.009(3) 0.003(4)
N6 0.032(7) 0.040(2) 0.017(2) 0.0004(15) 0.008(3) 0.001(3)
S7 0.036(6) 0.0388(8) 0.0138(9) -0.0005(4) 0.0097(18) -0.0021(9)
N8 0.033(7) 0.0354(19) 0.0168(18) 0.0011(14) 0.009(2) 0.000(3)
loop_
_atom_type_symbol
_atom_type_scat_dispersion_real
_atom_type_scat_dispersion_imag
_atom_type_scat_Cromer_Mann_a1
_atom_type_scat_Cromer_Mann_b1
_atom_type_scat_Cromer_Mann_a2
_atom_type_scat_Cromer_Mann_b2
_atom_type_scat_Cromer_Mann_a3
_atom_type_scat_Cromer_Mann_b3
_atom_type_scat_Cromer_Mann_a4
_atom_type_scat_Cromer_Mann_b4
_atom_type_scat_Cromer_Mann_c
_atom_type_scat_source
C 0.0006 0.0007 2.3100 20.8439 1.0200 10.2075 1.5886 0.5687 0.8650 51.6512
0.2156 'International Tables Vol C 4.2.6.8 and 6.1.1.4'
N 0.0016 0.0014 12.2126 0.0057 3.1322 9.8933 2.0125 28.9975 1.1663 0.5826
-11.5290 'International Tables Vol C 4.2.6.8 and 6.1.1.4'
S 0.0630 0.0572 6.9053 1.4679 5.2034 22.2151 1.4379 0.2536 1.5863 56.1720
0.8669 'International Tables Vol C 4.2.6.8 and 6.1.1.4'
loop_
_geom_angle_atom_site_label_1
_geom_angle_site_symmetry_1
_geom_angle_atom_site_label_2
_geom_angle_site_symmetry_2
_geom_angle_atom_site_label_3
_geom_angle_site_symmetry_3
_geom_angle
_geom_angle_publ_flag
N2 . S1 . C5 . 97.6(3) yes
S1 . N2 . S3 . 117.6(3) yes
N2 . S3 . C4 . 97.3(3) yes
S3 . C4 . C5 . 113.5(4) yes
S3 . C4 . N8 . 131.9(4) yes
C5 . C4 . N8 . 114.5(4) yes
C4 . C5 . S1 . 113.9(3) yes
C4 . C5 . N6 . 113.9(4) yes
S1 . C5 . N6 . 132.2(5) yes
C5 . N6 . S7 . 106.3(4) yes
N6 . S7 . N8 . 98.9(3) yes
C4 . N8 . S7 . 106.3(4) yes
loop_
_geom_bond_atom_site_label_1
_geom_bond_site_symmetry_1
_geom_bond_atom_site_label_2
_geom_bond_site_symmetry_2
_geom_bond_distance
_geom_bond_publ_flag
S1 . N2 . 1.647(6) yes
S1 . C5 . 1.729(5) yes
N2 . S3 . 1.654(7) yes
S3 . C4 . 1.740(4) yes
C4 . C5 . 1.428(7) yes
C4 . N8 . 1.317(6) yes
C5 . N6 . 1.323(5) yes
N6 . S7 . 1.654(7) yes
S7 . N8 . 1.649(5) yes
loop_
_oxford_refln_omitted_index_h
_oxford_refln_omitted_index_k
_oxford_refln_omitted_index_l
_oxford_refln_omitted_flag
_oxford_refln_omitted_details
-5 2 8 x .
-3 1 4 x .
-6 2 14 x .
3 3 4 x .
2 2 12 x .
3 4 5 x .
-6 3 11 x .
3 3 6 x .
