#------------------------------------------------------------------------------
#$Date: 2021-06-05 21:06:28 +0300 (Sat, 05 Jun 2021) $
#$Revision: 265937 $
#$URL: file:///home/coder/svn-repositories/cod/cif/7/24/22/7242250.cif $
#------------------------------------------------------------------------------
#
# This file is available in the Crystallography Open Database (COD),
# http://www.crystallography.net/
#
# All data on this site have been placed in the public domain by the
# contributors.
#
data_7242250
loop_
_publ_author_name
'Lin, Feng'
'Luo, Mengjia'
'Wang, Ruiqi'
'Che, Xiangli'
'Huang, Fuqiang'
_publ_section_title
;
 La6Cd0.75Ga2Q11.5Cl2.5 (Q = S and Se): two new nonlinear optical
 chalcohalides with a large laser-induced damage threshold
;
_journal_issue                   10
_journal_name_full               CrystEngComm
_journal_page_first              2133
_journal_page_last               2137
_journal_paper_doi               10.1039/D0CE01852J
_journal_volume                  23
_journal_year                    2021
_chemical_formula_sum            'Cd0.19 Cl0.61 Ga0.5 La1.5 S2.89'
_chemical_formula_weight         378.46
_space_group_crystal_system      hexagonal
_space_group_IT_number           173
_space_group_name_Hall           'P 6c'
_space_group_name_H-M_alt        'P 63'
_audit_creation_method           SHELXL-2018/3
_cell_angle_alpha                90
_cell_angle_beta                 90
_cell_angle_gamma                120
_cell_formula_units_Z            4
_cell_length_a                   10.1788(3)
_cell_length_b                   10.1788(3)
_cell_length_c                   6.0633(2)
_cell_measurement_reflns_used    6555
_cell_measurement_temperature    300(2)
_cell_measurement_theta_max      30.47
_cell_measurement_theta_min      2.31
_cell_volume                     544.04(3)
_computing_structure_refinement  'SHELXL-2018/3 (Sheldrick, 2018)'
_computing_structure_solution    'SHELXT 2014/5 (Sheldrick, 2014)'
_diffrn_ambient_temperature      300(2)
_diffrn_measured_fraction_theta_full 1.000
_diffrn_measured_fraction_theta_max 1.000
_diffrn_measurement_device_type  'Bruker APEX-II CCD'
_diffrn_measurement_method       '\f and \w scans'
_diffrn_radiation_type           MoK\a
_diffrn_radiation_wavelength     0.71073
_diffrn_reflns_av_R_equivalents  0.0330
_diffrn_reflns_av_unetI/netI     0.0208
_diffrn_reflns_Laue_measured_fraction_full 1.000
_diffrn_reflns_Laue_measured_fraction_max 1.000
_diffrn_reflns_limit_h_max       14
_diffrn_reflns_limit_h_min       -14
_diffrn_reflns_limit_k_max       13
_diffrn_reflns_limit_k_min       -14
_diffrn_reflns_limit_l_max       8
_diffrn_reflns_limit_l_min       -8
_diffrn_reflns_number            8900
_diffrn_reflns_point_group_measured_fraction_full 0.991
_diffrn_reflns_point_group_measured_fraction_max 0.981
_diffrn_reflns_theta_full        25.242
_diffrn_reflns_theta_max         30.458
_diffrn_reflns_theta_min         2.310
_exptl_absorpt_coefficient_mu    16.041
_exptl_crystal_colour            yellow
_exptl_crystal_density_diffrn    4.621
_exptl_crystal_description       block
_exptl_crystal_F_000             666
_exptl_crystal_size_max          0.04
_exptl_crystal_size_mid          0.03
_exptl_crystal_size_min          0.025
_refine_diff_density_max         0.945
_refine_diff_density_min         -1.176
_refine_diff_density_rms         0.142
_refine_ls_abs_structure_details
;
 Flack x determined using 448 quotients [(I+)-(I-)]/[(I+)+(I-)]
 (Parsons, Flack and Wagner, Acta Cryst. B69 (2013) 249-259).
;
_refine_ls_abs_structure_Flack   0.028(10)
_refine_ls_extinction_coef       0.0096(6)
_refine_ls_extinction_expression Fc^*^=kFc[1+0.001xFc^2^\l^3^/sin(2\q)]^-1/4^
_refine_ls_extinction_method     'SHELXL-2018/3 (Sheldrick 2018)'
_refine_ls_goodness_of_fit_ref   1.122
_refine_ls_hydrogen_treatment    undef
_refine_ls_matrix_type           full
_refine_ls_number_parameters     44
_refine_ls_number_reflns         1096
_refine_ls_number_restraints     1
_refine_ls_restrained_S_all      1.121
_refine_ls_R_factor_all          0.0182
_refine_ls_R_factor_gt           0.0165
_refine_ls_shift/su_max          0.001
_refine_ls_shift/su_mean         0.000
_refine_ls_structure_factor_coef Fsqd
_refine_ls_weighting_details
'w=1/[\s^2^(Fo^2^)+(0.0116P)^2^+0.7747P] where P=(Fo^2^+2Fc^2^)/3'
_refine_ls_weighting_scheme      calc
_refine_ls_wR_factor_gt          0.0348
_refine_ls_wR_factor_ref         0.0352
_reflns_Friedel_coverage         0.806
_reflns_Friedel_fraction_full    0.980
_reflns_Friedel_fraction_max     0.959
_reflns_number_gt                1059
_reflns_number_total             1096
_reflns_threshold_expression     'I > 2\s(I)'
_cod_data_source_file            d0ce01852j3.cif
_cod_data_source_block           LaCdGaSCl
_cod_depositor_comments          'Adding full bibliography for 7242250.cif.'
_cod_original_cell_volume        544.04(4)
_cod_original_formula_sum        'Cd0.19 Cl0.61 Ga0.50 La1.50 S2.89'
_cod_database_code               7242250
_shelx_shelxl_version_number     2018/3
_shelx_space_group_comment
;
The symmetry employed for this shelxl refinement is uniquely defined
by the following loop, which should always be used as a source of
symmetry information in preference to the above space-group names.
They are only intended as comments.
;
_shelx_res_file
;
TITL 1116_b.res in P6(3)
    1116_b.res
    created by SHELXL-2018/3 at 10:22:48 on 04-Dec-2020
REM Old TITL 1116 in P6(3)/m
REM SHELXT solution in P6(3)
REM R1 0.103,  Rweak 0.013,  Alpha 0.004,  Orientation as input
REM Flack x =  0.030 ( 0.013 ) from Parsons' quotients
REM Formula found by SHELXT:  Cl7 Ga La3 S
CELL  0.71073  10.1788  10.1788   6.0633   90.000   90.000  120.000
ZERR    4.000   0.0003   0.0003   0.0002    0.000    0.000    0.000
LATT -1
SYMM -Y, X-Y, Z
SYMM -X+Y, -X, Z
SYMM -X, -Y, 1/2+Z
SYMM Y, -X+Y, 1/2+Z
SYMM X-Y, X, 1/2+Z
SFAC CD CL GA LA S
UNIT 0.7455 2.45394 1.99998 6 11.546
TEMP 0
L.S. 10
BOND
eadp Ga1 Ga2
EADP S2 Cl2
EXYZ S2 Cl2
EADP S3 Cl3
EXYZ S3 Cl3
LIST 4
acta
FMAP 2
PLAN 20
WGHT    0.011600    0.774700
EXTI    0.009557
FVAR       0.42192   0.21940   0.87472   0.37278
LA1   4    0.768325    0.141900    0.891097    11.00000    0.01144    0.01224 =
         0.03025    0.00329    0.00188    0.00745
CD1   1    1.000000    0.000000    0.645744    40.33333    0.01715    0.01715 =
         0.14733    0.00000    0.00000    0.00857
S1    5    0.666667    0.333333    0.102494    10.33333    0.01294    0.01294 =
         0.00897    0.00000    0.00000    0.00647
S2    5    0.519033    0.096853    0.620229    31.00000    0.01421    0.01268 =
         0.01321   -0.00138   -0.00143    0.00347
CL2   2    0.519033    0.096853    0.620229   -31.00000    0.01421    0.01268 =
         0.01321   -0.00138   -0.00143    0.00347
S3    5    0.750788   -0.152752    0.856299   -21.00000    0.02747    0.01795 =
         0.03847   -0.00708   -0.00357    0.01616
CL3   2    0.750788   -0.152752    0.856299    21.00000    0.02747    0.01795 =
         0.03847   -0.00708   -0.00357    0.01616
part 1
GA1   3    0.666667    0.333333    0.470884    30.33333    0.01328    0.01328 =
         0.00857    0.00000    0.00000    0.00664
part 2
GA2   3    0.720278    0.249776    0.417761   -30.33333    0.01328    0.01328 =
         0.00857    0.00000    0.00000    0.00664
HKLF 4




REM  1116_b.res in P6(3)
REM wR2 = 0.035196, GooF = S = 1.12175, Restrained GooF = 1.12121 for all data
REM R1 = 0.016550 for 1059 Fo > 4sig(Fo) and 0.018152 for all 1096 data
REM 44 parameters refined using 1 restraints

END

WGHT      0.0116      0.7747

REM Highest difference peak  0.945,  deepest hole -1.176,  1-sigma level  0.142
Q1    1   0.7985 -0.1103  0.7672  11.00000  0.05    0.95
Q2    1   0.9825 -0.0574  0.7186  11.00000  0.05    0.73
Q3    1   0.8026 -0.1145  0.9888  11.00000  0.05    0.66
Q4    1   0.7892  0.1820  0.9728  11.00000  0.05    0.59
Q5    1   0.7951  0.1811  0.8038  11.00000  0.05    0.55
Q6    1   1.0000  0.0000  0.8834  10.33333  0.05    0.54
Q7    1   0.8428 -0.1087  0.9060  11.00000  0.05    0.50
Q8    1   1.0868 -0.0384  0.7084  11.00000  0.05    0.42
Q9    1   0.6788 -0.1573  0.7625  11.00000  0.05    0.41
Q10   1   0.6189  0.1591  0.0756  11.00000  0.05    0.41
Q11   1   1.1401  0.1349  0.7428  11.00000  0.05    0.40
Q12   1   0.8768  0.2987  1.0156  11.00000  0.05    0.38
Q13   1   0.9395 -0.0425  0.5549  11.00000  0.05    0.37
Q14   1   0.6984 -0.0194  1.0447  11.00000  0.05    0.36
Q15   1   0.7579  0.2360  0.7097  11.00000  0.05    0.36
Q16   1   0.7391 -0.2232  1.1376  11.00000  0.05    0.35
Q17   1   0.7997  0.0813  0.7608  11.00000  0.05    0.35
Q18   1   0.7181  0.1167  0.7097  11.00000  0.05    0.35
Q19   1   0.3285 -0.0599  0.7025  11.00000  0.05    0.34
Q20   1   0.6551  0.1785  0.2123  11.00000  0.05    0.34
;
_shelx_res_checksum              97364
_shelx_hkl_file
;
   1   0   0    9.60    0.90
   1   0   0   11.30    1.60
   1   0   0   10.40    0.90
  -2   0   0 1737.03   65.09
  -2   0   0 1680.63   64.59
  -2   0   0 1761.12   64.59
   2   0   0 1795.22   64.59
   2   0   0 1714.83   64.59
   2   0   0 1761.02   65.19
  -3   0   0   19.00    2.20
  -3   0   0   20.40    2.90
  -3   0   0   20.40    2.20
   3   0   0   21.70    2.30
   3   0   0   20.70    2.80
   3   0   0   21.00    2.40
  -4   0   0 1772.82   67.19
  -4   0   0 1692.63   66.39
  -4   0   0 1734.93   66.09
   4   0   0 1761.22   66.29
   4   0   0 1795.52   67.49
   4   0   0 1786.32   66.19
  -5   0   0  186.98   10.00
  -5   0   0  213.78   11.30
   5   0   0  198.68   10.10
   5   0   0  185.38   10.90
   5   0   0  214.78   10.00
  -6   0   0  124.89    8.00
  -6   0   0  116.19    9.40
   6   0   0  122.39    9.20
   6   0   0  138.19    8.00
   6   0   0  122.39    8.50
  -7   0   0  177.78   12.90
  -7   0   0  172.68   10.80
   7   0   0  178.48   12.40
   7   0   0  180.38   10.50
  -8   0   0 3103.99  115.89
   8   0   0 2982.90  117.29
   8   0   0 2999.80  114.59
  -9   0   0  412.96   21.90
   9   0   0  455.05   23.10
   9   0   0  445.86   24.40
 -10   0   0  500.85   25.40
  10   0   0  451.95   26.50
 -11   0   0  212.08   21.40
 -11   0   0  207.18   17.70
  11   0   0  208.68   19.70
 -12   0   0    5.70    9.30
 -12   0   0   15.70   11.50
  12   0   0    0.70   10.50
  13  -1   0  113.89   16.90
 -13   1   0  117.69   15.30
 -13   1   0  120.89   18.90
  12  -1   0   60.99   12.60
 -12   1   0   69.09   11.40
  11  -1   0  516.65   29.60
 -11   1   0  537.75   27.90
  10  -1   0  752.82   36.20
   9  -1   0  501.85   26.00
  -9   1   0  514.25   24.40
   8  -1   0 2822.32  105.29
   8  -1   0 2795.12  107.19
  -8   1   0 2739.03  105.59
  -8   1   0 2668.23  106.69
   7  -1   0 2660.23   98.09
   7  -1   0 2560.64   99.49
  -7   1   0 2556.74   99.29
  -7   1   0 2526.75   98.19
   6  -1   0   68.49    6.10
   6  -1   0   65.09    6.00
   6  -1   0   82.39    7.10
  -6   1   0   65.89    5.70
  -6   1   0   79.09    7.30
  -6   1   0   72.59    5.80
   5  -1   0  136.09    7.60
   5  -1   0  139.89    7.80
   5  -1   0  130.79    8.30
  -5   1   0  129.59    7.60
  -5   1   0  138.69    8.50
  -5   1   0  142.69    7.60
   4  -1   0 3799.52  141.29
   4  -1   0 3845.12  140.59
   4  -1   0 3816.32  140.39
  -4   1   0 3782.12  140.69
  -4   1   0 3716.83  141.19
   3  -1   0 3988.70  143.79
   3  -1   0 3917.01  143.29
  -3   1   0 3792.52  143.59
  -3   1   0 3838.82  142.99
  -3   1   0 3854.81  143.29
   2  -1   0    0.50    0.70
   2  -1   0    0.90    0.60
   2  -1   0    0.40    0.70
  -2   1   0    1.00    0.80
  -2   1   0    0.70    0.50
  -2   1   0    2.00    0.80
   1  -1   0    7.00    0.90
   1  -1   0    7.10    1.20
   0   1   0    6.90    1.00
  -1  -1   0    0.10    0.70
  -1  -1   0    2.10    1.00
  -1  -1   0    4.20    0.70
   1   1   0    0.80    0.50
   1   1   0    0.40    0.90
  -2  -1   0  179.38    7.90
  -2  -1   0  185.48    8.90
   2   1   0  185.48    7.50
   2   1   0  175.28    8.80
   2   1   0  188.88    8.00
  -3  -1   0 2355.36   88.99
  -3  -1   0 2365.96   89.99
   3   1   0 2468.65   88.39
   3   1   0 2400.36   88.89
   3   1   0 2342.87   90.19
  -4  -1   0 4078.69  154.78
  -4  -1   0 4203.88  155.98
   4   1   0 4211.88  154.68
   4   1   0 4076.79  156.08
   4   1   0 4294.57  154.08
  -5  -1   0 4183.58  157.18
  -5  -1   0 4177.68  155.88
   5   1   0 4092.29  157.38
   5   1   0 4210.48  154.88
   5   1   0 4256.57  155.78
  -6  -1   0  150.18    9.40
  -6  -1   0  154.68   11.70
   6   1   0  135.69    9.70
   6   1   0  160.58   11.10
   6   1   0  164.58    8.80
  -7  -1   0   24.30    4.70
  -7  -1   0   37.20    6.80
   7   1   0   37.80    6.50
   7   1   0   27.40    4.40
  -8  -1   0  158.18   11.60
   8   1   0  165.78   13.50
   8   1   0  164.78   10.80
  -9  -1   0  260.07   16.50
  -9  -1   0  254.37   19.80
   9   1   0  240.88   18.00
 -10  -1   0 1254.57   53.69
 -10  -1   0 1248.78   58.19
  10   1   0 1244.88   55.59
 -11  -1   0   94.59   12.20
 -11  -1   0   76.99   14.40
  11   1   0  105.29   14.40
 -12  -1   0   38.50   11.70
 -12  -1   0   39.20   13.30
  12   1   0   67.19   14.30
  13  -2   0   57.99   13.40
 -13   2   0   51.39   11.70
 -12   2   0 2880.41  113.99
  11  -2   0   24.50    8.50
 -11   2   0   30.60    7.70
  10  -2   0   45.40    8.30
 -10   2   0   47.40    7.20
   9  -2   0  749.62   34.90
  -9   2   0  780.72   33.60
   8  -2   0 1347.57   54.19
   8  -2   0 1345.77   55.59
  -8   2   0 1356.86   54.09
  -8   2   0 1355.06   55.59
   7  -2   0 3140.89  119.59
   7  -2   0 3238.08  118.59
   7  -2   0 2942.11  117.79
  -7   2   0 3234.18  119.69
  -7   2   0 3144.09  118.19
  -7   2   0 3091.79  118.49
   6  -2   0  368.56   17.90
   6  -2   0  364.66   16.80
   6  -2   0  387.06   17.40
  -6   2   0  378.06   17.40
  -6   2   0  376.46   18.10
  -6   2   0  373.06   16.80
   5  -2   0   69.69    5.40
   5  -2   0   70.49    5.00
  -5   2   0   70.79    5.30
  -5   2   0   64.29    4.70
  -5   2   0   72.59    5.90
   4  -2   0 9666.83  356.86
   4  -2   0 9806.22  357.36
  -4   2   0 9999.00  357.06
  -4   2   0 9426.36  357.26
  -4   2   0 9675.63  357.66
   3  -2   0  184.48    9.10
   3  -2   0  182.18    8.90
   3  -2   0  191.08    8.10
  -3   2   0  185.48    9.00
  -3   2   0  181.38    8.00
  -3   2   0  183.68    8.90
   2  -2   0 1739.03   65.09
   2  -2   0 1786.42   66.39
   2  -2   0 1844.32   65.89
   2  -2   0 1753.22   66.09
  -2   2   0 1772.02   65.79
  -2   2   0 1703.43   65.99
  -2   2   0 1751.52   65.09
   1  -2   0    1.20    0.90
   1  -2   0    5.00    0.90
   1  -2   0    2.00    0.30
  -1   2   0    3.90    0.80
  -1   2   0    0.80    0.80
  -1   2   0    3.50    0.40
   0  -2   0 1670.63   61.89
   0  -2   0 1657.43   63.39
   0  -2   0 1700.73   61.89
   0   2   0 1730.23   61.79
   0   2   0 1743.43   61.89
   0   2   0 1607.64   63.39
  -1  -2   0 3030.20  125.69
  -1  -2   0 3471.25  125.99
  -1  -2   0 3457.25  124.29
   1   2   0 3561.74  124.29
  -2  -2   0 6642.64  253.97
  -2  -2   0 7526.85  254.07
  -2  -2   0 6552.44  251.97
   2   2   0 6751.22  253.67
  -3  -2   0 1860.01   72.49
  -3  -2   0 1954.30   72.09
   3   2   0 1862.81   68.99
   3   2   0 1801.92   71.79
   3   2   0 1842.62   69.99
  -4  -2   0  216.28   12.80
  -4  -2   0  202.98   10.40
  -4  -2   0  215.38   12.40
   4   2   0  204.88   12.00
   4   2   0  227.38    9.30
   4   2   0  212.48   10.50
  -5  -2   0    7.30    4.40
  -5  -2   0    4.30    3.70
  -5  -2   0    6.10    2.50
   5   2   0   12.70    2.70
   5   2   0    3.90    3.10
  -6  -2   0  131.39   12.40
  -6  -2   0  133.99   12.00
  -6  -2   0  131.39    9.00
   6   2   0  139.69    7.80
   6   2   0  142.69   11.00
  -7  -2   0  566.24   25.80
  -7  -2   0  569.54   29.60
   7   2   0  563.94   28.00
   7   2   0  577.14   23.80
  -8  -2   0   20.90    5.40
  -8  -2   0    4.30    6.00
   8   2   0   11.80    4.20
   8   2   0   10.30    6.10
  -9  -2   0 1169.68   54.69
  -9  -2   0 1210.08   50.99
   9   2   0 1165.18   52.69
 -10  -2   0  503.15   27.20
 -10  -2   0  479.45   31.10
 -11  -2   0  106.99   17.20
 -11  -2   0   84.49   13.00
  13  -3   0  254.97   24.20
 -13   3   0  242.88   20.20
  12  -3   0  -11.80    7.90
 -12   3   0    6.70    6.90
  11  -3   0  275.37   19.60
 -11   3   0  269.67   17.70
  10  -3   0  365.16   21.70
 -10   3   0  394.96   20.30
   9  -3   0    5.40    4.40
  -9   3   0    4.70    3.30
   8  -3   0  356.76   18.90
   8  -3   0  388.46   23.20
  -8   3   0  348.57   20.10
  -8   3   0  336.57   19.30
  -8   3   0  352.56   17.30
   7  -3   0 4522.15  170.88
   7  -3   0 4621.14  172.78
   7  -3   0 4713.93  171.98
  -7   3   0 4538.75  171.98
  -7   3   0 4533.25  172.48
  -7   3   0 4852.31  173.68
  -7   3   0 4340.47  170.88
   6  -3   0 1331.27   51.69
   6  -3   0 1336.77   50.79
   6  -3   0 1273.57   52.19
  -6   3   0 1321.37   50.89
  -6   3   0 1244.98   51.59
  -6   3   0 1383.86   52.89
  -6   3   0 1282.37   52.09
   5  -3   0 2025.20   75.89
   5  -3   0 2084.39   76.89
   5  -3   0 1926.11   77.29
  -5   3   0 1943.61   76.79
  -5   3   0 2054.09   77.49
  -5   3   0 2084.09   77.69
  -5   3   0 2001.10   75.89
   4  -3   0 2660.83   96.79
   4  -3   0 2559.64   95.69
   4  -3   0 2618.64   97.39
   4  -3   0 2515.35   97.19
  -4   3   0 2591.84   97.39
  -4   3   0 2555.64   97.09
  -4   3   0 2532.65   95.69
   3  -3   0   15.60    2.50
   3  -3   0   18.70    2.50
   3  -3   0   22.40    3.30
   3  -3   0   16.50    1.90
  -3   3   0   25.80    2.70
  -3   3   0   18.60    1.80
  -3   3   0   17.10    2.80
   2  -3   0 3979.00  142.19
   2  -3   0 3915.11  142.89
  -2   3   0 3755.42  142.09
  -2   3   0 3747.92  142.69
   1  -3   0  188.58    9.20
   1  -3   0  191.98    8.00
  -1   3   0  176.08    7.90
  -1   3   0  188.58    9.20
   0  -3   0   20.20    1.50
   0  -3   0   20.40    2.90
   0   3   0   19.20    1.40
   0   3   0   14.50    2.50
   0   3   0   17.10    1.30
  -1  -3   0 3700.83  130.99
  -1  -3   0 3481.75  128.29
   1   3   0 3558.84  128.29
   1   3   0 3201.08  130.59
  -2  -3   0   72.89    6.70
  -2  -3   0   71.79    4.30
   2   3   0   68.99    4.20
  -3  -3   0 1217.58   50.49
  -3  -3   0 1288.77   50.49
  -3  -3   0 1201.28   47.50
   3   3   0 1254.07   47.50
  -4  -3   0 1020.70   40.10
  -4  -3   0 1048.90   43.00
  -4  -3   0  985.70   43.20
   4   3   0  993.40   39.90
   4   3   0 1038.50   38.10
  -5  -3   0  361.86   17.20
  -5  -3   0  401.46   21.10
   5   3   0  369.36   17.50
   5   3   0  380.86   15.20
  -6  -3   0 5939.11  214.48
  -6  -3   0 5709.23  218.38
   6   3   0 5602.74  212.88
  -7  -3   0   45.90    6.60
  -7  -3   0   42.50    8.90
   7   3   0   52.29    5.70
  -8  -3   0 1015.60   50.09
  -8  -3   0 1069.49   44.70
  -9  -3   0   49.00   11.40
  -9  -3   0   53.09    9.40
 -10  -3   0  372.16   29.20
 -10  -3   0  377.66   24.10
  14  -4   0   24.30   12.40
 -14   4   0   -6.40    9.50
  13  -4   0  152.88   18.60
 -13   4   0  140.09   16.80
  12  -4   0  253.07   19.80
 -12   4   0  224.08   17.50
  11  -4   0 3555.24  124.99
 -11   4   0 2709.03  129.09
  10  -4   0 2700.63  106.49
 -10   4   0 2695.63  104.29
   9  -4   0 1442.46   60.49
  -9   4   0 1493.75   58.69
   8  -4   0   10.30    4.20
  -8   4   0   12.50    5.70
  -8   4   0   27.10    6.20
  -8   4   0    7.70    3.80
  -8   4   0    5.80    2.80
   7  -4   0 1037.50   42.20
   7  -4   0 1068.29   44.30
   7  -4   0 1062.39   43.60
  -7   4   0 1124.69   44.80
  -7   4   0 1069.79   44.50
  -7   4   0 1066.09   42.40
  -7   4   0 1037.20   43.70
   6  -4   0  215.08   10.50
   6  -4   0  212.28   12.10
  -6   4   0  203.98   12.50
  -6   4   0  202.08   10.40
  -6   4   0  226.58   12.70
   5  -4   0 4603.84  168.28
   5  -4   0 4565.04  166.88
   5  -4   0 4435.16  169.08
   5  -4   0 4411.56  168.98
  -5   4   0 4520.65  169.28
  -5   4   0 4561.74  168.68
  -5   4   0 4642.14  168.48
  -5   4   0 4393.06  167.08
   4  -4   0 1581.44   65.39
   4  -4   0 1728.33   67.39
   4  -4   0 1813.62   66.39
   4  -4   0 1726.63   66.89
  -4   4   0 1777.82   66.39
  -4   4   0 1742.33   66.79
  -4   4   0 1790.72   64.99
   3  -4   0 3622.24  136.89
   3  -4   0 3635.24  140.39
   3  -4   0 3614.64  139.19
   3  -4   0 3813.82  138.49
  -3   4   0 3780.12  138.49
  -3   4   0 3835.12  139.19
  -3   4   0 3792.12  136.99
   2  -4   0 9347.17  335.87
   2  -4   0 8814.22  335.17
  -2   4   0 9185.48  335.77
   1  -4   0 2555.14   93.89
   1  -4   0 2531.15   95.99
  -1   4   0 2596.74   93.89
  -1   4   0 2460.85   95.89
   0  -4   0 1621.64   61.39
   0  -4   0 1663.33   61.59
   0  -4   0 1678.63   64.79
   0   4   0 1702.83   64.79
   0   4   0 1664.63   61.39
  -1  -4   0  142.79    9.70
  -1  -4   0  135.39    9.00
  -1  -4   0  137.69    6.40
   1   4   0  137.39    6.30
   1   4   0  138.19    9.50
  -2  -4   0  374.06   18.90
  -2  -4   0  362.76   15.50
  -2  -4   0  379.36   18.90
   2   4   0  377.16   15.40
  -3  -4   0 4519.25  158.78
  -3  -4   0 4081.99  154.78
  -3  -4   0 3987.30  158.48
   3   4   0 4113.49  154.58
  -4  -4   0   10.10    6.00
  -4  -4   0    5.90    2.50
  -4  -4   0    4.00    4.00
   4   4   0   12.30    3.00
  -5  -4   0   28.20    6.50
  -5  -4   0   33.90    4.90
   5   4   0   25.20    4.60
  -6  -4   0   24.50    7.20
  -6  -4   0   25.90    5.10
  -7  -4   0    6.10    5.20
  -8  -4   0   14.70    9.20
  -9  -4   0   27.60   11.40
  -9  -4   0   15.80    8.50
 -10  -4   0  248.68   21.20
 -10  -4   0  231.48   27.50
  14  -5   0 1057.39   52.59
 -14   5   0 1087.39   49.99
  13  -5   0  311.47   24.10
 -13   5   0  306.87   21.40
  12  -5   0  389.16   25.10
 -12   5   0  422.56   23.20
  11  -5   0  523.45   28.30
 -11   5   0  543.45   26.20
  10  -5   0   31.80    6.90
 -10   5   0   34.60    5.80
   9  -5   0   22.30    5.80
  -9   5   0   29.70    5.00
   8  -5   0  383.66   18.30
   8  -5   0  402.16   20.50
  -8   5   0  379.26   18.00
  -8   5   0  369.46   21.30
  -8   5   0  412.46   21.30
  -8   5   0  375.86   19.50
   7  -5   0    4.60    3.50
   7  -5   0    8.50    3.10
   7  -5   0    4.70    3.50
  -7   5   0    7.20    3.00
  -7   5   0    2.70    3.90
  -7   5   0   11.00    5.10
  -7   5   0    7.80    2.60
   6  -5   0 4589.54  167.08
   6  -5   0 4512.65  168.08
   6  -5   0 4462.65  165.08
   6  -5   0 4217.78  167.58
  -6   5   0 4495.65  167.38
  -6   5   0 4435.56  166.98
  -6   5   0 4481.05  165.18
   5  -5   0  199.28   10.90
   5  -5   0  188.98   11.60
   5  -5   0  177.98   10.90
   5  -5   0  194.48    9.10
  -5   5   0  199.08   10.80
  -5   5   0  203.38    9.10
  -5   5   0  198.08   11.20
   4  -5   0  124.49    8.40
   4  -5   0  146.59    8.30
   4  -5   0  131.49    6.30
   4  -5   0  144.49    9.50
  -4   5   0  138.19    6.40
  -4   5   0  129.89    7.80
  -4   5   0  138.19    8.70
   3  -5   0   60.99    5.70
   3  -5   0   69.59    5.30
   3  -5   0   72.39    3.40
  -3   5   0   70.39    3.30
  -3   5   0   63.09    6.00
   2  -5   0 1979.20   76.59
   2  -5   0 2018.90   74.49
  -2   5   0 1965.90   76.39
  -2   5   0 1971.30   74.49
   1  -5   0 4318.97  162.08
   1  -5   0 4395.16  159.18
  -1   5   0 4148.69  161.88
  -1   5   0 4407.36  159.08
   0  -5   0  176.48   11.20
   0  -5   0  199.58    7.90
   0  -5   0  191.58    8.00
   0   5   0  187.58   11.80
   0   5   0  196.38    7.80
  -1  -5   0   68.69    4.10
  -1  -5   0   73.09    7.20
   1   5   0   62.39    3.90
   1   5   0   63.19    8.10
  -2  -5   0 2908.31  115.89
  -2  -5   0 3131.69  116.29
   2   5   0 2959.80  111.29
  -3  -5   0  334.17   19.20
  -3  -5   0  333.47   14.90
   3   5   0  327.17   14.60
  -4  -5   0 1375.36   53.29
  -4  -5   0 1371.66   58.59
   4   5   0 1354.56   53.09
  -5  -5   0   30.70    5.20
  -5  -5   0   33.50    7.90
  -6  -5   0 1210.38   46.90
  -6  -5   0 1046.50   57.89
  -7  -5   0  400.96   26.90
  -7  -5   0  355.36   20.40
  -8  -5   0 2145.79   87.19
  -8  -5   0 2262.07   95.29
  -9  -5   0   78.89   11.90
  -9  -5   0   92.89   16.70
  14  -6   0  384.06   29.40
 -14   6   0  397.06   25.70
  13  -6   0  409.26   27.20
 -13   6   0  380.26   23.50
  12  -6   0   -5.40    7.10
 -12   6   0   -2.50    5.60
  11  -6   0 1349.56   58.79
 -11   6   0 1362.76   55.89
  10  -6   0   24.70    6.90
 -10   6   0   23.10    5.00
   9  -6   0 6837.82  253.47
  -9   6   0 6644.73  252.27
  -9   6   0 6712.53  250.07
   8  -6   0  149.49    9.90
   8  -6   0  141.09   11.60
  -8   6   0  138.49   10.70
  -8   6   0  139.29   12.40
  -8   6   0  152.48    9.10
   7  -6   0  164.18    9.20
   7  -6   0  164.18   11.80
   7  -6   0  160.78   11.60
  -7   6   0  157.68   11.60
  -7   6   0  137.49   10.50
  -7   6   0  157.48    8.80
   6  -6   0  126.39    9.80
   6  -6   0  120.89    7.00
   6  -6   0  125.29    9.60
   6  -6   0  117.59    9.90
  -6   6   0  122.29    6.80
  -6   6   0  128.09    9.70
  -6   6   0  130.09    8.90
   5  -6   0   65.39    7.60
   5  -6   0   61.39    6.70
   5  -6   0   64.49    6.60
   5  -6   0   67.29    4.40
  -5   6   0   68.39    6.20
  -5   6   0   59.49    7.00
  -5   6   0   70.09    4.20
   4  -6   0  383.36   17.20
   4  -6   0  366.66   18.40
   4  -6   0  383.26   14.90
  -4   6   0  374.26   18.30
  -4   6   0  366.26   17.00
  -4   6   0  374.46   14.80
   3  -6   0 1237.58   51.39
   3  -6   0 1338.27   49.60
  -3   6   0 1274.07   49.50
  -3   6   0 1259.47   51.19
   2  -6   0  214.38   12.90
   2  -6   0  264.77   11.10
  -2   6   0  212.38   13.00
  -2   6   0  213.98   10.40
   1  -6   0 4206.58  155.68
   1  -6   0 4042.80  151.68
  -1   6   0 4081.59  155.48
   0  -6   0  122.59    5.60
   0  -6   0  116.79    9.50
   0   6   0  118.69   10.60
   0   6   0  123.19    5.40
  -1  -6   0 2465.55   96.39
  -1  -6   0 2432.76   90.89
  -2  -6   0 1260.17   53.99
  -2  -6   0 1260.57   48.60
   2   6   0 1295.87   48.50
  -3  -6   0    1.50    4.80
  -3  -6   0    4.10    2.70
   3   6   0    5.30    2.80
  -4  -6   0 2518.25  101.39
  -4  -6   0 2508.95   94.89
   4   6   0 2477.35   94.59
  -5  -6   0  484.45   22.40
  -6  -6   0    4.70    5.30
  -6  -6   0    2.40    8.00
  -7  -6   0  411.66   29.00
  -7  -6   0  363.56   21.30
  -8  -6   0  142.99   19.30
  -8  -6   0  131.49   16.20
  14  -7   0  214.78   23.60
 -14   7   0  200.38   19.10
  13  -7   0  470.55   29.00
 -13   7   0  400.26   24.10
  12  -7   0  401.26   25.50
 -12   7   0  383.66   21.60
  11  -7   0   -1.10    6.50
 -11   7   0    6.00    4.70
  10  -7   0   45.40    8.70
 -10   7   0   45.00    6.40
   9  -7   0  599.44   29.50
  -9   7   0  597.44   25.60
  -9   7   0  563.04   28.10
   8  -7   0   30.00    4.80
   8  -7   0   32.70    6.70
   8  -7   0   22.20    5.60
  -8   7   0   22.70    5.00
  -8   7   0   30.20    4.20
  -8   7   0   28.40    6.50
   7  -7   0  174.48   12.90
   7  -7   0  171.48   12.50
   7  -7   0  158.08    9.20
  -7   7   0  177.78   12.90
  -7   7   0  167.78    8.90
  -7   7   0  178.88   11.70
   6  -7   0 2539.75   99.39
   6  -7   0 2490.65  100.19
   6  -7   0 2654.23   98.19
   6  -7   0 2605.64   95.29
  -6   7   0 2593.54   98.89
  -6   7   0 2642.74   98.29
  -6   7   0 2339.17   95.89
   5  -7   0 2926.81  114.19
   5  -7   0 3301.57  117.29
   5  -7   0 3041.30  119.79
   5  -7   0 3055.99  118.69
  -5   7   0 3094.59  118.29
  -5   7   0 3065.59  114.09
  -5   7   0 3140.29  117.09
   4  -7   0 4487.15  172.48
   4  -7   0 4706.93  170.48
  -4   7   0 4516.85  172.28
  -4   7   0 4562.04  170.38
   3  -7   0 1034.80   44.30
   3  -7   0 1102.79   41.70
  -3   7   0 1038.00   44.20
  -3   7   0 1033.30   41.40
   2  -7   0    9.00    3.90
   2  -7   0   10.30    2.80
  -2   7   0   10.20    4.70
   1  -7   0  154.68   11.80
   1  -7   0  162.98    8.20
  -1   7   0  157.08   12.50
   0  -7   0  179.68   13.40
  -1  -7   0 2676.33   93.79
  -1  -7   0 2638.54  100.59
   1   7   0 2262.97   94.29
  -2  -7   0  738.13   36.20
  -2  -7   0  753.72   29.80
   2   7   0  758.42   29.70
  -3  -7   0  349.47   22.60
  -3  -7   0  360.16   16.70
   3   7   0  387.96   16.80
  -4  -7   0 3120.19  116.39
  -4  -7   0 3045.70  124.49
  -5  -7   0  362.56   25.90
  -5  -7   0  382.06   19.20
  -6  -7   0  351.56   27.40
  -6  -7   0  393.06   20.90
  -7  -7   0  191.08   17.60
  -7  -7   0  232.38   25.40
  14  -8   0  109.59   16.60
 -14   8   0  139.49   16.50
  13  -8   0 2424.66   99.89
 -13   8   0 2381.96   95.29
 -12   8   0   28.40    8.30
  11  -8   0 1124.99   51.59
 -11   8   0 1136.59   47.10
  10  -8   0   14.60    7.10
 -10   8   0   16.40    4.40
   9  -8   0  184.38   15.40
  -9   8   0  168.28   10.50
   8  -8   0 2982.40  118.29
   8  -8   0 2972.80  113.59
   8  -8   0 3042.00  118.99
  -8   8   0 3020.50  116.79
  -8   8   0 3097.09  113.59
   7  -8   0 2754.92  107.99
   7  -8   0 2752.22  103.09
   7  -8   0 2770.22  108.89
  -7   8   0 2649.63  106.09
  -7   8   0 2856.91  109.19
  -7   8   0 2757.22  102.99
   6  -8   0 1324.17   49.60
   6  -8   0 1298.77   55.79
   6  -8   0 1263.87   54.29
  -6   8   0 1303.97   54.19
  -6   8   0 1281.97   52.59
  -6   8   0 1351.16   49.50
   5  -8   0  329.57   20.10
   5  -8   0  320.57   18.60
   5  -8   0  344.07   17.60
  -5   8   0  348.77   13.40
  -5   8   0  333.67   16.70
  -5   8   0  335.27   19.20
   4  -8   0    5.90    3.90
   4  -8   0   11.00    3.90
  -4   8   0    7.90    4.70
   3  -8   0  400.46   18.00
   3  -8   0  377.46   20.80
   2  -8   0  136.89   11.80
   2  -8   0  143.39    8.80
   1  -8   0   33.40    7.00
   1  -8   0   30.80    3.70
   0  -8   0 3038.00  119.79
  -1  -8   0  485.75   26.10
   1   8   0  431.56   18.90
  -2  -8   0   56.99   10.20
   2   8   0   61.29    5.80
  -3  -8   0  271.37   21.20
  -3  -8   0  259.47   13.40
  -4  -8   0  233.88   21.40
  -4  -8   0  226.98   13.80
  -5  -8   0  284.57   17.10
  -5  -8   0  261.07   24.70
  -6  -8   0  402.46   31.70
  14  -9   0   91.29   15.40
 -14   9   0  103.99   12.40
  13  -9   0   32.40   10.60
 -13   9   0   18.50    7.70
  12  -9   0   70.19   12.90
 -12   9   0   64.79    8.90
  11  -9   0 1215.48   54.99
 -11   9   0 1184.18   49.10
  10  -9   0  254.97   19.80
 -10   9   0  246.28   13.90
   9  -9   0  405.26   24.80
   9  -9   0  386.66   24.00
   9  -9   0  435.86   19.90
  -9   9   0  424.16   19.00
   8  -9   0  456.65   25.70
   8  -9   0  502.95   26.90
  -8   9   0  476.45   20.40
   7  -9   0  764.22   29.20
   7  -9   0  725.53   34.60
   7  -9   0  715.03   35.60
  -7   9   0  698.13   28.80
   6  -9   0    5.30    4.50
   6  -9   0    5.30    5.50
  -6   9   0   12.80    2.10
   5  -9   0 1428.26   61.29
   5  -9   0 1499.35   58.69
   4  -9   0   28.00    5.70
   4  -9   0   29.00    6.60
   3  -9   0 6156.18  236.38
   3  -9   0 6614.24  241.68
   2  -9   0  580.64   30.00
   2  -9   0  600.74   25.10
   1  -9   0  175.08   15.30
   0  -9   0  413.66   24.90
  -1  -9   0  637.74   38.70
  -2  -9   0   22.10    8.80
  -3  -9   0    6.80    8.80
  -4  -9   0  183.98   21.50
  -5  -9   0  968.50   51.99
  14 -10   0  255.07   26.50
 -14  10   0  255.07   19.90
  13 -10   0  384.26   28.20
 -13  10   0  374.86   22.30
  12 -10   0  488.75   31.60
 -12  10   0  495.85   24.80
  11 -10   0 1256.77   57.39
 -11  10   0 1226.68   50.39
  10 -10   0  441.66   27.70
  10 -10   0  452.05   33.70
 -10  10   0  471.25   21.20
   9 -10   0  718.13   37.40
   9 -10   0  765.12   38.40
   9 -10   0  812.62   35.60
  -9  10   0  744.63   30.90
   8 -10   0   39.50    8.50
   8 -10   0   46.40    5.70
   8 -10   0   55.69    9.60
  -8  10   0   41.60    4.90
   7 -10   0  357.66   22.50
   7 -10   0  395.66   24.50
  -7  10   0  375.46   15.40
   6 -10   0 2605.24  106.29
   6 -10   0 2636.84  104.89
   5 -10   0   33.30    7.60
   4 -10   0   29.50    7.90
   4 -10   0   31.40    6.60
   3 -10   0   43.40    8.90
   3 -10   0   36.00    6.20
   2 -10   0   16.10    4.90
   2 -10   0   12.30    6.70
   1 -10   0  242.38   19.10
   0 -10   0  463.35   28.70
  -1 -10   0  498.55   30.70
  -2 -10   0 2857.11  118.39
  -3 -10   0  242.48   25.30
  -4 -10   0   20.10   13.40
  13 -11   0  124.69   18.10
 -13  11   0  105.09   11.60
  12 -11   0   93.69   14.60
 -12  11   0   81.79    9.30
  11 -11   0  209.48   21.50
 -11  11   0  197.88   13.00
  10 -11   0  458.55   29.50
  10 -11   0  496.15   30.80
 -10  11   0  477.25   21.40
   9 -11   0   23.70    8.20
   9 -11   0   17.50    8.60
  -9  11   0   24.20    4.20
   8 -11   0  255.77   21.50
   8 -11   0  270.87   20.60
   7 -11   0 3297.27  130.49
   6 -11   0  518.85   39.60
   6 -11   0  498.65   28.60
   5 -11   0 1346.07   59.59
   4 -11   0   10.90    7.20
   3 -11   0 1091.89   53.19
   2 -11   0 1158.18   53.89
   1 -11   0 1256.67   58.49
   0 -11   0  208.88   21.10
  -1 -11   0   49.99   12.50
  -2 -11   0   36.90   14.00
  13 -12   0   56.69   15.30
  12 -12   0   37.00   13.20
  11 -12   0   53.29   12.50
  11 -12   0   44.00   13.00
  10 -12   0 2944.71  117.59
  10 -12   0 2739.83  115.79
   9 -12   0   -2.90    8.20
   8 -12   0  231.88   21.90
   8 -12   0  225.78   32.10
   7 -12   0  411.06   28.60
   6 -12   0   12.80    9.40
   6 -12   0    6.30   10.60
   5 -12   0  383.36   26.20
   4 -12   0   10.10    8.90
   3 -12   0   79.09   13.70
   2 -12   0  494.55   31.70
   1 -12   0   81.09   15.00
   0 -12   0   22.20   12.60
  -1 -12   0  105.69   17.90
  12 -13   0   95.99   17.10
  11 -13   0   44.90   14.00
  11 -13   0   37.00   14.50
  10 -13   0  237.28   24.30
  10 -13   0  229.68   24.70
   9 -13   0  169.78   21.30
   9 -13   0  151.28   21.20
   8 -13   0  261.47   24.70
   8 -13   0  271.47   25.20
   7 -13   0  383.06   28.60
   7 -13   0  426.36   30.80
   6 -13   0  392.26   28.40
   6 -13   0  390.26   29.80
   5 -13   0 2287.37   97.29
   4 -13   0   29.70   11.60
   3 -13   0  382.86   29.30
   2 -13   0   98.19   17.40
   1 -13   0   34.90   14.50
  10 -14   0  -10.90   12.70
  10 -14   0    0.00   12.40
   9 -14   0 1002.90   52.29
   9 -14   0  998.50   52.99
   8 -14   0  350.26   29.90
   8 -14   0  357.96   30.90
   7 -14   0  163.38   25.70
   7 -14   0  220.48   25.80
   6 -14   0  109.19   17.60
   6 -14   0  130.39   19.70
   5 -14   0  102.39   17.30
   5 -14   0   60.69   17.30
   4 -14   0  237.18   27.30
   4 -14   1   61.49   15.90
   4 -14   1   88.09   18.90
   5 -14   1  388.86   30.90
   5 -14   1  387.56   33.30
   6 -14   1   43.30   15.80
   6 -14   1   43.30   13.90
   7 -14   1 1302.67   62.09
   7 -14   1 1275.27   64.09
   8 -14   1  176.48   24.70
   8 -14   1  207.38   24.90
   9 -14   1   72.29   15.90
   9 -14   1   75.39   15.70
  10 -14   1  687.43   42.10
  10 -14   1  784.32   45.80
   2 -13   1 1069.39   54.19
   3 -13   1  481.35   32.90
   4 -13   1  688.23   38.90
   4 -13   1  662.53   42.00
   5 -13   1    5.90   11.20
   5 -13   1    7.30   10.20
   6 -13   1   56.29   13.00
   6 -13   1   43.80   12.40
   7 -13   1  350.26   27.10
   7 -13   1  377.86   28.70
   8 -13   1   10.40    9.40
   8 -13   1   -0.10   10.40
   9 -13   1   54.09   13.30
   9 -13   1   64.79   13.70
  10 -13   1  706.13   39.60
  10 -13   1  694.73   42.00
  11 -13   1  112.19   18.20
  11 -13   1  124.29   18.40
   0 -12   1  693.43   40.90
   1 -12   1  298.57   25.90
   2 -12   1    4.70    9.70
   3 -12   1  112.09   17.30
   4 -12   1  152.98   18.00
   5 -12   1   32.60   10.00
   5 -12   1   41.20   11.10
   6 -12   1  177.88   20.60
   6 -12   1  217.18   19.60
   7 -12   1  556.84   33.90
   7 -12   1  582.44   31.80
   8 -12   1  699.83   39.00
   8 -12   1  699.63   36.70
   9 -12   1  342.67   24.20
   9 -12   1  316.57   26.10
  10 -12   1   12.20   10.80
  10 -12   1   16.70   10.40
  11 -12   1  164.08   22.20
  12 -12   1  767.42   44.10
  -2 -11   1  114.39   18.40
  -1 -11   1  151.78   21.10
   0 -11   1  316.17   25.20
   1 -11   1  105.79   16.00
   2 -11   1   55.39   11.90
   3 -11   1 2484.05  101.19
   4 -11   1  445.26   26.20
   5 -11   1 2266.57   89.59
   5 -11   1 2092.09   92.69
   6 -11   1   15.10    7.20
   6 -11   1   13.90    7.80
   7 -11   1  107.09   13.80
   7 -11   1  100.09   14.40
   8 -11   1   25.00    9.60
   8 -11   1   27.80    8.40
   9 -11   1  186.58   20.20
   9 -11   1  201.98   17.80
  10 -11   1  231.98   20.40
  10 -11   1  238.68   21.80
 -11  11  -1  263.37   16.00
  11 -11   1  347.57   26.20
 -12  11  -1  310.47   18.20
  12 -11   1  290.97   26.70
 -13  11  -1 1180.98   48.90
  13 -11   1 1075.99   56.69
  -4 -10   1  742.23   44.70
  -3 -10   1  718.63   41.40
  -2 -10   1   14.40   10.00
  -1 -10   1  270.77   22.80
   0 -10   1 1626.24   70.79
   1 -10   1  179.38   16.90
   2 -10   1  769.32   31.60
   2 -10   1  780.22   37.90
   3 -10   1  112.49   11.30
   3 -10   1  142.69   13.80
   4 -10   1   56.09    9.20
   4 -10   1   67.99    8.30
   5 -10   1   51.99    9.90
   5 -10   1   55.99    9.00
   6 -10   1   15.30    6.30
   6 -10   1   20.40    7.30
   7 -10   1  170.28   14.60
   7 -10   1  170.08   16.40
   7 -10   1  150.38    9.80
   8 -10   1 1723.03   72.99
   8 -10   1 1668.73   69.99
  -9  10  -1  613.74   25.60
   9 -10   1  595.94   31.30
 -10  10  -1 1536.55   62.09
  10 -10   1 1644.14   70.59
 -11  10  -1   91.29   10.00
  11 -10   1   80.89   13.70
 -12  10  -1    9.70    6.40
  12 -10   1    9.00   10.50
 -13  10  -1  533.95   26.80
  13 -10   1  465.25   33.60
 -14  10  -1   89.89   12.00
  14 -10   1   93.19   16.60
  -5  -9   1  107.09   18.40
  -4  -9   1   71.79   15.00
  -3  -9   1  343.67   26.50
  -2  -9   1  186.88   19.00
  -1  -9   1  516.25   29.80
   0  -9   1  281.77   20.00
   1  -9   1 2145.19   87.19
   1  -9   1 2145.49   80.09
   2  -9   1   50.59    8.60
   2  -9   1   48.60    5.70
   3  -9   1   14.10    5.50
   3  -9   1   15.60    4.80
   4  -9   1  289.07   18.00
   4  -9   1  326.27   16.90
   4  -9   1  308.67   20.80
   5  -9   1 2439.26   96.09
   5  -9   1 2461.55   98.69
   5  -9   1 2407.16   93.89
  -6   9  -1  949.01   40.70
   6  -9   1  892.91   40.80
   6  -9   1  940.01   35.50
   6  -9   1  947.51   43.60
  -7   9  -1  879.71   38.60
   7  -9   1  887.31   41.50
   7  -9   1  837.82   34.10
   7  -9   1  899.51   39.30
  -8   9  -1  194.18   10.50
   8  -9   1  191.98   14.60
   8  -9   1  244.18   18.20
   8  -9   1  170.08   10.90
  -9   9  -1  264.87   14.20
   9  -9   1  277.97   18.60
   9  -9   1  286.57   15.50
   9  -9   1  285.27   20.60
 -10   9  -1  162.58   11.40
  10  -9   1  206.28   18.00
 -11   9  -1   66.99    7.90
  11  -9   1   78.19   12.90
  12  -9   1  135.69   18.10
 -13   9  -1  642.44   32.30
  13  -9   1  704.23   39.20
 -14   9  -1  353.56   23.80
  14  -9   1  392.56   30.40
  -6  -8   1  193.68   25.60
  -5  -8   1    4.60    9.90
  -5  -8   1    7.70    6.20
  -4  -8   1  692.33   38.20
  -4  -8   1  672.13   29.10
  -3  -8   1   26.60    4.70
  -3  -8   1   36.30    9.40
  -2  -8   1 1749.82   66.09
  -2  -8   1 1746.93   74.29
  -1  -8   1  223.28   17.50
  -1  -8   1  257.67   10.90
   0  -8   1   89.99   10.90
   1  -8   1 1493.25   62.19
   2  -8   1  489.95   20.40
   2  -8   1  445.86   23.70
  -3   8  -1 1325.07   58.09
   3  -8   1 1461.15   58.69
   3  -8   1 1494.55   55.79
  -4   8  -1  221.78   15.20
   4  -8   1  266.57   17.60
   4  -8   1  262.77   15.20
   4  -8   1  273.57   14.10
  -5   8  -1   76.39    8.90
   5  -8   1   62.49    9.80
   5  -8   1   67.09    8.00
   5  -8   1   81.59    8.80
   5  -8   1   65.59    4.10
  -6   8  -1  298.17   17.40
   6  -8   1  349.87   18.00
   6  -8   1  315.27   19.70
   6  -8   1  325.47   13.90
  -7   8  -1   41.90    4.80
  -7   8  -1   57.89    7.80
   7  -8   1   46.10    8.50
   7  -8   1   46.00    5.90
   7  -8   1   51.69    7.90
  -8   8  -1   88.09    7.00
  -8   8  -1   96.69   10.80
   8  -8   1  100.59    8.70
   8  -8   1  103.69   10.60
   8  -8   1  107.29   12.20
  -9   8  -1 2211.28   85.89
  -9   8  -1 2343.97   88.59
   9  -8   1 2183.68   91.79
 -10   8  -1  790.12   33.60
  10  -8   1  778.82   39.10
 -11   8  -1 2570.74   98.39
  11  -8   1 2502.95  111.39
 -12   8  -1  155.08   13.70
  12  -8   1  171.08   18.90
 -13   8  -1    4.50    7.00
  13  -8   1    0.40    9.10
 -14   8  -1   60.09   10.60
  14  -8   1   35.00   13.20
  -7  -7   1 1334.37   64.59
  -7  -7   1 1256.57   54.49
  -6  -7   1  404.06   29.90
  -6  -7   1  388.76   21.40
  -5  -7   1  567.04   26.40
  -5  -7   1  609.24   34.80
  -4  -7   1   90.79   14.60
  -4  -7   1   96.39    8.50
   3   7  -1  188.28   11.00
  -3  -7   1  200.28   16.60
  -3  -7   1  174.88   10.20
   2   7  -1  910.11   36.60
  -2  -7   1  927.71   42.80
  -2  -7   1  963.10   36.50
  -1  -7   1   47.20    4.00
  -1  -7   1   46.50    7.60
   0  -7   1   88.39    9.70
   0  -7   1   96.89    4.70
  -1   7  -1 3368.76  126.39
   1  -7   1 3194.88  126.19
  -2   7  -1 1125.49   48.60
   2  -7   1 1241.08   45.80
   2  -7   1 1162.18   48.70
  -3   7  -1 4327.97  167.78
   3  -7   1 4325.87  167.88
   3  -7   1 4723.93  166.18
  -4   7  -1   19.20    4.40
   4  -7   1   11.10    1.60
   4  -7   1   16.50    3.80
   4  -7   1    8.90    4.60
   4  -7   1   12.60    4.00
  -5   7  -1  379.26   18.20
   5  -7   1  370.76   18.30
   5  -7   1  370.06   20.30
   5  -7   1  366.86   15.10
   5  -7   1  353.56   18.20
  -6   7  -1 3888.21  149.79
  -6   7  -1 3861.01  147.49
   6  -7   1 3936.81  152.78
   6  -7   1 4164.98  147.49
   6  -7   1 3950.10  150.38
   6  -7   1 4074.49  150.38
  -7   7  -1  121.79    9.50
  -7   7  -1  111.99    6.80
   7  -7   1   84.89    8.90
   7  -7   1   89.39    7.20
   7  -7   1   99.69   10.90
  -8   7  -1 1673.83   64.19
  -8   7  -1 1634.54   62.19
   8  -7   1 1569.24   67.09
   8  -7   1 1540.05   62.09
  -9   7  -1   37.10    4.90
  -9   7  -1   34.70    7.30
   9  -7   1   32.00    7.40
 -10   7  -1  133.89   10.50
  10  -7   1  140.99   14.40
 -11   7  -1  465.65   23.20
  11  -7   1  464.45   27.70
 -12   7  -1   40.30    7.80
  12  -7   1   51.99   10.80
 -13   7  -1   52.79    9.40
  13  -7   1   19.50   11.10
 -14   7  -1 1364.26   60.29
  14  -7   1 1425.86   65.89
  -8  -6   1   41.20   10.40
  -8  -6   1   37.40   14.10
  -7  -6   1   39.00   12.90
  -7  -6   1   80.89   11.10
  -6  -6   1  209.58   20.30
  -6  -6   1  202.68   14.30
  -5  -6   1   14.00    7.80
  -5  -6   1   24.60    5.20
   4   6  -1   26.70    5.00
  -4  -6   1   17.20    6.70
  -4  -6   1   15.70    3.90
   3   6  -1  964.20   38.10
  -3  -6   1  967.40   44.00
  -3  -6   1  955.40   38.10
   2   6  -1  307.87   14.20
  -2  -6   1  335.27   14.20
  -2  -6   1  321.97   19.00
   1   6  -1 3839.22  141.99
  -1  -6   1 3748.32  146.89
  -1  -6   1 3941.51  141.89
   0  -6   1  570.84   27.30
   0  -6   1  616.54   23.10
   0  -6   1  600.34   22.90
  -1   6  -1   72.09    7.80
   1  -6   1   99.69    7.90
  -2   6  -1 1069.39   43.80
   2  -6   1 1048.50   43.80
   2  -6   1 1107.59   41.80
  -3   6  -1 2037.30   78.19
   3  -6   1 2111.59   77.09
   3  -6   1 1986.70   78.29
   3  -6   1 1994.40   80.49
   3  -6   1 2015.50   74.69
  -4   6  -1  732.43   29.50
   4  -6   1  703.43   26.80
   4  -6   1  675.93   31.60
   4  -6   1  670.23   29.50
   4  -6   1  718.63   29.20
  -5   6  -1  205.68   11.40
  -5   6  -1  204.68    9.50
   5  -6   1  244.58   11.90
   5  -6   1  188.78    9.30
   5  -6   1  192.18   11.60
   5  -6   1  190.68   13.00
  -6   6  -1  620.84   24.30
  -6   6  -1  636.14   26.00
   6  -6   1  566.54   26.10
   6  -6   1  603.34   28.40
   6  -6   1  593.64   26.70
   6  -6   1  565.34   24.10
  -7   6  -1 3578.04  133.89
  -7   6  -1 3745.23  135.59
   7  -6   1 3588.74  138.29
   7  -6   1 3426.76  133.69
  -8   6  -1  407.06   20.90
  -8   6  -1  395.36   19.20
   8  -6   1  467.35   20.00
   8  -6   1  441.56   23.30
  -9   6  -1   20.00    6.30
  -9   6  -1   12.90    4.10
   9  -6   1   11.70    5.30
 -10   6  -1   60.49    7.50
  10  -6   1   52.09    9.10
 -11   6  -1 2323.77   91.79
  11  -6   1 2357.06   95.79
 -12   6  -1  201.58   15.60
  12  -6   1  194.98   19.10
 -13   6  -1  451.35   25.10
  13  -6   1  401.26   29.20
 -14   6  -1  164.38   18.70
  14  -6   1  158.18   23.50
  -9  -5   1  388.66   25.70
  -9  -5   1  381.96   32.70
  -8  -5   1   13.70    7.90
  -8  -5   1    2.00    9.80
  -7  -5   1   35.00    7.30
  -7  -5   1   34.00   10.80
  -6  -5   1 2229.68   87.39
  -6  -5   1 2288.17   95.09
  -5  -5   1   58.29   10.10
  -5  -5   1   57.99    7.20
   4   5  -1 2620.44   93.89
  -4  -5   1 2398.36   93.59
  -4  -5   1 2395.36   98.99
   3   5  -1   76.69    6.20
  -3  -5   1   96.89   10.10
  -3  -5   1   74.59    5.80
  -3  -5   1   73.59   10.90
   2   5  -1  402.06   16.00
  -2  -5   1  361.16   19.70
  -2  -5   1  357.36   15.70
  -2  -5   1  365.86   19.90
   1   5  -1  197.28    8.60
  -1  -5   1  177.38    8.20
  -1  -5   1  164.98   11.50
   0  -5   1 1488.75   54.89
   0  -5   1 1440.16   58.39
   0  -5   1 1482.45   54.69
  -1   5  -1    1.90    2.30
   1  -5   1    6.70    1.00
   1  -5   1    3.20    2.10
   1  -5   1    7.20    1.80
  -2   5  -1 2851.51  105.19
   2  -5   1 2863.51  103.89
   2  -5   1 2640.44  102.09
  -3   5  -1  664.93   26.90
   3  -5   1  615.94   28.60
   3  -5   1  651.83   24.60
   3  -5   1  657.43   26.40
   3  -5   1  643.14   26.90
  -4   5  -1 5895.41  237.48
  -4   5  -1 6400.86  236.18
   4  -5   1 6626.94  238.08
   4  -5   1 6395.36  239.98
   4  -5   1 6835.72  238.08
  -5   5  -1 1619.84   57.89
   5  -5   1 1439.36   59.89
   5  -5   1 1457.85   56.39
   5  -5   1 1447.76   57.99
   5  -5   1 1497.05   58.29
  -6   5  -1   81.19    6.70
  -6   5  -1   66.59    5.50
  -6   5  -1   66.39    9.30
   6  -5   1  110.49    9.00
   6  -5   1   91.49    8.00
   6  -5   1   96.29    6.20
  -7   5  -1 1169.78   46.90
  -7   5  -1 1237.98   48.20
  -7   5  -1 1098.89   50.09
   7  -5   1 1312.77   51.29
   7  -5   1 1162.28   49.99
   7  -5   1 1190.68   46.80
  -8   5  -1 1366.86   55.29
  -8   5  -1 1407.66   56.69
   8  -5   1 1448.46   58.79
  -9   5  -1  290.97   18.00
  -9   5  -1  290.87   15.80
   9  -5   1  317.37   19.00
 -10   5  -1   85.69    9.00
  10  -5   1   56.59    9.20
 -11   5  -1   16.80    5.50
  11  -5   1   21.20    7.50
 -12   5  -1  526.15   28.40
  12  -5   1  606.94   32.80
 -13   5  -1    2.50    7.20
  13  -5   1   14.00   10.40
 -14   5  -1   98.59   13.60
  14  -5   1   94.59   16.80
 -10  -4   1  102.09   14.50
 -10  -4   1   84.99   17.70
  -9  -4   1  715.83   35.50
  -9  -4   1  725.93   42.10
  -8  -4   1  171.68   19.60
  -8  -4   1  142.49   18.10
  -7  -4   1  456.15   22.50
  -7  -4   1  441.06   27.60
  -6  -4   1   64.39   10.50
  -6  -4   1   70.79    8.10
  -5  -4   1  315.57   15.30
  -5  -4   1  280.37   19.20
  -5  -4   1  309.27   19.20
  -4  -4   1  263.37   16.80
  -4  -4   1  285.17   17.30
  -4  -4   1  277.87   13.40
  -3  -4   1   18.20    4.30
  -3  -4   1    5.60    4.20
  -3  -4   1    8.40    2.30
   2   4  -1  785.52   28.20
  -2  -4   1  736.53   31.10
  -2  -4   1  657.33   31.10
  -2  -4   1  669.93   28.00
   1   4  -1 5396.16  226.48
  -1  -4   1 6327.17  226.08
  -1  -4   1 6571.04  225.38
  -1  -4   1 6323.57  229.38
   0  -4   1 1613.24   61.69
   0  -4   1 1558.14   58.79
  -1   4  -1 4592.54  166.18
   1  -4   1 4238.48  166.08
   1  -4   1 4579.24  163.88
   2  -4   1   82.69    5.10
   2  -4   1  104.59    5.80
   2  -4   1   82.89    4.00
   2  -4   1   65.59    7.10
  -3   4  -1  291.27   12.60
  -3   4  -1  282.17   11.50
   3  -4   1  272.67   12.70
   3  -4   1  270.17   11.30
   3  -4   1  274.67   12.50
  -4   4  -1 1718.33   62.79
  -4   4  -1 1665.23   64.99
  -4   4  -1 1691.33   62.09
   4  -4   1 1700.63   63.39
   4  -4   1 1640.84   61.99
   4  -4   1 1544.75   64.49
   4  -4   1 1599.74   62.89
  -5   4  -1    5.00    2.10
  -5   4  -1    7.90    3.60
  -5   4  -1    3.80    1.60
   5  -4   1    3.40    2.20
   5  -4   1   10.80    2.30
   5  -4   1    4.30    2.60
  -6   4  -1 1097.09   43.40
  -6   4  -1 1064.49   42.60
  -6   4  -1 1144.19   45.60
   6  -4   1 1057.19   42.50
   6  -4   1 1061.99   45.10
   6  -4   1 1108.69   44.00
  -7   4  -1 4758.12  170.48
  -7   4  -1 4487.25  171.98
  -7   4  -1 4427.86  169.28
   7  -4   1 4605.64  170.68
   7  -4   1 4493.05  172.08
   7  -4   1 4479.15  169.08
  -8   4  -1  232.68   13.10
  -8   4  -1  226.28   14.50
   8  -4   1  269.77   16.10
  -9   4  -1 2675.13  102.39
  -9   4  -1 2877.31  104.39
   9  -4   1 2438.06  104.79
 -10   4  -1   25.40    5.70
  10  -4   1   12.10    6.40
 -11   4  -1   95.89   11.40
  11  -4   1  107.89   14.20
 -12   4  -1  690.13   34.30
  12  -4   1  724.63   37.90
 -13   4  -1   45.10   10.20
  13  -4   1   56.69   12.70
 -14   4  -1  765.42   39.40
  14  -4   1  741.73   43.50
 -10  -3   1  465.65   27.50
 -10  -3   1  451.25   32.90
  -9  -3   1  116.39   13.40
  -9  -3   1  118.39   18.50
  -8  -3   1 2466.45  100.99
  -8  -3   1 2388.66   94.89
   7   3  -1  147.79    8.60
  -7  -3   1  159.38   11.50
  -7  -3   1  131.19   15.30
   6   3  -1   14.50    3.40
  -6  -3   1   16.80    4.30
  -6  -3   1   18.30    6.50
  -6  -3   1   14.00    7.00
   5   3  -1 1337.37   54.19
   5   3  -1 1402.66   52.19
  -5  -3   1 1389.86   58.49
  -5  -3   1 1408.66   56.39
  -5  -3   1 1379.56   54.29
   4   3  -1 4280.67  157.38
   4   3  -1 4262.57  159.18
  -4  -3   1 4317.57  157.48
  -4  -3   1 3897.71  158.88
  -4  -3   1 4334.87  163.08
  -4  -3   1 4586.84  161.58
   3   3  -1 2033.90   74.69
   3   3  -1 1999.20   76.09
  -3  -3   1 1939.91   76.09
  -3  -3   1 1978.50   79.29
  -3  -3   1 2194.38   78.49
  -3  -3   1 1978.20   74.69
   2   3  -1  689.33   26.30
  -2  -3   1  661.03   28.80
  -2  -3   1  654.43   25.20
  -2  -3   1  680.53   28.20
  -2  -3   1  646.04   26.10
   1   3  -1  294.07   11.70
  -1  -3   1  279.27   11.20
  -1  -3   1  265.77   11.50
   0  -3   1 4254.07  154.88
   0  -3   1 4077.19  152.98
  -1   3  -1  861.41   31.90
   1  -3   1  769.52   31.70
  -2   3  -1  686.43   24.90
   2  -3   1  618.84   24.80
   2  -3   1  635.64   24.10
   2  -3   1  592.64   26.10
  -3   3  -1 3941.71  152.38
  -3   3  -1 3996.70  150.48
  -3   3  -1 4071.49  150.38
   3  -3   1 3848.72  152.28
   3  -3   1 4303.97  151.38
   3  -3   1 4189.28  150.38
   3  -3   1 4223.58  150.78
  -4   3  -1 4549.84  167.48
  -4   3  -1 4427.06  169.28
  -4   3  -1 4336.07  167.28
   4  -3   1 4821.42  168.48
   4  -3   1 4460.75  169.38
   4  -3   1 4609.94  167.28
  -5   3  -1 2870.11  107.89
  -5   3  -1 2827.92  105.79
  -5   3  -1 2961.70  106.29
   5  -3   1 2703.03  107.69
   5  -3   1 2789.22  106.59
   5  -3   1 2824.12  105.69
  -6   3  -1 1966.70   78.79
  -6   3  -1 2045.10   80.99
  -6   3  -1 2226.08   79.99
   6  -3   1 2104.89   79.69
   6  -3   1 2073.89   81.19
   6  -3   1 2041.90   78.69
  -7   3  -1   19.10    4.60
  -7   3  -1   16.30    5.30
  -7   3  -1   16.00    3.50
   7  -3   1    5.70    3.90
   7  -3   1   15.10    4.60
  -8   3  -1   86.19    9.70
  -8   3  -1  111.39    8.30
   8  -3   1   69.99    9.20
  -9   3  -1 1050.59   45.20
  -9   3  -1 1010.60   41.90
   9  -3   1  929.71   44.10
 -10   3  -1  198.88   13.80
  10  -3   1  186.78   16.40
 -11   3  -1   20.30    6.80
  11  -3   1   31.00    9.00
 -12   3  -1  385.36   23.00
  12  -3   1  349.27   25.40
 -13   3  -1  836.92   39.30
  13  -3   1  716.63   42.10
 -11  -2   1 1041.00   55.89
 -11  -2   1 1151.58   50.99
 -10  -2   1    9.70    7.10
 -10  -2   1    6.80   10.10
  -9  -2   1   59.99    8.60
  -9  -2   1   68.99   12.60
   8   2  -1  828.12   35.10
  -8  -2   1  784.72   35.50
   7   2  -1   45.30    5.20
  -7  -2   1   45.40    6.30
  -7  -2   1   39.20    8.20
   6   2  -1  394.36   18.30
  -6  -2   1  462.95   20.30
  -6  -2   1  450.35   22.00
   5   2  -1 1160.58   44.30
   5   2  -1 1099.69   45.50
  -5  -2   1 1110.09   45.50
  -5  -2   1 1195.18   44.50
  -5  -2   1 1206.88   47.10
   4   2  -1 1058.79   42.50
   4   2  -1 1090.89   41.50
  -4  -2   1 1096.09   41.50
  -4  -2   1 1067.39   42.50
  -4  -2   1 1124.29   43.80
   3   2  -1 2827.72  103.19
   3   2  -1 2834.22  102.29
  -3  -2   1 2765.52  102.29
  -3  -2   1 2549.65  102.99
  -3  -2   1 2841.22  104.19
   2   2  -1   73.19    4.00
   2   2  -1   78.09    4.60
  -2  -2   1   79.59    4.10
  -2  -2   1   81.99    6.30
  -2  -2   1   80.89    4.60
   1   2  -1  708.43   25.50
  -1  -2   1  645.44   25.40
  -1  -2   1  632.54   25.20
   0  -2   1 5735.13  211.18
  -1   2  -1 1353.16   50.49
   1  -2   1 1341.67   51.59
   1  -2   1 1369.16   50.59
  -2   2  -1 4584.94  171.38
   2  -2   1 4673.43  171.38
  -3   2  -1  793.62   30.00
  -3   2  -1  810.82   29.80
  -3   2  -1  804.62   31.50
   3  -2   1  725.33   31.20
   3  -2   1  749.23   30.00
  -4   2  -1   83.89    5.30
  -4   2  -1   77.09    6.20
   4  -2   1   84.69    5.70
   4  -2   1   84.89    5.10
   4  -2   1   76.39    6.10
  -5   2  -1  646.94   27.80
  -5   2  -1  625.04   26.00
   5  -2   1  647.04   26.00
   5  -2   1  638.74   27.80
   5  -2   1  648.54   26.60
  -6   2  -1  774.92   32.10
  -6   2  -1  765.22   30.30
   6  -2   1  703.33   29.80
   6  -2   1  708.43   30.40
   6  -2   1  717.33   32.10
  -7   2  -1  379.16   19.90
  -7   2  -1  371.06   17.80
   7  -2   1  390.36   18.40
   7  -2   1  370.26   19.80
   7  -2   1  384.96   18.60
  -8   2  -1  310.47   16.60
   8  -2   1  347.97   19.50
   8  -2   1  329.47   19.00
  -9   2  -1  904.71   39.70
   9  -2   1  970.20   42.90
 -10   2  -1 1866.01   74.49
  10  -2   1 1852.51   77.69
 -11   2  -1  225.48   16.50
  11  -2   1  220.28   19.60
 -12   2  -1   27.40   10.60
 -12   2  -1   22.30    8.00
  12  -2   1   20.90   10.90
 -13   2  -1  136.49   15.40
 -13   2  -1  132.89   21.50
  13  -2   1  111.39   17.50
 -11  -1   1  284.97   21.40
 -11  -1   1  286.47   26.20
 -10  -1   1  105.69   13.30
   9   1  -1  173.78   14.40
  -9  -1   1  181.48   13.90
   8   1  -1 2281.47   85.59
   8   1  -1 2288.17   88.09
  -8  -1   1 2198.58   87.29
  -8  -1   1 2169.98   87.99
   7   1  -1 1662.33   61.39
   7   1  -1 1641.14   63.49
  -7  -1   1 1559.64   62.59
  -7  -1   1 1544.15   63.29
  -7  -1   1 1517.15   61.29
   6   1  -1 3560.64  129.39
   6   1  -1 3396.66  129.29
   6   1  -1 3566.44  127.69
  -6  -1   1 3253.97  127.69
  -6  -1   1 3449.25  129.29
  -6  -1   1 3284.27  128.59
   5   1  -1   73.99    5.70
   5   1  -1   81.49    6.50
   5   1  -1   77.29    6.50
  -5  -1   1  101.19    7.40
  -5  -1   1  101.59    6.00
  -5  -1   1   92.49    6.40
   4   1  -1    9.50    2.10
   4   1  -1    7.30    2.10
   4   1  -1    7.50    2.40
  -4  -1   1   12.50    2.60
  -4  -1   1    6.50    2.40
  -4  -1   1    6.30    1.80
   3   1  -1 4500.25  163.38
   3   1  -1 4351.36  162.78
   3   1  -1 4508.55  163.58
  -3  -1   1 4468.35  162.98
  -3  -1   1 4268.17  163.48
   2   1  -1  766.72   31.20
   2   1  -1  833.42   30.40
  -2  -1   1  820.22   30.70
  -2  -1   1  789.02   30.60
  -2  -1   1  762.02   30.30
   1   1  -1 1362.06   50.49
   1   1  -1 1312.07   50.39
  -1  -1   1 1365.66   50.49
  -1  -1   1 1365.16   50.49
   0  -1   1  633.44   24.30
  -1   1  -1  632.34   24.90
   1  -1   1  647.74   24.90
  -2   1  -1 1292.17   50.19
  -2   1  -1 1327.47   51.09
   2  -1   1 1338.97   51.19
   2  -1   1 1397.76   50.19
  -3   1  -1  650.33   25.00
   3  -1   1  622.64   26.20
  -4   1  -1  290.27   13.70
   4  -1   1  280.97   12.60
   4  -1   1  270.07   12.30
   4  -1   1  263.17   13.50
  -5   1  -1 6420.96  241.18
  -5   1  -1 6292.77  239.68
   5  -1   1 6650.33  241.78
   5  -1   1 6672.63  239.88
   5  -1   1 6418.16  239.58
  -6   1  -1  235.88   11.00
  -6   1  -1  203.58   12.60
   6  -1   1  184.48   12.40
   6  -1   1  193.68   10.80
   6  -1   1  172.28   10.50
  -7   1  -1 3619.24  147.89
  -7   1  -1 3829.52  146.39
   7  -1   1 4080.59  146.39
   7  -1   1 4043.80  148.99
  -8   1  -1   66.99    7.60
   8  -1   1   54.59    7.00
   8  -1   1   57.89    8.60
  -9   1  -1  192.28   13.70
   9  -1   1  225.28   16.50
 -10   1  -1  631.54   32.30
  10  -1   1  615.94   33.00
 -11   1  -1  274.67   19.20
  11  -1   1  286.47   22.10
 -12   1  -1  143.29   17.00
 -12   1  -1  173.68   20.30
  12  -1   1  158.18   21.40
 -12   0   1  776.32   39.60
  11   0  -1  305.87   21.40
 -11   0   1  328.17   21.20
  10   0  -1 1483.25   63.99
 -10   0   1 1625.64   64.59
   9   0  -1  263.67   16.90
  -9   0   1  299.57   17.00
   8   0  -1   85.59    8.90
   8   0  -1   89.99    9.20
  -8   0   1   91.49    8.40
  -8   0   1  107.89   11.50
  -8   0   1   88.79    8.80
   7   0  -1  114.59    8.30
   7   0  -1  111.09    8.60
  -7   0   1   85.99    8.90
  -7   0   1   97.49    8.10
  -7   0   1   95.79    7.80
   6   0  -1  599.94   25.80
   6   0  -1  624.24   25.20
   6   0  -1  606.44   25.60
  -6   0   1  601.94   25.90
  -6   0   1  587.34   25.20
  -6   0   1  577.84   25.60
   5   0  -1 1560.04   57.79
   5   0  -1 1571.34   57.49
   5   0  -1 1493.35   57.79
  -5   0   1 1418.86   57.69
  -5   0   1 1532.45   57.89
  -5   0   1 1426.76   57.69
   4   0  -1 1654.63   61.89
   4   0  -1 1671.03   62.09
   4   0  -1 1682.13   61.79
  -4   0   1 1664.23   61.89
  -4   0   1 1611.54   61.89
  -4   0   1 1509.85   61.89
   3   0  -1 3825.12  147.69
   3   0  -1 4015.80  148.09
   3   0  -1 3998.80  148.09
  -3   0   1 4166.58  147.79
  -3   0   1 3905.01  148.09
  -3   0   1 4132.69  148.19
   2   0  -1 5525.45  200.08
  -2   0   1 5279.07  200.08
  -2   0   1 5527.05  200.08
   1   0  -1  656.13   24.90
   1   0  -1  631.44   24.90
  -1   0   1  646.64   24.80
  -1   0   1  663.93   25.00
   0   0  -1    0.80    0.60
   0   0  -1    2.30    0.80
   0   0   1    2.60    0.80
  -1   0  -1  665.63   25.50
  -1   0  -1  666.73   24.80
   1   0   1  664.43   24.80
   1   0   1  646.44   25.00
   1   0   1  632.94   25.50
  -2   0  -1 5548.45  200.58
  -2   0  -1 5491.15  201.48
   2   0   1 5390.86  201.48
   2   0   1 5396.06  200.48
  -3   0  -1 3959.70  151.78
  -3   0  -1 4112.69  151.18
  -3   0  -1 3999.00  150.68
   3   0   1 4123.79  150.68
   3   0   1 4188.68  152.18
  -4   0  -1 1674.53   63.59
  -4   0  -1 1631.04   61.99
   4   0   1 1625.94   63.69
   4   0   1 1627.94   61.79
   4   0   1 1597.64   61.89
  -5   0  -1 1631.24   60.09
  -5   0  -1 1642.94   61.79
   5   0   1 1449.55   59.49
   5   0   1 1480.65   61.69
   5   0   1 1573.34   59.59
  -6   0  -1  622.64   27.60
  -6   0  -1  609.74   25.60
   6   0   1  549.85   25.10
   6   0   1  597.14   25.00
   6   0   1  587.14   27.50
  -7   0  -1  126.29    8.80
   7   0   1  110.19    8.70
   7   0   1   82.99    9.70
  -8   0  -1   80.79   10.40
  -8   0  -1   95.49    9.00
   8   0   1   95.79    9.70
   8   0   1   93.19   11.40
  -9   0  -1  284.67   19.20
  -9   0  -1  267.17   16.40
   9   0   1  264.87   19.00
 -10   0  -1 1585.74   68.59
 -10   0  -1 1615.04   65.89
  10   0   1 1588.24   69.19
 -11   0  -1  306.07   20.90
 -11   0  -1  317.77   24.10
  11   0   1  344.27   25.30
 -12   0  -1  739.63   37.70
 -12   0  -1  783.02   41.60
  12   0   1  693.13   41.50
  12  -1  -1  189.98   18.60
 -12   1   1  140.39   16.50
  11  -1  -1  301.97   20.00
 -11   1   1  277.47   19.30
  10  -1  -1  619.24   29.00
 -10   1   1  526.55   30.80
   9  -1  -1  207.18   14.20
  -9   1   1  248.98   14.80
  -9   1   1  226.98   14.10
  -9   1   1  243.08   16.70
   8  -1  -1   49.20    7.30
   8  -1  -1   41.70    6.10
  -8   1   1   55.19    6.70
  -8   1   1   54.49    7.10
  -8   1   1   48.20    7.00
   7  -1  -1 3613.94  145.19
   7  -1  -1 3762.02  144.89
  -7   1   1 3946.31  145.39
  -7   1   1 3928.41  145.39
  -7   1   1 4077.79  145.59
   6  -1  -1  184.28   10.40
   6  -1  -1  198.48   10.50
  -6   1   1  187.78   10.50
  -6   1   1  176.38   10.20
  -6   1   1  185.28   10.20
   5  -1  -1 6118.79  236.58
   5  -1  -1 6617.34  236.88
   5  -1  -1 6190.58  236.48
  -5   1   1 6646.13  236.68
  -5   1   1 6475.45  236.98
   4  -1  -1  304.87   13.00
   4  -1  -1  289.87   12.40
   4  -1  -1  302.97   12.80
  -4   1   1  275.37   12.90
  -4   1   1  263.37   12.60
  -4   1   1  278.87   12.40
   3  -1  -1  703.93   26.60
   3  -1  -1  726.23   25.90
   3  -1  -1  714.93   26.40
  -3   1   1  607.74   26.40
  -3   1   1  640.04   26.20
  -3   1   1  637.84   25.70
   2  -1  -1 1329.27   50.69
   2  -1  -1 1320.57   49.80
   2  -1  -1 1321.07   50.39
  -2   1   1 1389.66   50.39
  -2   1   1 1322.27   50.69
  -2   1   1 1381.96   51.59
   1  -1  -1  644.24   25.30
  -1   1   1  649.34   25.00
   0  -1  -1  631.74   25.10
   0  -1  -1  667.53   25.40
   0  -1  -1  682.03   25.50
   0   1   1  640.14   25.10
   0   1   1  668.83   25.40
   0   1   1  642.34   25.40
  -1  -1  -1 1333.77   52.09
  -1  -1  -1 1358.36   52.49
   1   1   1 1386.66   51.59
   1   1   1 1442.16   52.29
  -2  -1  -1  769.42   30.60
  -2  -1  -1  846.42   32.10
  -2  -1  -1  840.12   31.60
   2   1   1  780.42   32.00
   2   1   1  784.02   31.50
   2   1   1  750.42   30.50
  -3  -1  -1 4484.35  165.78
  -3  -1  -1 4404.66  166.18
   3   1   1 4469.15  164.58
   3   1   1 4457.95  166.48
  -4  -1  -1    3.50    2.10
  -4  -1  -1    2.70    3.00
  -4  -1  -1    3.50    1.60
   4   1   1    7.40    3.20
   4   1   1    7.40    2.00
   4   1   1    1.20    1.90
  -5  -1  -1   69.29    7.10
  -5  -1  -1   74.79    6.20
  -5  -1  -1   74.89    8.60
   5   1   1  107.09    6.80
   5   1   1   88.79    8.30
  -6  -1  -1 3497.95  134.19
  -6  -1  -1 3476.95  136.29
  -6  -1  -1 3337.07  136.19
   6   1   1 3425.26  136.59
   6   1   1 3632.74  133.39
   6   1   1 4065.89  139.59
  -7  -1  -1 1664.93   66.49
  -7  -1  -1 1635.94   63.79
   7   1   1 1562.74   66.49
   7   1   1 1597.04   62.49
  -8  -1  -1 2328.17   90.09
  -8  -1  -1 2335.97   92.99
   8   1   1 2284.37   88.49
   8   1   1 2290.17   93.29
  -9  -1  -1  159.68   15.60
  -9  -1  -1  170.38   13.90
   9   1   1  201.48   17.10
 -10  -1  -1   97.79   11.30
 -10  -1  -1   76.09   12.00
  10   1   1   82.19   13.00
 -11  -1  -1  290.67   21.30
 -11  -1  -1  309.87   25.40
  11   1   1  260.27   24.10
 -13   2   1  100.49   13.70
  12  -2  -1   35.00    9.10
 -12   2   1   -0.70    6.80
  11  -2  -1  254.77   17.50
 -11   2   1  204.58   16.30
  10  -2  -1 1763.22   73.79
 -10   2   1 1911.61   73.99
 -10   2   1 1844.42   73.79
   9  -2  -1  879.81   40.40
  -9   2   1 1008.50   41.30
  -9   2   1  993.30   41.60
  -9   2   1  957.30   40.70
   8  -2  -1  292.27   16.10
   8  -2  -1  308.17   16.60
  -8   2   1  322.77   17.00
  -8   2   1  322.87   16.70
   7  -2  -1  390.66   18.40
   7  -2  -1  387.86   19.10
   7  -2  -1  365.76   17.80
  -7   2   1  385.76   18.30
  -7   2   1  378.46   17.90
  -7   2   1  386.56   21.30
  -7   2   1  363.06   18.10
   6  -2  -1  786.92   31.40
   6  -2  -1  811.52   31.30
   6  -2  -1  769.52   30.90
  -6   2   1  704.73   30.80
  -6   2   1  731.13   31.00
  -6   2   1  715.23   31.30
  -6   2   1  780.92   33.90
   5  -2  -1  677.03   26.80
   5  -2  -1  669.23   26.90
   5  -2  -1  664.33   27.20
  -5   2   1  647.84   27.20
  -5   2   1  615.64   26.60
  -5   2   1  638.34   26.80
  -5   2   1  708.13   29.30
   4  -2  -1   77.19    5.50
   4  -2  -1   86.39    5.10
   4  -2  -1   68.09    5.00
  -4   2   1   85.69    5.20
  -4   2   1   90.09    6.80
   3  -2  -1  815.62   32.90
   3  -2  -1  843.32   31.30
   3  -2  -1  828.52   31.40
   3  -2  -1  839.32   31.90
  -3   2   1  768.62   31.10
  -3   2   1  773.02   32.70
   2  -2  -1 5715.23  200.18
   2  -2  -1 5557.44  200.98
   2  -2  -1 5125.49  199.48
  -2   2   1 5522.05  200.08
  -2   2   1 5550.44  200.88
  -2   2   1 5132.59  199.38
   1  -2  -1 1319.87   50.89
   1  -2  -1 1362.46   51.69
  -1   2   1 1411.56   51.69
  -1   2   1 1320.47   50.89
   0  -2  -1 4777.62  200.38
   0  -2  -1 5650.73  201.78
   0  -2  -1 5715.83  201.78
   0   2   1 5566.74  200.58
   0   2   1 5599.14  201.68
  -1  -2  -1  704.53   27.00
  -1  -2  -1  687.73   25.20
  -1  -2  -1  692.13   26.70
   1   2   1  618.44   26.40
   1   2   1  625.34   25.00
   1   2   1  615.34   26.70
   1   2   1  623.74   25.10
  -2  -2  -1   77.59    6.40
  -2  -2  -1   76.69    5.80
  -2  -2  -1   75.69    4.60
   2   2   1   81.39    4.70
   2   2   1   82.59    6.20
  -3  -2  -1 2924.11  104.99
  -3  -2  -1 2851.71  105.19
  -3  -2  -1 2655.03  102.69
   3   2   1 2755.42  102.69
   3   2   1 2582.54  104.79
  -4  -2  -1 1042.90   43.00
  -4  -2  -1 1066.99   43.50
  -4  -2  -1 1018.10   40.90
   4   2   1 1060.59   40.70
   4   2   1 1031.20   40.70
   4   2   1 1016.30   43.20
  -5  -2  -1 1128.99   48.50
  -5  -2  -1 1153.88   48.30
  -5  -2  -1 1126.09   45.80
   5   2   1 1137.19   45.50
   5   2   1 1244.88   44.70
   5   2   1 1134.79   48.50
  -6  -2  -1  399.16   19.90
  -6  -2  -1  419.66   22.40
   6   2   1  426.56   22.70
   6   2   1  469.15   18.90
  -7  -2  -1   25.60    6.50
  -7  -2  -1   33.70    5.50
   7   2   1   47.10    6.60
   7   2   1   43.90    7.70
  -8  -2  -1  807.32   38.70
  -8  -2  -1  805.12   35.20
   8   2   1  756.02   38.40
   8   2   1  794.32   33.40
  -9  -2  -1   66.59    9.10
  -9  -2  -1   73.39   13.10
   9   2   1   64.79   17.10
 -10  -2  -1   19.20    9.80
 -10  -2  -1   17.00    7.90
  10   2   1   11.00    9.70
 -11  -2  -1 1138.99   55.29
 -11  -2  -1 1072.09   49.90
  11   2   1 1063.09   54.69
  13  -3  -1  793.22   39.60
 -13   3   1  774.12   38.50
  12  -3  -1  396.76   24.40
 -12   3   1  392.96   23.60
  11  -3  -1   26.50    7.40
 -11   3   1   15.70    6.00
  10  -3  -1  187.08   14.00
 -10   3   1  216.58   14.00
 -10   3   1  189.78   14.50
   9  -3  -1 1000.00   41.40
  -9   3   1  965.60   41.70
  -9   3   1  955.00   40.80
  -9   3   1  971.10   41.80
   8  -3  -1   78.09    7.60
  -8   3   1   63.89    6.70
  -8   3   1   56.59    8.30
  -8   3   1   64.09    7.60
   7  -3  -1   17.90    3.70
   7  -3  -1   22.10    4.40
  -7   3   1    9.00    4.80
  -7   3   1   11.10    3.00
  -7   3   1    7.60    2.90
  -7   3   1    7.40    3.90
   6  -3  -1 2106.79   79.59
   6  -3  -1 2056.09   78.69
  -6   3   1 2134.09   81.59
  -6   3   1 2109.09   79.39
  -6   3   1 2044.30   78.69
  -6   3   1 1988.90   79.59
   5  -3  -1 2969.90  107.39
   5  -3  -1 2941.61  107.99
   5  -3  -1 2894.41  108.19
  -5   3   1 2822.12  107.99
  -5   3   1 2788.02  108.19
  -5   3   1 2758.62  107.19
  -5   3   1 2928.31  109.69
   4  -3  -1 4663.03  170.78
   4  -3  -1 4396.96  172.18
   4  -3  -1 4613.24  170.08
   4  -3  -1 4691.23  170.98
  -4   3   1 4637.54  170.08
  -4   3   1 4685.43  172.18
  -4   3   1 4551.64  170.98
   3  -3  -1 4030.90  151.08
   3  -3  -1 4078.29  152.28
  -3   3   1 4117.49  151.18
  -3   3   1 4071.69  152.08
  -3   3   1 4078.19  150.18
   2  -3  -1  665.33   25.00
  -2   3   1  614.34   23.90
  -2   3   1  588.94   24.70
   1  -3  -1  838.02   30.70
   1  -3  -1  817.72   32.10
  -1   3   1  734.63   30.40
  -1   3   1  778.12   31.90
   0  -3  -1 4051.89  151.38
   0  -3  -1 3724.83  149.29
   0   3   1 4173.38  149.19
   0   3   1 4203.38  151.38
   0   3   1 4126.79  149.39
  -1  -3  -1  286.97   11.50
   1   3   1  270.47   11.10
   1   3   1  264.97   13.50
   1   3   1  258.17   11.40
  -2  -3  -1  665.73   28.30
  -2  -3  -1  628.64   27.60
  -2  -3  -1  641.94   25.40
   2   3   1  631.34   24.50
   2   3   1  667.83   28.00
   2   3   1  600.34   27.70
   2   3   1  640.44   25.20
  -3  -3  -1 2026.60   79.19
  -3  -3  -1 2065.59   78.99
  -3  -3  -1 1954.20   76.09
   3   3   1 2097.69   74.99
   3   3   1 1973.50   75.89
   3   3   1 1979.00   78.99
  -4  -3  -1 4181.18  157.98
  -4  -3  -1 4498.35  161.48
  -4  -3  -1 4266.27  161.28
   4   3   1 4231.68  156.38
   4   3   1 3992.90  157.58
   4   3   1 4289.87  161.28
  -5  -3  -1 1327.87   54.29
  -5  -3  -1 1379.76   57.79
   5   3   1 1406.76   57.99
   5   3   1 1356.86   54.19
   5   3   1 1461.85   52.89
  -6  -3  -1   13.90    4.20
  -6  -3  -1   14.60    5.60
   6   3   1   17.80    3.30
   6   3   1   17.70    5.80
  -7  -3  -1  145.89   11.30
  -7  -3  -1  152.18   14.50
   7   3   1  144.79    8.90
   7   3   1  139.19   14.30
  -8  -3  -1 2507.95   96.59
  -8  -3  -1 2418.86  111.99
   8   3   1 2476.15  100.89
  -9  -3  -1  109.69   13.60
  -9  -3  -1  120.49   17.40
   9   3   1  114.59   17.70
 -10  -3  -1  512.55   33.30
 -10  -3  -1  498.25   28.60
 -14   4   1  797.42   41.30
  13  -4  -1   51.09   11.50
 -13   4   1   64.69   10.80
  12  -4  -1  684.73   34.80
 -12   4   1  731.43   34.60
  11  -4  -1   84.99   11.80
 -11   4   1   86.59   12.30
 -11   4   1  105.89   11.20
  10  -4  -1   19.50    5.80
 -10   4   1   18.90    5.30
 -10   4   1   24.70    6.40
   9  -4  -1 2724.43   98.19
  -9   4   1 2434.66   97.99
  -9   4   1 2445.76   98.09
  -9   4   1 2456.35   96.79
   8  -4  -1  215.08   13.80
  -8   4   1  270.67   13.70
  -8   4   1  275.37   15.60
  -8   4   1  261.97   14.70
   7  -4  -1 4489.85  168.78
   7  -4  -1 4505.45  167.48
   7  -4  -1 4480.75  168.48
  -7   4   1 4298.07  168.68
  -7   4   1 4699.43  170.88
  -7   4   1 4501.05  168.78
  -7   4   1 4471.85  167.48
   6  -4  -1 1078.89   42.60
   6  -4  -1 1077.09   43.70
   6  -4  -1 1092.79   44.00
  -6   4   1 1085.79   43.90
  -6   4   1 1061.99   42.50
  -6   4   1 1121.19   45.50
   5  -4  -1    3.00    2.50
   5  -4  -1    1.70    1.80
   5  -4  -1    0.80    2.20
  -5   4   1    5.10    2.20
  -5   4   1   10.50    2.00
  -5   4   1    4.20    3.20
   4  -4  -1 1651.53   65.19
   4  -4  -1 1695.53   62.69
   4  -4  -1 1783.82   64.09
   4  -4  -1 1725.33   64.59
  -4   4   1 1613.04   62.49
  -4   4   1 1644.74   65.09
  -4   4   1 1538.05   63.69
   3  -4  -1  296.77   12.00
   3  -4  -1  278.57   14.10
   3  -4  -1  301.07   13.20
  -3   4   1  260.77   11.60
  -3   4   1  282.37   14.10
   2  -4  -1   68.49    5.90
   2  -4  -1   93.79    5.50
  -2   4   1   85.79    6.50
  -2   4   1   84.69    4.20
  -2   4   1   78.19    5.00
   1  -4  -1 4271.97  163.68
   1  -4  -1 4497.15  165.98
  -1   4   1 4430.76  163.68
  -1   4   1 4543.95  165.88
   0  -4  -1 1670.83   61.49
   0  -4  -1 1734.33   64.69
   0  -4  -1 1701.03   64.39
   0   4   1 1557.74   61.19
   0   4   1 1637.24   64.19
   0   4   1 1555.44   60.99
  -1  -4  -1 5943.01  227.18
  -1  -4  -1 5995.30  226.88
   1   4   1 6430.36  223.38
   1   4   1 6421.36  227.28
   1   4   1 5650.33  223.58
  -2  -4  -1  746.63   32.30
  -2  -4  -1  724.43   30.10
  -2  -4  -1  821.12   33.30
   2   4   1  721.63   27.90
   2   4   1  711.43   32.50
   2   4   1  704.73   28.90
  -3  -4  -1   18.60    4.60
  -3  -4  -1   18.60    3.10
  -3  -4  -1   14.20    6.10
   3   4   1    8.50    2.60
   3   4   1   14.10    1.70
  -4  -4  -1  218.48   15.40
  -4  -4  -1  223.78   12.30
   4   4   1  259.17   12.70
   4   4   1  277.37   10.40
  -5  -4  -1  252.97   17.80
  -5  -4  -1  276.77   14.60
   5   4   1  312.27   11.90
  -6  -4  -1   54.99    9.40
  -6  -4  -1   60.19    7.70
  -7  -4  -1  440.56   27.00
  -7  -4  -1  434.16   22.10
  -8  -4  -1  147.39   14.20
  -8  -4  -1  183.58   19.10
  -9  -4  -1  699.43   39.00
  -9  -4  -1  642.94   33.30
 -10  -4  -1   77.09   16.00
 -10  -4  -1   71.49   12.00
 -14   5   1   88.39   13.70
  13  -5  -1   15.90    8.90
 -13   5   1    7.00    7.30
  12  -5  -1  506.65   29.00
 -12   5   1  610.44   29.00
  11  -5  -1   18.30    6.40
 -11   5   1   19.00    6.80
 -11   5   1   14.40    5.60
  10  -5  -1   67.69    9.40
 -10   5   1   69.79    8.30
 -10   5   1   55.49    8.50
   9  -5  -1  299.07   17.20
  -9   5   1  288.57   17.30
  -9   5   1  325.67   16.20
  -9   5   1  302.87   19.30
   8  -5  -1 1422.76   57.59
  -8   5   1 1463.05   56.09
  -8   5   1 1389.56   57.69
   7  -5  -1 1179.28   48.00
   7  -5  -1 1202.98   49.99
   7  -5  -1 1129.99   46.20
  -7   5   1 1212.28   49.70
  -7   5   1 1181.08   46.20
  -7   5   1 1133.09   47.80
   6  -5  -1   77.59    7.00
   6  -5  -1   69.69    6.00
   6  -5  -1   67.09    7.90
   6  -5  -1   69.49    7.70
  -6   5   1  102.69    7.50
  -6   5   1   98.79    5.90
  -6   5   1  102.09    9.30
   5  -5  -1 1612.14   60.39
   5  -5  -1 1579.64   57.79
   5  -5  -1 1587.44   59.49
   5  -5  -1 1504.05   60.79
  -5   5   1 1459.45   60.49
  -5   5   1 1479.45   57.49
  -5   5   1 1412.26   59.19
   4  -5  -1 5914.21  236.68
   4  -5  -1 6444.75  240.08
   4  -5  -1 6544.45  238.48
  -4   5   1 6546.04  239.88
  -4   5   1 6757.62  236.68
  -4   5   1 6438.96  238.38
   3  -5  -1  652.73   26.50
   3  -5  -1  620.94   28.20
  -3   5   1  674.53   28.30
  -3   5   1  629.24   24.70
  -3   5   1  649.04   26.40
   2  -5  -1 2827.82  106.79
   2  -5  -1 2926.01  104.59
  -2   5   1 2691.03  102.89
  -2   5   1 2825.82  106.79
  -2   5   1 2697.53  104.29
   1  -5  -1    2.10    2.20
   1  -5  -1    6.50    2.60
  -1   5   1    6.20    1.60
  -1   5   1    7.80    3.50
  -1   5   1   11.80    1.50
   0  -5  -1 1578.84   56.69
   0  -5  -1 1587.94   60.59
   0  -5  -1 1590.44   60.99
   0   5   1 1433.16   56.39
   0   5   1 1388.66   60.09
   0   5   1 1463.35   56.19
  -1  -5  -1  193.08   12.20
  -1  -5  -1  202.88   13.50
   1   5   1  187.98    8.10
   1   5   1  183.58    8.70
  -2  -5  -1  385.56   16.30
  -2  -5  -1  394.66   20.30
   2   5   1  386.36   16.20
   2   5   1  349.27   20.40
  -3  -5  -1   77.69    6.20
  -3  -5  -1   79.29    9.40
   3   5   1   76.19    6.40
  -4  -5  -1 2654.13  101.49
  -4  -5  -1 2565.84   96.39
   4   5   1 2398.96   95.79
  -5  -5  -1   50.99    8.80
  -5  -5  -1   52.79    7.10
  -6  -5  -1 2194.18   84.69
  -6  -5  -1 2153.68   92.59
  -7  -5  -1   42.00    7.20
  -7  -5  -1   49.30   10.80
  -8  -5  -1    7.20    9.40
  -8  -5  -1    2.70    7.10
  -9  -5  -1  351.46   23.90
  -9  -5  -1  324.37   29.00
  14  -6  -1  195.98   21.10
 -14   6   1  196.98   19.50
  13  -6  -1  467.75   27.40
 -13   6   1  433.86   25.20
  12  -6  -1  221.78   17.80
 -12   6   1  204.58   15.70
 -12   6   1  196.98   18.20
  11  -6  -1 2370.66   92.39
 -11   6   1 2385.76   90.69
 -11   6   1 2150.38   95.59
  10  -6  -1   67.49   10.10
 -10   6   1   75.19    9.90
 -10   6   1   70.39    8.50
   9  -6  -1   13.90    5.20
  -9   6   1   19.30    4.40
  -9   6   1   17.20    5.50
   8  -6  -1  371.76   19.30
   8  -6  -1  425.36   21.70
  -8   6   1  440.46   21.40
  -8   6   1  450.15   19.40
   7  -6  -1 3563.44  130.19
   7  -6  -1 3646.04  132.99
   7  -6  -1 3477.55  134.29
  -7   6   1 3321.97  131.89
  -7   6   1 3387.16  133.59
  -7   6   1 3449.75  129.89
   6  -6  -1  655.63   28.30
   6  -6  -1  604.44   28.70
   6  -6  -1  634.34   25.20
   6  -6  -1  629.54   27.30
  -6   6   1  588.84   26.90
  -6   6   1  577.34   24.70
  -6   6   1  593.34   28.40
   5  -6  -1  206.98   11.70
   5  -6  -1  184.98   12.60
   5  -6  -1  203.78    9.60
   5  -6  -1  204.38   12.60
  -5   6   1  181.58    9.00
  -5   6   1  186.48   12.60
   4  -6  -1  777.12   30.20
   4  -6  -1  736.73   32.00
  -4   6   1  671.43   31.40
  -4   6   1  708.03   27.60
  -4   6   1  690.73   29.70
   3  -6  -1 2126.59   76.99
   3  -6  -1 2035.20   79.39
  -3   6   1 1962.70   74.49
  -3   6   1 1967.40   76.49
  -3   6   1 1983.20   78.89
   2  -6  -1 1018.70   45.00
   2  -6  -1 1082.09   42.50
  -2   6   1 1115.99   40.40
  -2   6   1 1117.79   45.40
  -2   6   1 1081.29   40.30
  -1   6   1  131.39   10.70
  -1   6   1  108.29    5.20
  -1   6   1  113.49    6.20
   0  -6  -1  611.24   29.00
   0  -6  -1  636.54   23.80
   0  -6  -1  615.54   28.30
   0   6   1  583.94   23.30
   0   6   1  551.04   28.00
   0   6   1  587.84   23.10
  -1  -6  -1 3945.61  152.48
   1   6   1 4003.20  146.79
  -2  -6  -1  314.17   19.10
   2   6   1  343.27   14.60
  -3  -6  -1 1008.70   44.40
  -3  -6  -1  964.70   38.60
   3   6   1  938.21   38.20
  -4  -6  -1   18.10    6.70
  -4  -6  -1   20.30    4.60
   4   6   1   13.80    4.50
  -5  -6  -1    8.20    4.80
  -6  -6  -1  191.18   14.20
  -6  -6  -1  188.48   19.30
  -7  -6  -1   53.99   12.90
  -8  -6  -1   56.49   10.80
  -8  -6  -1   43.40   13.30
  14  -7  -1 1425.86   63.19
 -14   7   1 1382.56   60.99
  13  -7  -1   34.60   10.60
 -13   7   1   54.19    9.10
  12  -7  -1   51.89   10.00
 -12   7   1   40.00    7.50
 -12   7   1   42.00    9.90
  11  -7  -1  474.55   25.80
 -11   7   1  450.55   25.80
 -11   7   1  447.46   22.80
  10  -7  -1  131.59   13.20
 -10   7   1  137.39   12.90
 -10   7   1  136.59   10.60
   9  -7  -1   31.90    6.80
  -9   7   1   40.50    5.40
  -9   7   1   32.60    6.40
   8  -7  -1 1584.94   61.99
   8  -7  -1 1670.73   65.59
   8  -7  -1 1612.04   66.89
  -8   7   1 1551.04   64.29
  -8   7   1 1557.44   61.69
   7  -7  -1  126.39   10.50
   7  -7  -1  113.99    8.00
   7  -7  -1  115.59   11.10
  -7   7   1   94.09    6.70
  -7   7   1   91.99    8.90
   6  -7  -1 3994.80  147.39
   6  -7  -1 3790.52  145.39
   6  -7  -1 3757.22  147.29
   6  -7  -1 3791.42  142.69
  -6   7   1 3960.40  142.49
  -6   7   1 3836.42  146.89
  -6   7   1 3759.12  145.09
   5  -7  -1  388.06   18.50
   5  -7  -1  358.96   19.60
  -5   7   1  361.76   17.80
  -5   7   1  372.06   15.20
  -5   7   1  350.26   19.80
   4  -7  -1   16.90    4.70
   4  -7  -1   22.30    4.30
  -4   7   1    5.90    4.90
  -4   7   1   17.10    2.20
  -4   7   1   11.20    3.20
   3  -7  -1 4503.45  163.68
   3  -7  -1 4453.05  166.98
  -3   7   1 4346.06  163.38
  -3   7   1 4244.98  166.28
   2  -7  -1 1183.98   45.50
   2  -7  -1 1139.39   48.90
  -2   7   1 1135.19   49.00
  -2   7   1 1174.48   45.10
   1  -7  -1 3479.05  129.19
   1  -7  -1 3557.04  134.19
  -1   7   1 3382.76  128.79
   0  -7  -1  123.59   11.10
   0  -7  -1  116.89    6.30
   0   7   1   98.99    5.40
   0   7   1   97.39    5.50
  -1  -7  -1   38.00    7.30
   1   7   1   51.29    4.30
  -2  -7  -1  894.61   42.70
   2   7   1  955.10   36.30
  -3  -7  -1  183.18   16.10
   3   7   1  183.98   10.70
  -4  -7  -1   84.59   12.70
  -4  -7  -1  101.49    9.00
  -5  -7  -1  516.55   31.30
  -5  -7  -1  496.45   24.00
  -6  -7  -1  430.16   30.40
  -6  -7  -1  426.56   22.80
  -7  -7  -1 1342.87   58.19
  -7  -7  -1 1451.95   67.49
  14  -8  -1   54.09   13.20
 -14   8   1   44.40   10.20
 -13   8   1    4.50    6.40
  12  -8  -1  148.09   16.80
 -12   8   1  142.19   16.30
 -12   8   1  165.48   13.70
  11  -8  -1 2653.83  105.29
 -11   8   1 2604.04  105.19
 -11   8   1 2625.54  101.79
  10  -8  -1  797.72   37.50
 -10   8   1  786.92   33.70
 -10   8   1  778.72   36.90
   9  -8  -1 2305.37   93.49
   9  -8  -1 2356.16   91.59
  -9   8   1 2226.88   90.49
  -9   8   1 2237.18   87.29
   8  -8  -1  100.19    9.10
   8  -8  -1   93.39   10.80
   8  -8  -1   90.79   12.00
  -8   8   1  125.19   11.00
  -8   8   1   88.59    7.10
   7  -8  -1   41.20    7.30
   7  -8  -1   47.00    8.20
   7  -8  -1   51.59    6.50
  -7   8   1   55.39    5.00
  -7   8   1   53.29    7.60
   6  -8  -1  291.97   18.60
   6  -8  -1  301.07   18.70
  -6   8   1  328.17   16.60
  -6   8   1  308.67   14.50
   5  -8  -1   71.89    9.30
   5  -8  -1   88.99    9.90
  -5   8   1   71.49    7.00
  -5   8   1   69.79    4.30
   4  -8  -1  207.58   15.10
   4  -8  -1  225.98   13.70
  -4   8   1  252.87   12.60
   3  -8  -1 1396.36   59.09
   3  -8  -1 1395.26   55.39
  -3   8   1 1428.36   54.79
   2  -8  -1  392.56   22.60
   2  -8  -1  403.96   19.10
  -2   8   1  464.45   18.50
   1  -8  -1 1698.83   68.99
   1  -8  -1 1661.23   62.89
  -1   8   1 1599.94   62.39
   0  -8  -1   96.59   11.40
   0   8   1   88.29    4.70
  -1  -8  -1  186.08   16.20
   1   8   1  215.98    9.60
  -2  -8  -1 1795.92   77.79
   2   8   1 1876.31   71.69
  -3  -8  -1   25.50    8.70
  -4  -8  -1  677.53   37.70
  -5  -8  -1    8.10   10.00
  -6  -8  -1  185.58   24.00
  14  -9  -1  427.26   29.70
 -14   9   1  396.36   25.20
  13  -9  -1  672.43   37.20
 -13   9   1  706.63   33.40
  12  -9  -1  118.09   16.60
 -12   9   1  107.29   14.10
 -12   9   1  106.79   14.90
  11  -9  -1   86.79   12.60
 -11   9   1   69.09   11.00
 -11   9   1   74.99    9.50
  10  -9  -1  165.58   16.10
 -10   9   1  174.58   17.50
 -10   9   1  186.78   11.80
   9  -9  -1  263.97   20.10
   9  -9  -1  277.07   19.20
  -9   9   1  267.27   17.90
  -9   9   1  283.17   14.20
   8  -9  -1  175.38   15.50
   8  -9  -1  181.08   16.20
   8  -9  -1  199.78   12.20
  -8   9   1  222.98   11.00
  -8   9   1  223.08   14.60
   7  -9  -1  922.01   42.90
   7  -9  -1  880.11   42.80
  -7   9   1  961.20   36.40
  -7   9   1  959.10   40.40
   6  -9  -1  933.61   44.80
   6  -9  -1 1022.00   46.10
  -6   9   1  983.10   38.20
  -6   9   1 1074.69   42.50
   5  -9  -1 2605.24   99.69
  -5   9   1 2353.96   95.09
   4  -9  -1  313.47   17.00
   4  -9  -1  257.07   18.30
  -4   9   1  301.17   15.10
   3  -9  -1   25.80    5.80
   3  -9  -1   12.20    5.70
  -3   9   1   14.40    3.70
   2  -9  -1   35.00    5.50
   2  -9  -1   30.30    7.20
  -2   9   1   42.40    5.10
   1  -9  -1 2178.68   84.29
   1  -9  -1 2322.37   92.29
   0  -9  -1  291.77   20.70
  -1  -9  -1  607.44   34.10
  -2  -9  -1  238.28   20.70
  -3  -9  -1  404.76   28.60
  -4  -9  -1   62.69   14.40
  -5  -9  -1   83.19   17.40
  14 -10  -1   85.39   15.70
 -14  10   1   93.89   12.20
  13 -10  -1  581.64   33.00
 -13  10   1  460.75   26.40
  12 -10  -1    9.80    9.80
 -12  10   1    6.80    6.10
 -11  10   1  107.89   14.60
 -11  10   1  101.69   10.00
  10 -10  -1 1516.75   68.89
  10 -10  -1 1536.55   67.59
 -10  10   1 1605.14   66.39
 -10  10   1 1590.94   61.29
   9 -10  -1  610.74   31.80
   9 -10  -1  602.34   32.90
  -9  10   1  569.74   24.80
  -9  10   1  567.64   29.40
   8 -10  -1 1825.82   75.69
   8 -10  -1 1762.02   75.69
  -8  10   1 1795.92   72.59
  -8  10   1 1773.02   67.79
   7 -10  -1  204.68   17.60
   7 -10  -1  200.28   17.10
  -7  10   1  182.78    8.90
  -7  10   1  176.48   13.30
   6 -10  -1   18.50    7.00
  -6  10   1   12.90    4.60
   5 -10  -1   78.49   12.40
  -5  10   1   54.69    7.00
   4 -10  -1   64.09   10.20
   4 -10  -1   73.79    9.20
  -4  10   1   68.39    7.50
   3 -10  -1   98.79   11.50
   3 -10  -1  149.09   15.00
  -3  10   1  141.09    9.10
   2 -10  -1  771.42   35.60
   2 -10  -1  563.04   27.70
   1 -10  -1  166.48   21.90
   0 -10  -1 1593.64   70.29
  -1 -10  -1  279.07   22.90
  -2 -10  -1   24.70    9.70
  -3 -10  -1  767.62   43.90
  -4 -10  -1  731.63   44.30
  13 -11  -1 1137.19   55.69
 -13  11   1 1130.09   48.50
  12 -11  -1  308.87   25.40
 -12  11   1  281.07   17.90
  11 -11  -1  297.47   24.00
 -11  11   1  350.06   23.00
 -11  11   1  320.47   17.40
  10 -11  -1  277.57   23.40
  10 -11  -1  268.47   21.70
 -10  11   1  265.77   19.20
 -10  11   1  249.08   14.10
   9 -11  -1  202.78   19.70
  -9  11   1  209.98   16.10
  -9  11   1  189.98   10.80
   8 -11  -1   18.70    8.70
  -8  11   1   25.90    4.70
  -8  11   1   24.20    6.40
   7 -11  -1   89.09   13.40
   7 -11  -1   94.39   14.90
  -7  11   1  109.59   11.30
   6 -11  -1   15.00    8.00
  -6  11   1   15.70    5.10
   5 -11  -1 2345.67   95.69
  -5  11   1 2250.77   88.89
   3 -11  -1 2524.55  104.09
   2 -11  -1   69.79   12.30
   1 -11  -1   85.59   13.70
   0 -11  -1  296.87   24.80
  -1 -11  -1  180.88   22.00
  -2 -11  -1  104.69   17.30
  12 -12  -1  799.82   44.10
  11 -12  -1  186.88   21.70
  11 -12  -1  154.28   22.90
  10 -12  -1   18.00   10.90
  10 -12  -1   23.40    9.80
   9 -12  -1  388.46   27.80
   9 -12  -1  372.36   26.80
   8 -12  -1  689.43   37.80
   8 -12  -1  635.64   37.10
   7 -12  -1  493.45   30.80
   7 -12  -1  495.05   31.30
   6 -12  -1  208.98   21.10
   5 -12  -1   39.30   11.20
   4 -12  -1  164.98   19.20
   3 -12  -1  136.89   19.20
   2 -12  -1    9.30    9.80
   1 -12  -1  305.87   26.50
   0 -12  -1  770.82   44.50
  11 -13  -1  148.79   19.10
  11 -13  -1  123.59   19.60
  10 -13  -1  742.53   41.30
  10 -13  -1  740.03   43.00
   9 -13  -1   43.00   12.50
   9 -13  -1   71.59   15.20
   8 -13  -1    0.60   10.90
   8 -13  -1    4.60    9.90
   7 -13  -1  464.45   31.60
   7 -13  -1  436.26   31.50
   6 -13  -1   70.19   14.30
   5 -13  -1   11.20   10.30
   4 -13  -1  684.63   40.50
   3 -13  -1  502.75   34.40
   2 -13  -1 1086.89   56.19
  10 -14  -1  728.33   43.10
  10 -14  -1  734.33   45.30
   9 -14  -1   75.99   15.60
   9 -14  -1   70.99   16.60
   8 -14  -1  175.58   24.70
   8 -14  -1  184.18   25.60
   7 -14  -1 1328.37   64.09
   7 -14  -1 1288.97   64.89
   6 -14  -1   41.90   15.40
   6 -14  -1   25.00   14.60
   5 -14  -1  361.96   32.10
   4 -14  -1   91.89   18.50
   6 -14   2   69.19   15.60
   6 -14   2   49.80   16.40
   7 -14   2  429.86   34.20
   7 -14   2  426.66   31.90
   8 -14   2  136.99   18.90
   8 -14   2  137.89   19.80
   2 -13   2  716.23   41.00
   2 -13   2  667.83   45.80
   3 -13   2  183.78   26.90
   3 -13   2  199.98   23.70
   4 -13   2  310.77   29.70
   4 -13   2  305.37   25.90
   5 -13   2 1013.90   49.90
   5 -13   2 1041.20   53.89
   6 -13   2   40.20   12.20
   6 -13   2   48.40   12.50
   7 -13   2  391.76   32.20
   7 -13   2  383.06   29.90
   8 -13   2   55.49   12.80
   8 -13   2   57.79   13.80
   9 -13   2  126.29   19.50
   9 -13   2  145.09   22.90
  10 -13   2   71.69   15.50
  11 -13   2   25.10   14.90
   0 -12   2  311.57   28.40
   1 -12   2  127.69   17.30
   2 -12   2  373.76   27.60
   3 -12   2   73.19   15.30
   3 -12   2   86.49   13.60
   4 -12   2   25.80   10.90
   5 -12   2  490.35   28.80
   5 -12   2  478.25   32.40
   6 -12   2  285.97   25.20
   6 -12   2  332.17   23.20
   7 -12   2  237.28   22.70
   7 -12   2  218.68   19.30
   8 -12   2  791.62   39.90
   8 -12   2  855.41   44.20
   9 -12   2  103.99   13.90
   9 -12   2  138.79   20.20
  10 -12   2  847.62   42.60
  10 -12   2  901.91   47.80
  11 -12   2  134.69   18.70
  12 -12   2  285.17   29.50
  -2 -11   2   11.40   13.20
  -1 -11   2  205.18   23.90
   0 -11   2  287.17   24.40
   1 -11   2  734.83   39.10
   3 -11   2  603.94   35.40
   3 -11   2  582.34   31.80
   4 -11   2 1494.65   63.89
   4 -11   2 1480.85   67.19
   5 -11   2  720.53   35.80
   5 -11   2  761.42   40.00
   6 -11   2   80.49   12.40
   6 -11   2   52.89   11.80
   7 -11   2 1790.92   73.29
   7 -11   2 1773.92   77.59
   8 -11   2  187.38   19.70
   8 -11   2  174.58   15.90
   9 -11   2  -10.40    7.50
   9 -11   2   11.80    7.90
  10 -11   2  228.08   23.30
  11 -11   2  293.77   27.00
  12 -11   2   97.19   17.10
  13 -11   2  732.93   44.80
  -3 -10   2   90.89   16.60
  -2 -10   2  877.41   45.70
  -1 -10   2  181.18   19.30
   0 -10   2 1027.80   49.00
   1 -10   2   98.99   14.00
   2 -10   2  441.66   25.50
   3 -10   2  134.89   16.50
   3 -10   2  117.39   13.10
   3 -10   2  127.09   12.40
   4 -10   2   30.20    8.00
   4 -10   2   29.30    9.30
   4 -10   2   30.40    7.30
   5 -10   2  342.07   20.20
   5 -10   2  330.37   23.00
   6 -10   2 1681.83   68.19
   6 -10   2 1657.43   71.89
  -7  10  -2  191.38   16.70
   7 -10   2  184.78   10.20
   7 -10   2  187.28   17.40
   7 -10   2  171.88   14.20
   8 -10   2 1592.04   64.49
   8 -10   2 1531.65   73.89
   9 -10   2  641.94   35.30
   9 -10   2  585.94   30.30
  10 -10   2 1026.70   50.59
  11 -10   2  741.03   41.50
 -12  10  -2  330.67   22.90
  12 -10   2  374.66   28.70
 -13  10  -2  184.18   16.80
  13 -10   2  207.88   25.50
  -4  -9   2  105.39   16.30
  -3  -9   2  125.09   19.00
  -2  -9   2    1.50    7.70
  -1  -9   2  606.24   36.30
  -1  -9   2  614.84   24.30
   0  -9   2   89.29   12.70
   1  -9   2  371.46   16.30
   1  -9   2  383.76   22.10
   1  -9   2  333.17   16.60
   2  -9   2   21.70    5.10
   3  -9   2 3313.47  128.69
   3  -9   2 3343.37  125.59
   3  -9   2 3319.07  131.49
  -4   9  -2  552.14   25.80
   4  -9   2  492.35   25.30
   4  -9   2  515.35   24.40
   4  -9   2  498.95   28.30
  -5   9  -2  682.43   31.50
   5  -9   2  670.33   34.70
   5  -9   2  694.93   26.50
   5  -9   2  711.03   31.60
  -6   9  -2  539.15   25.40
   6  -9   2  536.65   29.20
   6  -9   2  516.85   21.60
   6  -9   2  537.85   25.70
  -7   9  -2  333.37   18.00
   7  -9   2  332.57   22.10
   7  -9   2  314.67   18.10
  -8   9  -2  861.71   36.10
   8  -9   2  796.42   40.40
   8  -9   2  814.12   36.60
   8  -9   2  834.62   34.00
   9  -9   2   97.69   15.20
 -10   9  -2   81.49    9.30
  10  -9   2  102.59   14.40
 -11   9  -2  235.88   14.90
  11  -9   2  199.98   21.10
 -12   9  -2   75.39    9.70
  12  -9   2   96.99   15.40
 -13   9  -2  381.66   22.80
  13  -9   2  353.96   29.30
  -6  -8   2  145.89   21.10
  -5  -8   2   67.59   14.30
  -5  -8   2   81.69   13.60
  -4  -8   2  865.71   36.30
  -4  -8   2  861.31   45.10
  -3  -8   2  176.98   18.50
  -3  -8   2  172.28   10.80
  -2  -8   2 1608.24   69.79
  -2  -8   2 1646.64   62.19
  -1  -8   2  706.53   31.40
  -1  -8   2  778.22   36.30
   0  -8   2 2131.89   78.89
   0  -8   2 2089.39   85.69
   0  -8   2 2071.49   79.29
   0  -8   2 2195.18   79.29
   1  -8   2  122.29    8.40
   1  -8   2  116.49   11.10
   2  -8   2   96.69    9.70
   2  -8   2   89.89    8.10
  -3   8  -2  680.23   30.80
   3  -8   2  647.04   32.70
   3  -8   2  687.83   28.70
   3  -8   2  664.73   30.40
  -4   8  -2  386.26   20.10
   4  -8   2  399.06   19.80
   4  -8   2  404.46   20.20
   4  -8   2  419.46   16.20
   4  -8   2  404.26   23.10
  -5   8  -2   70.69    7.90
   5  -8   2   43.80    7.00
   5  -8   2   50.89    4.80
   5  -8   2   46.80    7.90
  -6   8  -2 1123.59   43.60
   6  -8   2 1043.20   43.80
   6  -8   2 1032.40   41.20
   6  -8   2 1054.39   47.60
  -7   8  -2  282.87   16.20
   7  -8   2  324.27   20.80
   7  -8   2  343.47   17.20
   7  -8   2  338.27   15.40
  -8   8  -2 2151.18   83.29
   8  -8   2 2183.98   89.19
   8  -8   2 2137.29   82.39
  -9   8  -2  334.27   17.40
  -9   8  -2  363.66   18.70
   9  -8   2  381.16   24.30
 -10   8  -2  454.15   22.20
  10  -8   2  462.95   38.70
 -11   8  -2  628.34   29.20
  11  -8   2  604.44   35.00
 -12   8  -2   11.00    6.70
  12  -8   2   14.60    9.30
 -13   8  -2 1106.19   47.90
  13  -8   2 1023.90   53.39
 -14   8  -2   40.80   10.50
  14  -8   2   51.89   15.00
  -7  -7   2  423.86   25.40
  -7  -7   2  404.96   34.20
  -6  -7   2  408.96   22.00
  -6  -7   2  356.66   29.60
  -5  -7   2  238.78   22.40
  -5  -7   2  208.88   14.50
  -4  -7   2 1926.31   76.19
  -4  -7   2 2023.50   84.39
  -3  -7   2  193.98   17.30
  -3  -7   2  186.18   10.90
  -2  -7   2  335.77   15.10
  -2  -7   2  330.27   21.10
  -1  -7   2  343.27   20.20
  -1  -7   2  343.67   14.80
   0  -7   2  236.88   11.20
   0  -7   2  246.28   15.30
   0  -7   2  229.08   10.50
   0  -7   2  243.98   11.20
   1  -7   2 1121.09   42.50
   1  -7   2 1100.39   47.20
   1  -7   2 1163.08   44.10
   2  -7   2  994.30   36.00
   2  -7   2  908.51   42.20
   2  -7   2  955.80   35.90
   2  -7   2  987.40   38.10
   2  -7   2  889.61   39.80
  -3   7  -2 1176.28   47.90
   3  -7   2 1207.58   44.60
   3  -7   2 1193.98   47.10
   3  -7   2 1174.18   48.00
   3  -7   2 1165.18   50.69
  -4   7  -2 3635.14  133.99
   4  -7   2 3583.64  131.39
   4  -7   2 3463.25  137.29
   4  -7   2 3471.75  133.99
   4  -7   2 3616.44  134.09
  -5   7  -2 1336.37   51.69
   5  -7   2 1363.86   49.99
   5  -7   2 1296.87   51.89
   5  -7   2 1240.48   55.09
   5  -7   2 1295.17   52.69
  -6   7  -2 1590.44   59.79
   6  -7   2 1545.35   64.39
   6  -7   2 1503.05   58.69
   6  -7   2 1500.25   60.09
  -7   7  -2  238.98   12.70
   7  -7   2  242.08   16.90
   7  -7   2  224.68   12.30
   7  -7   2  237.28   13.30
  -8   7  -2  116.79    9.30
  -8   7  -2  114.59    8.40
   8  -7   2  116.79   13.00
   8  -7   2  140.69   11.20
  -9   7  -2   23.40    5.00
  -9   7  -2   30.00    5.90
   9  -7   2   38.90    8.70
 -10   7  -2  125.29   10.90
 -10   7  -2  135.79   13.60
  10  -7   2  138.09   15.80
 -11   7  -2 1487.15   61.89
  11  -7   2 1550.04   67.69
 -12   7  -2  484.45   26.30
  12  -7   2  527.05   31.80
 -13   7  -2   57.29   10.00
  13  -7   2   54.39   13.20
 -14   7  -2  421.16   26.50
  14  -7   2  376.86   32.30
  -8  -6   2   64.99   12.10
  -8  -6   2   57.59   15.60
  -7  -6   2   60.39   13.90
  -7  -6   2   61.79    9.60
  -6  -6   2  320.57   18.70
  -6  -6   2  322.87   26.00
  -5  -6   2   56.89   11.30
  -5  -6   2   74.29    9.10
  -4  -6   2 1673.73   66.39
  -4  -6   2 1752.32   73.19
   3   6  -2  518.95   23.50
  -3  -6   2  556.74   28.80
  -3  -6   2  533.15   22.90
  -2  -6   2 1080.49   41.50
  -2  -6   2 1062.99   46.60
  -2  -6   2 1037.70   46.10
  -1  -6   2 1561.44   59.29
  -1  -6   2 1583.04   64.09
  -1  -6   2 1553.94   58.89
   0  -6   2  236.98   14.20
   0  -6   2  242.58   11.30
   0  -6   2  243.28   10.70
   1  -6   2 3053.79  117.99
   1  -6   2 3134.89  114.49
   2  -6   2  106.19    5.60
   2  -6   2  106.39    7.70
   2  -6   2   95.29    9.30
  -3   6  -2  839.02   34.90
   3  -6   2  884.91   33.20
   3  -6   2  922.81   35.30
   3  -6   2  830.62   35.30
   3  -6   2  828.82   37.70
  -4   6  -2  705.03   29.40
   4  -6   2  701.63   29.60
   4  -6   2  710.53   32.60
   4  -6   2  734.23   28.30
   4  -6   2  754.42   30.70
  -5   6  -2 2302.57   83.99
   5  -6   2 2143.39   87.79
   5  -6   2 2229.88   83.29
   5  -6   2 2247.98   85.69
   5  -6   2 2164.48   84.19
  -6   6  -2  226.78   11.60
   6  -6   2  227.18   15.30
   6  -6   2  249.48   12.40
   6  -6   2  242.18   11.90
  -7   6  -2 1139.59   44.70
  -7   6  -2 1137.19   44.40
   7  -6   2 1118.49   44.70
   7  -6   2 1107.09   48.90
  -8   6  -2   60.89    6.80
  -8   6  -2   63.79    7.00
  -9   6  -2 3545.75  131.29
  -9   6  -2 3354.06  131.49
   9  -6   2 3507.55  136.49
 -10   6  -2   34.50    7.10
 -10   6  -2   28.40    6.10
  10  -6   2   27.50    9.00
  11  -6   2  710.63   37.80
 -12   6  -2  318.77   20.20
  12  -6   2  320.77   24.90
 -13   6  -2  449.56   25.60
  13  -6   2  380.46   29.80
 -14   6  -2  203.68   20.90
  14  -6   2  215.28   26.50
  -8  -5   2 1025.70   45.90
  -8  -5   2 1047.50   53.99
  -7  -5   2  527.75   26.60
  -7  -5   2  545.15   33.90
  -6  -5   2  714.23   38.50
  -6  -5   2  745.53   32.50
  -5  -5   2  329.37   17.20
  -5  -5   2  347.17   22.60
   4   5  -2  651.13   28.80
  -4  -5   2  676.83   32.60
  -4  -5   2  707.23   34.00
  -4  -5   2  693.13   28.90
   3   5  -2   62.59    6.60
  -3  -5   2   57.99    5.70
  -3  -5   2   56.49    8.60
  -3  -5   2   63.09    8.90
  -2  -5   2 1249.38   53.99
  -2  -5   2 1303.67   53.49
  -2  -5   2 1302.47   50.09
  -2  -5   2 1342.17   49.20
  -1  -5   2 2175.18   79.89
  -1  -5   2 2020.70   79.99
  -1  -5   2 2202.28   83.79
   0  -5   2  459.15   22.10
   0  -5   2  493.15   20.10
   0  -5   2  490.35   19.50
   1  -5   2  540.95   21.10
   1  -5   2  518.85   23.10
   2  -5   2 1042.20   44.30
   2  -5   2 1097.19   42.40
   3  -5   2  423.66   18.20
   3  -5   2  426.96   20.80
   3  -5   2  429.16   17.50
  -4   5  -2 1142.59   44.70
   4  -5   2 1143.29   44.90
   4  -5   2 1208.88   44.70
   4  -5   2 1165.48   48.30
  -5   5  -2  457.55   24.00
  -5   5  -2  491.75   19.90
   5  -5   2  500.85   20.30
   5  -5   2  480.05   20.30
   5  -5   2  463.55   23.40
   5  -5   2  499.85   22.20
  -6   5  -2 3078.19  116.69
  -6   5  -2 2917.11  120.19
   6  -5   2 3160.08  120.59
   6  -5   2 3217.88  116.69
   6  -5   2 3183.48  118.59
  -7   5  -2  910.91   38.00
  -7   5  -2  969.60   37.40
   7  -5   2  912.41   37.90
   7  -5   2  944.01   41.60
  -8   5  -2  746.23   30.10
  -8   5  -2  709.23   30.30
   8  -5   2  661.73   33.80
  -9   5  -2  564.04   25.70
  -9   5  -2  575.14   25.80
   9  -5   2  525.15   29.20
 -10   5  -2  325.27   19.80
 -10   5  -2  338.97   18.60
  10  -5   2  339.27   22.70
 -11   5  -2   61.39    8.70
  11  -5   2   42.40   11.60
 -12   5  -2  203.58   16.90
  12  -5   2  230.78   21.70
 -13   5  -2   54.69   10.10
  13  -5   2   51.09   13.40
  -9  -4   2  318.67   22.30
  -9  -4   2  348.47   28.70
  -8  -4   2   15.00    7.10
  -8  -4   2   12.20    9.00
  -7  -4   2 1541.15   61.19
  -7  -4   2 1463.85   66.99
  -6  -4   2   21.50    5.40
  -6  -4   2   28.30    7.80
  -5  -4   2  508.55   23.20
  -5  -4   2  523.15   26.10
  -5  -4   2  508.15   20.70
  -5  -4   2  514.25   28.10
   4   4  -2  384.76   18.70
  -4  -4   2  422.56   16.80
  -4  -4   2  401.46   18.50
  -4  -4   2  412.86   21.10
  -4  -4   2  397.96   22.70
   3   4  -2 3479.85  130.79
  -3  -4   2 3447.56  129.49
  -3  -4   2 3339.97  130.69
  -3  -4   2 3547.94  134.99
  -3  -4   2 3683.63  132.99
   2   4  -2  736.43   29.30
  -2  -4   2  720.33   32.10
  -2  -4   2  716.53   29.00
  -2  -4   2  727.83   28.50
  -1  -4   2 1138.59   47.30
  -1  -4   2 1201.98   44.90
   0  -4   2 1487.65   57.89
   0  -4   2 1539.55   57.39
   0  -4   2 1533.55   59.29
   1  -4   2 2716.33  106.99
   1  -4   2 2914.51  105.79
   2  -4   2 2475.45   91.69
   2  -4   2 2422.86   93.79
  -3   4  -2  474.75   18.60
  -3   4  -2  457.95   21.80
   3  -4   2  480.75   19.10
   3  -4   2  465.45   18.70
   3  -4   2  450.15   21.40
  -4   4  -2 1540.55   56.79
  -4   4  -2 1518.95   60.79
   4  -4   2 1575.04   57.09
   4  -4   2 1512.35   57.79
   4  -4   2 1449.15   60.49
  -5   4  -2  421.26   18.00
  -5   4  -2  397.86   18.90
  -5   4  -2  400.26   21.60
   5  -4   2  503.75   22.30
   5  -4   2  521.75   19.50
  -6   4  -2   85.29    6.70
  -6   4  -2   94.29    6.20
  -6   4  -2   96.69   10.10
   6  -4   2  101.09    8.90
   6  -4   2   98.99    7.30
   6  -4   2  104.89    9.40
  -7   4  -2 1197.88   47.90
  -7   4  -2 1281.07   47.50
   7  -4   2 1194.08   51.09
   7  -4   2 1131.79   47.60
  -8   4  -2  430.96   19.90
  -8   4  -2  398.36   19.70
   8  -4   2  409.86   23.00
  -9   4  -2  669.43   31.40
  -9   4  -2  751.52   32.20
   9  -4   2  720.93   35.40
 -10   4  -2 1749.43   72.09
 -10   4  -2 1891.61   73.09
  10  -4   2 1767.32   76.19
 -11   4  -2 2002.30   78.49
  11  -4   2 1878.11   82.39
 -12   4  -2  881.21   40.00
  12  -4   2  808.02   43.70
 -13   4  -2  143.09   18.90
 -13   4  -2  150.88   17.70
  13  -4   2  131.19   18.40
 -10  -3   2  222.68   25.40
 -10  -3   2  197.38   19.50
  -9  -3   2   77.79   10.60
  -9  -3   2   75.09   14.20
  -8  -3   2  506.95   35.60
  -8  -3   2  616.64   34.40
  -7  -3   2  135.89   14.90
  -7  -3   2  119.29   11.10
  -7  -3   2  126.79    8.60
  -7  -3   2  130.19   15.70
   6   3  -2 3337.27  120.09
  -6  -3   2 3064.99  122.49
  -6  -3   2 3166.48  120.09
  -6  -3   2 3279.77  122.29
   5   3  -2  748.03   28.70
  -5  -3   2  681.73   30.90
  -5  -3   2  714.43   28.50
  -5  -3   2  680.73   29.90
   4   3  -2 1183.88   48.00
   4   3  -2 1235.78   46.80
  -4  -3   2 1219.18   48.00
  -4  -3   2 1210.58   46.80
  -4  -3   2 1235.38   49.00
   3   3  -2  860.71   34.00
   3   3  -2  835.82   34.80
  -3  -3   2  865.31   34.90
  -3  -3   2  924.51   36.00
  -3  -3   2  881.51   34.10
   2   3  -2  355.16   17.20
  -2  -3   2  418.36   17.30
  -2  -3   2  437.86   17.10
  -1  -3   2  466.25   19.60
  -1  -3   2  486.85   19.60
   0  -3   2  779.32   30.20
   0  -3   2  759.02   30.60
   0  -3   2  788.72   31.30
   0  -3   2  771.22   31.60
   1  -3   2  359.76   15.00
   1  -3   2  350.16   16.20
  -2   3  -2 4365.76  157.28
   2  -3   2 3903.11  158.38
   2  -3   2 4331.47  154.58
  -3   3  -2  797.82   32.40
   3  -3   2  812.02   30.30
   3  -3   2  700.53   31.90
  -4   3  -2 2870.51  107.59
   4  -3   2 2683.33  107.39
   4  -3   2 2898.31  105.29
  -5   3  -2 1094.29   44.50
  -5   3  -2 1039.80   42.00
  -5   3  -2 1053.89   40.80
   5  -3   2 1066.09   44.50
   5  -3   2 1084.09   41.90
  -6   3  -2  909.41   34.90
  -6   3  -2  836.32   35.30
  -6   3  -2  794.12   37.40
   6  -3   2  900.71   35.40
   6  -3   2  925.71   36.50
   6  -3   2  848.22   37.90
  -7   3  -2 3532.95  137.19
  -7   3  -2 3861.81  137.29
   7  -3   2 3540.75  140.29
  -8   3  -2   63.19    8.20
  -8   3  -2   68.99    7.40
   8  -3   2   46.10    7.60
  -9   3  -2  527.75   25.80
  -9   3  -2  576.44   27.20
   9  -3   2  549.05   29.40
 -10   3  -2  183.88   13.50
  10  -3   2  171.88   17.10
 -11   3  -2  191.98   16.20
 -11   3  -2  215.78   16.00
  11  -3   2  173.18   19.40
 -12   3  -2  129.59   15.10
 -12   3  -2  113.59   15.70
  12  -3   2  135.79   17.10
 -13   3  -2   78.49   12.80
 -13   3  -2   92.19   13.90
  13  -3   2   65.09   14.90
 -11  -2   2  725.13   37.40
 -11  -2   2  673.13   43.80
 -10  -2   2  397.96   24.50
 -10  -2   2  389.36   30.80
  -9  -2   2  231.88   17.00
  -8  -2   2  468.05   30.80
  -8  -2   2  451.15   21.50
  -8  -2   2  464.55   23.60
   7   2  -2   20.60    4.70
  -7  -2   2   35.40    5.00
  -7  -2   2   22.60    5.30
  -7  -2   2   22.60    6.50
   6   2  -2   59.69    6.80
  -6  -2   2   90.29    6.90
  -6  -2   2   84.99    9.00
  -6  -2   2   79.89    7.70
   5   2  -2  889.31   38.10
   5   2  -2  922.01   37.20
  -5  -2   2  970.00   38.20
  -5  -2   2  959.80   37.50
  -5  -2   2  962.10   38.50
   4   2  -2   93.69    6.50
   4   2  -2   92.29    7.30
  -4  -2   2  103.89    7.20
  -4  -2   2  111.59    7.40
  -4  -2   2  108.09    6.60
   3   2  -2 1024.30   40.50
   3   2  -2 1026.50   40.90
  -3  -2   2 1089.79   41.10
  -3  -2   2 1105.29   40.70
  -3  -2   2  977.60   42.40
   2   2  -2 2561.14   95.09
   2   2  -2 2550.74   94.89
  -2  -2   2 2562.54   94.99
  -2  -2   2 2478.75   94.99
  -1  -2   2 4572.54  170.28
  -1  -2   2 4645.24  170.48
   0  -2   2 4833.02  175.28
   0  -2   2 4646.64  175.28
   1  -2   2 1873.61   70.89
  -2   2  -2 4411.66  170.58
   2  -2   2 4772.42  170.88
  -3   2  -2  384.86   17.00
   3  -2   2  348.27   16.80
   3  -2   2  360.16   15.50
  -4   2  -2 2514.25   96.09
  -4   2  -2 2555.14   92.79
  -4   2  -2 2463.25   94.09
   4  -2   2 2579.34   94.19
   4  -2   2 2419.16   96.09
  -5   2  -2  338.07   18.60
  -5   2  -2  344.47   17.00
   5  -2   2  416.66   17.30
   5  -2   2  443.56   19.80
  -6   2  -2  655.03   30.90
  -6   2  -2  652.33   28.70
   6  -2   2  704.83   31.50
   6  -2   2  691.33   28.90
   6  -2   2  734.93   29.70
  -7   2  -2 1319.37   52.09
   7  -2   2 1285.07   52.49
   7  -2   2 1304.67   55.09
  -8   2  -2 1113.39   45.10
   8  -2   2 1065.59   48.20
  -9   2  -2  333.57   18.80
  -9   2  -2  341.67   18.50
   9  -2   2  335.47   21.80
 -10   2  -2 1628.64   71.39
 -10   2  -2 1700.63   69.79
  10  -2   2 1752.92   73.49
 -11   2  -2   12.20    7.40
 -11   2  -2    3.50    6.00
  11  -2   2    4.80    8.60
 -12   2  -2  886.61   42.70
  12  -2   2  925.61   47.90
 -13   2  -2   11.70   10.50
 -13   2  -2   20.40   11.90
  13  -2   2   32.70   13.80
 -11  -1   2  135.19   16.70
 -10  -1   2  744.53   36.00
  -9  -1   2   92.69   10.60
  -9  -1   2   99.29   11.90
   8   1  -2  347.77   19.10
  -8  -1   2  402.66   20.40
  -8  -1   2  389.46   19.00
   7   1  -2  122.79    9.50
  -7  -1   2  117.89    9.60
  -7  -1   2  133.39   10.50
  -7  -1   2  119.19    9.20
   6   1  -2 1148.19   45.20
  -6  -1   2 1142.89   45.10
  -6  -1   2 1148.49   45.30
  -6  -1   2 1102.89   45.80
   5   1  -2 3269.47  119.29
   5   1  -2 3035.40  119.59
  -5  -1   2 3233.58  118.79
  -5  -1   2 3203.48  119.99
  -5  -1   2 3157.38  119.39
   4   1  -2  413.96   20.40
   4   1  -2  404.56   20.10
  -4  -1   2  524.75   21.00
  -4  -1   2  499.55   20.70
  -4  -1   2  562.04   19.90
   3   1  -2 3008.00  108.89
   3   1  -2 2923.21  108.69
  -3  -1   2 2895.11  108.89
  -3  -1   2 2900.11  108.79
  -3  -1   2 2817.02  107.59
   2   1  -2  381.16   15.50
  -2  -1   2  327.17   16.10
  -2  -1   2  365.96   15.60
   1   1  -2 1946.01   72.59
  -1  -1   2 1889.91   72.59
  -1  -1   2 1907.61   72.39
  -1  -1   2 1963.30   71.59
   0   1  -2  540.95   22.80
   0  -1   2  606.24   22.90
   0  -1   2  591.74   23.50
  -1   1  -2  543.55   23.40
   1  -1   2  591.14   22.10
   1  -1   2  602.54   23.60
  -2   1  -2 1872.51   74.29
   2  -1   2 1936.51   74.49
   2  -1   2 2060.49   73.59
  -3   1  -2 4600.04  159.18
  -3   1  -2 4261.07  161.68
   3  -1   2 3929.31  161.58
   3  -1   2 4518.15  160.38
  -4   1  -2  477.35   19.50
  -4   1  -2  465.05   21.70
   4  -1   2  483.85   20.20
  -5   1  -2 1194.68   46.00
  -5   1  -2 1168.28   45.50
  -5   1  -2 1110.49   47.50
   5  -1   2 1182.98   48.20
   5  -1   2 1156.18   45.70
  -6   1  -2 2146.49   83.59
  -6   1  -2 2141.09   85.69
  -6   1  -2 2244.58   83.69
   6  -1   2 2242.68   83.79
   6  -1   2 2220.78   86.59
   6  -1   2 2085.79   83.29
  -7   1  -2 1554.44   61.99
  -7   1  -2 1559.64   61.69
   7  -1   2 1557.84   64.79
   7  -1   2 1566.24   61.79
  -8   1  -2  256.37   15.50
  -8   1  -2  265.37   16.10
   8  -1   2  336.67   20.00
  -9   1  -2  821.32   36.80
  -9   1  -2  857.91   37.80
   9  -1   2  816.52   40.40
 -10   1  -2  669.43   32.60
 -10   1  -2  625.24   31.10
 -11   1  -2  195.28   16.80
 -11   1  -2  195.38   18.50
  11  -1   2  198.88   21.60
 -12   1  -2  163.88   18.20
 -12   1  -2  155.08   20.00
  12  -1   2  175.58   22.90
 -12   0   2  327.87   24.50
 -11   0   2  255.47   19.90
 -10   0   2 1086.39   47.40
 -10   0   2 1065.69   46.00
  -9   0   2  119.19   11.50
  -9   0   2  116.19   11.20
  -9   0   2  114.79   13.30
   8   0  -2 2140.39   82.39
   8   0  -2 2096.29   82.59
  -8   0   2 2152.18   83.09
  -8   0   2 2147.59   83.69
   7   0  -2  220.28   13.30
   7   0  -2  228.78   12.10
  -7   0   2  238.68   13.50
  -7   0   2  241.08   12.90
  -7   0   2  239.48   13.40
   6   0  -2  228.38   12.70
   6   0  -2  229.48   11.70
  -6   0   2  257.67   13.10
  -6   0   2  244.08   13.00
  -6   0   2  249.97   12.00
   5   0  -2  449.95   20.80
   5   0  -2  474.45   20.80
  -5   0   2  488.15   20.90
  -5   0   2  493.85   19.50
  -5   0   2  463.25   20.90
   4   0  -2 1580.14   59.09
   4   0  -2 1558.24   59.09
  -4   0   2 1444.66   58.89
  -4   0   2 1543.95   57.19
  -4   0   2 1541.05   58.99
   3   0  -2  784.12   30.40
   3   0  -2  791.62   30.30
  -3   0   2  677.63   31.20
  -3   0   2  765.32   30.20
   2   0  -2 5083.69  182.98
  -2   0   2 5098.19  183.08
  -2   0   2 4652.73  182.78
   1   0  -2  519.95   21.10
   1   0  -2  506.15   22.40
  -1   0   2  564.44   22.60
  -1   0   2  575.64   21.20
  -1   0   2  607.24   23.00
   0   0   2 6661.53  240.88
   0   0   2 6495.75  240.28
   0   0   2 6452.45  240.08
  -1   0  -2  471.75   22.90
  -1   0  -2  504.55   21.40
   1   0   2  604.24   21.70
   1   0   2  572.84   22.60
   1   0   2  601.84   22.60
  -2   0  -2 5194.38  181.38
  -2   0  -2 4870.91  182.88
   2   0   2 4447.35  182.78
   2   0   2 5180.88  181.38
  -3   0  -2  773.12   31.90
  -3   0  -2  713.63   30.30
  -3   0  -2  760.02   30.10
   3   0   2  793.02   32.30
   3   0   2  788.92   30.50
  -4   0  -2 1572.94   58.29
  -4   0  -2 1461.85   58.19
  -4   0  -2 1464.95   59.79
   4   0   2 1499.15   60.29
   4   0   2 1553.74   58.19
  -5   0  -2  475.55   23.00
  -5   0  -2  462.45   20.80
  -5   0  -2  470.35   21.00
   5   0   2  479.35   23.30
   5   0   2  467.55   20.80
  -6   0  -2  242.08   13.40
  -6   0  -2  220.78   12.60
   6   0   2  230.58   15.20
   6   0   2  251.67   13.00
  -7   0  -2  235.78   14.40
  -7   0  -2  236.88   13.60
   7   0   2  228.08   14.00
   7   0   2  245.28   16.60
  -8   0  -2 2188.88   85.89
  -8   0  -2 2164.58   84.49
   8   0   2 2109.89   88.19
  -9   0  -2   82.79   10.50
  -9   0  -2   96.29   12.00
   9   0   2   93.29   14.50
 -10   0  -2 1165.88   51.09
 -10   0  -2 1124.19   49.00
  10   0   2 1075.69   52.89
 -11   0  -2  264.27   22.00
 -11   0  -2  276.77   20.20
  11   0   2  229.58   23.60
 -12   0  -2  289.87   26.40
 -12   0  -2  305.67   24.30
  12   0   2  341.27   29.30
 -12   1   2  193.48   18.70
  11  -1  -2  196.38   14.90
 -11   1   2  196.68   17.10
 -11   1   2  176.68   16.60
  10  -1  -2  621.04   29.10
 -10   1   2  647.34   30.80
 -10   1   2  652.23   31.00
   9  -1  -2  837.62   35.30
  -9   1   2  848.32   36.80
  -9   1   2  818.12   36.70
   8  -1  -2  268.27   15.10
  -8   1   2  341.97   16.60
  -8   1   2  351.06   17.50
  -8   1   2  333.47   17.50
   7  -1  -2 1501.85   60.19
   7  -1  -2 1528.65   58.69
  -7   1   2 1502.75   60.19
  -7   1   2 1514.05   60.39
  -7   1   2 1561.14   58.89
   6  -1  -2 2203.18   82.59
   6  -1  -2 2254.07   84.39
   6  -1  -2 2128.79   84.09
  -6   1   2 2224.68   82.69
  -6   1   2 2162.48   84.29
  -6   1   2 2216.28   84.59
   5  -1  -2 1128.69   44.80
   5  -1  -2 1129.69   43.00
   5  -1  -2 1139.29   45.00
  -5   1   2 1106.49   44.70
  -5   1   2 1156.18   45.30
  -5   1   2 1150.58   43.10
   4  -1  -2  472.55   20.50
  -4   1   2  462.85   20.50
  -4   1   2  461.15   20.10
  -4   1   2  509.85   22.70
   3  -1  -2 4717.43  171.58
   3  -1  -2 4629.74  171.18
  -3   1   2 4329.27  171.58
  -3   1   2 4867.71  173.18
  -3   1   2 4565.64  171.18
   2  -1  -2 1888.01   70.99
  -2   1   2 1902.41   73.09
  -2   1   2 1991.80   73.89
  -2   1   2 1939.91   72.69
   1  -1  -2  537.35   21.40
   1  -1  -2  498.35   22.50
   1  -1  -2  535.15   22.40
  -1   1   2  599.54   21.60
  -1   1   2  571.24   22.90
   0  -1  -2  519.95   22.40
   0  -1  -2  526.85   22.50
   0  -1  -2  535.25   22.30
   0   1   2  596.14   22.60
   0   1   2  557.34   22.40
   0   1   2  588.74   22.60
  -1  -1  -2 1922.11   73.19
  -1  -1  -2 1946.31   73.89
   1   1   2 1964.50   73.29
   1   1   2 1949.51   74.09
   1   1   2 1944.61   73.39
  -2  -1  -2  379.16   16.90
  -2  -1  -2  372.06   15.70
   2   1   2  373.16   15.40
   2   1   2  328.77   16.40
   2   1   2  327.77   16.50
  -3  -1  -2 2828.72  108.29
  -3  -1  -2 2936.81  110.19
  -3  -1  -2 2940.61  108.89
   3   1   2 2915.51  108.29
   3   1   2 2846.72  110.39
  -4  -1  -2  414.76   20.00
  -4  -1  -2  420.76   21.50
  -4  -1  -2  386.06   19.20
   4   1   2  512.25   19.80
   4   1   2  513.75   22.50
  -5  -1  -2 3159.28  121.79
  -5  -1  -2 3108.09  119.19
  -5  -1  -2 3241.18  120.39
   5   1   2 3176.18  122.29
   5   1   2 3117.49  118.99
  -6  -1  -2 1158.58   47.90
  -6  -1  -2 1142.29   46.60
   6   1   2 1098.79   49.60
   6   1   2 1205.38   46.20
  -7  -1  -2  116.69   11.00
  -7  -1  -2  119.19    9.80
   7   1   2  132.39   10.20
   7   1   2  129.19   13.00
  -8  -1  -2  352.36   20.10
  -8  -1  -2  376.26   21.90
   8   1   2  417.16   20.20
   8   1   2  393.16   24.30
  -9  -1  -2   99.29   11.80
  -9  -1  -2   97.89   13.30
   9   1   2   79.09   15.70
 -10  -1  -2  701.43   37.20
 -10  -1  -2  674.63   34.20
  10   1   2  724.53   39.10
 -11  -1  -2  143.59   17.30
 -11  -1  -2  125.79   19.20
  11   1   2  109.49   16.90
 -13   2   2   17.00    9.70
 -12   2   2  920.11   43.30
  11  -2  -2    4.70    6.20
 -11   2   2   -6.30    6.60
 -11   2   2    4.80    6.20
  10  -2  -2 1650.03   64.89
 -10   2   2 1609.54   66.69
 -10   2   2 1624.24   68.19
   9  -2  -2  320.87   16.30
  -9   2   2  321.07   18.20
  -9   2   2  313.47   17.70
   8  -2  -2 1094.09   43.70
  -8   2   2 1129.99   45.30
  -8   2   2 1087.29   45.60
  -8   2   2 1066.89   43.90
   7  -2  -2 1281.77   50.29
   7  -2  -2 1288.07   52.19
  -7   2   2 1326.67   51.89
  -7   2   2 1281.37   52.29
  -7   2   2 1305.37   50.49
   6  -2  -2  692.13   30.10
   6  -2  -2  695.33   28.00
   6  -2  -2  669.03   29.40
  -6   2   2  715.93   29.70
  -6   2   2  715.43   32.80
  -6   2   2  716.33   30.30
  -6   2   2  732.33   28.40
   5  -2  -2  364.96   17.50
   5  -2  -2  350.46   15.30
   5  -2  -2  352.86   16.90
  -5   2   2  401.76   17.00
  -5   2   2  411.36   17.80
   4  -2  -2 2504.95   95.69
   4  -2  -2 2523.25   96.29
   4  -2  -2 2508.35   94.19
  -4   2   2 2681.33   98.19
  -4   2   2 2503.75   96.29
  -4   2   2 2558.84   95.79
   3  -2  -2  359.66   15.70
   3  -2  -2  351.86   16.70
  -3   2   2  322.07   15.40
  -3   2   2  348.17   16.80
  -3   2   2  347.37   15.00
   2  -2  -2 5257.37  183.68
   2  -2  -2 5104.99  184.68
   2  -2  -2 4972.80  185.48
  -2   2   2 4660.13  185.88
  -2   2   2 5146.68  185.48
  -2   2   2 4758.92  183.88
   1  -2  -2 1912.71   74.79
   1  -2  -2 1961.00   73.99
   1  -2  -2 1945.91   74.19
  -1   2   2 1977.90   74.29
  -1   2   2 2019.70   74.89
   0  -2  -2 4736.73  185.68
   0  -2  -2 5206.58  186.58
   0  -2  -2 5284.47  186.48
   0   2   2 4738.13  185.58
   0   2   2 5160.88  186.48
   0   2   2 5021.10  186.38
  -1  -2  -2 4805.62  171.38
  -1  -2  -2 4611.54  170.78
   1   2   2 4655.83  170.68
   1   2   2 4783.02  169.68
   1   2   2 4253.87  169.68
   1   2   2 4434.36  171.18
  -2  -2  -2 2625.54   97.29
  -2  -2  -2 2275.27   97.39
   2   2   2 2596.44   95.19
   2   2   2 2548.55   97.39
   2   2   2 2611.14   95.19
   2   2   2 2577.34   96.39
  -3  -2  -2 1042.20   44.00
  -3  -2  -2  964.40   41.30
  -3  -2  -2 1013.20   42.80
   3   2   2 1106.99   41.70
   3   2   2 1129.09   43.30
   3   2   2 1102.39   44.30
  -4  -2  -2   95.89    8.10
  -4  -2  -2   96.39    7.00
  -4  -2  -2   94.29   10.30
   4   2   2  111.99    7.60
   4   2   2   92.09    9.10
  -5  -2  -2  933.01   40.80
  -5  -2  -2  937.71   39.10
   5   2   2  935.01   42.30
   5   2   2 1027.20   40.20
  -6  -2  -2   62.99    8.60
  -6  -2  -2   57.69    6.90
  -7  -2  -2   20.90    5.20
  -7  -2  -2   21.60    6.30
   7   2   2   33.30    5.70
   7   2   2   25.80    8.10
  -8  -2  -2  419.96   25.00
  -8  -2  -2  449.66   23.10
   8   2   2  444.76   27.00
  -9  -2  -2  224.68   17.00
   9   2   2  235.48   21.90
 -10  -2  -2  389.76   24.70
 -10  -2  -2  419.26   27.70
  10   2   2  401.16   29.50
 -11  -2  -2  703.33   40.40
 -11  -2  -2  680.23   36.90
  11   2   2  680.53   41.70
 -13   3   2   91.09   13.50
 -12   3   2  146.59   15.60
 -12   3   2  133.89   17.10
  11  -3  -2  184.08   14.00
 -11   3   2  198.88   15.60
 -11   3   2  211.68   17.00
  10  -3  -2  161.48   12.30
 -10   3   2  194.88   13.70
 -10   3   2  187.28   14.80
 -10   3   2  217.38   15.80
   9  -3  -2  533.15   23.50
  -9   3   2  440.26   24.00
  -9   3   2  540.45   25.80
  -9   3   2  564.24   25.00
   8  -3  -2   72.49    6.40
  -8   3   2   47.40    6.20
  -8   3   2   52.89    7.10
  -8   3   2   56.19    8.00
   7  -3  -2 3587.84  132.39
   7  -3  -2 3432.16  134.39
  -7   3   2 3537.85  134.39
  -7   3   2 3602.44  133.59
   6  -3  -2  837.12   35.30
   6  -3  -2  854.01   36.20
   6  -3  -2  868.31   34.40
  -6   3   2  884.01   35.40
  -6   3   2  904.61   38.70
  -6   3   2  862.41   36.30
   5  -3  -2 1017.20   41.50
   5  -3  -2 1041.90   42.40
   5  -3  -2 1015.20   40.60
  -5   3   2 1003.50   42.30
  -5   3   2 1131.49   44.60
  -5   3   2 1096.49   41.50
   4  -3  -2 2884.21  112.29
   4  -3  -2 3030.80  109.49
   4  -3  -2 2975.80  109.89
   4  -3  -2 2998.30  110.79
  -4   3   2 2861.51  109.69
  -4   3   2 2972.80  112.09
  -4   3   2 2806.02  110.59
   3  -3  -2  674.73   30.40
   3  -3  -2  753.42   29.70
  -3   3   2  764.62   30.80
  -3   3   2  745.13   29.60
  -3   3   2  664.73   29.30
   2  -3  -2 4368.46  168.48
   2  -3  -2 4556.04  167.58
   2  -3  -2 4643.34  167.58
  -2   3   2 4389.46  167.48
  -2   3   2 4427.96  166.68
  -2   3   2 4672.33  168.58
   1  -3  -2  380.26   16.90
   1  -3  -2  393.76   16.40
   1  -3  -2  358.36   17.40
  -1   3   2  359.56   17.20
  -1   3   2  363.76   16.10
   0  -3  -2  776.32   31.90
   0  -3  -2  731.13   31.60
   0  -3  -2  788.12   30.60
   0   3   2  782.72   31.90
   0   3   2  750.82   30.40
  -1  -3  -2  475.75   21.70
  -1  -3  -2  494.05   22.50
   1   3   2  506.05   20.10
   1   3   2  463.65   22.00
   1   3   2  477.55   21.90
   1   3   2  495.55   20.20
  -2  -3  -2  340.57   18.90
   2   3   2  407.16   20.10
   2   3   2  443.96   17.80
   2   3   2  423.16   17.40
   2   3   2  429.46   19.90
  -3  -3  -2  827.32   36.80
  -3  -3  -2  883.41   38.20
   3   3   2  883.41   34.80
   3   3   2  843.82   37.10
   3   3   2  914.21   34.40
   3   3   2  863.11   37.90
  -4  -3  -2 1154.98   48.10
  -4  -3  -2 1158.58   45.80
   4   3   2 1128.29   49.20
   4   3   2 1169.08   45.80
  -5  -3  -2  694.73   32.20
  -5  -3  -2  675.23   29.70
   5   3   2  700.83   28.40
   5   3   2  673.03   33.30
   5   3   2  715.43   28.40
  -6  -3  -2 3416.36  134.29
  -6  -3  -2 3482.25  131.49
   6   3   2 3559.44  129.69
   6   3   2 3320.97  135.39
   6   3   2 3503.95  129.39
  -7  -3  -2  108.79   11.10
  -7  -3  -2  114.39   13.20
   7   3   2  128.79   15.20
  -8  -3  -2  511.65   33.10
  -8  -3  -2  585.94   32.40
   8   3   2  614.34   33.90
   8   3   2  611.24   26.00
  -9  -3  -2   63.79   12.20
  -9  -3  -2   73.19   10.80
   9   3   2   90.49   14.50
 -10  -3  -2  192.48   19.40
 -10  -3  -2  168.58   21.60
  10   3   2  218.98   24.90
 -13   4   2  130.59   15.80
 -13   4   2  143.29   16.40
  12  -4  -2  878.21   40.10
 -12   4   2  947.11   42.10
 -12   4   2  893.51   43.40
  11  -4  -2 1985.70   78.69
 -11   4   2 1953.30   81.09
 -11   4   2 2020.70   79.99
  10  -4  -2 1753.02   68.29
 -10   4   2 1699.63   70.29
 -10   4   2 1703.93   68.99
   9  -4  -2  699.93   30.40
  -9   4   2  706.93   31.10
  -9   4   2  700.83   32.60
   8  -4  -2  404.86   18.90
  -8   4   2  398.66   20.90
  -8   4   2  414.86   19.50
   7  -4  -2 1324.57   51.09
   7  -4  -2 1220.08   48.70
  -7   4   2 1215.48   48.80
  -7   4   2 1152.18   49.90
   6  -4  -2   88.89    6.70
   6  -4  -2   96.99    9.30
   6  -4  -2   97.59    7.80
  -6   4   2  104.49   11.20
  -6   4   2  105.59    8.30
  -6   4   2  121.49    7.40
   5  -4  -2  431.86   21.00
   5  -4  -2  404.66   22.30
   5  -4  -2  405.16   19.80
   5  -4  -2  417.46   20.00
  -5   4   2  536.05   20.20
  -5   4   2  527.35   21.60
  -5   4   2  542.15   23.60
   4  -4  -2 1573.24   58.79
   4  -4  -2 1436.26   59.99
  -4   4   2 1512.25   60.09
  -4   4   2 1456.15   58.39
  -4   4   2 1520.55   57.29
   3  -4  -2  481.35   21.90
   3  -4  -2  494.55   20.60
  -3   4   2  432.16   20.10
  -3   4   2  441.96   20.00
  -3   4   2  476.95   21.70
   2  -4  -2 2598.14   95.59
   2  -4  -2 2559.14   97.19
  -2   4   2 2394.26   95.09
  -2   4   2 2566.14   96.99
   1  -4  -2 2918.71  109.79
   1  -4  -2 2979.60  111.29
   1  -4  -2 2916.41  111.69
  -1   4   2 2899.21  111.49
   0  -4  -2 1540.25   59.39
   0  -4  -2 1494.95   61.39
   0  -4  -2 1605.64   61.99
   0   4   2 1617.74   58.89
   0   4   2 1535.45   61.59
   0   4   2 1529.45   59.19
  -1  -4  -2 1139.79   47.80
  -1  -4  -2 1145.59   48.30
   1   4   2 1152.58   48.00
   1   4   2 1202.78   45.20
   1   4   2 1199.28   45.10
  -2  -4  -2  682.43   31.30
  -2  -4  -2  691.53   32.40
   2   4   2  668.23   31.40
   2   4   2  740.53   28.60
   2   4   2  724.43   28.10
  -3  -4  -2 3413.16  130.19
   3   4   2 3439.66  126.09
   3   4   2 3348.26  130.99
   3   4   2 3266.57  130.19
   3   4   2 3475.15  126.99
  -4  -4  -2  370.06   18.40
  -4  -4  -2  406.56   21.70
   4   4   2  402.96   22.70
   4   4   2  396.06   18.70
   4   4   2  418.76   17.20
  -5  -4  -2  538.25   27.30
  -5  -4  -2  539.95   24.00
   5   4   2  478.15   28.00
   5   4   2  541.85   22.10
  -6  -4  -2   41.20    8.40
  -6  -4  -2   19.70    5.50
   6   4   2   33.50    4.20
   6   4   2   31.50    4.60
   6   4   2   32.00    8.90
  -7  -4  -2 1433.56   64.89
  -7  -4  -2 1427.46   60.09
   7   4   2 1555.44   56.89
   7   4   2 1481.45   65.69
  -8  -4  -2    8.90    6.90
  -8  -4  -2    4.20    7.80
  -9  -4  -2  316.07   22.10
  -9  -4  -2  290.97   25.00
 -13   5   2   52.09   11.40
 -13   5   2   81.39   11.20
  12  -5  -2  211.98   16.60
 -12   5   2  247.18   17.70
 -12   5   2  245.08   19.70
  11  -5  -2   56.49    8.10
 -11   5   2   63.59    8.90
  10  -5  -2  337.07   18.70
 -10   5   2  348.97   20.60
 -10   5   2  356.26   18.90
   9  -5  -2  543.45   24.40
  -9   5   2  506.35   26.00
  -9   5   2  506.35   24.10
   8  -5  -2  723.03   30.20
  -8   5   2  681.53   29.70
  -8   5   2  669.73   31.50
   7  -5  -2  906.51   38.10
   7  -5  -2  938.91   38.20
  -7   5   2  923.51   39.50
  -7   5   2  953.50   37.90
   6  -5  -2 3173.28  118.79
   6  -5  -2 3116.39  120.29
   6  -5  -2 3115.99  119.39
   6  -5  -2 3206.88  122.89
  -6   5   2 3196.38  118.59
  -6   5   2 3176.48  120.49
  -6   5   2 3126.39  122.29
   5  -5  -2  477.85   21.40
   5  -5  -2  467.75   20.20
   5  -5  -2  478.95   21.80
   5  -5  -2  445.76   23.00
  -5   5   2  456.95   23.10
  -5   5   2  472.75   19.70
  -5   5   2  438.06   21.10
   4  -5  -2 1211.68   47.00
   4  -5  -2 1154.08   48.70
  -4   5   2 1185.68   45.10
  -4   5   2 1160.28   48.40
  -4   5   2 1132.49   46.60
   3  -5  -2  334.37   17.80
   3  -5  -2  352.06   19.40
  -3   5   2  444.56   20.20
  -3   5   2  443.86   16.90
  -3   5   2  405.36   18.10
   2  -5  -2  978.70   43.20
   2  -5  -2 1004.70   41.20
  -2   5   2 1062.89   41.10
  -2   5   2 1103.69   43.70
   1  -5  -2  396.06   19.10
   1  -5  -2  413.86   21.40
   1  -5  -2  396.66   21.20
  -1   5   2  518.65   22.30
  -1   5   2  500.05   19.30
   0  -5  -2  475.75   23.10
   0  -5  -2  475.35   23.60
   0  -5  -2  474.85   20.30
   0   5   2  500.05   19.70
   0   5   2  447.26   20.00
   0   5   2  481.95   23.40
  -1  -5  -2 2259.57   87.39
  -1  -5  -2 2150.18   87.49
   1   5   2 2124.99   86.99
   1   5   2 2233.98   83.09
   1   5   2 2282.67   83.19
  -2  -5  -2 1284.27   54.89
   2   5   2 1330.87   50.09
   2   5   2 1317.97   50.79
  -3  -5  -2   77.89    9.40
   3   5   2   61.39    5.00
   3   5   2   59.09    6.70
  -4  -5  -2  682.93   33.50
   4   5   2  735.33   27.40
   4   5   2  646.24   28.20
  -5  -5  -2  307.47   21.00
  -5  -5  -2  321.47   17.10
   5   5   2  344.07   14.20
  -6  -5  -2  731.53   32.70
  -7  -5  -2  486.05   29.90
  -8  -5  -2 1084.39   52.99
  -8  -5  -2 1062.69   47.30
 -14   6   2  144.19   18.30
 -13   6   2  404.36   27.70
 -13   6   2  424.46   24.90
  12  -6  -2  301.37   20.00
 -12   6   2  323.67   22.60
 -12   6   2  333.37   20.10
  11  -6  -2  751.42   33.40
 -11   6   2  674.33   37.50
 -11   6   2  698.43   35.20
  10  -6  -2   30.10    6.40
 -10   6   2   19.30    6.20
 -10   6   2   27.80    5.70
   9  -6  -2 3533.35  132.39
  -9   6   2 3486.15  131.49
  -9   6   2 3379.36  133.79
   8  -6  -2   55.29    7.80
  -8   6   2   78.29    7.10
  -8   6   2   77.49    8.80
   7  -6  -2 1108.49   45.80
   7  -6  -2 1140.39   44.80
   7  -6  -2 1088.59   48.80
  -7   6   2 1131.39   44.30
  -7   6   2 1090.59   46.40
   6  -6  -2  236.08   15.70
   6  -6  -2  239.18   12.80
   6  -6  -2  240.48   14.20
  -6   6   2  242.08   13.90
  -6   6   2  251.57   12.10
   5  -6  -2 2249.77   84.79
   5  -6  -2 2213.38   86.99
  -5   6   2 2133.99   84.49
  -5   6   2 2077.59   86.19
  -5   6   2 2246.48   82.39
   4  -6  -2  721.03   30.10
   4  -6  -2  658.43   31.50
  -4   6   2  673.63   31.60
  -4   6   2  728.23   27.70
  -4   6   2  679.13   29.40
   3  -6  -2  831.52   37.60
   3  -6  -2  821.12   35.10
  -3   6   2  862.91   37.60
  -3   6   2  840.32   34.90
  -3   6   2  901.11   33.30
   2  -6  -2  103.49    8.00
   2  -6  -2   84.79    9.10
  -2   6   2  117.19    7.20
  -2   6   2  117.49   10.90
   1  -6  -2 3032.50  121.99
   1  -6  -2 3129.99  118.69
   1  -6  -2 3220.38  122.39
  -1   6   2 3097.99  122.09
  -1   6   2 3157.98  118.39
  -1   6   2 3342.97  117.59
   0  -6  -2  226.08   11.70
   0  -6  -2  214.68   14.60
   0   6   2  251.37   11.00
  -1  -6  -2 1531.75   63.89
   1   6   2 1542.75   58.79
   1   6   2 1552.94   58.49
  -2  -6  -2 1081.09   47.60
   2   6   2 1100.89   41.30
   2   6   2 1055.09   42.30
  -3  -6  -2  549.25   29.20
   3   6   2  549.15   23.80
  -4  -6  -2 1720.33   72.79
  -5  -6  -2   47.20   10.50
  -6  -6  -2  290.07   23.20
  -7  -6  -2   67.39   13.20
  -8  -6  -2   54.19   14.20
 -14   7   2  393.96   30.00
 -14   7   2  431.26   26.70
  13  -7  -2   54.49   11.50
 -13   7   2   45.70   11.50
 -13   7   2   62.89   10.20
  12  -7  -2  542.15   28.00
 -12   7   2  536.75   27.10
 -12   7   2  505.25   30.00
  11  -7  -2 1589.74   64.59
 -11   7   2 1493.65   66.09
 -11   7   2 1599.04   63.79
  10  -7  -2  116.59   12.20
 -10   7   2  119.19   12.50
 -10   7   2  122.39   10.40
   9  -7  -2   27.90    6.20
  -9   7   2   21.00    4.80
  -9   7   2   18.00    6.20
   8  -7  -2  116.49   10.60
   8  -7  -2  110.09   12.90
  -8   7   2  118.19   10.90
  -8   7   2  113.59    8.40
   7  -7  -2  237.18   13.40
   7  -7  -2  236.38   14.60
   7  -7  -2  208.58   16.20
  -7   7   2  234.18   12.00
  -7   7   2  220.78   14.20
   6  -7  -2 1486.85   63.19
   6  -7  -2 1561.34   61.79
  -6   7   2 1426.66   60.19
  -6   7   2 1542.65   57.89
   5  -7  -2 1301.37   52.29
   5  -7  -2 1281.47   54.69
  -5   7   2 1264.57   51.79
  -5   7   2 1281.57   49.20
   4  -7  -2 3618.04  135.19
   4  -7  -2 3521.95  138.09
  -4   7   2 3573.64  134.89
   3  -7  -2 1195.68   51.59
   3  -7  -2 1206.68   48.50
  -3   7   2 1203.68   45.90
  -3   7   2 1213.28   48.00
   2  -7  -2  892.51   41.70
   2  -7  -2  917.01   38.60
  -2   7   2  938.41   38.00
  -2   7   2 1004.60   36.60
  -2   7   2  974.50   36.50
   1  -7  -2 1102.79   44.30
   1  -7  -2 1111.89   48.40
  -1   7   2 1142.59   42.70
  -1   7   2 1105.29   43.70
   0  -7  -2  225.28   12.10
   0  -7  -2  240.98   16.40
   0   7   2  241.68   11.10
  -1  -7  -2  266.47   19.40
   1   7   2  351.46   14.90
   1   7   2  349.07   14.20
  -2  -7  -2  333.77   21.30
   2   7   2  323.77   15.40
  -3  -7  -2  171.98   16.40
   3   7   2  178.98   12.00
  -4  -7  -2 2028.60   85.89
  -5  -7  -2  210.08   21.10
  -6  -7  -2  432.46   30.30
  -7  -7  -2  417.26   31.70
 -14   8   2   57.59   13.50
 -14   8   2   54.89   11.00
  13  -8  -2 1113.09   49.60
 -13   8   2 1042.00   47.60
 -13   8   2 1082.19   51.79
  12  -8  -2   16.70    8.30
 -12   8   2    8.50    8.60
 -12   8   2   11.10    6.50
  11  -8  -2  615.74   30.30
 -11   8   2  575.74   27.50
 -11   8   2  540.95   30.40
  10  -8  -2  424.16   23.40
 -10   8   2  397.16   24.40
 -10   8   2  425.46   20.80
   9  -8  -2  345.47   24.30
   9  -8  -2  362.06   21.20
  -9   8   2  388.56   18.50
  -9   8   2  401.56   22.00
   8  -8  -2 2170.78   90.09
   8  -8  -2 2171.98   86.99
   8  -8  -2 2251.47   85.69
  -8   8   2 2107.89   86.69
  -8   8   2 2204.08   83.49
   7  -8  -2  257.47   19.20
   7  -8  -2  263.37   18.00
  -7   8   2  335.67   18.00
  -7   8   2  348.97   14.80
   6  -8  -2 1069.09   48.20
  -6   8   2 1097.09   42.00
  -6   8   2 1056.39   45.00
   5  -8  -2   46.30    7.70
  -5   8   2   59.29    7.20
  -5   8   2   61.39    4.60
   4  -8  -2  405.76   22.90
   4  -8  -2  398.06   20.70
  -4   8   2  405.56   16.60
  -4   8   2  401.16   19.30
   3  -8  -2  708.83   30.90
   3  -8  -2  698.03   34.00
  -3   8   2  675.33   29.60
  -3   8   2  718.73   27.40
  -3   8   2  704.83   27.30
   2  -8  -2   56.99    9.20
   2  -8  -2   55.19    7.00
  -2   8   2   82.49    4.90
  -2   8   2   80.39    5.10
  -2   8   2   75.09    6.70
   1  -8  -2  115.99    9.50
   1  -8  -2  118.79   12.20
  -1   8   2  116.39    6.60
  -1   8   2  118.39    7.50
   0  -8  -2 2159.78   85.39
   0   8   2 1900.21   78.79
   0   8   2 2137.59   77.39
  -1  -8  -2  852.21   40.70
   1   8   2  827.92   33.10
   1   8   2  836.22   32.20
  -3  -8  -2  176.08   18.60
  -4  -8  -2  878.51   45.40
  -5  -8  -2   48.70   12.80
  -6  -8  -2  185.38   25.70
  13  -9  -2  330.97   24.60
 -13   9   2  311.87   25.00
 -13   9   2  341.87   21.40
  12  -9  -2   64.59   11.10
 -12   9   2   71.39    9.20
 -12   9   2   61.09   11.10
  11  -9  -2  238.18   18.90
 -11   9   2  223.68   15.00
 -11   9   2  220.08   18.60
  10  -9  -2   85.29   12.80
 -10   9   2   94.29   13.00
 -10   9   2   90.89    9.40
   9  -9  -2   77.79   12.70
   9  -9  -2   85.39   11.90
  -9   9   2  104.09    8.60
  -9   9   2   95.59   12.00
   8  -9  -2  822.42   38.30
   8  -9  -2  780.52   40.10
  -8   9   2  827.82   33.30
  -8   9   2  800.42   36.80
   7  -9  -2  342.37   20.90
   7  -9  -2  333.57   22.10
  -7   9   2  325.47   15.20
  -7   9   2  324.37   18.70
   6  -9  -2  514.45   29.10
  -6   9   2  558.54   22.10
  -6   9   2  537.15   25.80
   5  -9  -2  675.43   35.20
  -5   9   2  702.13   31.20
  -5   9   2  735.23   27.70
   4  -9  -2  605.74   28.80
   4  -9  -2  560.74   29.60
  -4   9   2  519.25   21.20
  -4   9   2  501.55   24.40
   3  -9  -2 3263.07  125.69
   3  -9  -2 3432.06  130.99
  -3   9   2 3378.56  124.89
  -3   9   2 3173.78  121.59
  -3   9   2 3278.07  121.59
   2  -9  -2   21.00    7.00
   2  -9  -2   22.90    6.10
  -2   9   2   24.90    4.20
   1  -9  -2  347.17   22.80
  -1   9   2  378.86   16.50
   0  -9  -2   72.59   12.90
   0   9   2  111.59    6.70
  -1  -9  -2  639.54   35.10
  -2  -9  -2   27.50    9.50
  -3  -9  -2  141.09   19.40
  -4  -9  -2  147.39   22.30
  13 -10  -2  184.18   21.60
 -13  10   2  186.28   21.40
 -13  10   2  210.68   17.10
 -12  10   2  441.26   27.50
 -12  10   2  387.26   22.20
  11 -10  -2  746.43   37.50
 -11  10   2  734.23   32.20
 -11  10   2  666.13   36.40
  10 -10  -2 1140.09   50.29
  10 -10  -2 1092.79   53.39
 -10  10   2 1022.00   48.90
 -10  10   2 1102.99   44.60
   9 -10  -2  637.54   32.90
   9 -10  -2  617.24   36.20
  -9  10   2  586.84   31.00
  -9  10   2  651.93   27.00
   8 -10  -2 1562.14   71.29
   8 -10  -2 1681.43   70.19
  -8  10   2 1621.44   67.49
  -8  10   2 1685.03   63.09
   7 -10  -2  145.69   16.90
   7 -10  -2  170.18   16.60
  -7  10   2  178.08   13.60
  -7  10   2  172.88    9.10
   6 -10  -2 1703.23   72.89
  -6  10   2 1682.43   67.99
   5 -10  -2  325.27   22.70
  -5  10   2  338.67   18.00
  -5  10   2  337.87   13.60
   4 -10  -2   22.60    8.00
  -4  10   2   35.60    5.60
   3 -10  -2  118.99   14.00
   3 -10  -2  129.09   15.10
  -3  10   2  121.49    9.30
   2 -10  -2  420.56   27.80
  -2  10   2  420.16   19.10
   1 -10  -2   71.49   11.80
  -1  10   2   97.99    7.30
   0 -10  -2 1104.29   52.89
  -1 -10  -2  167.88   19.70
  -2 -10  -2  918.31   48.30
  -3 -10  -2  109.79   17.90
  13 -11  -2  715.33   40.50
 -13  11   2  714.83   39.70
 -13  11   2  696.13   33.90
  12 -11  -2  140.69   20.60
 -12  11   2  102.59   14.50
 -12  11   2  129.49   13.50
  11 -11  -2  270.57   23.00
 -11  11   2  270.27   16.20
 -11  11   2  253.27   21.00
  10 -11  -2  211.48   19.30
  10 -11  -2  180.38   21.60
 -10  11   2  184.38   12.50
 -10  11   2  204.48   17.80
   9 -11  -2    1.60    8.50
  -9  11   2    5.30    6.60
  -9  11   2    8.20    4.30
   8 -11  -2  201.98   20.40
   8 -11  -2  179.78   21.40
  -8  11   2  188.08   10.30
   7 -11  -2 1991.90   86.29
   7 -11  -2 2016.20   84.69
  -7  11   2 1883.51   78.59
   6 -11  -2   51.79   10.90
  -6  11   2   47.40    7.70
   5 -11  -2  701.93   37.90
  -5  11   2  703.73   31.70
   4 -11  -2 1560.24   68.09
  -4  11   2 1465.65   60.09
   3 -11  -2  600.94   34.20
  -3  11   2  572.74   25.90
   2 -11  -2  205.98   20.60
   1 -11  -2  725.93   40.10
   0 -11  -2  262.77   24.30
  -1 -11  -2  141.19   22.00
  -2 -11  -2   20.20   13.00
  12 -12  -2  326.47   27.90
 -12  12   2  302.77   25.40
  11 -12  -2  197.28   21.80
  11 -12  -2  138.79   20.20
 -11  12   2  179.58   19.60
  10 -12  -2  877.51   44.90
  10 -12  -2  871.21   48.00
 -10  12   2  889.31   42.70
   9 -12  -2   90.09   15.10
   9 -12  -2  104.99   15.30
   8 -12  -2  938.41   46.30
   8 -12  -2  865.91   46.40
  -8  12   2  829.62   40.30
   7 -12  -2  212.38   22.30
   7 -12  -2  240.28   23.30
  -7  12   2  213.58   17.00
   6 -12  -2  329.37   25.70
  -6  12   2  305.27   19.30
   5 -12  -2  503.75   32.30
  -5  12   2  491.05   24.70
   4 -12  -2    4.80    9.10
  -4  12   2   18.20    5.90
   3 -12  -2   76.29   14.00
   2 -12  -2  390.56   29.70
   1 -12  -2  113.39   16.90
   0 -12  -2  309.27   29.40
  11 -13  -2   37.80   12.40
  11 -13  -2   30.10   15.10
 -11  13   2   16.40   10.20
  10 -13  -2   47.30   13.60
  10 -13  -2   93.49   17.90
 -10  13   2   91.49   12.90
   9 -13  -2  133.39   18.30
   9 -13  -2  126.19   18.20
  -9  13   2  161.38   17.50
   8 -13  -2   46.80   14.30
   8 -13  -2   47.20   13.30
  -8  13   2   53.49   10.00
   7 -13  -2  442.16   32.40
   7 -13  -2  447.16   32.80
  -7  13   2  435.16   25.10
   6 -13  -2   67.69   14.70
  -6  13   2   60.69    9.40
   5 -13  -2 1056.69   54.19
   4 -13  -2  338.87   29.50
   3 -13  -2  167.58   23.80
   2 -13  -2  667.63   42.30
   8 -14  -2  181.28   26.30
   8 -14  -2  165.18   26.60
   7 -14  -2  369.96   32.40
   7 -14  -2  382.86   33.80
   6 -14  -2   41.80   15.20
   3 -13   3  508.45   34.40
   3 -13   3  511.65   38.30
   4 -13   3  626.54   36.90
   4 -13   3  628.54   41.10
   5 -13   3   12.80   11.40
   5 -13   3   21.80   13.70
   6 -13   3   43.70   12.30
   6 -13   3   21.20   13.20
   7 -13   3  527.15   36.50
   8 -13   3    2.50   12.50
   9 -13   3  122.69   18.90
  10 -13   3  555.74   40.30
   1 -12   3  129.89   18.00
   1 -12   3  143.49   20.50
   2 -12   3  136.89   17.60
   2 -12   3  110.59   18.50
   3 -12   3   86.19   13.90
   3 -12   3   79.79   15.80
   4 -12   3  168.38   22.40
   4 -12   3  186.48   19.60
   5 -12   3    4.50    9.30
   5 -12   3   11.70   10.60
   6 -12   3  234.78   19.30
   6 -12   3  164.98   22.50
   7 -12   3  424.96   30.80
   7 -12   3  397.16   24.80
   8 -12   3  522.65   34.80
   9 -12   3  321.67   28.30
  10 -12   3   50.39   14.70
  11 -12   3  265.37   29.60
  -1 -11   3  269.27   27.20
   0 -11   3  276.07   28.90
   0 -11   3  285.67   25.40
   1 -11   3   29.60   10.80
   1 -11   3   44.80   13.30
   2 -11   3   35.70   13.30
   2 -11   3   15.70   10.90
   3 -11   3 1397.16   60.49
   3 -11   3 1372.46   63.79
   4 -11   3  292.17   20.70
   4 -11   3  297.87   24.40
   5 -11   3 1249.28   58.89
   5 -11   3 1275.37   54.49
   6 -11   3  145.19   18.70
   6 -11   3   91.19   13.20
   7 -11   3   47.30    9.00
   7 -11   3   41.50   11.60
   8 -11   3  103.99   13.40
   8 -11   3   99.69   14.50
   9 -11   3  343.77   28.00
  10 -11   3  185.68   23.40
  11 -11   3  277.47   27.40
  12 -11   3  114.49   19.50
  -3 -10   3  557.34   37.50
  -2 -10   3   32.80   12.60
  -1 -10   3  173.98   20.00
   0 -10   3 1334.37   60.49
   0 -10   3 1207.78   57.19
   1 -10   3  316.67   22.80
   1 -10   3  334.17   17.40
   2 -10   3  591.84   30.80
   2 -10   3  593.94   26.50
   2 -10   3  558.44   33.60
   3 -10   3  204.78   19.50
   3 -10   3  189.38   15.80
   4 -10   3  116.39   16.00
   4 -10   3  105.39   12.20
   5 -10   3   50.69    8.00
   5 -10   3   42.40   10.50
   5 -10   3   59.49    5.40
   6 -10   3  160.88   13.30
   6 -10   3  173.78   24.20
   7 -10   3   78.59   12.60
   7 -10   3   88.29   11.00
   8 -10   3 1352.96   62.59
   8 -10   3 1367.96   55.59
   9 -10   3  252.57   22.30
  10 -10   3 1294.97   61.69
  11 -10   3   19.10   11.20
  12 -10   3  112.99   17.90
  13 -10   3  577.84   40.30
  -4  -9   3  112.99   17.60
  -3  -9   3  321.57   27.20
  -2  -9   3  363.56   25.80
  -1  -9   3  257.67   12.30
  -1  -9   3  194.28   22.10
   0  -9   3  149.88    8.30
   0  -9   3  139.59   15.40
   1  -9   3 1735.23   73.29
   1  -9   3 1724.83   64.29
   1  -9   3 1664.23   70.89
   1  -9   3 1728.43   66.49
   2  -9   3  155.28    9.30
   2  -9   3  158.28   16.10
   2  -9   3  164.28   13.30
   2  -9   3  160.58   13.60
   2  -9   3  149.39    7.90
   3  -9   3   19.00    5.90
   3  -9   3   26.70    3.30
   3  -9   3   25.10    3.60
   3  -9   3   24.90    6.90
   3  -9   3   19.20    7.50
   4  -9   3  348.97   18.50
   4  -9   3  285.87   14.50
   4  -9   3  338.67   14.50
   4  -9   3  376.86   22.90
   5  -9   3 2444.16   93.29
   5  -9   3 2356.46   97.79
  -6   9  -3  910.01   36.60
   6  -9   3  870.31   36.50
   6  -9   3  733.93   34.20
   6  -9   3  952.40   43.20
  -7   9  -3  388.76   22.90
   7  -9   3  304.57   17.10
   7  -9   3  351.96   17.30
   7  -9   3  325.57   22.90
   8  -9   3   -2.00   12.80
   9  -9   3  168.38   18.70
  10  -9   3  306.77   24.50
  11  -9   3   29.40   11.80
  12  -9   3   88.99   17.20
  13  -9   3  683.23   43.10
  -5  -8   3   -7.90   11.30
  -4  -8   3  603.74   36.30
  -4  -8   3  583.54   27.30
  -3  -8   3  106.19   17.20
  -3  -8   3  101.99   10.00
  -2  -8   3 1345.07   50.59
  -2  -8   3 1218.08   59.39
  -1  -8   3    7.20    3.50
  -1  -8   3    7.80    3.40
  -1  -8   3    7.50    6.70
   0  -8   3   27.30    5.40
   0  -8   3   37.10    4.70
   0  -8   3   25.60    6.90
   0  -8   3   31.10    4.30
   1  -8   3 1377.26   54.29
   1  -8   3 1363.56   52.39
   1  -8   3 1367.36   57.39
   1  -8   3 1398.66   59.39
   2  -8   3  561.94   27.20
   2  -8   3  594.24   26.00
   2  -8   3  548.25   23.10
   2  -8   3  571.74   29.70
   3  -8   3 1303.17   56.89
   3  -8   3 1273.87   53.39
   3  -8   3 1328.07   50.19
   3  -8   3 1419.96   53.49
   3  -8   3 1247.28   51.49
   4  -8   3    3.30    5.40
   4  -8   3    5.20    3.90
   5  -8   3  241.18   12.30
   5  -8   3  245.58   18.00
   5  -8   3  229.68   13.00
  -6   8  -3  406.06   18.90
   6  -8   3  417.76   19.00
   6  -8   3  422.66   24.60
  -7   8  -3   30.90    4.70
   7  -8   3   40.00    8.80
   7  -8   3   34.80    5.90
  -8   8  -3   35.30    4.80
   8  -8   3   18.90    7.90
   9  -8   3 1492.85   74.89
  10  -8   3  639.04   36.10
  11  -8   3 1472.45   67.59
  12  -8   3  177.98   23.00
 -13   8  -3   -0.80    8.00
  13  -8   3   10.60   13.10
  -6  -7   3  494.95   26.50
  -6  -7   3  499.25   35.90
  -5  -7   3  424.46   22.40
  -5  -7   3  420.26   30.40
  -4  -7   3   46.20    6.80
  -4  -7   3   47.10   11.40
  -3  -7   3   95.49   14.50
  -3  -7   3   80.79    8.60
  -2  -7   3  334.37   16.00
  -2  -7   3  324.67   21.30
  -2  -7   3  331.67   14.80
  -1  -7   3   24.50    6.50
  -1  -7   3   27.40    4.20
  -1  -7   3   29.00    4.20
   0  -7   3  162.78    8.90
   0  -7   3  165.98   12.90
   0  -7   3  162.78    9.70
   0  -7   3  164.48   14.20
   1  -7   3 2002.90   75.49
   1  -7   3 2009.10   79.09
   1  -7   3 2014.70   80.89
   1  -7   3 1976.20   77.09
   2  -7   3  596.94   29.60
   2  -7   3  615.34   24.60
   2  -7   3  599.34   27.20
   3  -7   3 2334.67   83.39
   3  -7   3 2142.49   88.29
   3  -7   3 2157.38   84.99
   4  -7   3  308.87   19.20
   4  -7   3  328.77   14.80
   5  -7   3  239.18   12.50
   5  -7   3  249.48   12.30
   5  -7   3  237.88   16.80
  -6   7  -3 3107.39  109.49
   6  -7   3 2753.22  115.79
   6  -7   3 2970.30  109.89
   6  -7   3 2892.51  110.39
  -7   7  -3  183.38    9.20
   7  -7   3  171.08   15.50
   7  -7   3  181.58   12.10
  -8   7  -3 1359.66   53.19
   8  -7   3 1450.15   61.79
   9  -7   3  142.49   15.90
  10  -7   3  160.18   17.80
 -11   7  -3  314.57   18.80
  11  -7   3  273.87   24.20
 -12   7  -3   -1.70    6.90
  12  -7   3   12.90   10.60
 -13   7  -3   33.80    9.70
  13  -7   3   36.10   14.40
  -7  -6   3   38.70    9.60
  -7  -6   3   26.20   12.70
  -6  -6   3  217.68   23.10
  -6  -6   3  223.18   16.40
  -5  -6   3   83.99   13.80
  -5  -6   3  122.89   11.30
  -4  -6   3  153.78   11.30
  -4  -6   3  174.98   17.30
  -3  -6   3  944.51   37.00
  -3  -6   3  946.21   44.10
  -3  -6   3  952.00   38.80
  -2  -6   3  438.36   19.80
  -2  -6   3  445.46   24.30
  -2  -6   3  439.76   24.20
  -1  -6   3 2855.51  106.29
  -1  -6   3 2764.32  105.99
  -1  -6   3 2846.82  110.09
   0  -6   3  724.53   32.80
   0  -6   3  713.33   32.00
   0  -6   3  709.43   28.90
   0  -6   3  714.63   29.80
   1  -6   3  376.96   16.60
   1  -6   3  392.06   18.80
   1  -6   3  381.16   20.30
   1  -6   3  370.56   17.80
   2  -6   3  138.29    9.00
   2  -6   3  150.38   11.50
   3  -6   3 1221.28   53.99
   3  -6   3 1376.66   50.59
   3  -6   3 1329.17   51.09
   4  -6   3  825.22   37.60
   4  -6   3  848.02   33.20
   4  -6   3  843.52   33.60
   5  -6   3  284.17   13.90
   5  -6   3  286.07   17.80
   5  -6   3  272.17   12.40
   6  -6   3  719.13   30.30
   6  -6   3  724.33   34.50
   7  -6   3 1996.60   81.99
  -8   6  -3  657.03   25.00
   8  -6   3  584.34   32.00
  -9   6  -3   24.50    4.20
   9  -6   3   21.20    8.10
 -10   6  -3  102.49   11.00
  10  -6   3  118.39   15.80
 -11   6  -3 1390.76   57.29
  11  -6   3 1333.27   62.79
 -12   6  -3  175.98   16.70
  12  -6   3  232.68   23.60
 -13   6  -3  425.06   27.40
  13  -6   3  523.15   35.00
  -8  -5   3    9.70   12.20
  -8  -5   3    1.40    8.70
  -7  -5   3   10.10    7.40
  -7  -5   3    3.70    9.60
  -6  -5   3 1319.17   60.29
  -6  -5   3 1260.67   53.09
  -5  -5   3   61.69    6.80
  -5  -5   3   55.29    7.30
  -5  -5   3   92.19   14.00
  -4  -5   3 2543.35  102.09
  -4  -5   3 2481.55   96.59
  -4  -5   3 2547.65   98.59
  -3  -5   3  235.78   16.90
  -3  -5   3  244.48   13.10
  -3  -5   3  236.48   12.00
  -3  -5   3  239.08   16.30
  -2  -5   3  256.77   12.70
  -2  -5   3  252.27   12.80
  -2  -5   3  247.58   15.80
  -1  -5   3  276.97   13.20
  -1  -5   3  266.57   13.20
  -1  -5   3  270.27   15.50
   0  -5   3  934.21   37.60
   0  -5   3  964.90   40.30
   0  -5   3  954.60   39.70
   0  -5   3  953.00   38.40
   1  -5   3   32.70    4.80
   1  -5   3   29.30    3.90
   1  -5   3   33.50    5.50
   2  -5   3 2499.05   97.59
   2  -5   3 2546.95   95.19
   3  -5   3  273.07   12.20
   3  -5   3  278.17   13.00
   3  -5   3  270.87   15.60
  -4   5  -3 3784.32  145.39
   4  -5   3 3672.83  144.89
   4  -5   3 3922.11  141.59
   5  -5   3  978.80   38.40
   5  -5   3  931.51   41.80
   6  -5   3  376.86   21.30
   6  -5   3  390.16   18.40
   7  -5   3  618.04   31.00
  -8   5  -3 1455.25   53.29
   8  -5   3 1334.27   60.29
  -9   5  -3  376.66   17.00
  -9   5  -3  345.47   19.10
   9  -5   3  359.96   23.50
 -10   5  -3   57.89    7.80
 -10   5  -3   58.29    8.40
  10  -5   3   50.19   11.40
 -11   5  -3  125.49   12.90
 -11   5  -3  106.99   11.00
  11  -5   3  120.49   18.00
 -12   5  -3  507.55   26.50
  12  -5   3  400.96   30.90
 -13   5  -3   -7.60    8.70
  13  -5   3   16.30   13.40
  -9  -4   3  629.14   40.80
  -9  -4   3  601.94   32.80
  -8  -4   3  193.08   23.20
  -8  -4   3  194.08   17.60
  -7  -4   3  289.57   24.60
  -6  -4   3  117.09    8.80
  -6  -4   3   96.19   16.40
  -6  -4   3  120.29   11.10
  -5  -4   3  365.26   17.20
  -5  -4   3  376.36   19.00
  -5  -4   3  376.36   24.00
  -4  -4   3   26.40    6.50
  -4  -4   3    0.40    3.40
  -4  -4   3    5.70    2.90
  -3  -4   3  307.47   15.30
  -3  -4   3  308.87   14.80
  -3  -4   3  326.47   16.80
  -2  -4   3  855.91   34.10
  -2  -4   3  839.22   33.90
  -2  -4   3  811.32   36.60
  -1  -4   3 3602.94  140.19
  -1  -4   3 3718.03  138.99
  -1  -4   3 3741.63  139.39
  -1  -4   3 3836.12  141.19
   0  -4   3 1263.27   50.79
   0  -4   3 1290.47   50.19
   0  -4   3 1282.17   50.59
   0  -4   3 1268.27   49.40
   1  -4   3 3365.36  129.29
   1  -4   3 3486.35  128.09
   2  -4   3   18.60    2.90
   2  -4   3   18.50    3.90
  -3   4  -3  468.05   22.80
   3  -4   3  457.45   22.30
   3  -4   3  485.95   20.20
  -4   4  -3 1288.47   53.29
   4  -4   3 1315.47   50.49
   4  -4   3 1276.57   52.99
  -5   4  -3   29.40    6.60
   5  -4   3   24.80    5.20
   5  -4   3   29.70    4.70
   6  -4   3  148.39   12.00
   6  -4   3  131.89    9.60
  -7   4  -3 2465.25   88.19
  -7   4  -3 2428.36   88.19
   7  -4   3 2201.18   94.39
  -8   4  -3   19.10    4.90
  -8   4  -3   17.50    3.40
  -8   4  -3   16.80    3.80
   8  -4   3   28.70    7.30
  -9   4  -3 2433.16   93.59
  -9   4  -3 2550.34   93.99
  -9   4  -3 2418.06   95.79
   9  -4   3 2436.96  100.19
 -10   4  -3  179.78   11.80
 -10   4  -3  155.68   16.20
  10  -4   3  149.59   17.80
 -11   4  -3   68.19   10.10
 -11   4  -3   60.59    8.30
  11  -4   3   55.39   12.70
 -12   4  -3  628.04   32.60
  12  -4   3  620.04   38.00
 -13   4  -3   62.09   11.90
  13  -4   3   70.89   16.60
 -10  -3   3  560.34   31.60
 -10  -3   3  480.85   37.90
  -9  -3   3   91.49   12.30
  -9  -3   3   78.09   15.70
  -8  -3   3 1412.06   56.29
  -8  -3   3 1422.26   59.19
  -7  -3   3  208.68   13.20
  -7  -3   3  195.18   14.60
   6   3  -3   30.50    5.60
  -6  -3   3   24.50    5.00
  -6  -3   3   13.50    6.00
  -6  -3   3   18.60    5.20
   5   3  -3 1440.66   53.99
  -5  -3   3 1365.36   55.09
  -5  -3   3 1360.26   53.99
  -5  -3   3 1324.47   53.99
   4   3  -3 2304.57   86.19
  -4  -3   3 2321.57   86.39
  -4  -3   3 2224.18   86.19
  -4  -3   3 2209.68   86.89
  -3  -3   3 1323.37   52.99
  -3  -3   3 1344.67   52.89
  -3  -3   3 1384.86   52.79
  -2  -3   3  282.97   13.60
  -2  -3   3  266.97   13.40
  -2  -3   3  278.97   13.40
  -1  -3   3  457.15   20.20
  -1  -3   3  474.95   20.10
  -1  -3   3  451.75   19.90
   0  -3   3 1714.13   64.59
   0  -3   3 1642.14   64.79
   1  -3   3  408.16   18.60
   1  -3   3  416.66   17.40
  -2   3  -3 1027.00   41.30
   2  -3   3  987.00   40.90
  -3   3  -3 1882.01   69.79
   3  -3   3 1727.13   67.49
   3  -3   3 1702.03   69.29
  -4   3  -3 3477.15  132.59
   4  -3   3 3362.96  132.59
   4  -3   3 3601.24  130.39
  -5   3  -3 2385.16   97.69
   5  -3   3 2524.05   98.19
   5  -3   3 2616.54   95.39
  -6   3  -3 1392.66   50.79
   6  -3   3 1302.87   56.39
  -7   3  -3  289.67   17.70
  -7   3  -3  332.77   16.80
  -7   3  -3  344.67   14.60
   7  -3   3  319.67   19.80
  -8   3  -3  271.67   14.00
  -8   3  -3  246.08   12.80
  -8   3  -3  246.08   14.80
   8  -3   3  236.08   18.00
  -9   3  -3  891.21   39.80
  -9   3  -3  901.91   38.20
  -9   3  -3  969.20   39.30
   9  -3   3  906.71   43.90
 -10   3  -3   98.49   12.00
 -10   3  -3  117.09   10.80
  10  -3   3  104.99   16.60
 -11   3  -3  113.59   13.00
 -11   3  -3  118.39   14.60
  11  -3   3  119.49   18.80
 -12   3  -3  308.47   22.50
  12  -3   3  350.76   28.00
 -13   3  -3  593.44   33.50
  13  -3   3  565.84   39.70
 -10  -2   3  143.29   17.60
  -9  -2   3   31.90    7.70
  -9  -2   3   36.90    8.70
  -8  -2   3  580.44   29.70
  -8  -2   3  618.34   27.90
   7   2  -3  158.98   12.40
  -7  -2   3  153.48   11.40
  -7  -2   3  152.08   12.00
  -7  -2   3  117.39   11.10
   6   2  -3  639.24   26.20
  -6  -2   3  561.74   24.80
  -6  -2   3  572.04   26.70
  -6  -2   3  570.04   26.00
   5   2  -3  653.03   27.50
  -5  -2   3  625.14   27.50
  -5  -2   3  629.24   26.40
  -5  -2   3  642.54   28.10
   4   2  -3  175.28   10.00
   4   2  -3  147.89   10.40
  -4  -2   3  142.49    9.40
  -4  -2   3  131.49    9.00
  -4  -2   3  142.39    8.10
   3   2  -3 2534.25   97.29
  -3  -2   3 2710.13   95.99
  -3  -2   3 2523.15   97.39
  -3  -2   3 2491.45   95.89
  -3  -2   3 2587.94   97.59
   2   2  -3   13.20    3.20
  -2  -2   3   14.10    2.40
  -2  -2   3   13.20    2.90
  -2  -2   3   14.20    2.90
  -1  -2   3  978.30   37.80
  -1  -2   3  957.00   38.60
  -1  -2   3  992.70   39.10
   0  -2   3 4072.19  146.19
   0  -2   3 3784.42  146.89
  -1   2  -3  690.83   28.30
   1  -2   3  686.73   26.80
   1  -2   3  658.23   28.30
   1  -2   3  683.43   28.10
  -2   2  -3 3775.12  147.49
   2  -2   3 4098.29  147.89
  -3   2  -3  454.75   20.40
   3  -2   3  417.66   20.20
   3  -2   3  417.96   18.80
  -4   2  -3   19.10    5.00
   4  -2   3   20.50    3.60
   4  -2   3   13.60    4.10
  -5   2  -3  276.07   16.50
  -5   2  -3  301.67   12.00
   5  -2   3  271.27   14.40
   5  -2   3  273.87   16.40
  -6   2  -3  858.41   33.90
   6  -2   3  859.31   38.80
  -7   2  -3  233.48   13.50
   7  -2   3  216.18   16.10
  -8   2  -3  425.46   21.20
  -8   2  -3  420.26   19.90
   8  -2   3  405.86   24.80
  -9   2  -3  358.26   20.10
  -9   2  -3  396.86   19.60
   9  -2   3  332.67   24.00
 -10   2  -3 1374.36   56.59
 -10   2  -3 1349.36   57.29
  10  -2   3 1347.07   62.49
 -11   2  -3  375.26   22.80
 -11   2  -3  348.17   22.20
  11  -2   3  359.36   27.50
 -12   2  -3   46.40   10.80
  12  -2   3   40.20   13.50
 -11  -1   3  143.39   15.50
 -10  -1   3   40.00    9.20
 -10  -1   3   26.40    8.80
  -9  -1   3  323.47   20.60
  -9  -1   3  334.77   19.50
  -8  -1   3 1727.63   69.19
  -8  -1   3 1742.33   70.09
   7   1  -3 1318.67   54.69
  -7  -1   3 1415.86   55.99
  -7  -1   3 1438.96   55.39
  -7  -1   3 1296.47   52.59
   6   1  -3 2105.69   81.69
  -6  -1   3 2099.39   79.29
  -6  -1   3 2179.88   82.69
  -6  -1   3 2085.59   81.99
   5   1  -3  357.86   17.70
  -5  -1   3  377.36   17.80
  -5  -1   3  365.16   17.80
   4   1  -3   34.00    4.80
  -4  -1   3   24.00    3.90
  -4  -1   3   25.10    4.00
   3   1  -3 3607.64  132.99
  -3  -1   3 3470.05  132.79
  -3  -1   3 3541.75  133.09
   2   1  -3  461.05   19.10
  -2  -1   3  423.06   16.30
  -2  -1   3  390.96   18.30
  -2  -1   3  395.66   18.60
  -1  -1   3  630.54   27.80
  -1  -1   3  698.93   28.40
  -1  -1   3  687.03   26.30
   0   1  -3  746.33   31.10
   0  -1   3  796.62   31.40
   0  -1   3  774.02   32.10
   0  -1   3  823.32   31.30
  -1   1  -3  787.02   32.30
   1  -1   3  806.32   32.50
   1  -1   3  797.72   32.80
   1  -1   3  809.12   31.00
  -2   1  -3  689.83   26.00
  -2   1  -3  680.13   28.70
   2  -1   3  673.73   25.90
   2  -1   3  666.03   28.70
  -3   1  -3 1029.30   41.60
  -3   1  -3 1034.30   38.20
   3  -1   3 1015.30   40.30
   3  -1   3  965.50   41.60
  -4   1  -3  463.45   18.90
  -4   1  -3  460.35   22.50
   4  -1   3  473.75   22.80
   4  -1   3  474.65   20.80
  -5   1  -3 4018.40  139.49
  -5   1  -3 3558.84  142.69
   5  -1   3 3692.23  140.69
   5  -1   3 3704.13  143.49
  -6   1  -3  258.47   16.30
  -6   1  -3  272.67   14.40
   6  -1   3  270.97   17.30
  -7   1  -3 2961.60  114.69
  -7   1  -3 3191.88  114.19
   7  -1   3 2825.42  117.99
  -8   1  -3   28.80    5.90
  -8   1  -3   30.50    5.60
   8  -1   3   30.00    8.10
  -9   1  -3    6.10    5.30
  -9   1  -3    6.30    7.60
 -10   1  -3  297.47   19.00
 -10   1  -3  308.87   19.40
  10  -1   3  220.08   23.20
 -11   1  -3  186.58   18.00
 -11   1  -3  185.68   17.70
  11  -1   3  193.18   23.20
 -12   1  -3  273.77   22.60
  12  -1   3  257.17   28.10
 -11   0   3  306.07   22.70
 -11   0   3  336.37   23.40
 -10   0   3 1265.07   54.79
 -10   0   3 1271.77   53.99
  -9   0   3  155.88   14.10
  -9   0   3  176.88   14.20
  -8   0   3   33.00    6.50
  -8   0   3   34.20    6.60
  -7   0   3  182.28   12.20
  -7   0   3  164.78   12.20
   6   0  -3  634.84   29.80
  -6   0   3  721.63   30.40
  -6   0   3  715.33   30.30
   5   0  -3  963.20   39.40
  -5   0   3  965.30   39.60
  -5   0   3  948.51   39.20
   4   0  -3 1244.98   51.09
  -4   0   3 1285.57   51.39
  -4   0   3 1271.97   50.99
  -4   0   3 1375.66   54.09
   3   0  -3 1837.82   67.89
  -3   0   3 1674.43   67.29
  -3   0   3 1731.23   67.99
  -3   0   3 1767.62   69.39
   2   0  -3 4110.59  153.58
  -2   0   3 3977.50  153.58
  -2   0   3 4391.26  154.58
  -2   0   3 3953.20  152.98
   1   0  -3  771.42   29.80
   1   0  -3  764.82   31.80
  -1   0   3  778.62   29.90
  -1   0   3  725.23   31.50
  -1   0   3  814.52   31.80
   0   0  -3    1.90    1.70
   0   0   3    2.30    2.20
   0   0   3    1.00    1.70
  -1   0  -3  740.53   30.20
  -1   0  -3  784.52   31.40
   1   0   3  765.62   31.50
   1   0   3  790.82   30.30
   1   0   3  754.22   31.40
  -2   0  -3 3847.31  147.49
  -2   0  -3 3676.73  145.49
   2   0   3 3759.92  147.69
   2   0   3 4046.90  145.59
   2   0   3 4090.69  147.39
   2   0   3 4176.48  146.69
  -3   0  -3 1877.71   67.99
  -3   0  -3 1898.01   70.69
   3   0   3 1614.14   70.29
   3   0   3 1775.02   67.89
   3   0   3 1810.82   68.99
  -4   0  -3 1300.97   50.09
  -4   0  -3 1214.78   52.59
   4   0   3 1322.47   53.39
   4   0   3 1321.57   50.99
  -5   0  -3 1033.10   40.70
   5   0   3  983.80   44.10
  -6   0  -3  656.63   29.00
  -6   0  -3  643.44   28.60
   6   0   3  689.33   32.50
  -7   0  -3  174.08   12.10
  -7   0  -3  180.98   12.00
   7   0   3  156.18   15.00
  -8   0  -3   35.10    6.80
  -8   0  -3   38.50    7.00
   8   0   3   17.50    8.00
  -9   0  -3  192.28   15.10
  -9   0  -3  188.08   14.80
   9   0   3  153.88   19.20
 -10   0  -3 1281.67   55.89
 -10   0  -3 1317.07   56.79
  10   0   3 1298.47   61.39
 -11   0  -3  326.17   23.70
 -11   0  -3  295.37   22.60
  11   0   3  308.47   28.10
 -12   1   3  252.87   22.50
 -12   1   3  266.17   23.80
 -11   1   3  180.98   17.30
 -11   1   3  183.58   18.60
 -10   1   3  250.87   17.90
 -10   1   3  238.88   17.90
  -9   1   3   11.80    6.00
  -8   1   3   28.50    6.10
  -8   1   3   25.70    5.40
  -8   1   3   30.70    4.30
  -7   1   3 2879.41  110.79
  -7   1   3 2891.21  111.09
   6  -1  -3  276.17   15.30
  -6   1   3  259.37   14.80
  -6   1   3  259.97   14.20
   5  -1  -3 3893.61  142.89
   5  -1  -3 3685.33  142.39
  -5   1   3 3768.12  142.49
  -5   1   3 3790.72  145.49
  -5   1   3 3806.62  142.99
   4  -1  -3  459.35   21.20
  -4   1   3  461.35   20.70
  -4   1   3  480.05   23.30
  -4   1   3  469.65   21.30
   3  -1  -3 1004.40   40.30
  -3   1   3 1023.60   41.70
  -3   1   3 1016.90   40.60
  -3   1   3  948.71   39.70
   2  -1  -3  699.53   25.60
   2  -1  -3  672.93   28.20
  -2   1   3  653.73   27.50
  -2   1   3  684.83   28.80
  -2   1   3  627.74   28.00
   1  -1  -3  775.82   32.30
   1  -1  -3  747.03   32.20
   1  -1  -3  771.32   30.70
  -1   1   3  819.72   31.00
  -1   1   3  805.22   32.30
  -1   1   3  790.82   32.30
   0  -1  -3  776.52   31.50
   0  -1  -3  756.22   31.70
   0   1   3  799.52   31.80
   0   1   3  801.92   32.20
   0   1   3  793.42   31.70
  -1  -1  -3  672.43   27.20
  -1  -1  -3  687.43   28.10
   1   1   3  673.43   27.30
   1   1   3  640.84   27.60
   1   1   3  644.74   28.00
  -2  -1  -3  469.35   19.20
  -2  -1  -3  479.85   20.80
   2   1   3  431.86   19.20
   2   1   3  428.56   19.10
   2   1   3  407.86   20.40
   2   1   3  409.56   19.40
  -3  -1  -3 3532.45  133.69
  -3  -1  -3 3261.57  133.09
   3   1   3 3671.13  131.89
   3   1   3 3523.25  132.09
   3   1   3 3479.05  134.09
   3   1   3 3608.34  131.79
  -4  -1  -3   19.70    3.90
  -4  -1  -3   28.70    6.10
   4   1   3   32.10    5.80
  -5  -1  -3  363.56   18.30
   5   1   3  383.76   21.30
  -6  -1  -3 2101.39   83.19
  -6  -1  -3 2210.68   83.99
   6   1   3 2104.89   87.09
  -7  -1  -3 1405.06   56.99
  -7  -1  -3 1403.16   57.69
   7   1   3 1380.06   60.99
  -8  -1  -3 1724.73   69.79
  -8  -1  -3 1668.63   68.79
  -9  -1  -3  360.26   22.40
  -9  -1  -3  360.26   21.90
   9   1   3  374.26   27.10
 -10  -1  -3   28.60    8.90
  10   1   3   14.20   11.60
 -11  -1  -3  171.18   20.40
 -11  -1  -3  141.69   18.90
  11   1   3  132.89   20.40
 -12   2   3   43.10   11.30
 -12   2   3   39.80   10.50
 -11   2   3  287.77   25.20
 -11   2   3  347.67   21.60
 -10   2   3 1361.96   58.99
 -10   2   3 1429.96   58.69
  -9   2   3  359.56   20.30
  -9   2   3  314.97   18.50
  -8   2   3  405.66   22.00
  -8   2   3  448.96   21.70
  -7   2   3  226.98   14.50
  -7   2   3  251.87   14.00
   6  -2  -3  873.21   37.90
  -6   2   3  841.72   35.50
  -6   2   3  836.72   36.20
   5  -2  -3  309.87   15.80
   5  -2  -3  262.47   14.70
  -5   2   3  290.27   14.50
  -5   2   3  297.47   17.90
  -5   2   3  272.57   15.00
   4  -2  -3   20.40    3.90
  -4   2   3   15.60    3.20
  -4   2   3   17.90    4.90
  -4   2   3   12.70    3.40
   3  -2  -3  443.66   21.20
   3  -2  -3  456.65   20.20
   3  -2  -3  474.25   17.40
  -3   2   3  409.16   20.80
  -3   2   3  423.96   19.20
  -3   2   3  412.46   19.90
   2  -2  -3 3793.52  146.49
   2  -2  -3 3944.51  144.79
   2  -2  -3 3816.82  147.39
  -2   2   3 3930.11  146.69
  -2   2   3 4075.49  147.39
   1  -2  -3  645.64   28.20
   1  -2  -3  674.03   28.50
   1  -2  -3  693.43   27.40
  -1   2   3  673.93   28.50
  -1   2   3  686.43   27.60
  -1   2   3  647.94   28.00
   0  -2  -3 3813.92  147.49
   0  -2  -3 4001.60  147.59
   0  -2  -3 3707.83  147.89
   0   2   3 4081.79  147.89
   0   2   3 3917.11  147.49
   0   2   3 4135.29  147.79
  -1  -2  -3 1051.29   40.70
  -1  -2  -3 1037.40   41.30
   1   2   3  958.10   41.10
   1   2   3 1023.30   40.60
   1   2   3  961.60   40.10
  -2  -2  -3   18.00    4.70
  -2  -2  -3   15.20    3.20
   2   2   3   13.00    3.90
   2   2   3   20.50    4.10
   2   2   3   12.20    3.10
   2   2   3   10.90    2.90
  -3  -2  -3 2427.66   98.99
  -3  -2  -3 2505.05  100.79
   3   2   3 2749.12   98.69
   3   2   3 2668.53   98.49
   3   2   3 2589.74   99.19
   3   2   3 2625.94  101.39
  -4  -2  -3  186.08   11.30
   4   2   3  133.59   12.30
   4   2   3  155.28    9.90
  -5  -2  -3  647.84   29.50
   5   2   3  652.53   28.20
   5   2   3  650.33   32.20
  -6  -2  -3  669.63   30.50
   6   2   3  605.14   32.80
  -7  -2  -3  179.08   13.00
  -7  -2  -3  164.98   13.90
   7   2   3  151.18   16.40
  -8  -2  -3  616.64   30.30
  -8  -2  -3  633.04   32.10
   8   2   3  631.74   35.80
  -9  -2  -3   34.20   10.80
  -9  -2  -3   42.90    8.80
   9   2   3   43.40   12.70
 -10  -2  -3  117.79   18.70
 -10  -2  -3  120.59   13.80
  10   2   3  168.08   23.20
 -13   3   3  582.64   33.60
 -13   3   3  599.64   36.30
 -12   3   3  308.67   23.60
 -12   3   3  330.67   22.30
 -11   3   3  106.19   14.80
 -11   3   3   90.79   11.00
  10  -3  -3  103.29    8.10
 -10   3   3  103.49   13.10
 -10   3   3   95.59   11.50
   9  -3  -3  904.21   36.50
  -9   3   3  946.71   40.40
  -9   3   3  937.01   41.50
   8  -3  -3  252.97   11.50
  -8   3   3  271.37   15.20
  -8   3   3  222.78   15.50
   7  -3  -3  326.67   13.60
  -7   3   3  328.07   16.70
  -7   3   3  319.37   17.80
   6  -3  -3 1348.97   50.09
  -6   3   3 1317.47   52.89
  -6   3   3 1329.37   54.09
   5  -3  -3 2551.14   94.69
   5  -3  -3 2434.06   97.99
  -5   3   3 2555.94   98.19
  -5   3   3 2603.84  100.39
  -5   3   3 2622.14   97.29
   4  -3  -3 3706.13  128.99
   4  -3  -3 3501.05  131.49
   4  -3  -3 3339.47  133.09
  -4   3   3 3333.47  130.29
  -4   3   3 3638.94  133.19
  -4   3   3 3345.27  131.29
   3  -3  -3 1796.02   70.29
   3  -3  -3 1871.51   67.89
   3  -3  -3 1848.92   68.99
  -3   3   3 1615.24   68.59
  -3   3   3 1755.02   69.99
  -3   3   3 1727.83   67.79
   2  -3  -3 1029.50   42.50
   2  -3  -3 1062.19   40.60
   2  -3  -3 1040.50   41.50
  -2   3   3 1004.30   42.20
  -2   3   3  983.70   41.30
   1  -3  -3  451.95   20.90
   1  -3  -3  491.25   20.40
   1  -3  -3  444.66   20.10
  -1   3   3  408.36   19.70
  -1   3   3  417.56   20.60
   0  -3  -3 1847.92   69.59
   0  -3  -3 1867.11   68.79
   0  -3  -3 1864.61   69.39
   0   3   3 1617.84   68.09
   0   3   3 1730.53   69.29
   0   3   3 1711.13   69.29
  -1  -3  -3  454.55   21.60
  -1  -3  -3  483.85   22.60
   1   3   3  490.75   20.40
   1   3   3  453.85   22.20
   1   3   3  460.55   21.70
   1   3   3  456.25   20.50
  -2  -3  -3  285.47   16.70
  -2  -3  -3  298.87   15.30
   2   3   3  269.07   15.90
   2   3   3  263.67   13.70
   2   3   3  275.57   15.40
   2   3   3  268.57   13.50
  -3  -3  -3 1337.27   53.99
   3   3   3 1306.77   51.89
   3   3   3 1302.77   54.09
   3   3   3 1314.47   55.49
   3   3   3 1342.17   52.19
  -4  -3  -3 2380.16   91.19
   4   3   3 2242.18   92.69
   4   3   3 2321.17   88.59
  -5  -3  -3 1379.86   57.39
   5   3   3 1353.26   59.69
   5   3   3 1396.66   54.59
  -6  -3  -3   21.90    6.40
   6   3   3   26.30    8.30
   6   3   3   29.50    5.40
  -7  -3  -3  202.28   16.80
   7   3   3  216.48   13.60
   7   3   3  212.08   20.30
  -8  -3  -3 1547.55   70.49
   8   3   3 1476.05   68.89
   8   3   3 1521.25   60.69
  -9  -3  -3   94.19   14.00
   9   3   3   94.89   15.60
 -10  -3  -3  559.14   34.90
  10   3   3  545.35   39.20
 -13   4   3   77.09   14.20
 -13   4   3   80.39   12.60
 -12   4   3  615.94   31.50
 -12   4   3  564.24   32.80
 -11   4   3   53.89   10.30
 -11   4   3   43.50    8.10
  10  -4  -3  154.68   10.70
 -10   4   3  157.48   15.20
 -10   4   3  168.08   13.30
   9  -4  -3 2311.27   92.69
  -9   4   3 2603.04   96.29
  -9   4   3 2483.85   97.59
  -8   4   3    4.20    3.50
  -8   4   3    6.50    4.60
   7  -4  -3 2439.36   87.59
  -7   4   3 2270.87   89.49
  -7   4   3 2262.67   91.09
   6  -4  -3  180.98    8.70
  -6   4   3  150.48    9.70
  -6   4   3  133.69   10.90
   5  -4  -3   16.80    4.50
   5  -4  -3   22.60    5.60
   5  -4  -3   21.80    3.60
  -5   4   3   27.10    6.30
  -5   4   3   22.60    4.30
   4  -4  -3 1243.58   51.59
   4  -4  -3 1369.56   50.19
   4  -4  -3 1226.78   53.19
  -4   4   3 1274.47   53.29
  -4   4   3 1307.47   50.29
  -4   4   3 1265.17   51.49
   3  -4  -3  493.95   21.20
   3  -4  -3  448.86   21.80
   3  -4  -3  462.55   23.10
  -3   4   3  492.05   20.70
  -3   4   3  478.65   23.30
  -3   4   3  486.55   21.90
   2  -4  -3   19.80    4.20
   2  -4  -3   21.10    4.20
   2  -4  -3   14.80    3.80
  -2   4   3   14.60    4.10
  -2   4   3   11.50    3.00
   1  -4  -3 3525.85  133.79
   1  -4  -3 3401.86  131.99
   1  -4  -3 3592.94  132.89
  -1   4   3 3574.94  133.59
  -1   4   3 3437.66  131.79
   0  -4  -3 1262.87   52.69
   0  -4  -3 1315.77   52.99
   0  -4  -3 1273.47   51.19
   0   4   3 1339.27   51.09
   0   4   3 1270.77   52.59
  -1  -4  -3 3882.51  147.99
  -1  -4  -3 3959.70  148.49
   1   4   3 3972.60  145.39
   1   4   3 3895.91  147.99
   1   4   3 3748.82  145.49
  -2  -4  -3  839.22   36.90
   2   4   3  873.51   34.60
   2   4   3  807.02   37.10
   2   4   3  874.01   34.50
   2   4   3  814.32   37.90
  -3  -4  -3  304.67   18.10
   3   4   3  326.57   15.40
   3   4   3  306.97   19.20
   3   4   3  328.57   16.30
  -4  -4  -3   19.30    5.60
   4   4   3   13.10    6.60
  -5  -4  -3  409.36   22.80
   5   4   3  354.36   23.60
   5   4   3  369.96   17.90
  -6  -4  -3   97.89   13.20
   6   4   3  123.69    9.20
   6   4   3   97.69   15.40
   7   4   3  278.47   24.20
   7   4   3  314.37   16.20
  -8  -4  -3  180.28   19.10
   8   4   3  178.38   23.00
  -9  -4  -3  666.13   38.10
 -13   5   3   -3.50    8.70
 -13   5   3    0.10   10.40
 -12   5   3  433.06   25.20
 -12   5   3  436.66   27.50
 -11   5   3   97.09   12.30
 -11   5   3  104.19   14.80
  10  -5  -3   51.89    7.40
 -10   5   3   50.69    9.80
 -10   5   3   42.30    9.80
   9  -5  -3  359.06   17.10
  -9   5   3  359.16   21.10
  -9   5   3  360.16   19.20
   8  -5  -3 1427.06   54.09
  -8   5   3 1315.37   57.29
  -8   5   3 1391.16   55.69
   7  -5  -3  626.84   26.90
  -7   5   3  584.04   26.40
  -7   5   3  590.44   28.30
   6  -5  -3  334.57   20.60
   6  -5  -3  351.76   16.90
  -6   5   3  348.27   18.80
  -6   5   3  396.76   17.40
   5  -5  -3  973.50   43.20
  -5   5   3  987.80   39.20
  -5   5   3  955.30   40.90
   4  -5  -3 4180.68  146.09
   4  -5  -3 3804.22  148.59
   4  -5  -3 3934.81  146.69
  -4   5   3 3734.43  148.09
  -4   5   3 3737.03  146.29
  -4   5   3 3859.41  144.79
   3  -5  -3  278.37   16.50
   3  -5  -3  280.07   15.40
   3  -5  -3  299.57   15.40
  -3   5   3  264.67   16.70
  -3   5   3  295.67   13.60
  -3   5   3  259.57   14.50
   2  -5  -3 2430.16   98.09
   2  -5  -3 2588.24   97.19
   2  -5  -3 2393.66   95.99
  -2   5   3 2514.95   98.09
  -2   5   3 2638.04   96.29
   1  -5  -3   22.10    4.50
   1  -5  -3   19.30    5.10
   1  -5  -3   33.20    5.90
  -1   5   3   30.30    4.50
  -1   5   3   22.60    6.00
   0  -5  -3  988.20   42.70
   0  -5  -3  997.10   40.40
   0  -5  -3 1006.60   43.20
   0   5   3 1017.30   39.40
   0   5   3  984.80   40.00
   0   5   3  935.61   42.50
  -1  -5  -3  266.27   16.20
   1   5   3  265.37   13.50
   1   5   3  273.47   13.60
  -2  -5  -3  248.48   16.00
   2   5   3  255.27   12.90
   2   5   3  244.58   13.60
  -3  -5  -3  239.48   16.70
   3   5   3  255.57   13.00
  -4  -5  -3 2371.66   99.19
   4   5   3 2585.94   94.19
  -5  -5  -3   58.89   10.20
   5   5   3   52.49    7.20
  -6  -5  -3 1406.76   62.99
  -7  -5  -3   13.20    9.20
  -8  -5  -3   -1.40   10.90
 -13   6   3  507.55   32.00
 -13   6   3  512.15   28.90
 -12   6   3  205.78   16.80
 -12   6   3  179.68   19.30
  11  -6  -3 1335.27   53.39
 -11   6   3 1270.77   57.69
 -11   6   3 1331.97   55.39
  10  -6  -3   91.49    9.80
 -10   6   3  116.79   11.10
 -10   6   3  103.49   13.40
   9  -6  -3   25.60    5.40
  -9   6   3   22.60    6.70
  -9   6   3   36.70    6.10
   8  -6  -3  672.93   27.60
  -8   6   3  564.24   29.30
  -8   6   3  598.94   27.50
   7  -6  -3 2110.49   80.19
   7  -6  -3 2079.89   85.29
  -7   6   3 2013.40   81.99
  -7   6   3 2048.40   79.69
   6  -6  -3  611.84   32.50
   6  -6  -3  667.33   29.70
  -6   6   3  686.43   30.60
  -6   6   3  711.33   28.50
   5  -6  -3  294.77   18.10
  -5   6   3  265.97   15.70
  -5   6   3  275.47   13.70
   4  -6  -3  832.52   39.00
   4  -6  -3  894.71   39.20
  -4   6   3  835.02   36.60
  -4   6   3  882.51   34.80
   3  -6  -3 1276.37   53.69
   3  -6  -3 1367.46   54.99
   3  -6  -3 1283.47   56.09
  -3   6   3 1361.46   53.49
  -3   6   3 1379.96   51.89
   2  -6  -3  177.28   13.20
   2  -6  -3  182.88   12.00
   2  -6  -3  191.68   13.90
  -2   6   3  135.69   10.00
   1  -6  -3  367.16   20.60
   1  -6  -3  326.87   18.10
  -1   6   3  392.86   16.80
  -1   6   3  371.76   17.40
   0  -6  -3  623.94   32.00
   0  -6  -3  626.94   29.10
   0   6   3  734.93   28.90
   0   6   3  728.93   28.40
  -1  -6  -3 2961.40  116.09
   1   6   3 2947.71  111.49
   1   6   3 2957.60  111.29
  -2  -6  -3  421.56   24.10
   2   6   3  428.26   20.00
   2   6   3  440.16   19.40
  -3  -6  -3  857.41   42.30
   3   6   3  960.40   36.80
  -4  -6  -3  175.68   16.70
   4   6   3  167.08    9.90
  -5  -6  -3  125.59   16.00
  -6  -6  -3  208.28   20.70
  -7  -6  -3   33.70   11.60
 -13   7   3   32.80    9.50
 -13   7   3   41.80   11.80
 -12   7   3    6.90    8.30
 -12   7   3   10.10    6.60
  11  -7  -3  312.87   18.50
 -11   7   3  280.37   21.30
 -11   7   3  307.57   18.70
  10  -7  -3  193.38   13.80
 -10   7   3  192.48   16.90
 -10   7   3  200.38   13.90
   9  -7  -3  176.88   12.70
  -9   7   3  154.08   14.40
  -9   7   3  162.98   11.90
   8  -7  -3 1380.76   56.79
   8  -7  -3 1310.87   61.69
  -8   7   3 1478.15   56.19
  -8   7   3 1426.16   58.79
   7  -7  -3  186.58   12.70
   7  -7  -3  169.68   16.00
  -7   7   3  166.78   13.20
  -7   7   3  170.48   10.60
   6  -7  -3 2983.10  114.49
  -6   7   3 2873.31  108.19
  -6   7   3 2732.63  110.69
   5  -7  -3  249.28   17.50
  -5   7   3  255.87   12.70
  -5   7   3  237.78   14.70
   4  -7  -3  306.77   19.40
   4  -7  -3  324.57   19.20
  -4   7   3  324.87   14.90
  -4   7   3  315.97   17.00
   3  -7  -3 2269.47   91.89
   3  -7  -3 2254.67   88.79
  -3   7   3 2320.87   88.49
  -3   7   3 2294.37   86.49
   2  -7  -3  643.44   31.70
   2  -7  -3  648.14   28.80
  -2   7   3  614.74   27.50
   1  -7  -3 2008.60   82.09
   1  -7  -3 2109.39   86.19
  -1   7   3 2224.88   80.69
  -1   7   3 2142.19   81.59
   0  -7  -3  171.18   14.70
   0   7   3  178.88   10.60
   0   7   3  182.18   10.60
  -1  -7  -3   26.50    7.30
   1   7   3   31.00    4.50
   1   7   3   34.90    5.60
  -2  -7  -3  348.77   22.40
   2   7   3  328.87   15.50
   3   7   3   92.39    7.00
  -4  -7  -3   56.69   11.70
  -5  -7  -3  480.85   31.00
  -6  -7  -3  453.95   31.90
 -13   8   3    0.60    7.70
 -13   8   3   -0.30   10.20
 -12   8   3  193.28   16.10
 -12   8   3  172.78   19.50
  11  -8  -3 1556.84   62.19
 -11   8   3 1472.65   61.49
 -11   8   3 1463.55   64.99
  10  -8  -3  636.34   30.10
 -10   8   3  622.64   28.90
 -10   8   3  603.24   32.20
   9  -8  -3 1766.32   72.39
  -9   8   3 1817.32   70.79
   8  -8  -3   29.50    8.60
   8  -8  -3   38.20    7.00
  -8   8   3   30.70    7.30
  -8   8   3   32.40    5.40
   7  -8  -3   35.00    9.00
   7  -8  -3   34.50    7.20
  -7   8   3   25.70    4.60
  -7   8   3   21.20    5.90
   6  -8  -3  388.46   24.60
  -6   8   3  421.26   22.10
  -6   8   3  433.16   19.00
   5  -8  -3  242.98   18.20
  -5   8   3  248.18   12.60
  -5   8   3  242.28   15.00
   4  -8  -3   35.60    8.20
  -4   8   3   14.70    3.40
  -4   8   3    4.70    3.70
   3  -8  -3 1361.46   58.79
  -3   8   3 1323.17   51.69
  -3   8   3 1329.67   53.89
   2  -8  -3  643.84   28.90
   2  -8  -3  681.03   32.90
  -2   8   3  645.24   26.20
  -2   8   3  572.54   27.30
  -2   8   3  596.14   25.80
   1  -8  -3 1287.77   56.29
   1  -8  -3 1384.26   61.19
  -1   8   3 1503.45   54.49
  -1   8   3 1442.36   55.59
   0  -8  -3   25.50    7.90
   0   8   3   24.90    4.50
   0   8   3   28.90    5.30
  -1  -8  -3   10.10    7.30
   1   8   3    7.70    3.50
  -2  -8  -3 1375.96   61.89
   2   8   3 1372.46   54.19
  -3  -8  -3  108.69   17.00
  -4  -8  -3  620.24   36.60
  -5  -8  -3    6.10   10.80
 -13   9   3  716.23   34.60
 -13   9   3  653.23   38.30
 -12   9   3   82.69   13.70
 -12   9   3   91.19   10.80
  11  -9  -3   46.50    9.90
 -11   9   3   52.69    8.20
 -11   9   3   30.10    8.90
  10  -9  -3  380.56   21.80
 -10   9   3  340.47   23.00
 -10   9   3  333.97   19.00
   9  -9  -3  152.08   14.30
   9  -9  -3  181.28   19.20
  -9   9   3  165.08   16.00
  -9   9   3  175.58   12.00
   8  -9  -3   10.10    6.70
  -8   9   3    4.30    5.60
  -8   9   3   12.30    4.30
   7  -9  -3  340.97   21.30
   7  -9  -3  350.26   23.60
  -7   9   3  320.77   19.60
  -7   9   3  320.67   16.20
   6  -9  -3  944.81   45.20
  -6   9   3  904.31   40.70
  -6   9   3  934.51   37.30
   5  -9  -3 2293.67   98.79
  -5   9   3 2556.64   95.09
  -5   9   3 2412.36   91.29
   4  -9  -3  372.66   23.90
  -4   9   3  373.76   19.60
  -4   9   3  361.06   16.30
   3  -9  -3   17.30    7.60
  -3   9   3   21.90    5.10
  -3   9   3   26.20    3.60
  -3   9   3   25.10    4.30
   2  -9  -3  169.68   16.40
   2  -9  -3  158.98   14.80
  -2   9   3  162.68   11.20
  -2   9   3  176.08   12.00
  -2   9   3  165.28    9.20
  -1   9   3 1785.02   69.29
   0  -9  -3  190.88   18.30
   0   9   3  169.38   10.70
  -1  -9  -3  267.37   22.20
  -2  -9  -3  354.66   26.70
  -3  -9  -3  279.07   25.00
  -4  -9  -3   76.49   16.00
 -13  10   3  560.94   34.60
 -13  10   3  531.95   29.30
 -12  10   3  149.69   19.50
 -12  10   3  124.69   14.50
  11 -10  -3   42.50   10.70
 -11  10   3   34.00    9.80
 -11  10   3   39.20   11.00
  10 -10  -3 1289.17   61.69
  10 -10  -3 1298.37   55.99
 -10  10   3 1235.68   51.49
 -10  10   3 1222.38   56.19
   9 -10  -3  294.77   20.50
   9 -10  -3  300.17   24.90
  -9  10   3  236.18   19.30
  -9  10   3  242.28   14.90
   8 -10  -3 1357.46   59.89
   8 -10  -3 1297.57   62.79
  -8  10   3 1415.56   54.19
  -8  10   3 1392.56   58.69
   7 -10  -3  100.59   16.20
  -7  10   3   99.09   12.30
  -7  10   3  108.39    8.20
   6 -10  -3  178.78   18.70
  -6  10   3  174.28   10.00
  -6  10   3  169.88   13.90
   5 -10  -3   52.49   10.80
  -5  10   3   58.39    5.90
  -5  10   3   56.29    8.10
   4 -10  -3  101.99   15.30
  -4  10   3  127.79    7.50
  -4  10   3  110.19   10.90
   3 -10  -3  200.68   19.10
  -3  10   3  209.28   10.20
  -3  10   3  191.08   13.20
   2 -10  -3  615.94   35.40
  -2  10   3  671.33   26.00
  -2  10   3  623.04   28.10
   1 -10  -3  347.67   25.30
  -1  10   3  314.87   16.30
   0 -10  -3 1261.67   59.89
  -1 -10  -3  185.18   21.70
  -2 -10  -3   29.20   11.50
  -3 -10  -3  515.55   36.50
  12 -11  -3  176.78   23.90
 -12  11   3  107.89   15.20
 -12  11   3  145.19   15.10
  11 -11  -3  325.97   23.70
 -11  11   3  260.97   19.30
 -11  11   3  254.27   22.60
  10 -11  -3  158.68   23.10
 -10  11   3  178.78   13.20
 -10  11   3  201.08   18.70
   9 -11  -3  352.46   28.50
  -9  11   3  373.36   18.40
  -9  11   3  355.06   23.60
   8 -11  -3  116.69   17.10
  -8  11   3  125.99   14.50
  -8  11   3  105.89    9.00
   7 -11  -3   80.39   14.60
  -7  11   3   49.90   10.60
  -7  11   3   46.20    5.30
   6 -11  -3   83.69   13.40
  -6  11   3  100.79   12.50
   5 -11  -3 1376.26   63.39
  -5  11   3 1338.77   56.39
   4 -11  -3  317.97   24.70
  -4  11   3  303.87   18.00
   3 -11  -3 1571.24   69.09
  -3  11   3 1442.46   60.09
   2 -11  -3   46.70   12.00
   1 -11  -3   47.20   12.30
   0 -11  -3  300.67   27.00
  -1 -11  -3  231.28   26.70
  11 -12  -3  209.78   23.80
  11 -12  -3  244.58   29.20
 -11  12   3  258.77   23.20
  10 -12  -3   33.90   11.50
  10 -12  -3   36.40   14.60
 -10  12   3   43.80   10.60
   9 -12  -3  301.07   28.40
   9 -12  -3  311.97   25.60
  -9  12   3  311.37   22.50
   8 -12  -3  604.24   38.50
   8 -12  -3  615.74   36.50
  -8  12   3  614.34   31.90
   7 -12  -3  467.25   32.20
  -7  12   3  433.86   25.40
   6 -12  -3  192.88   22.30
   5 -12  -3    2.40   10.10
  -5  12   3    3.60    6.70
   4 -12  -3  197.28   22.30
  -4  12   3  178.68   14.50
   3 -12  -3   81.49   14.90
   2 -12  -3  130.49   18.50
   1 -12  -3  166.58   24.10
  10 -13  -3  519.25   39.50
  10 -13  -3  566.24   35.40
 -10  13   3  531.35   32.50
   9 -13  -3   88.49   16.30
   9 -13  -3   83.39   18.30
  -9  13   3   99.29   13.70
   8 -13  -3   21.50   12.30
   8 -13  -3   -3.20   12.70
  -8  13   3   21.40    9.50
   7 -13  -3  451.95   35.70
  -7  13   3  535.15   28.60
   6 -13  -3   41.10   13.80
  -6  13   3   22.30    8.70
   5 -13  -3   12.00   12.10
   4 -13  -3  662.73   42.10
   3 -13  -3  549.85   38.80
   2 -12   4  383.86   30.00
   2 -12   4  345.97   32.50
   3 -12   4   16.90   11.90
   3 -12   4   22.30   14.20
   4 -12   4    4.70   12.50
   5 -12   4  299.67   28.00
   6 -12   4   92.69   16.40
   7 -12   4  149.09   23.30
   8 -12   4  103.09   18.40
   9 -12   4   98.59   18.10
  10 -12   4 1603.44   76.99
   0 -11   4   61.19   14.70
   0 -11   4   67.49   16.90
   1 -11   4  343.27   29.00
   1 -11   4  323.87   26.30
   2 -11   4  702.13   40.40
   3 -11   4  364.36   28.10
   3 -11   4  355.56   21.50
   3 -11   4  365.36   24.30
   4 -11   4   52.39   10.80
   4 -11   4   70.99   14.00
   5 -11   4  482.55   26.30
   5 -11   4  498.45   32.60
   6 -11   4  286.07   25.40
   7 -11   4  748.63   42.20
   8 -11   4   67.49   14.70
   9 -11   4   27.30   13.00
  10 -11   4   31.30   14.10
  11 -11   4   80.49   17.60
  -2 -10   4 1622.84   74.69
  -2 -10   4 1661.23   74.69
  -1 -10   4   54.49   14.60
  -1 -10   4   51.09   13.20
   0 -10   4  139.69   21.30
   0 -10   4  177.18   19.40
   1 -10   4   90.09   13.30
   1 -10   4  100.39   15.00
   2 -10   4  241.88   22.10
   2 -10   4  234.48   16.60
   2 -10   4  242.88   19.40
   3 -10   4   77.79   10.90
   3 -10   4   59.99    9.20
   3 -10   4   72.19   12.80
   4 -10   4    8.70    3.90
   4 -10   4    8.10    6.80
   4 -10   4    1.10    8.60
   5 -10   4   97.69   11.70
   5 -10   4  125.49   18.00
   5 -10   4  102.59    8.80
   6 -10   4 1259.17   50.79
   6 -10   4 1248.88   58.09
   7 -10   4  267.47   24.00
   8 -10   4  239.88   23.80
   9 -10   4  221.68   23.40
  10 -10   4  177.08   23.00
  11 -10   4  309.97   29.40
  12 -10   4  378.66   34.00
  -3  -9   4  115.69   17.40
  -3  -9   4   97.19   17.50
  -2  -9   4    6.70   11.10
  -2  -9   4   18.20   10.80
  -1  -9   4  198.78   21.10
  -1  -9   4  208.58   20.10
   0  -9   4   14.60    9.20
   0  -9   4   -2.70    5.30
   0  -9   4    6.90    7.80
   0  -9   4    9.50    4.40
   1  -9   4  165.58   17.80
   1  -9   4  136.79   14.70
   1  -9   4  136.09    9.30
   1  -9   4  132.79   11.80
   2  -9   4  358.56   17.00
   2  -9   4  366.36   24.20
   2  -9   4  377.96   21.40
   2  -9   4  365.36   19.80
   3  -9   4 1885.91   71.39
   3  -9   4 1862.51   78.49
   3  -9   4 1859.91   74.59
   4  -9   4   27.40    8.90
   4  -9   4   20.10    4.40
   4  -9   4   30.90    6.40
   5  -9   4  478.05   22.10
   5  -9   4  471.05   28.60
   6  -9   4  176.78   11.50
   7  -9   4  220.58   20.80
   8  -9   4  401.26   28.30
   9  -9   4   -3.80    9.30
  10  -9   4   92.49   15.80
  11  -9   4  737.43   43.20
  12  -9   4    9.50   13.00
  -4  -8   4  105.29   16.90
  -3  -8   4   76.19    8.80
  -3  -8   4   81.09   13.50
  -3  -8   4   69.89   13.40
  -2  -8   4  259.47   15.20
  -2  -8   4  254.47   21.00
  -2  -8   4  257.27   21.80
  -1  -8   4  376.16   19.10
  -1  -8   4  392.06   24.50
  -1  -8   4  382.66   18.80
  -1  -8   4  412.96   24.80
   0  -8   4 1510.65   61.79
   0  -8   4 1582.54   65.59
   0  -8   4 1569.44   60.79
   0  -8   4 1602.94   66.49
   1  -8   4  206.78   15.50
   1  -8   4  206.48   17.40
   1  -8   4  212.98   13.90
   1  -8   4  225.78   12.00
   2  -8   4   22.80    5.80
   2  -8   4   24.70    4.50
   2  -8   4   28.90    6.60
   2  -8   4   28.40    8.10
   3  -8   4   55.09    8.10
   3  -8   4   55.99    6.70
   3  -8   4   52.99    9.40
   3  -8   4   70.39    6.90
   4  -8   4  426.46   19.20
   4  -8   4  381.06   18.50
   4  -8   4  377.06   23.80
   5  -8   4  304.97   21.30
   5  -8   4  300.17   16.50
   5  -8   4  308.27   14.70
   6  -8   4  362.66   23.90
   7  -8   4  517.65   30.30
   8  -8   4 1570.44   69.49
   9  -8   4  145.09   18.20
  10  -8   4  235.58   22.80
  11  -8   4  406.16   30.60
  12  -8   4    8.30   13.40
  -5  -7   4  156.98   15.90
  -5  -7   4  152.28   23.00
  -4  -7   4  788.72   34.10
  -4  -7   4  742.63   41.00
  -4  -7   4  732.93   38.00
  -3  -7   4  293.47   16.80
  -3  -7   4  285.87   20.60
  -3  -7   4  299.17   22.80
  -2  -7   4  209.98   18.10
  -2  -7   4  217.68   17.10
  -2  -7   4  217.78   13.20
  -2  -7   4  196.88   12.80
  -1  -7   4  481.45   26.50
  -1  -7   4  491.95   22.70
  -1  -7   4  478.95   22.00
  -1  -7   4  492.75   26.00
   0  -7   4   59.59    6.90
   0  -7   4   33.30    7.40
   0  -7   4   45.90    7.80
   0  -7   4   43.90    6.40
   1  -7   4   93.39    9.60
   1  -7   4   85.79    9.30
   1  -7   4   83.09    7.60
   1  -7   4   89.59   11.20
   2  -7   4  233.38   12.40
   2  -7   4  233.08   13.60
   2  -7   4  226.38   14.40
   2  -7   4  234.38   16.30
   3  -7   4  283.87   18.70
   3  -7   4  288.17   15.00
   3  -7   4  275.17   14.40
   4  -7   4 2260.57   84.09
   4  -7   4 2202.48   82.89
   4  -7   4 2121.79   88.49
   5  -7   4  457.05   21.50
   5  -7   4  455.15   25.80
   6  -7   4  798.12   39.00
   7  -7   4   53.29   10.40
   8  -7   4  183.58   20.50
   9  -7   4  388.96   26.60
  10  -7   4   72.39   13.80
  11  -7   4   63.09   14.20
  12  -7   4  344.07   29.80
  -6  -6   4  115.89   12.70
  -6  -6   4  130.69   19.10
  -5  -6   4  303.27   18.60
  -5  -6   4  288.57   25.00
  -4  -6   4 1309.47   53.79
  -4  -6   4 1366.16   60.19
  -4  -6   4 1296.97   55.39
  -4  -6   4 1299.57   51.89
  -3  -6   4  171.98   12.10
  -3  -6   4  176.68   16.80
  -3  -6   4  163.08   14.00
  -3  -6   4  154.18   11.30
  -2  -6   4  364.86   18.40
  -2  -6   4  382.16   22.50
  -2  -6   4  362.46   20.40
  -2  -6   4  373.86   18.30
  -1  -6   4  810.92   36.00
  -1  -6   4  827.42   34.60
  -1  -6   4  768.82   36.70
  -1  -6   4  828.12   33.90
   0  -6   4  194.08   11.20
   0  -6   4  186.18   13.50
   0  -6   4  199.98   12.40
   0  -6   4  194.48   13.20
   1  -6   4 2464.55   96.49
   1  -6   4 2482.85   93.79
   1  -6   4 2462.45   95.09
   1  -6   4 2456.75   95.29
   2  -6   4   26.00    4.30
   2  -6   4   18.60    4.80
   2  -6   4   16.60    5.40
   3  -6   4   32.00    6.70
   3  -6   4   27.70    5.20
   3  -6   4   24.20    3.90
   4  -6   4  196.38   14.40
   4  -6   4  183.98   12.00
   5  -6   4   85.89   11.40
   6  -6   4  193.38   16.20
   7  -6   4   84.99   12.20
   8  -6   4   26.40    8.80
   9  -6   4 1945.01   83.19
  10  -6   4   19.50   10.20
  11  -6   4  505.65   33.10
  12  -6   4  137.89   19.60
  -7  -5   4  307.37   21.60
  -7  -5   4  320.37   28.80
  -6  -5   4  490.25   25.70
  -6  -5   4  482.95   32.20
  -5  -5   4  104.49   12.50
  -5  -5   4  118.99   12.10
  -5  -5   4  119.49   17.10
  -5  -5   4  119.59   10.80
  -4  -5   4  516.95   29.00
  -4  -5   4  485.65   22.70
  -4  -5   4  485.45   23.90
  -4  -5   4  473.95   23.60
  -3  -5   4  317.67   16.80
  -3  -5   4  316.47   17.50
  -3  -5   4  321.87   20.80
  -3  -5   4  330.07   17.00
  -2  -5   4  478.05   22.60
  -2  -5   4  469.15   21.90
  -2  -5   4  457.45   22.10
  -2  -5   4  488.35   25.10
  -1  -5   4   86.89    7.70
  -1  -5   4   87.49    8.20
  -1  -5   4   84.69    9.30
  -1  -5   4   84.89    8.70
   0  -5   4  243.98   13.90
   0  -5   4  255.37   13.20
   0  -5   4  235.98   14.10
   0  -5   4  246.58   14.10
   1  -5   4  593.44   27.30
   1  -5   4  590.64   26.90
   1  -5   4  607.14   25.90
   2  -5   4  669.93   27.20
   2  -5   4  658.33   30.30
   3  -5   4  147.79   11.60
   3  -5   4  145.29   10.10
   4  -5   4  965.10   38.70
   4  -5   4  914.11   41.30
   5  -5   4  231.88   16.10
   6  -5   4 2497.15   99.99
   7  -5   4  259.47   19.00
   8  -5   4   61.89   11.10
   9  -5   4   27.60    9.40
  10  -5   4  107.59   15.30
  11  -5   4  310.87   26.30
  12  -5   4  172.28   25.00
  -8  -4   4   -4.80   12.00
  -8  -4   4    5.00    8.30
  -7  -4   4   64.29   14.30
  -7  -4   4   80.49   11.00
  -6  -4   4    2.10    5.80
  -6  -4   4    0.70    5.70
  -6  -4   4   11.80    9.80
  -5  -4   4   22.80    6.20
  -5  -4   4   31.80    5.60
  -5  -4   4   23.70    5.80
  -4  -4   4  394.66   18.70
  -4  -4   4  399.86   20.00
  -4  -4   4  395.66   19.60
  -3  -4   4 2177.68   84.29
  -3  -4   4 2235.68   84.69
  -3  -4   4 2278.07   85.49
  -3  -4   4 2131.19   85.19
  -2  -4   4  176.48   10.60
  -2  -4   4  184.98   11.30
  -2  -4   4  191.28   11.90
  -1  -4   4  935.31   38.70
  -1  -4   4  902.01   37.80
  -1  -4   4  945.91   38.10
   0  -4   4  383.36   18.10
   0  -4   4  386.26   17.90
   0  -4   4  357.86   17.50
   0  -4   4  366.36   18.30
   1  -4   4  567.04   26.00
   1  -4   4  585.74   24.20
   1  -4   4  572.34   25.90
   2  -4   4 1554.04   62.69
   2  -4   4 1551.24   59.29
   2  -4   4 1608.94   59.79
  -3   4  -4 1723.43   70.19
   3  -4   4 1765.22   69.79
   3  -4   4 1744.33   67.59
  -4   4  -4  443.76   24.10
   4  -4   4  376.76   20.90
   4  -4   4  375.36   18.90
   5  -4   4  631.14   30.60
   6  -4   4   20.00    6.30
   7  -4   4  296.37   20.10
   8  -4   4  415.66   25.50
   9  -4   4  493.25   29.80
  10  -4   4 1297.07   60.59
  11  -4   4  757.82   43.10
  12  -4   4  117.99   19.10
  -9  -3   4   16.20    9.70
  -8  -3   4  399.46   24.10
  -7  -3   4   75.99    9.30
  -7  -3   4   68.19    9.70
  -6  -3   4 1971.70   77.09
  -6  -3   4 1947.81   78.09
  -5  -3   4   60.89    8.50
  -5  -3   4   55.39    7.40
  -5  -3   4   55.89    8.20
  -5  -3   4   44.90    6.00
  -4  -3   4  297.87   15.40
  -4  -3   4  291.97   16.00
  -4  -3   4  311.87   16.30
  -4  -3   4  283.27   13.40
  -3  -3   4   44.70    5.90
  -3  -3   4   29.20    3.90
  -3  -3   4   23.90    4.50
  -2  -3   4  156.08   10.60
  -2  -3   4  156.78    8.70
  -2  -3   4  158.28   10.20
  -1  -3   4 1738.63   67.79
  -1  -3   4 1773.22   66.99
  -1  -3   4 1724.13   68.49
   0  -3   4  642.94   27.20
   0  -3   4  647.04   28.30
  -1   3  -4    7.90    4.30
   1  -3   4    7.80    3.20
   1  -3   4   11.10    3.60
   1  -3   4   12.20    3.40
  -2   3  -4 2094.29   83.09
   2  -3   4 2169.58   83.09
   2  -3   4 2138.39   82.99
  -3   3  -4  655.83   29.90
   3  -3   4  668.13   29.70
   3  -3   4  645.94   28.10
  -4   3  -4  607.94   28.90
   4  -3   4  610.14   28.80
   5  -3   4  633.84   30.60
   6  -3   4   30.50    7.60
   7  -3   4 2141.49   87.99
   8  -3   4  312.97   21.90
  -9   3  -4  171.08   10.30
   9  -3   4  159.58   18.40
  10  -3   4  308.77   25.20
  11  -3   4   59.49   13.80
  12  -3   4  103.29   17.40
 -10  -2   4  424.56   28.00
  -9  -2   4  751.82   37.20
  -8  -2   4  250.17   18.00
  -8  -2   4  252.87   18.10
  -7  -2   4  373.26   20.60
  -6  -2   4   30.50    6.40
  -6  -2   4   26.40    5.70
  -5  -2   4  213.18   13.60
  -5  -2   4  221.78   13.60
   4   2  -4   29.80    6.20
  -4  -2   4   22.20    4.60
  -4  -2   4   23.30    5.00
  -3  -2   4  696.93   30.10
  -3  -2   4  694.13   30.40
  -2  -2   4 1484.35   60.39
  -2  -2   4 1559.84   57.59
  -2  -2   4 1523.65   59.99
  -1  -2   4 2208.58   80.89
  -1  -2   4 2198.28   83.19
  -1  -2   4 2104.39   82.19
  -1  -2   4 2051.49   82.79
   0   2  -4  376.86   17.20
   0  -2   4  370.96   17.30
   0  -2   4  357.86   16.50
   0  -2   4  340.17   17.70
  -1   2  -4  705.23   30.70
   1  -2   4  728.03   30.70
   1  -2   4  743.43   29.30
   1  -2   4  735.93   31.50
  -2   2  -4  361.46   18.00
   2  -2   4  354.96   17.80
   2  -2   4  352.06   18.00
  -3   2  -4   10.20    4.40
   3  -2   4    8.40    3.90
   3  -2   4    7.60    3.80
  -4   2  -4 1553.54   62.19
   4  -2   4 1491.95   62.09
   5  -2   4  164.08   13.20
   6  -2   4  191.58   15.20
  -7   2  -4  515.65   20.80
   7  -2   4  463.05   27.50
  -8   2  -4  406.26   19.60
   8  -2   4  384.46   25.30
  -9   2  -4  237.18   14.00
   9  -2   4  247.48   21.50
  10  -2   4  239.18   23.80
  11  -2   4   12.00   11.60
  12  -2   4 1710.53   80.89
 -10  -1   4  331.97   23.10
 -10  -1   4  293.67   23.00
  -9  -1   4   92.39   11.50
  -9  -1   4   96.59   12.10
  -8  -1   4  144.09   14.40
  -8  -1   4  166.28   14.40
  -7  -1   4  220.08   15.20
  -7  -1   4  222.28   15.50
  -6  -1   4   91.69    9.90
  -6  -1   4   88.09    9.50
  -5  -1   4 2454.25   95.69
  -5  -1   4 2503.85   96.09
   4   1  -4  682.63   29.10
  -4  -1   4  630.54   28.30
  -4  -1   4  618.84   28.70
   3   1  -4  621.64   27.60
  -3  -1   4  601.34   26.70
  -3  -1   4  617.94   29.30
  -3  -1   4  596.04   27.20
   2   1  -4    8.40    4.20
  -2  -1   4   14.80    3.50
  -2  -1   4   13.70    2.00
  -2  -1   4    9.90    4.60
  -2  -1   4    6.10    2.90
   1   1  -4  727.63   29.60
  -1  -1   4  735.53   31.80
  -1  -1   4  758.32   31.70
  -1  -1   4  741.23   29.40
   0   1  -4   37.20    4.90
   0  -1   4   37.90    4.90
   0  -1   4   37.50    4.60
   0  -1   4   21.80    4.10
  -1   1  -4   37.10    5.40
   1  -1   4   32.50    4.30
   1  -1   4   40.80    5.60
   1  -1   4   38.60    5.00
  -2   1  -4  704.73   31.40
   2  -1   4  739.63   28.60
   2  -1   4  742.23   31.70
   2  -1   4  738.93   31.80
  -3   1  -4 2131.29   77.69
  -3   1  -4 1999.40   81.69
   3  -1   4 2049.79   81.99
   3  -1   4 2099.79   80.49
   3  -1   4 2148.89   77.69
  -4   1  -4 1779.22   65.69
   4  -1   4 1727.83   70.99
  -5   1  -4  921.01   36.10
   5  -1   4  930.31   41.80
  -6   1  -4   67.19    6.20
   6  -1   4   88.09   11.60
  -7   1  -4  922.11   36.50
   7  -1   4  849.61   42.70
  -8   1  -4  599.34   27.10
  -9   1  -4  375.46   20.30
   9  -1   4  404.26   27.70
 -10   1  -4  274.07   18.60
  10  -1   4  223.28   24.60
  11  -1   4   67.09   17.10
 -11   0   4   63.29   12.40
 -11   0   4   59.79   13.20
 -10   0   4  150.08   18.50
 -10   0   4  176.98   17.40
  -9   0   4    5.80    7.10
  -9   0   4    0.30    5.90
  -8   0   4 1638.84   67.89
  -8   0   4 1670.13   67.79
  -7   0   4   38.30    7.30
  -7   0   4   44.30    6.50
  -6   0   4  205.88   13.50
  -6   0   4  209.98   13.80
  -5   0   4  222.78   13.80
  -5   0   4  259.47   14.80
   4   0  -4  438.46   21.90
  -4   0   4  373.66   19.00
  -4   0   4  395.46   22.60
  -4   0   4  375.86   19.60
   3   0  -4  622.14   29.20
  -3   0   4  668.23   29.30
  -3   0   4  702.63   31.00
  -3   0   4  654.53   28.60
   2   0  -4  358.06   18.40
  -2   0   4  370.76   18.80
  -2   0   4  355.36   17.30
  -2   0   4  340.77   17.80
  -2   0   4  368.16   14.60
  -1   0   4   37.80    4.10
  -1   0   4   46.90    6.70
   0   0  -4 8222.08  280.77
   0   0   4 6634.24  281.67
   0   0   4 7730.83  282.07
   0   0   4 7797.52  280.97
  -1   0  -4   44.10    4.80
  -1   0  -4   39.70    5.90
   1   0   4   39.80    5.40
   1   0   4   32.00    4.90
   1   0   4   44.40    5.00
  -2   0  -4  366.06   18.00
  -2   0  -4  352.86   15.60
   2   0   4  354.86   18.10
   2   0   4  357.96   17.80
   2   0   4  327.17   17.10
  -3   0  -4  631.14   29.70
  -3   0  -4  678.23   26.80
   3   0   4  667.03   30.30
   3   0   4  648.64   29.10
   3   0   4  648.14   26.80
  -4   0  -4  427.06   18.20
   4   0   4  391.06   22.10
  -5   0  -4  201.78   11.60
   5   0   4  258.77   16.70
  -6   0  -4  192.38   11.60
   6   0   4  190.08   16.10
  -7   0  -4   73.49    8.60
  -8   0  -4 1784.52   68.59
   8   0   4 1596.64   74.09
  -9   0  -4    8.80    6.50
   9   0   4   -2.90    8.90
 -10   0  -4  168.58   16.20
  10   0   4  162.98   22.80
  11   0   4   54.29   16.50
 -11   1   4   45.90   11.90
 -11   1   4   51.29   10.60
 -10   1   4  254.27   18.30
 -10   1   4  197.18   26.80
  -9   1   4  399.26   23.50
  -9   1   4  387.06   22.50
  -8   1   4  501.75   26.20
  -7   1   4  817.82   37.20
  -7   1   4  841.12   36.60
  -6   1   4   90.19    9.60
  -6   1   4   82.19    8.40
  -5   1   4  894.61   39.00
  -5   1   4  934.41   38.60
  -4   1   4 1748.23   70.99
  -4   1   4 1787.62   68.59
  -4   1   4 1713.83   69.39
   3  -1  -4 1876.31   81.69
  -3   1   4 2164.68   82.39
  -3   1   4 2242.68   83.69
  -3   1   4 2155.78   81.49
   2  -1  -4  659.53   30.80
   2  -1  -4  720.23   27.70
  -2   1   4  692.03   30.80
  -2   1   4  735.43   31.40
  -2   1   4  728.33   30.20
   1  -1  -4   40.20    4.60
   1  -1  -4   37.30    5.30
   1  -1  -4   39.70    6.10
  -1   1   4   32.80    5.10
  -1   1   4   37.50    4.60
  -1   1   4   38.10    5.70
   0  -1  -4   34.90    4.90
   0  -1  -4   34.50    4.60
   0   1   4   38.10    4.90
   0   1   4   33.20    5.00
   0   1   4   31.60    4.70
  -1  -1  -4  707.53   30.80
   1   1   4  717.13   31.00
   1   1   4  729.43   30.00
   1   1   4  718.43   31.10
  -2  -1  -4    5.20    4.00
   2   1   4   10.20    3.80
   2   1   4   14.80    3.70
   2   1   4    9.50    3.80
   2   1   4   10.60    3.60
  -3  -1  -4  645.24   26.70
  -3  -1  -4  623.94   29.30
   3   1   4  599.24   27.70
   3   1   4  621.44   29.50
   3   1   4  618.54   26.70
  -4  -1  -4  689.13   28.50
   4   1   4  632.54   31.80
   4   1   4  659.93   29.70
  -5  -1  -4 2532.65   99.29
   5   1   4 2549.65  103.79
   5   1   4 2690.03  100.59
  -6  -1  -4   70.29    8.90
   6   1   4   88.09   13.20
  -7  -1  -4  171.78   13.40
  -8  -1  -4  145.29   14.00
   8   1   4  152.18   19.00
  -9  -1  -4  118.59   15.30
   9   1   4   86.59   15.50
 -10  -1  -4  362.46   28.00
  10   1   4  330.87   22.90
  10   1   4  334.77   30.90
 -12   2   4 1645.94   70.19
 -12   2   4 1587.34   70.39
 -11   2   4   28.70   10.70
 -11   2   4   25.80    7.90
 -10   2   4  269.67   20.80
  -9   2   4  218.88   17.30
  -9   2   4  211.28   15.50
  -8   2   4  366.76   21.40
  -8   2   4  387.06   20.80
  -7   2   4  447.56   23.50
  -7   2   4  451.95   22.30
  -6   2   4  180.68   11.90
  -6   2   4  174.18   12.80
  -5   2   4  141.19   11.10
  -5   2   4  158.58   10.40
  -4   2   4 1490.95   59.89
  -4   2   4 1565.24   62.79
  -4   2   4 1493.25   60.99
   3  -2  -4   11.70    4.30
   3  -2  -4    7.30    1.90
  -3   2   4   11.60    4.00
  -3   2   4   10.60    3.60
  -3   2   4   16.00    5.60
   2  -2  -4  354.16   18.30
   2  -2  -4  353.86   15.50
   2  -2  -4  341.17   18.20
  -2   2   4  344.17   17.70
  -2   2   4  363.66   18.80
   1  -2  -4  671.93   31.00
   1  -2  -4  688.33   30.80
   1  -2  -4  716.63   29.50
  -1   2   4  686.43   30.60
  -1   2   4  741.73   31.10
  -1   2   4  748.83   29.80
   0  -2  -4  367.86   17.60
   0  -2  -4  344.17   17.60
   0   2   4  375.06   18.10
   0   2   4  377.86   18.10
   0   2   4  341.77   17.50
  -1  -2  -4 2044.60   80.69
  -1  -2  -4 2088.59   81.39
   1   2   4 2135.89   81.09
   1   2   4 2091.29   80.59
   1   2   4 2066.19   81.69
  -2  -2  -4 1687.63   63.39
  -2  -2  -4 1634.04   64.89
   2   2   4 1575.34   63.19
   2   2   4 1572.54   63.39
   2   2   4 1540.45   64.89
  -3  -2  -4  698.63   30.10
   3   2   4  676.23   30.20
   3   2   4  685.23   30.30
   3   2   4  684.93   32.60
  -4  -2  -4   29.80    5.50
   4   2   4   24.40    4.90
  -5  -2  -4  224.28   14.40
   5   2   4  218.58   17.50
   5   2   4  241.98   14.30
  -6  -2  -4   37.80    7.20
   6   2   4   17.90    7.70
   6   2   4   37.90    6.80
  -7  -2  -4  387.96   22.60
   7   2   4  379.56   26.90
   7   2   4  417.06   22.10
  -8  -2  -4  247.58   19.70
   8   2   4  320.57   25.30
   8   2   4  280.07   18.80
  -9  -2  -4  729.83   48.30
   9   2   4  799.92   37.00
   9   2   4  761.92   44.90
 -10  -2  -4  381.56   33.30
  10   2   4  424.86   35.50
 -12   3   4   87.39   12.60
 -12   3   4   99.99   14.80
 -11   3   4   76.39   11.20
 -11   3   4   75.99   13.00
 -10   3   4  316.47   21.60
 -10   3   4  295.97   19.60
  -9   3   4  171.88   14.10
  -9   3   4  157.58   15.20
  -8   3   4  319.97   18.20
  -8   3   4  309.77   19.60
  -7   3   4 2209.68   89.09
  -7   3   4 2284.97   87.89
  -6   3   4   22.30    5.20
  -6   3   4   30.80    6.10
  -5   3   4  663.23   29.10
  -5   3   4  661.23   30.30
   4  -3  -4  623.64   24.40
  -4   3   4  616.04   31.70
  -4   3   4  624.14   27.20
  -4   3   4  610.24   28.30
   3  -3  -4  660.43   31.20
   3  -3  -4  677.53   27.40
  -3   3   4  659.43   30.10
  -3   3   4  685.53   31.50
  -3   3   4  690.83   29.00
   2  -3  -4 1960.20   80.89
   2  -3  -4 1983.00   80.29
   2  -3  -4 2107.49   78.59
  -2   3   4 2036.40   80.19
  -2   3   4 2180.58   81.39
   1  -3  -4   13.90    4.20
   1  -3  -4    6.30    4.40
   1  -3  -4    5.10    3.60
  -1   3   4    7.50    3.30
  -1   3   4    8.50    4.40
   0  -3  -4  628.84   28.90
   0  -3  -4  643.04   28.80
   0   3   4  649.43   29.20
   0   3   4  647.34   29.00
   0   3   4  647.14   28.40
  -1  -3  -4 1809.22   70.19
  -1  -3  -4 1749.32   70.49
   1   3   4 1746.13   68.59
   1   3   4 1768.02   70.79
   1   3   4 1750.62   69.29
   1   3   4 1768.82   70.09
  -2  -3  -4  141.49   10.90
   2   3   4  159.38   12.50
   2   3   4  165.38   12.80
   2   3   4  153.58   10.40
  -3  -3  -4   17.10    4.80
   3   3   4   39.30    7.70
   3   3   4   36.10    7.40
   3   3   4   25.30    4.90
  -4  -3  -4  326.57   18.20
   4   3   4  292.67   20.40
   4   3   4  308.37   16.70
  -5  -3  -4   69.69    9.80
   5   3   4   58.99   10.60
   5   3   4   61.29    8.60
  -6  -3  -4 2127.39   84.69
   6   3   4 2072.29   81.99
   6   3   4 2050.79   88.19
  -7  -3  -4   50.79   10.20
   7   3   4   77.39    9.30
   7   3   4   62.89   12.70
   8   3   4  403.76   22.70
   8   3   4  394.66   30.50
  -9  -3  -4   -0.10   10.30
   9   3   4   13.50   13.90
 -12   4   4  100.09   14.70
 -12   4   4  100.09   12.90
 -11   4   4  796.62   37.30
 -11   4   4  742.53   39.20
 -10   4   4 1361.66   56.99
 -10   4   4 1318.97   58.49
  -9   4   4  521.55   26.50
  -9   4   4  497.55   27.80
  -8   4   4  404.36   21.00
  -8   4   4  396.46   22.80
  -7   4   4  312.77   16.90
  -7   4   4  304.57   18.70
  -6   4   4   28.40    5.80
  -6   4   4   13.00    4.10
   5  -4  -4  687.23   27.50
   5  -4  -4  719.93   27.20
   5  -4  -4  671.23   32.80
  -5   4   4  648.14   29.00
  -5   4   4  584.54   29.90
   4  -4  -4  398.96   22.00
   4  -4  -4  429.26   18.10
  -4   4   4  383.26   18.90
  -4   4   4  365.76   19.90
   3  -4  -4 1881.71   69.19
   3  -4  -4 1708.43   72.09
  -3   4   4 1810.32   70.89
  -3   4   4 1790.42   69.49
  -3   4   4 1727.83   71.99
   2  -4  -4 1645.74   65.19
   2  -4  -4 1697.23   62.99
  -2   4   4 1546.35   63.49
  -2   4   4 1483.35   64.39
   1  -4  -4  605.44   28.30
   1  -4  -4  639.14   28.00
   1  -4  -4  575.04   27.50
  -1   4   4  596.34   27.00
  -1   4   4  589.64   28.60
   0  -4  -4  422.46   21.40
   0  -4  -4  411.16   20.90
   0   4   4  357.76   20.70
   0   4   4  386.56   19.30
  -1  -4  -4  859.71   39.20
   1   4   4  902.51   39.70
   1   4   4  925.31   38.00
   1   4   4  920.11   40.20
  -2  -4  -4  193.18   13.50
   2   4   4  178.08   14.40
   2   4   4  189.68   11.90
  -3  -4  -4 2203.88   87.99
   3   4   4 2227.78   90.09
   3   4   4 2201.98   85.69
  -4  -4  -4  417.86   23.00
   4   4   4  397.86   20.00
   4   4   4  402.86   25.00
  -5  -4  -4   16.20    6.50
   5   4   4   27.10    8.90
   5   4   4   27.50    5.60
  -6  -4  -4   -0.50    6.80
   6   4   4   11.90    9.50
   6   4   4    0.20    5.40
  -7  -4  -4   58.59   11.40
   7   4   4   64.29    9.20
   7   4   4   65.89   13.90
  -8  -4  -4   12.30   10.90
   8   4   4    3.80   12.50
 -12   5   4  154.48   20.70
 -12   5   4  145.69   17.10
 -11   5   4  284.37   22.90
 -11   5   4  294.77   19.80
 -10   5   4  128.49   15.20
 -10   5   4  100.89   12.30
  -9   5   4   19.00    9.10
   8  -5  -4   69.99    5.60
   8  -5  -4   68.59    6.10
  -8   5   4   74.59    9.10
  -8   5   4   48.00    8.40
   7  -5  -4  234.78   11.60
   7  -5  -4  214.28   12.30
  -7   5   4  253.47   16.40
  -7   5   4  242.88   14.20
   6  -5  -4 2571.24   96.49
   6  -5  -4 2433.36  102.89
   6  -5  -4 2606.44   96.69
  -6   5   4 2569.44  100.49
  -6   5   4 2586.64   98.39
   5  -5  -4  200.18   16.20
   5  -5  -4  230.28   12.80
  -5   5   4  252.57   13.40
  -5   5   4  235.38   14.80
   4  -5  -4  859.41   42.00
   4  -5  -4  946.11   38.80
  -4   5   4  941.11   40.20
  -4   5   4  998.40   39.00
   3  -5  -4  135.59   11.00
   3  -5  -4  156.08   12.80
  -3   5   4  161.28   10.10
  -3   5   4  160.48   11.50
   2  -5  -4  679.23   32.70
   2  -5  -4  741.43   32.10
  -2   5   4  687.83   31.10
   1  -5  -4  707.43   31.70
   1  -5  -4  687.73   31.80
  -1   5   4  614.34   29.50
   0  -5  -4  202.68   15.30
   0   5   4  261.97   16.00
   0   5   4  253.87   14.00
  -1  -5  -4   61.59    9.40
   1   5   4   93.39    8.30
  -2  -5  -4  491.25   25.80
   2   5   4  487.95   23.10
  -3  -5  -4  302.77   19.80
   3   5   4  329.87   17.00
  -4  -5  -4  527.55   28.90
   4   5   4  535.25   24.80
  -5  -5  -4   83.99   12.30
   5   5   4   98.39   10.30
  -6  -5  -4  514.25   30.60
  -7  -5  -4  294.57   24.50
 -12   6   4  108.69   14.70
 -12   6   4   96.39   12.10
 -11   6   4  492.15   26.10
 -11   6   4  472.85   29.70
 -10   6   4   13.10    6.00
 -10   6   4   11.50    7.40
  -9   6   4 2012.20   79.49
  -9   6   4 1975.00   82.09
  -8   6   4   15.80    5.00
  -8   6   4   21.10    6.40
   7  -6  -4   61.09   10.60
   7  -6  -4   72.49    7.40
   7  -6  -4   81.29    9.10
  -7   6   4   91.69   10.90
  -7   6   4  101.19    9.00
   6  -6  -4  205.28   17.10
   6  -6  -4  215.98   13.10
   6  -6  -4  206.18   12.80
  -6   6   4  202.68   14.60
  -6   6   4  213.88   12.80
   5  -6  -4   71.79    9.40
  -5   6   4  104.59   10.10
  -5   6   4   94.29    8.10
   4  -6  -4  194.58   13.80
   4  -6  -4  173.38   15.10
  -4   6   4  199.78   11.50
  -4   6   4  172.18   12.80
   3  -6  -4   20.90    6.30
  -3   6   4   28.80    5.40
  -3   6   4   32.10    4.80
   2  -6  -4   34.30    7.20
  -2   6   4   30.00    5.60
   1  -6  -4 2400.06   99.99
  -1   6   4 2614.44   97.19
   0  -6  -4  191.48   15.20
   0   6   4  197.98   12.60
  -1  -6  -4  867.11   39.60
   1   6   4  800.22   35.40
  -2  -6  -4  395.96   23.70
   2   6   4  397.36   19.70
  -3  -6  -4  146.69   15.30
   3   6   4  160.88   11.40
   4   6   4 1357.96   54.39
  -5  -6  -4  301.47   23.60
  -6  -6  -4  102.29   14.80
 -12   7   4  326.57   26.40
 -12   7   4  326.07   21.80
 -11   7   4   45.70    8.40
 -11   7   4   59.69   11.60
 -10   7   4   77.09    9.90
 -10   7   4   69.69   10.90
   9  -7  -4  374.96   18.70
  -9   7   4  355.46   22.70
  -9   7   4  363.66   20.30
   8  -7  -4  187.28   12.90
  -8   7   4  221.58   13.70
   7  -7  -4   55.99    8.70
   7  -7  -4   46.40   10.10
  -7   7   4   40.60    6.40
   6  -7  -4  864.91   43.10
   6  -7  -4  966.20   39.40
  -6   7   4  872.41   37.20
  -6   7   4  825.92   39.50
   5  -7  -4  485.15   28.30
   5  -7  -4  534.05   26.20
  -5   7   4  487.05   25.50
  -5   7   4  524.15   23.40
   4  -7  -4 2220.38   91.79
  -4   7   4 2213.28   88.09
  -4   7   4 2284.37   86.29
   3  -7  -4  291.47   19.80
  -3   7   4  281.57   16.70
  -3   7   4  311.77   15.40
   2  -7  -4  220.98   17.20
  -2   7   4  219.78   13.90
   1  -7  -4   54.09    9.40
  -1   7   4   73.09    8.40
   0  -7  -4   49.80    9.40
   0   7   4   42.00    6.20
  -1  -7  -4  568.84   30.00
   1   7   4  494.55   24.30
  -2  -7  -4  231.68   20.00
   2   7   4  206.08   13.30
  -3  -7  -4  293.97   22.40
   3   7   4  303.47   16.30
  -4  -7  -4  904.01   45.70
  -5  -7  -4  211.88   22.60
 -12   8   4    6.20    7.30
 -12   8   4   15.50   10.50
 -11   8   4  386.36   22.70
 -11   8   4  398.66   27.00
 -10   8   4  250.47   20.70
 -10   8   4  273.77   17.60
   9  -8  -4  146.29   12.90
  -9   8   4  131.69   15.40
  -9   8   4  145.19   12.50
   8  -8  -4 1589.34   72.29
   8  -8  -4 1675.33   66.29
  -8   8   4 1637.34   64.99
  -8   8   4 1602.24   68.59
   7  -8  -4  592.14   27.40
  -7   8   4  486.65   24.00
  -7   8   4  505.55   27.50
   6  -8  -4  420.76   25.90
  -6   8   4  379.26   19.00
  -6   8   4  362.56   21.70
   5  -8  -4  329.27   22.70
  -5   8   4  310.27   16.30
  -5   8   4  329.27   19.50
   4  -8  -4  394.46   25.50
  -4   8   4  401.46   21.70
  -4   8   4  436.36   19.60
   3  -8  -4   97.89   13.80
  -3   8   4   67.99    9.50
  -3   8   4   54.09    7.30
   2  -8  -4   35.60    8.90
  -2   8   4   34.50    7.90
  -2   8   4   28.70    5.70
   1  -8  -4  173.68   17.20
  -1   8   4  210.68   13.50
   0   8   4 1585.94   62.99
  -1  -8  -4  362.36   25.30
   1   8   4  400.36   19.50
  -2  -8  -4  242.08   21.30
   2   8   4  242.88   16.70
  -3  -8  -4   82.49   14.20
  -4  -8  -4  101.09   16.20
 -12   9   4   14.50    8.60
 -12   9   4   33.40   11.60
 -11   9   4  717.13   40.40
 -11   9   4  824.32   36.70
  10  -9  -4  100.89   11.80
 -10   9   4   97.89   10.80
 -10   9   4   85.49   12.90
   9  -9  -4    9.70    9.00
   9  -9  -4    3.70    6.60
  -9   9   4    5.40    5.50
  -9   9   4   -0.40    6.80
   8  -9  -4  365.66   22.90
   8  -9  -4  360.86   27.70
  -8   9   4  407.56   24.40
  -8   9   4  449.06   20.80
   7  -9  -4  237.28   21.40
   7  -9  -4  249.68   18.60
  -7   9   4  217.38   17.10
  -7   9   4  205.38   13.50
   6  -9  -4  154.38   17.90
  -6   9   4  170.48   14.70
  -6   9   4  173.98   11.40
   5  -9  -4  536.25   31.60
  -5   9   4  529.95   23.60
  -5   9   4  503.95   26.60
   4  -9  -4   21.20    8.20
  -4   9   4   28.70    4.90
  -4   9   4   24.80    6.50
   3  -9  -4 2012.30   87.09
  -3   9   4 2065.89   81.59
  -3   9   4 2086.99   79.09
   2  -9  -4  369.56   26.10
  -2   9   4  378.66   20.50
  -2   9   4  382.86   18.40
   1  -9  -4  131.69   17.20
  -1   9   4  163.78   12.50
   0  -9  -4    3.10    8.10
   0   9   4    1.50    5.30
  -1  -9  -4  257.37   22.70
  -2  -9  -4    5.00   10.10
  -3  -9  -4  119.59   17.50
 -12  10   4  406.86   30.50
 -12  10   4  406.66   24.60
 -11  10   4  339.97   26.70
 -11  10   4  320.67   20.60
  10 -10  -4  178.28   17.30
 -10  10   4  165.78   19.50
 -10  10   4  186.18   14.80
   9 -10  -4  275.17   26.00
   9 -10  -4  255.17   19.90
  -9  10   4  243.28   16.20
  -9  10   4  253.97   20.80
   8 -10  -4  230.38   20.20
   8 -10  -4  220.78   23.80
  -8  10   4  285.17   20.10
  -8  10   4  266.27   15.60
   7 -10  -4  312.57   25.40
  -7  10   4  299.17   20.70
  -7  10   4  302.07   16.40
   6 -10  -4 1399.26   61.69
  -6  10   4 1346.07   50.99
  -6  10   4 1080.29   57.49
   5 -10  -4   64.29   12.60
  -5  10   4  101.19    9.00
  -5  10   4  117.09   13.10
   4 -10  -4   18.20    9.00
  -4  10   4    2.00    4.20
  -4  10   4    9.00    6.30
   3 -10  -4   59.39   12.60
  -3  10   4   79.89    9.50
  -3  10   4   74.59    8.10
   2 -10  -4  252.17   23.50
  -2  10   4  262.17   16.80
  -2  10   4  270.67   15.70
   1 -10  -4   90.09   14.30
  -1  10   4   82.89   10.80
   0 -10  -4  186.38   22.10
  -1 -10  -4   59.89   13.90
  -2 -10  -4 1648.44   76.49
 -11  11   4   73.69   10.20
 -11  11   4   64.69   13.40
  10 -11  -4   54.29   15.70
 -10  11   4   59.09   10.60
 -10  11   4   54.79   12.30
   9 -11  -4    0.40   12.30
  -9  11   4   20.30    6.50
  -9  11   4   17.20    9.30
   8 -11  -4   70.39   15.20
   8 -11  -4   77.89   14.30
  -8  11   4   74.39   11.60
  -8  11   4   85.69   10.10
   7 -11  -4  837.22   46.20
  -7  11   4  845.12   39.80
  -7  11   4  806.92   39.70
   6 -11  -4  285.67   25.90
  -6  11   4  300.97   20.30
   5 -11  -4  517.75   32.50
  -5  11   4  429.76   31.30
   4 -11  -4   43.00   13.10
  -4  11   4   46.30    8.60
   3 -11  -4  377.56   29.40
  -3  11   4  368.06   21.40
   2 -11  -4  800.52   45.50
   1 -11  -4  321.47   28.50
   0 -11  -4   77.59   16.20
  10 -12  -4 1671.73   79.99
  10 -12  -4 1680.03   73.29
 -10  12   4 1596.44   72.39
   9 -12  -4  103.79   16.30
   9 -12  -4   94.59   18.90
  -9  12   4  101.99   14.70
   8 -12  -4   91.59   18.00
   8 -12  -4   89.99   15.70
  -8  12   4  130.19   17.50
   7 -12  -4  202.38   25.80
  -7  12   4  176.08   18.50
   6 -12  -4   73.29   15.40
  -6  12   4  121.89   16.00
   5 -12  -4  255.97   26.90
  -5  12   4  324.77   21.20
   4 -12  -4   -9.60   11.40
   3 -12  -4    8.90   12.30
   2 -12  -4  362.76   33.60
   2 -11   5   45.20   14.90
   3 -11   5  386.06   31.90
   4 -11   5  152.08   19.00
   4 -11   5  146.19   22.60
   5 -11   5  513.65   35.70
   6 -11   5  131.69   19.20
   7 -11   5   58.49   15.90
   8 -11   5  149.88   20.70
   9 -11   5  -13.30   13.60
   0 -10   5 1029.70   51.19
   0 -10   5 1118.49   52.79
   1 -10   5  272.07   23.80
   1 -10   5  303.57   26.50
   2 -10   5  253.87   24.60
   2 -10   5  231.08   19.00
   2 -10   5  269.67   21.00
   3 -10   5  246.18   23.50
   3 -10   5  224.28   19.30
   4 -10   5  175.88   21.60
   5 -10   5    7.20   10.60
   5 -10   5   -3.70    6.30
   6 -10   5  103.09   16.30
   7 -10   5   47.10   13.90
   8 -10   5  676.83   41.20
   9 -10   5   20.00   13.00
  10 -10   5 1049.30   56.39
  -2  -9   5  -17.70   12.30
  -1  -9   5    9.60   10.70
  -1  -9   5   11.10   11.20
   0  -9   5  113.79   14.90
   0  -9   5   98.89   13.80
   1  -9   5  196.68   13.70
   1  -9   5  214.78   16.80
   1  -9   5  207.58   18.00
   1  -9   5  208.88   20.50
   2  -9   5  225.78   17.40
   2  -9   5  232.28   17.80
   2  -9   5  243.08   21.30
   2  -9   5  244.68   14.60
   3  -9   5    5.40    5.40
   3  -9   5    4.90    6.40
   3  -9   5   15.20    9.40
   3  -9   5   -0.70    7.20
   4  -9   5  568.24   29.20
   4  -9   5  465.75   35.80
   4  -9   5  581.84   25.60
   5  -9   5  181.78   19.80
   6  -9   5  306.57   25.40
   7  -9   5  175.28   21.20
   8  -9   5   81.89   14.80
   9  -9   5  112.19   18.00
  10  -9   5  325.17   30.10
  11  -9   5   45.60   16.10
  -3  -8   5  135.89   18.00
  -2  -8   5  730.03   39.10
  -2  -8   5  670.63   32.20
  -2  -8   5  733.93   43.00
  -1  -8   5   89.99   12.30
  -1  -8   5   86.39   10.30
  -1  -8   5   96.09   13.80
  -1  -8   5   95.99   11.10
   0  -8   5   44.00    9.60
   0  -8   5   50.09    7.30
   0  -8   5   53.49   10.40
   0  -8   5   45.10    8.40
   1  -8   5  308.47   21.90
   1  -8   5  316.07   19.50
   1  -8   5  306.77   19.60
   1  -8   5  316.07   17.00
   2  -8   5  792.42   38.00
   2  -8   5  770.22   36.30
   2  -8   5  784.92   34.90
   2  -8   5  773.22   33.50
   3  -8   5 1042.90   43.60
   3  -8   5 1036.70   43.20
   3  -8   5 1087.69   49.20
   3  -8   5 1076.09   46.90
   4  -8   5  317.77   22.40
   5  -8   5   96.49   13.90
   6  -8   5  645.64   35.80
   7  -8   5    2.20    8.60
   8  -8   5   43.90   12.20
   9  -8   5  208.18   23.20
  10  -8   5  266.07   26.60
  11  -8   5  439.66   34.70
  -4  -7   5   56.89   10.00
  -4  -7   5   57.89   14.00
  -3  -7   5   34.80    8.20
  -3  -7   5   34.30   11.30
  -2  -7   5  160.68   18.00
  -2  -7   5  165.58   13.30
  -2  -7   5  167.78   15.50
  -2  -7   5  173.08   14.60
  -1  -7   5    8.10    7.80
  -1  -7   5   10.90    6.40
  -1  -7   5    3.00    6.80
  -1  -7   5    8.80    5.50
   0  -7   5   68.79    9.80
   0  -7   5   71.29    9.20
   0  -7   5   57.99    8.60
   0  -7   5   62.19    9.50
   1  -7   5  253.57   17.60
   1  -7   5  266.07   16.30
   1  -7   5  256.47   17.10
   1  -7   5  267.87   15.30
   2  -7   5  445.66   22.00
   2  -7   5  456.75   24.30
   2  -7   5  487.95   26.20
   2  -7   5  455.45   21.80
   3  -7   5  486.95   21.10
   3  -7   5  473.15   25.20
   3  -7   5  465.45   26.20
   4  -7   5  195.78   16.80
   5  -7   5   62.99   10.80
   6  -7   5 2384.36   97.79
   7  -7   5   76.89   13.10
   8  -7   5  345.27   26.20
   9  -7   5  232.48   23.50
  10  -7   5  243.28   25.90
  11  -7   5  118.49   18.80
  -5  -6   5  132.59   16.20
  -5  -6   5  159.48   20.00
  -4  -6   5  102.19   13.50
  -4  -6   5  131.39   19.60
  -3  -6   5  279.17   17.20
  -3  -6   5  282.87   17.20
  -3  -6   5  291.07   17.80
  -3  -6   5  257.47   24.80
  -2  -6   5  704.03   35.00
  -2  -6   5  682.63   31.80
  -2  -6   5  690.63   31.60
  -2  -6   5  694.63   31.20
  -1  -6   5 2334.57   90.49
  -1  -6   5 2344.17   93.09
  -1  -6   5 2286.17   91.19
  -1  -6   5 2390.96   91.89
   0  -6   5  196.68   13.90
   0  -6   5  176.28   13.50
   0  -6   5  172.98   12.30
   0  -6   5  178.28   13.50
   1  -6   5  264.47   16.90
   1  -6   5  276.67   16.90
   1  -6   5  268.77   15.20
   1  -6   5  249.88   15.00
   2  -6   5   84.89   10.40
   2  -6   5   73.79    9.70
   2  -6   5   77.69    7.40
   3  -6   5  574.84   28.60
   3  -6   5  580.24   29.00
   4  -6   5   11.40    6.60
   5  -6   5   80.79   12.30
   6  -6   5  170.38   16.70
   7  -6   5  272.97   29.70
   8  -6   5  799.92   41.60
   9  -6   5    9.60    9.80
  10  -6   5  153.78   21.90
  11  -6   5  554.14   38.30
  -6  -5   5  519.75   28.70
  -6  -5   5  536.45   35.80
  -5  -5   5    7.10   10.30
  -5  -5   5    3.00    7.20
  -5  -5   5    6.10    7.00
  -4  -5   5  164.78   14.40
  -4  -5   5  186.98   14.60
  -4  -5   5  173.08   20.40
  -3  -5   5   88.99   14.30
  -3  -5   5   82.39   11.30
  -3  -5   5   79.49    8.50
  -3  -5   5   77.39   10.00
  -2  -5   5   75.09    9.30
  -2  -5   5   70.69    8.70
  -2  -5   5   65.19    8.50
  -2  -5   5   61.29    9.80
  -1  -5   5   61.59    9.90
  -1  -5   5   71.69    9.90
  -1  -5   5   66.59    8.70
  -1  -5   5   73.49    8.70
   0  -5   5   79.89    8.80
   0  -5   5   75.09    9.80
   0  -5   5   69.59    8.80
   0  -5   5   69.69    8.60
   1  -5   5   18.30    4.20
   1  -5   5   19.50    5.80
   1  -5   5   18.90    5.10
   1  -5   5   32.70    6.20
   2  -5   5 1428.26   55.09
   2  -5   5 1403.86   58.99
   2  -5   5 1430.26   58.99
   2  -5   5 1468.65   55.79
   3  -5   5   19.60    6.00
   3  -5   5   22.70    6.00
   4  -5   5 2132.19   85.99
   5  -5   5   81.89   11.90
   6  -5   5  287.47   20.40
   7  -5   5  478.55   28.60
   8  -5   5 1159.78   54.79
   9  -5   5  627.14   36.80
  10  -5   5    9.10   10.70
  11  -5   5  143.19   21.30
  -7  -4   5  164.28   17.50
  -7  -4   5  113.19   18.80
  -6  -4   5  163.08   16.10
  -6  -4   5  180.08   16.20
  -5  -4   5  592.84   28.90
  -5  -4   5  596.94   29.20
  -4  -4   5  292.37   17.90
  -4  -4   5  290.57   17.40
  -3  -4   5  196.88   11.10
  -3  -4   5  198.38   14.10
  -3  -4   5  192.88   13.70
  -2  -4   5    4.90    4.40
  -2  -4   5   12.70    3.80
  -2  -4   5   10.50    5.30
  -1  -4   5 1991.30   79.89
  -1  -4   5 2075.69   78.79
  -1  -4   5 2068.19   81.09
   0  -4   5    6.40    4.00
   0  -4   5   12.60    6.00
   0  -4   5    6.30    4.40
   0  -4   5   11.50    4.30
   0  -4   5    7.80    4.10
   1  -4   5 2099.89   84.09
   1  -4   5 2247.38   84.09
   1  -4   5 2232.08   85.29
   1  -4   5 2166.18   86.29
   2  -4   5   36.20    6.60
   2  -4   5   44.10    6.80
   2  -4   5   44.80    5.60
   2  -4   5   44.20    4.60
   3  -4   5   65.69    9.60
   3  -4   5   74.99    9.70
   4  -4   5   17.20    6.40
   5  -4   5   14.00    6.30
   6  -4   5   71.69   10.90
   7  -4   5  506.75   29.50
   8  -4   5  320.97   24.40
   9  -4   5  153.08   19.80
  10  -4   5  128.29   18.80
  11  -4   5   51.39   15.20
  -8  -3   5  388.16   25.20
  -7  -3   5  229.38   19.00
  -7  -3   5  242.98   18.80
  -6  -3   5   -3.70    6.70
  -6  -3   5    5.90    6.80
  -5  -3   5 1086.39   47.80
  -5  -3   5 1098.19   46.90
  -4  -3   5  512.15   25.80
  -4  -3   5  521.55   25.30
  -3  -3   5  610.14   28.00
  -3  -3   5  599.44   28.50
  -2  -3   5   33.30    4.30
  -2  -3   5   32.10    6.30
  -2  -3   5   17.50    4.90
  -1  -3   5   83.59    9.20
  -1  -3   5   71.09    7.10
  -1  -3   5   83.29   11.50
  -1  -3   5   72.49    8.30
   0  -3   5  971.40   40.20
   0  -3   5  943.01   42.00
   0  -3   5 1035.30   41.50
  -1   3  -5  272.57   17.10
   1  -3   5  301.27   16.00
   1  -3   5  319.47   15.50
   1  -3   5  294.57   17.20
  -2   3  -5  482.75   24.70
   2  -3   5  497.35   23.90
   2  -3   5  501.45   24.60
   3  -3   5  927.01   41.50
   3  -3   5  982.00   41.80
   4  -3   5 2247.78   89.89
   5  -3   5 1398.96   59.89
   6  -3   5  593.94   31.60
   7  -3   5  193.88   18.00
   8  -3   5   80.69   13.50
   9  -3   5  269.67   24.20
  10  -3   5   34.90   13.20
  11  -3   5  168.78   25.80
  -9  -2   5   38.00   10.60
  -8  -2   5  262.77   21.20
  -8  -2   5  271.27   20.70
  -7  -2   5  235.68   18.00
  -7  -2   5  238.48   18.40
  -6  -2   5  756.32   35.30
  -6  -2   5  786.02   35.70
  -5  -2   5  437.36   22.80
  -5  -2   5  444.66   23.50
  -4  -2   5   85.69    9.70
  -4  -2   5   75.69    9.60
  -3  -2   5 1467.05   58.89
  -3  -2   5 1449.06   59.69
  -2  -2   5   44.20    7.00
  -2  -2   5   38.40    5.90
  -2  -2   5   44.90    4.80
  -2  -2   5   48.70    8.90
  -1  -2   5  498.95   21.50
  -1  -2   5  491.45   24.30
  -1  -2   5  489.75   23.50
  -1  -2   5  513.55   24.80
   0   2  -5  807.42   33.40
   0  -2   5  800.72   33.60
   0  -2   5  751.52   34.60
   0  -2   5  769.42   32.60
  -1   2  -5  394.96   20.60
   1  -2   5  446.46   19.20
   1  -2   5  424.06   20.40
   1  -2   5  413.66   21.60
  -2   2  -5  759.32   33.60
   2  -2   5  745.63   34.00
   2  -2   5  762.82   33.60
   3  -2   5  300.27   17.50
   3  -2   5  283.37   17.20
   4  -2   5   44.30    7.50
   4  -2   5   35.70    6.80
   5  -2   5   36.70    8.20
   6  -2   5   14.20    7.60
   7  -2   5   68.39   12.60
   8  -2   5  695.53   38.40
   9  -2   5  194.18   21.60
  10  -2   5  758.42   43.70
  11  -2   5    5.10   13.10
  -9  -1   5  312.17   22.80
  -9  -1   5  326.37   24.20
  -8  -1   5  215.08   18.20
  -8  -1   5  243.28   19.60
  -7  -1   5  317.77   20.60
  -7  -1   5  343.57   20.60
  -6  -1   5  257.47   17.70
  -5  -1   5  280.47   17.70
  -5  -1   5  290.07   17.20
  -4  -1   5   18.70    5.40
  -4  -1   5   23.80    6.30
  -3  -1   5 2261.27   88.29
  -3  -1   5 2211.38   87.19
  -2  -1   5  293.27   18.90
  -2  -1   5  292.17   17.10
  -2  -1   5  300.57   16.30
  -2  -1   5  298.57   12.80
   1   1  -5  421.16   19.50
  -1  -1   5  418.26   21.80
  -1  -1   5  462.25   22.30
  -1  -1   5  440.76   19.20
   0   1  -5  838.62   33.90
   0  -1   5  791.02   35.70
   0  -1   5  796.62   33.60
   0  -1   5  814.52   34.30
  -1   1  -5  813.52   34.80
   1  -1   5  826.42   34.90
   1  -1   5  794.52   33.10
   1  -1   5  820.32   36.00
  -2   1  -5  389.66   20.90
   2  -1   5  420.76   21.10
   2  -1   5  402.66   21.20
   2  -1   5  420.86   17.70
   3  -1   5  479.95   24.10
   3  -1   5  476.95   24.70
   3  -1   5  494.25   19.60
   4  -1   5   80.89   10.80
   4  -1   5   68.69    9.70
   5  -1   5 2101.99   84.19
   5  -1   5 2113.49   86.29
   6  -1   5   63.49   11.00
  -7   1  -5 2461.75   89.89
   7  -1   5 2294.57   98.89
   8  -1   5    9.30    9.00
   9  -1   5   88.59   15.40
  10  -1   5   18.90   13.70
 -10   0   5 1078.99   49.90
 -10   0   5 1074.59   50.79
  -9   0   5  135.79   15.70
  -9   0   5   99.99   13.60
  -8   0   5   58.39   10.00
  -8   0   5   50.09   10.00
  -7   0   5   49.20    7.70
  -7   0   5   56.19    9.30
  -6   0   5  167.48   14.20
  -6   0   5  162.58   13.00
  -5   0   5   73.99   10.50
  -5   0   5   72.79    9.30
  -4   0   5   14.30    5.00
  -4   0   5   11.80    4.90
  -3   0   5  956.50   41.90
  -3   0   5  981.60   41.00
  -2   0   5  807.72   35.80
  -2   0   5  804.72   36.40
  -2   0   5  787.42   34.70
  -2   0   5  812.12   31.40
   1   0  -5  828.12   33.00
  -1   0   5  817.72   35.50
  -1   0   5  807.82   36.00
  -1   0   5  800.22   32.90
   0   0  -5    1.90    3.70
   0   0   5    1.40    4.00
   0   0   5    1.60    3.00
   0   0   5    2.60    3.70
  -1   0  -5  821.62   34.50
   1   0   5  808.32   35.50
   1   0   5  787.22   34.60
   1   0   5  793.92   33.20
  -2   0  -5  754.12   34.10
  -2   0  -5  776.02   31.50
   2   0   5  743.53   34.20
   2   0   5  770.42   34.40
   2   0   5  790.12   31.60
  -3   0  -5  994.30   38.90
   3   0   5  992.60   42.50
   3   0   5  965.30   43.10
   3   0   5  960.80   38.90
  -4   0  -5    8.40    2.90
   4   0   5   11.00    6.00
   4   0   5    9.20    4.70
   5   0   5   81.69   10.70
   5   0   5   77.89   11.60
  -6   0  -5  187.58   11.20
   6   0   5  183.58   15.10
   6   0   5  168.88   17.60
  -7   0  -5   59.39    8.70
   7   0   5   64.69    9.80
   7   0   5   87.19   14.20
   8   0   5   49.40    8.90
   8   0   5   58.39   13.40
   9   0   5  104.29   16.70
   9   0   5  108.69   13.30
  10   0   5 1219.98   54.09
  10   0   5 1099.49   60.49
 -10   1   5   15.20   10.10
 -10   1   5    6.40    7.70
  -9   1   5  117.59   14.90
  -9   1   5  109.49   14.00
  -8   1   5   10.00    6.00
  -8   1   5    7.00    9.10
  -7   1   5 2403.36   95.59
  -7   1   5 2447.06   96.89
  -6   1   5   53.59    7.40
  -6   1   5   63.09    9.20
  -5   1   5 2192.48   85.69
  -5   1   5 2164.78   86.89
  -4   1   5   63.69    8.40
  -4   1   5   73.89    8.40
  -3   1   5  484.75   24.90
  -3   1   5  475.85   23.90
  -3   1   5  579.04   30.50
  -2   1   5  422.26   22.60
  -2   1   5  442.66   21.10
  -2   1   5  407.66   21.70
   1  -1  -5  853.61   34.10
  -1   1   5  814.82   36.10
  -1   1   5  820.12   34.20
   0  -1  -5  832.72   34.80
   0  -1  -5  817.42   34.30
   0   1   5  796.12   34.70
   0   1   5  812.12   34.60
   0   1   5  797.82   35.80
  -1  -1  -5  414.86   19.60
  -1  -1  -5  401.46   20.80
   1   1   5  400.36   20.70
   1   1   5  419.76   20.20
   1   1   5  427.16   21.50
  -2  -1  -5  241.38   13.90
   2   1   5  288.67   17.00
   2   1   5  283.17   15.10
   2   1   5  295.47   16.50
  -3  -1  -5 2260.37   86.79
   3   1   5 2224.38   86.89
   3   1   5 2351.86   89.49
   3   1   5 2217.28   90.49
  -4  -1  -5   14.30    4.30
   4   1   5   18.00    5.70
   4   1   5   14.10    6.80
  -5  -1  -5  292.37   15.60
   5   1   5  272.97   17.80
   5   1   5  276.47   20.50
  -6  -1  -5  313.17   16.80
   6   1   5  284.27   18.70
   6   1   5  256.67   22.30
  -7  -1  -5  388.96   20.10
   7   1   5  314.77   26.00
   7   1   5  339.07   21.80
  -8  -1  -5  274.57   21.40
   8   1   5  252.07   19.90
   8   1   5  252.47   25.40
   9   1   5  294.27   29.60
   9   1   5  334.27   23.80
 -11   2   5    0.80   11.80
 -11   2   5   13.90    9.30
 -10   2   5  672.93   36.90
 -10   2   5  705.63   35.30
  -9   2   5  177.98   16.40
  -9   2   5  192.38   18.80
  -8   2   5  720.33   33.40
  -8   2   5  667.73   44.50
  -7   2   5   65.49    9.50
  -7   2   5   57.29   10.70
  -6   2   5    7.60    5.70
  -6   2   5   23.60    5.90
  -5   2   5   28.70    6.50
  -5   2   5   26.00    5.70
  -4   2   5   43.10    6.90
  -4   2   5   30.90    5.40
   3  -2  -5  266.77   12.80
  -3   2   5  317.67   16.50
  -3   2   5  314.77   17.70
   2  -2  -5  746.73   30.90
  -2   2   5  773.52   34.90
  -2   2   5  758.22   34.20
   1  -2  -5  417.36   19.60
   1  -2  -5  390.36   20.90
  -1   2   5  421.46   22.00
  -1   2   5  419.76   19.90
  -1   2   5  430.46   21.70
   0  -2  -5  761.42   33.10
   0  -2  -5  731.53   33.20
   0   2   5  782.32   34.20
   0   2   5  763.72   33.30
   0   2   5  759.72   33.70
  -1  -2  -5  452.85   23.60
  -1  -2  -5  435.66   22.20
   1   2   5  500.25   23.80
   1   2   5  490.05   23.20
   1   2   5  486.75   23.80
  -2  -2  -5   33.50    5.50
   2   2   5   41.60    7.30
   2   2   5   38.10    6.30
   2   2   5   49.70    7.40
  -3  -2  -5 1528.75   59.39
   3   2   5 1478.45   60.29
   3   2   5 1418.76   59.39
   3   2   5 1465.95   62.69
  -4  -2  -5   81.89    9.50
   4   2   5   83.09    9.80
   4   2   5   62.09   10.50
   4   2   5   80.59   12.80
  -5  -2  -5  477.65   23.90
   5   2   5  479.15   24.90
   5   2   5  462.85   28.50
  -6  -2  -5  747.53   36.70
   6   2   5  840.42   43.40
   6   2   5  889.01   38.60
  -7  -2  -5  220.88   17.30
   7   2   5  244.68   18.80
   7   2   5  252.87   24.10
  -8  -2  -5  300.27   23.40
   8   2   5  269.87   27.40
   8   2   5  273.87   21.30
   9   2   5    4.70   12.40
   9   2   5   51.89   16.60
 -11   3   5  135.69   17.10
 -11   3   5  150.88   17.40
 -10   3   5   30.20    7.70
 -10   3   5   28.50   10.80
  -9   3   5  287.77   21.80
  -9   3   5  313.17   20.10
  -8   3   5   72.89   10.80
  -8   3   5   98.49   11.40
  -7   3   5  201.88   15.10
  -7   3   5  202.48   16.50
  -6   3   5  569.74   29.50
  -6   3   5  623.94   28.50
  -5   3   5 1437.86   61.09
  -5   3   5 1505.85   59.89
  -4   3   5 2244.38   89.99
  -4   3   5 2297.67   88.79
   3  -3  -5  980.00   44.20
   3  -3  -5 1018.30   39.50
  -3   3   5  997.10   43.40
  -3   3   5  984.70   41.90
   2  -3  -5  446.56   24.00
   2  -3  -5  445.96   21.30
  -2   3   5  523.45   24.10
   1  -3  -5  258.67   15.40
   1  -3  -5  249.97   16.00
  -1   3   5  276.37   17.90
  -1   3   5  303.67   16.70
   0  -3  -5  951.50   41.50
   0  -3  -5  981.80   41.70
   0   3   5  959.60   41.70
   0   3   5  948.71   42.10
   0   3   5  980.50   41.60
  -1  -3  -5   75.09    8.80
   1   3   5   84.79    9.20
   1   3   5   71.99    9.90
   1   3   5   73.29   11.40
  -2  -3  -5   23.40    5.70
   2   3   5   25.00    6.00
   2   3   5   26.80    7.60
   2   3   5   26.70    7.20
  -3  -3  -5  589.24   28.30
   3   3   5  569.64   27.90
   3   3   5  600.74   31.20
  -4  -3  -5  535.35   26.70
   4   3   5  509.15   30.20
   4   3   5  544.25   26.40
  -5  -3  -5 1167.38   50.19
   5   3   5 1102.59   54.39
   5   3   5 1193.58   49.60
  -6  -3  -5    4.90    7.20
   6   3   5   -2.20   10.30
   6   3   5    2.90    6.10
  -7  -3  -5  253.77   20.10
   7   3   5  248.78   25.30
   7   3   5  214.48   18.00
   8   3   5  420.96   34.20
 -11   4   5   44.90   12.20
 -11   4   5   44.80    9.40
 -10   4   5  110.79   14.60
 -10   4   5  127.19   15.40
  -9   4   5  211.78   16.50
  -9   4   5  201.28   18.70
  -8   4   5  297.47   18.40
  -8   4   5  290.67   20.90
  -7   4   5  489.15   27.60
  -7   4   5  530.95   25.80
  -6   4   5   79.59    9.60
  -6   4   5   82.59   11.40
   5  -4  -5   12.40    2.90
   5  -4  -5   15.40    2.80
  -5   4   5    7.30    4.60
  -5   4   5   14.40    5.70
   4  -4  -5   -0.40    4.90
   4  -4  -5    5.10    3.70
  -4   4   5    0.50    3.70
  -4   4   5    5.60    4.50
   3  -4  -5   70.09   10.50
   3  -4  -5   79.19    8.40
  -3   4   5   88.99   10.20
  -3   4   5   85.99    8.80
   2  -4  -5   46.00    6.80
   2  -4  -5   51.39    8.00
  -2   4   5   37.70    6.90
   1  -4  -5 2441.36   92.29
   1  -4  -5 2323.97   93.49
  -1   4   5 2297.37   92.39
   0  -4  -5    2.80    4.70
   0   4   5    4.40    4.40
  -1  -4  -5 2115.99   83.79
   1   4   5 2061.69   82.59
  -2  -4  -5   15.10    5.70
   2   4   5   10.00    6.70
   2   4   5   18.70    5.30
  -3  -4  -5  204.48   15.50
   3   4   5  184.38   17.90
   3   4   5  212.38   14.40
  -4  -4  -5  270.97   19.60
   4   4   5  330.27   18.80
   4   4   5  314.97   23.70
  -5  -4  -5  564.94   31.30
   5   4   5  658.23   30.10
   5   4   5  592.94   35.60
  -6  -4  -5  162.58   18.30
   6   4   5  197.58   23.10
   6   4   5  191.28   16.10
  -7  -4  -5  172.08   19.70
   7   4   5  114.69   18.80
 -11   5   5  198.08   21.60
 -11   5   5  133.39   17.20
 -10   5   5    7.60    7.10
 -10   5   5    6.30    8.90
  -9   5   5  622.74   30.80
  -9   5   5  619.74   33.50
  -8   5   5 1098.29   50.49
  -8   5   5 1130.79   47.90
  -7   5   5  463.15   23.60
  -7   5   5  439.96   35.20
   6  -5  -5  299.37   13.70
  -6   5   5  290.97   17.00
  -6   5   5  279.67   18.80
   5  -5  -5   96.79   13.30
   5  -5  -5   81.59    8.20
  -5   5   5   73.79    8.90
  -5   5   5   80.19   10.80
   4  -5  -5 2167.68   82.89
   4  -5  -5 2050.39   87.79
  -4   5   5 2152.58   85.89
  -4   5   5 2220.08   84.29
   3  -5  -5   23.90    7.10
   3  -5  -5   37.00    6.50
  -3   5   5   27.40    5.30
  -3   5   5   30.90    6.70
   2  -5  -5 1590.14   63.39
   2  -5  -5 1531.15   65.49
  -2   5   5 1550.44   63.79
   1  -5  -5    6.00    5.20
  -1   5   5   20.10    5.60
   0  -5  -5   69.09   11.00
   0   5   5   81.59    9.70
  -1  -5  -5   64.69    9.80
   1   5   5   80.79    9.90
  -2  -5  -5   92.29   12.50
   2   5   5   70.29   10.00
  -3  -5  -5   71.79   11.20
   3   5   5   93.79   11.60
  -4  -5  -5  219.08   18.40
   4   5   5  210.18   15.50
  -5  -5  -5   17.40    8.70
   5   5   5   -0.90    6.70
  -6  -5  -5  474.35   30.30
 -11   6   5  552.64   30.10
 -11   6   5  527.15   33.20
 -10   6   5  186.38   19.70
 -10   6   5  188.48   16.80
  -9   6   5   10.90    6.30
  -9   6   5   -0.40    7.30
  -8   6   5  791.22   35.80
  -8   6   5  783.82   38.80
   7  -6  -5  296.07   14.50
  -7   6   5  268.77   16.90
  -7   6   5  279.77   19.50
   6  -6  -5  179.88   11.90
   6  -6  -5  155.78   17.30
  -6   6   5  179.38   12.90
  -6   6   5  173.68   15.20
   5  -6  -5   68.19   10.50
   5  -6  -5   62.39   10.80
  -5   6   5   75.59   10.80
  -5   6   5   85.29    9.30
   4  -6  -5    9.10    6.50
   4  -6  -5    3.30    6.20
  -4   6   5    9.80    5.40
  -4   6   5   19.90    5.20
   3  -6  -5  592.14   31.70
  -3   6   5  609.04   29.50
  -3   6   5  618.94   28.00
   2  -6  -5   97.79   12.60
  -2   6   5   68.99   10.10
   1  -6  -5  279.77   19.80
  -1   6   5  295.97   17.70
   0  -6  -5  202.58   16.30
   0   6   5  168.08   13.60
  -1  -6  -5 2390.86  100.29
   1   6   5 2573.14   97.39
  -2  -6  -5  661.53   35.50
   2   6   5  733.73   32.40
   3   6   5  291.87   18.20
  -4  -6  -5  107.29   17.10
   4   6   5  119.89   13.60
  -5  -6  -5  165.78   20.60
 -11   7   5  155.58   20.90
 -11   7   5  134.89   16.40
 -10   7   5  205.18   20.90
 -10   7   5  254.77   18.30
  -9   7   5  269.37   17.80
  -9   7   5  236.88   20.60
  -8   7   5  316.97   22.00
  -8   7   5  324.47   18.90
   7  -7  -5   64.39    9.60
   7  -7  -5   58.79   12.40
  -7   7   5   68.49   10.70
  -7   7   5   67.09    8.60
   6  -7  -5 2391.86  104.49
  -6   7   5 2488.45   95.09
  -6   7   5 2436.46   98.59
   5  -7  -5   81.99   12.60
  -5   7   5   63.19    9.60
  -5   7   5   87.29    9.50
   4  -7  -5  172.78   17.80
  -4   7   5  193.18   14.90
  -4   7   5  210.98   13.60
   3  -7  -5  516.45   29.60
  -3   7   5  513.25   26.50
  -3   7   5  519.85   24.70
   2  -7  -5  458.95   27.20
  -2   7   5  450.75   23.80
   1  -7  -5  315.27   22.10
  -1   7   5  291.77   18.20
   0  -7  -5   52.19   10.90
   0   7   5   63.59    8.70
  -1  -7  -5   13.50    8.20
   1   7   5   14.20    6.10
  -2  -7  -5  187.08   19.60
   2   7   5  191.98   15.10
  -3  -7  -5   30.50   10.60
   3   7   5   34.30    7.90
  -4  -7  -5   87.09   14.70
 -11   8   5  429.46   30.30
 -11   8   5  432.16   26.00
 -10   8   5  249.38   22.30
 -10   8   5  257.27   19.10
  -9   8   5  203.68   20.00
  -9   8   5  215.88   16.30
   8  -8  -5   59.39   10.50
   8  -8  -5   38.60   12.20
  -8   8   5   52.59    8.10
  -8   8   5   39.80    9.50
   7  -8  -5   10.20    9.00
   7  -8  -5   12.90    7.00
  -7   8   5   14.40    5.80
  -7   8   5    6.20    7.30
   6  -8  -5  662.43   39.00
  -6   8   5  720.63   35.30
  -6   8   5  727.73   32.10
   5  -8  -5   75.49   13.00
  -5   8   5   81.79    9.70
  -5   8   5   66.49   11.20
   4  -8  -5  265.27   22.50
  -4   8   5  316.97   17.50
  -4   8   5  325.17   19.90
   3  -8  -5 1128.09   52.89
  -3   8   5 1081.59   48.30
  -3   8   5 1144.29   46.50
   2  -8  -5  737.43   40.60
  -2   8   5  831.82   36.90
  -2   8   5  832.12   35.30
   1  -8  -5  361.66   25.30
  -1   8   5  351.26   20.60
   0  -8  -5   43.90   11.20
   0   8   5   52.19    8.20
  -1  -8  -5  111.09   15.40
   1   8   5  105.89   12.40
  -2  -8  -5  709.13   39.70
  -3  -8  -5  138.09   21.60
 -11   9   5   17.20    8.90
 -11   9   5   18.40   11.90
 -10   9   5  343.97   21.70
 -10   9   5  312.57   25.00
  -9   9   5  115.79   13.90
  -9   9   5  119.19   15.20
   8  -9  -5  113.29   14.30
   8  -9  -5   80.29   14.90
  -8   9   5   89.49   12.80
  -8   9   5   89.29   11.60
   7  -9  -5  174.08   22.10
  -7   9   5  187.28   17.90
  -7   9   5  205.38   14.30
   6  -9  -5  330.17   26.70
  -6   9   5  290.67   17.60
  -6   9   5  280.37   20.70
   5  -9  -5  249.48   22.90
  -5   9   5  208.78   14.00
  -5   9   5  158.38   16.80
   4  -9  -5  569.24   35.10
  -4   9   5  600.34   30.70
  -4   9   5  627.24   27.80
   3  -9  -5    5.50    8.90
  -3   9   5   -2.80    6.30
  -3   9   5    2.50    5.30
   2  -9  -5  253.77   23.20
  -2   9   5  260.67   16.10
  -2   9   5  243.98   18.20
   1  -9  -5  251.67   22.70
  -1   9   5  220.18   16.80
   0  -9  -5  122.19   19.50
   0   9   5  105.79   13.20
  -1  -9  -5    6.50   11.00
  -2  -9  -5    3.00   11.50
 -10  10   5 1133.79   49.50
 -10  10   5 1140.59   54.99
   9 -10  -5   25.00   12.40
  -9  10   5    5.30    7.40
  -9  10   5   -1.10    8.60
   8 -10  -5  724.33   36.70
   8 -10  -5  689.23   43.40
  -8  10   5  728.23   37.80
  -8  10   5  701.43   33.10
   7 -10  -5   31.90   13.10
  -7  10   5   28.20    9.40
  -7  10   5   47.50    7.60
   6 -10  -5  107.79   16.90
  -6  10   5  118.79   15.90
  -6  10   5   98.89   11.70
   5 -10  -5   11.00   10.40
  -5  10   5   17.30    8.20
  -5  10   5    6.00    5.50
   4 -10  -5  157.28   21.00
  -4  10   5  195.08   13.60
  -4  10   5  178.18   16.40
   3 -10  -5  261.07   24.60
  -3  10   5  277.17   16.20
  -3  10   5  230.78   18.50
   2 -10  -5  269.67   25.60
  -2  10   5  296.67   22.40
   1 -10  -5  303.17   27.20
   0 -10  -5 1101.29   56.59
   9 -11  -5   -8.00   12.80
  -9  11   5   14.60   10.20
   8 -11  -5  141.79   20.80
   8 -11  -5  130.19   17.30
  -8  11   5  138.59   18.80
   7 -11  -5   81.29   16.60
  -7  11   5   76.59   12.60
   6 -11  -5  123.99   19.40
  -6  11   5  176.18   18.80
   5 -11  -5  515.25   36.40
  -5  11   5  540.95   30.30
   4 -11  -5  138.49   20.00
  -4  11   5  156.68   17.60
   3 -11  -5  410.76   32.60
  -3  11   5  432.86   25.80
   2 -11  -5   56.09   15.10
   3 -10   6  110.59   17.40
   3 -10   6  106.79   15.00
   4 -10   6   92.09   14.30
   4 -10   6   86.99   16.80
   5 -10   6  193.28   21.70
   5 -10   6  194.98   25.40
   6 -10   6  483.35   34.00
   6 -10   6  453.15   30.60
   7 -10   6  103.99   18.30
   1  -9   6   94.79   15.20
   1  -9   6   95.39   13.00
   2  -9   6    6.50    8.00
   2  -9   6   11.40   11.90
   2  -9   6   11.30    9.90
   3  -9   6  531.05   33.40
   3  -9   6  588.94   31.50
   3  -9   6  528.15   27.50
   4  -9   6   26.30   11.80
   4  -9   6   19.00    9.40
   4  -9   6   15.30    8.00
   5  -9   6   77.69   13.40
   5  -9   6   93.89   15.50
   6  -9   6  218.88   24.30
   7  -9   6   19.80   12.00
   8  -9   6  346.07   31.10
   9  -9   6   58.69   16.30
  -1  -8   6  364.06   21.70
  -1  -8   6  364.16   26.90
   0  -8   6  637.04   32.20
   0  -8   6  661.83   34.40
   0  -8   6  740.23   40.30
   1  -8   6  187.08   19.90
   1  -8   6  196.28   15.80
   2  -8   6   64.89   10.90
   2  -8   6   61.69    9.50
   2  -8   6   70.59   12.00
   3  -8   6   23.80    9.10
   3  -8   6   19.60    9.60
   3  -8   6   13.20    7.60
   4  -8   6  140.79   16.70
   4  -8   6  134.19   18.10
   5  -8   6   32.00   10.40
   5  -8   6   24.70   10.90
   6  -8   6   69.79   13.50
   7  -8   6  136.79   21.30
   8  -8   6  692.53   41.00
   9  -8   6   82.39   16.30
  -3  -7   6  153.08   22.90
  -3  -7   6  125.89   13.70
  -2  -7   6   14.30    8.00
  -2  -7   6   13.80   11.00
  -2  -7   6   14.20   10.10
  -1  -7   6  127.59   17.40
  -1  -7   6  112.99   15.50
  -1  -7   6  161.28   16.80
   0  -7   6   17.90    8.70
   0  -7   6   16.20    7.50
   0  -7   6   14.80    8.50
   0  -7   6   20.00    8.40
   1  -7   6   85.69   11.80
   1  -7   6   91.79   11.70
   1  -7   6   81.19    9.90
   1  -7   6   94.39   14.50
   2  -7   6  279.87   20.50
   2  -7   6  293.67   18.20
   3  -7   6   93.09   12.60
   3  -7   6   77.19   11.20
   4  -7   6 1081.29   48.60
   4  -7   6 1036.80   48.90
   5  -7   6  100.09   16.50
   5  -7   6  100.29   12.80
   6  -7   6  145.69   19.30
   7  -7   6    7.90   11.00
   8  -7   6  202.38   23.20
   9  -7   6    5.00   12.60
  10  -7   6  115.79   19.30
  -4  -6   6  467.65   33.30
  -4  -6   6  448.86   26.70
  -3  -6   6  213.88   17.70
  -3  -6   6  248.08   23.50
  -3  -6   6  251.87   20.00
  -2  -6   6   57.89   10.70
  -2  -6   6   50.09    8.90
  -2  -6   6   72.79   12.10
  -1  -6   6  113.49   12.50
  -1  -6   6  111.39   14.60
  -1  -6   6  110.19   14.60
  -1  -6   6   99.49   12.50
   0  -6   6   75.69   11.60
   0  -6   6   78.09   11.70
   0  -6   6   66.79    9.00
   0  -6   6   72.89   10.20
   1  -6   6 1206.78   49.90
   1  -6   6 1158.28   51.69
   1  -6   6 1192.98   48.60
   1  -6   6 1180.68   50.59
   2  -6   6   75.39   10.30
   2  -6   6   75.69    8.40
   2  -6   6   99.09   12.20
   2  -6   6   73.39   10.40
   3  -6   6  514.55   28.10
   3  -6   6  513.85   37.10
   4  -6   6  306.97   21.30
   4  -6   6  261.37   20.00
   5  -6   6  233.78   19.40
   5  -6   6  278.17   21.10
   6  -6   6   63.49   12.30
   7  -6   6  107.49   15.90
   8  -6   6   67.09   14.10
   9  -6   6  552.84   36.70
  10  -6   6   77.89   17.10
  -5  -5   6  177.78   19.00
  -5  -5   6  195.68   25.20
  -4  -5   6  117.29   14.40
  -4  -5   6   81.69   14.70
  -4  -5   6  118.29   16.40
  -3  -5   6   29.70   10.00
  -3  -5   6   34.90    8.20
  -3  -5   6   25.70    9.00
  -2  -5   6  118.49   15.60
  -2  -5   6  136.49   14.80
  -2  -5   6  105.89   14.70
  -1  -5   6  256.37   17.50
  -1  -5   6  248.08   18.40
  -1  -5   6  226.78   16.20
  -1  -5   6  248.88   15.20
   0  -5   6  321.97   18.20
   0  -5   6  295.37   18.40
   0  -5   6  315.67   20.30
   0  -5   6  316.07   18.20
   1  -5   6  157.88   13.40
   1  -5   6  162.18   10.90
   1  -5   6  149.88   13.20
   1  -5   6  146.39   14.60
   2  -5   6  155.38   14.10
   2  -5   6  169.68   15.10
   3  -5   6  118.09   13.80
   3  -5   6  154.38   14.60
   4  -5   6  562.84   30.10
   4  -5   6  554.94   29.80
   5  -5   6  325.57   22.60
   5  -5   6  306.17   21.30
   6  -5   6 1082.59   55.09
   7  -5   6  295.57   24.10
   8  -5   6   14.20   10.70
   9  -5   6   10.50   11.70
  10  -5   6  216.08   27.60
  -6  -4   6   85.89   12.80
  -5  -4   6   23.00    9.50
  -5  -4   6   11.50    8.10
  -4  -4   6  141.09   14.60
  -4  -4   6  152.38   16.30
  -3  -4   6 1034.00   46.10
  -3  -4   6 1024.90   44.80
  -2  -4   6  283.77   17.90
  -2  -4   6  282.77   15.00
  -2  -4   6  275.27   19.20
  -1  -4   6  542.15   28.60
  -1  -4   6  559.24   27.40
  -1  -4   6  568.84   25.00
   0  -4   6   68.19    9.70
   0  -4   6   57.59    7.80
   0  -4   6   63.69    8.10
   0  -4   6   61.49    8.70
   1  -4   6  154.78   10.10
   1  -4   6  177.18   13.00
   1  -4   6  165.38   14.50
   2  -4   6  156.28   13.50
   2  -4   6  164.78   14.60
   3  -4   6  263.87   18.30
   3  -4   6  252.47   17.90
   4  -4   6   86.29   12.70
   5  -4   6  149.79   15.30
   5  -4   6  150.18   16.20
   7  -4   6   82.09   13.80
   8  -4   6  139.49   20.80
   9  -4   6   91.19   16.50
  10  -4   6  517.65   37.80
  -7  -3   6  109.39   14.50
  -7  -3   6  115.09   22.10
  -6  -3   6  544.75   30.80
  -6  -3   6  574.14   30.20
  -5  -3   6   19.00    8.30
  -5  -3   6   16.70    7.30
  -4  -3   6   93.79   11.00
  -4  -3   6   78.49   10.70
  -3  -3   6  555.04   27.80
  -3  -3   6  468.25   27.90
  -2  -3   6  132.39   13.80
  -2  -3   6  110.99   11.90
  -1  -3   6  254.37   16.20
  -1  -3   6  264.87   20.30
  -1  -3   6  239.38   13.30
  -1  -3   6  252.97   17.40
   0  -3   6  177.48   13.70
   0  -3   6  174.88   11.90
   0  -3   6  141.29   15.00
   0  -3   6  157.28   14.30
   1  -3   6   17.80    6.30
   1  -3   6   21.90    5.90
   1  -3   6    5.60    5.30
   2  -3   6 1436.96   61.59
   2  -3   6 1497.35   60.69
   3  -3   6  178.68   14.70
   3  -3   6  151.88   14.00
   4  -3   6  161.58   15.70
   4  -3   6  168.98   15.50
   5  -3   6  153.88   16.10
   5  -3   6  152.08   15.20
   6  -3   6  520.55   28.80
   7  -3   6 1044.30   51.09
   8  -3   6   21.80   11.30
   9  -3   6  255.17   27.10
  10  -3   6  103.79   20.00
  -7  -2   6   14.00    8.90
  -7  -2   6   16.60    9.70
  -6  -2   6   52.49   10.50
  -6  -2   6   46.60    9.00
  -5  -2   6  296.97   21.00
  -5  -2   6  290.67   19.10
  -4  -2   6   88.79   11.40
  -4  -2   6   70.19    9.20
  -3  -2   6  134.79   13.30
  -3  -2   6  144.49   14.30
  -2  -2   6  166.28   13.50
  -2  -2   6  160.88   14.60
  -1  -2   6 1524.75   62.29
  -1  -2   6 1522.05   61.59
  -1  -2   6 1502.15   62.79
  -1  -2   6 1461.25   58.89
   0  -2   6  270.57   18.40
   0  -2   6  352.06   17.40
   0  -2   6  364.46   20.50
  -1   2  -6  606.94   27.80
   1  -2   6  528.75   28.00
   1  -2   6  534.55   26.20
   2  -2   6  362.56   20.30
   2  -2   6  345.67   20.70
   3  -2   6   14.10    6.10
   3  -2   6   19.20    6.60
   4  -2   6  159.98   15.40
   4  -2   6  149.49   14.20
   5  -2   6  127.89   15.50
   5  -2   6  114.99   13.80
   6  -2   6  267.77   21.90
   6  -2   6  259.67   20.00
   7  -2   6  141.29   19.90
   7  -2   6  143.59   16.70
   8  -2   6   57.59   14.10
   8  -2   6   62.89   10.90
   9  -2   6    3.30    9.10
   9  -2   6   11.70   12.50
  -8  -1   6   85.69   12.40
  -8  -1   6   95.79   14.30
  -7  -1   6  215.58   20.30
  -7  -1   6  214.28   18.10
  -6  -1   6   81.89   11.90
  -6  -1   6   96.19   12.70
  -5  -1   6 1197.88   54.99
  -5  -1   6 1314.67   53.99
  -4  -1   6  167.88   14.20
  -4  -1   6  168.38   15.70
  -3  -1   6  187.68   14.40
  -3  -1   6  201.88   15.80
  -2  -1   6   14.70    6.00
  -2  -1   6   13.90    5.30
  -1  -1   6  576.54   28.00
  -1  -1   6  538.25   26.70
  -1  -1   6  531.55   23.50
  -1  -1   6  514.05   27.40
   0   1  -6  238.28   14.50
   0  -1   6  209.68   15.60
   0  -1   6  228.78   13.50
   0  -1   6  167.78   14.50
  -1   1  -6  243.88   15.30
   1  -1   6  207.08   13.70
   1  -1   6  201.48   15.40
   1  -1   6  157.48   12.50
   2  -1   6  543.65   26.60
   2  -1   6  436.86   21.10
   2  -1   6  515.55   25.40
   3  -1   6 1508.55   63.29
   3  -1   6 1503.15   63.29
   4  -1   6  262.17   18.80
   4  -1   6  256.07   18.20
   5  -1   6  554.64   29.40
   5  -1   6  543.15   30.60
   6  -1   6  240.38   21.60
   6  -1   6  265.57   19.40
   7  -1   6  114.49   16.10
   7  -1   6   97.09   15.40
   8  -1   6  135.89   18.10
   8  -1   6  113.19   17.90
   9  -1   6  354.66   32.60
   9  -1   6  400.36   27.40
  -9   0   6   53.39   13.60
  -9   0   6   51.29   11.50
  -8   0   6  723.73   37.80
  -8   0   6  677.83   35.40
  -7   0   6    9.70    8.70
  -7   0   6   11.80    6.90
  -6   0   6   79.79   10.70
  -6   0   6   58.29   10.20
  -5   0   6  367.96   23.60
  -5   0   6  318.47   20.00
  -4   0   6   58.89    9.70
  -3   0   6  176.18   14.90
  -3   0   6  179.18   13.80
  -2   0   6  344.47   19.70
  -2   0   6  356.76   21.10
   1   0  -6  253.27   13.50
  -1   0   6  219.38   16.90
  -1   0   6  215.18   12.60
  -1   0   6  206.48   15.60
   0   0  -6  709.73   30.50
   0   0   6  703.43   30.30
   0   0   6  752.02   33.20
   0   0   6  566.44   30.40
  -1   0  -6  242.88   15.70
   1   0   6  179.78   13.70
   1   0   6  217.48   15.50
   1   0   6  210.38   14.60
   2   0   6  350.76   21.10
   2   0   6  364.96   21.00
   3   0   6  169.88   15.70
   3   0   6  192.58   14.90
   3   0   6  175.48   11.60
  -4   0  -6   66.99    7.00
   4   0   6   52.19    8.70
   4   0   6   53.59   10.40
   5   0   6  330.57   27.50
   5   0   6  339.37   21.30
   6   0   6   67.39   10.70
   6   0   6   78.79   13.60
   7   0   6   17.60    8.60
   7   0   6   32.00   11.80
   8   0   6  691.63   42.20
   8   0   6  704.53   36.60
   9   0   6   82.29   19.50
   9   0   6   61.29   13.00
  -9   1   6  358.06   27.80
  -9   1   6  396.46   25.80
  -8   1   6  125.69   18.10
  -8   1   6  123.79   15.00
  -7   1   6   77.79   10.50
  -7   1   6  110.49   15.60
  -6   1   6  270.57   18.40
  -6   1   6  270.17   19.80
  -5   1   6  602.74   29.70
  -4   1   6  246.08   17.60
  -4   1   6  233.18   17.70
  -3   1   6 1503.05   64.09
  -3   1   6 1567.24   62.99
   2  -1  -6  610.14   25.30
  -2   1   6  589.34   30.10
   1  -1  -6  242.68   13.90
  -1   1   6  229.58   13.70
  -1   1   6  252.57   17.70
  -1   1   6  234.28   16.40
   0  -1  -6  222.98   14.80
   0   1   6  220.18   14.30
   0   1   6  215.78   16.10
   0   1   6  222.08   16.10
   1   1   6  554.14   27.80
   1   1   6  568.14   28.40
  -2  -1  -6   10.70    4.80
   2   1   6   11.30    6.30
   2   1   6   15.40    6.30
   2   1   6    7.90    6.10
  -3  -1  -6  180.28   11.80
   3   1   6  168.88   14.80
   3   1   6  183.38   16.70
   3   1   6  180.88   16.40
  -4  -1  -6  145.09   11.10
   4   1   6  161.58   14.60
   4   1   6  164.48   17.10
  -5  -1  -6 1208.18   50.19
   5   1   6 1278.27   54.59
   5   1   6 1260.37   57.99
   6   1   6   92.19   11.80
   6   1   6   68.19   13.80
   7   1   6  205.38   19.50
   7   1   6  182.78   24.30
   8   1   6   98.99   14.20
   8   1   6   93.59   18.50
  -9   2   6   13.30   10.40
  -9   2   6   13.10    8.40
  -8   2   6   53.89   11.30
  -8   2   6   63.29   10.00
  -7   2   6  119.59   15.90
  -7   2   6  131.39   13.70
  -6   2   6  288.27   20.50
  -6   2   6  265.37   18.00
  -5   2   6  100.59   16.20
  -5   2   6  129.69   12.30
  -4   2   6  159.28   13.40
  -4   2   6  175.48   15.20
  -3   2   6   16.10    6.10
  -3   2   6    7.10    5.00
   2  -2  -6  392.16   18.50
  -2   2   6  376.26   20.90
  -2   2   6  371.76   22.00
   1  -2  -6  598.64   26.80
  -1   2   6  559.04   29.10
   0  -2  -6  380.46   20.90
   0  -2  -6  392.56   20.80
   0   2   6  409.26   22.50
   0   2   6  344.57   20.20
  -1  -2  -6 1555.64   61.19
   1   2   6 1424.56   61.19
   1   2   6 1463.55   62.29
   1   2   6 1550.24   62.89
  -2  -2  -6  151.28   11.90
   2   2   6  169.88   15.50
   2   2   6  138.59   13.50
   2   2   6  142.59   14.90
  -3  -2  -6  141.29   11.90
   3   2   6  161.38   14.60
   3   2   6  143.39   16.00
  -4  -2  -6   88.69   10.70
   4   2   6   95.39   16.60
  -5  -2  -6  339.17   19.40
   5   2   6  336.97   21.80
   5   2   6  298.17   25.20
   6   2   6   47.50   13.50
   6   2   6   36.10    8.90
   7   2   6   16.30    9.30
   7   2   6   13.60   12.90
 -10   3   6  136.99   15.80
 -10   3   6  130.19   17.20
  -9   3   6  268.87   23.70
  -9   3   6  269.87   20.70
  -8   3   6   24.10    8.20
  -8   3   6   28.70    9.70
  -7   3   6 1130.69   48.10
  -7   3   6 1030.30   49.30
  -6   3   6  521.45   26.90
  -6   3   6  517.85   29.00
  -5   3   6  155.78   13.50
  -5   3   6  170.28   15.30
  -4   3   6  181.78   14.10
  -4   3   6  174.68   16.50
   3  -3  -6  198.78   12.50
  -3   3   6  170.78   13.60
  -3   3   6  160.88   15.00
   2  -3  -6 1556.44   65.69
   2  -3  -6 1634.24   62.19
  -2   3   6 1512.85   65.19
   1  -3  -6   18.20    6.20
   1  -3  -6    7.70    6.40
  -1   3   6    6.50    5.30
   0  -3  -6  199.48   14.70
   0   3   6  185.58   15.30
  -1  -3  -6  256.37   16.70
   1   3   6  233.78   16.90
   1   3   6  252.47   18.20
  -2  -3  -6  126.19   12.50
   2   3   6  136.29   15.40
   2   3   6  142.39   13.50
  -3  -3  -6  549.74   27.10
   3   3   6  516.05   30.60
   3   3   6  534.35   28.00
  -4  -3  -6   83.09   10.70
   4   3   6   89.29   14.40
   4   3   6  102.09   18.20
  -5  -3  -6   32.10    8.80
   5   3   6   30.50   12.20
   5   3   6   21.30    8.50
   6   3   6  594.34   31.20
   6   3   6  525.55   37.10
   7   3   6  125.69   20.30
   7   3   6  133.09   18.90
 -10   4   6  516.45   33.60
 -10   4   6  482.15   29.80
  -9   4   6  107.39   13.40
  -9   4   6   75.79   13.60
  -8   4   6  141.59   14.70
  -8   4   6  143.49   17.80
  -7   4   6  101.49   12.80
  -7   4   6   72.49   11.40
  -6   4   6   66.09    9.90
  -6   4   6   69.19    9.10
  -5   4   6  161.78   13.70
  -5   4   6  149.69   15.10
  -4   4   6   66.29   14.80
  -4   4   6   50.49    7.90
   3  -4  -6  260.57   19.20
  -3   4   6  275.17   17.00
  -3   4   6  248.28   18.20
   2  -4  -6  146.19   13.90
   2  -4  -6  148.29   15.30
  -2   4   6  156.98   14.70
   1  -4  -6  177.68   15.20
  -1   4   6  179.08   15.00
   0  -4  -6   54.99    9.30
   0   4   6   59.99    8.90
  -1  -4  -6  551.64   28.80
   1   4   6  557.74   28.70
  -2  -4  -6  295.87   19.40
   2   4   6  296.07   19.30
  -3  -4  -6 1147.09   49.50
   3   4   6 1082.79   52.69
   3   4   6 1075.09   53.89
  -4  -4  -6  172.18   17.30
   4   4   6  147.39   16.00
   4   4   6  147.09   20.90
  -5  -4  -6   21.10    9.70
   5   4   6   20.80    8.70
   5   4   6   17.70   12.80
   6   4   6   69.59   16.70
   6   4   6   77.59   12.00
 -10   5   6  203.88   23.60
 -10   5   6  188.48   19.50
  -9   5   6   19.40    8.00
  -9   5   6    9.70    9.90
  -8   5   6   26.10    9.70
  -8   5   6   16.30    7.00
  -7   5   6  289.77   19.70
  -7   5   6  330.57   22.70
  -6   5   6 1176.88   55.09
  -6   5   6 1328.07   53.69
  -5   5   6  297.17   18.70
  -5   5   6  327.27   21.20
   4  -5  -6  549.15   31.70
  -4   5   6  602.04   28.80
  -4   5   6  568.24   30.20
   3  -5  -6  115.69   15.30
  -3   5   6  138.69   12.70
  -3   5   6  134.29   17.30
   2  -5  -6  136.19   15.50
  -2   5   6  166.88   16.60
   1  -5  -6  137.29   15.00
  -1   5   6  142.69   14.20
   0  -5  -6  340.97   22.30
   0   5   6  330.67   20.60
  -1  -5  -6  280.97   20.10
   1   5   6  257.07   18.50
  -2  -5  -6  120.69   15.90
   2   5   6  141.69   20.10
  -3  -5  -6   12.00    8.90
   3   5   6   21.00    8.60
  -4  -5  -6   75.89   15.90
   4   5   6   88.19   12.10
  -5  -5  -6  207.18   22.00
   5   5   6  176.98   19.40
 -10   6   6   76.79   12.70
 -10   6   6   77.99   14.70
  -9   6   6  547.55   33.00
  -9   6   6  567.14   29.90
  -8   6   6   53.19    8.60
  -8   6   6   57.59   11.60
  -7   6   6   84.39   10.60
  -7   6   6   83.19   12.40
  -6   6   6   59.39   10.60
  -6   6   6   47.70    8.30
   5  -6  -6  266.87   22.30
  -5   6   6  254.47   19.30
  -5   6   6  256.37   17.10
  -4   6   6  283.97   20.10
  -4   6   6  307.37   24.40
   3  -6  -6  573.94   32.00
  -3   6   6  550.74   27.50
  -3   6   6  538.75   29.20
   2  -6  -6   78.39   12.30
  -2   6   6   96.09   12.40
   1  -6  -6 1255.17   55.79
  -1   6   6 1191.48   58.49
   0  -6  -6   88.59   12.50
  -2  -6  -6   47.30   11.50
   2   6   6   64.79    9.60
  -3  -6  -6  241.58   23.20
   3   6   6  263.47   19.80
  -4  -6  -6  541.55   34.60
   4   6   6  617.24   38.90
 -10   7   6  133.19   17.40
 -10   7   6  121.69   16.70
  -9   7   6   -0.20    7.20
  -9   7   6    5.90    9.90
  -8   7   6  226.28   21.20
  -8   7   6  209.48   17.10
  -7   7   6   22.30    8.40
  -7   7   6    2.60    6.60
   6  -7  -6  124.59   19.10
  -6   7   6  127.39   13.20
  -6   7   6  113.09   14.40
   5  -7  -6  113.39   15.90
  -5   7   6  121.89   12.80
  -5   7   6  126.19   15.20
   4  -7  -6 1063.29   51.49
  -4   7   6 1054.79   48.00
   3  -7  -6   75.79   13.00
  -3   7   6   79.79   11.10
  -3   7   6   84.89   12.30
   2  -7  -6  332.47   24.40
  -2   7   6  308.67   20.80
   1  -7  -6  112.09   17.10
  -1   7   6  108.59   13.80
   0  -7  -6   23.60   10.30
   0   7   6   11.90    7.80
  -1  -7  -6  140.29   19.90
   1   7   6  131.59   15.70
  -2  -7  -6   -2.10   10.40
   2   7   6    7.90    8.00
  -3  -7  -6  128.39   17.60
  -9   8   6   87.99   11.70
  -9   8   6   81.49   14.00
  -8   8   6  696.23   34.00
  -8   8   6  705.33   38.10
   7  -8  -6  139.29   19.50
  -7   8   6  152.68   14.80
  -7   8   6  138.49   18.90
   6  -8  -6   73.49   14.50
  -6   8   6   56.59    9.20
  -6   8   6   67.99   11.40
   5  -8  -6   22.20   11.00
  -5   8   6   23.90    7.10
  -5   8   6   28.20    9.00
   4  -8  -6  154.78   20.00
  -4   8   6  159.38   14.20
  -4   8   6  147.29   16.30
   3  -8  -6   21.80   10.70
  -3   8   6   23.30    8.30
  -3   8   6   11.90    7.30
   2  -8  -6   31.70   11.20
  -2   8   6   66.69   10.40
  -2   8   6   46.60    8.50
   1  -8  -6  169.68   20.80
  -1   8   6  207.48   17.60
   0  -8  -6  725.13   41.00
   0   8   6  748.83   36.20
  -1  -8  -6  435.16   31.80
   1   8   6  426.26   25.80
  -9   9   6   68.89   11.20
  -9   9   6   41.10   13.00
   8  -9  -6  416.66   34.10
  -8   9   6  363.06   27.60
  -8   9   6  404.76   23.40
   7  -9  -6   -6.70   11.40
  -7   9   6    5.00    7.50
  -7   9   6   -2.50    9.20
   6  -9  -6  261.17   26.50
  -6   9   6  230.18   21.60
  -6   9   6  246.78   17.80
   5  -9  -6   77.89   16.10
  -5   9   6   95.69   12.80
  -5   9   6  123.39   13.40
   4  -9  -6   36.10   12.50
  -4   9   6   15.70    9.20
  -4   9   6    8.50    6.90
   3  -9  -6  533.65   36.20
  -3   9   6  590.04   31.60
  -3   9   6  597.34   28.80
   2  -9  -6   24.70   12.30
  -2   9   6   27.90    9.10
  -2   9   6    6.70    7.50
   1  -9  -6   81.69   15.50
  -1   9   6   81.79   12.20
   0  -9  -6   68.29   15.40
   7 -10  -6  139.09   21.00
  -7  10   6  109.09   14.80
  -7  10   6  162.68   15.80
   6 -10  -6  494.85   36.70
  -6  10   6  496.15   30.50
  -6  10   6  525.05   26.90
   5 -10  -6  188.98   25.80
  -5  10   6  207.58   16.50
  -5  10   6  182.28   20.20
   4 -10  -6   72.09   16.50
  -4  10   6   62.89   12.30
  -4  10   6   92.39   14.80
   3 -10  -6  109.29   18.20
  -3  10   6  123.19   14.60
   2  -8   7   39.50   11.80
   2  -8   7   18.20   10.40
   3  -8   7  138.19   17.70
   3  -8   7  117.69   15.60
   3  -8   7  151.48   18.20
   4  -8   7    7.20   10.10
   4  -8   7   -0.40   10.10
   4  -8   7    5.20   12.20
   5  -8   7   11.10   10.70
   5  -8   7    4.10   12.50
   6  -8   7  246.48   24.40
   6  -8   7  231.88   27.40
   0  -7   7   29.70   11.80
   0  -7   7   20.40    9.90
   1  -7   7  166.58   17.60
   1  -7   7  163.58   20.70
   2  -7   7   72.49   12.60
   2  -7   7   53.59   10.90
   2  -7   7   74.09   13.20
   3  -7   7  173.68   18.90
   3  -7   7  205.58   21.00
   4  -7   7    8.50    9.50
   4  -7   7    2.80   11.10
   5  -7   7   32.00   12.40
   5  -7   7   33.70   10.30
   6  -7   7  323.97   25.90
   6  -7   7  342.37   28.80
   7  -7   7   41.50   12.90
   7  -7   7   10.20   13.40
  -2  -6   7  269.27   24.70
  -2  -6   7  275.37   21.50
  -1  -6   7  350.96   25.70
  -1  -6   7  332.87   22.70
   0  -6   7  210.08   18.20
   0  -6   7  222.58   21.20
   1  -6   7   10.80    9.30
   1  -6   7    9.90    8.30
   2  -6   7   94.59   13.20
   2  -6   7   82.59   11.80
   2  -6   7   91.99   13.00
   3  -6   7  186.38   19.50
   3  -6   7  196.48   19.80
   4  -6   7   24.20    9.70
   4  -6   7   45.60   11.60
   5  -6   7   -0.50    8.30
   5  -6   7   11.70   10.90
   6  -6   7  198.58   21.30
   6  -6   7  199.08   23.20
   7  -6   7  166.38   24.30
   7  -6   7  192.98   22.50
   8  -6   7   27.00   11.90
   8  -6   7   19.70   14.30
  -3  -5   7    8.00   11.10
  -3  -5   7   -3.50    9.00
  -3  -5   7    1.00   12.70
  -2  -5   7   13.10   10.40
  -2  -5   7   44.70   11.70
  -2  -5   7   29.50    8.80
  -1  -5   7    3.50    9.40
  -1  -5   7    5.30    7.70
   0  -5   7   52.09   11.20
   0  -5   7   67.49   10.30
   1  -5   7    0.00    7.50
   1  -5   7   11.80    8.70
   1  -5   7   15.60    7.90
   2  -5   7  732.03   37.70
   2  -5   7  740.93   36.00
   3  -5   7   26.00    8.90
   3  -5   7   27.00    9.80
   4  -5   7  419.46   27.40
   4  -5   7  432.86   27.60
   5  -5   7   94.29   13.60
   5  -5   7   77.89   13.60
   6  -5   7   22.00   11.60
   6  -5   7   11.00    8.90
   7  -5   7   48.80   11.90
   7  -5   7   60.29   14.30
   8  -5   7  138.69   18.10
   8  -5   7  166.88   25.10
  -4  -4   7   11.80    9.10
  -4  -4   7   -8.50    9.60
  -3  -4   7    7.30    8.20
  -3  -4   7   30.20   10.60
  -2  -4   7   32.30   10.60
  -2  -4   7   29.80    8.80
  -1  -4   7  416.36   24.40
  -1  -4   7  441.16   25.00
  -1  -4   7  418.56   26.80
   0  -4   7   81.79   11.20
   0  -4   7   62.29   10.70
   1  -4   7  634.14   31.80
   1  -4   7  600.04   30.10
   1  -4   7  638.64   33.30
   2  -4   7    1.70    7.40
   2  -4   7    0.60    7.50
   3  -4   7    2.10    7.50
   3  -4   7    2.60    7.70
   4  -4   7   61.89   11.50
   4  -4   7   55.49   11.30
   5  -4   7   22.10    9.20
   5  -4   7   17.90    9.90
   6  -4   7   85.59   14.80
   6  -4   7   98.19   14.40
   7  -4   7  157.58   20.10
   7  -4   7  203.18   23.80
   8  -4   7  -22.30   10.30
   8  -4   7    3.30   12.20
  -5  -3   7  130.39   16.50
  -5  -3   7  146.19   17.20
  -4  -3   7  218.18   19.20
  -4  -3   7  181.98   20.70
  -3  -3   7  221.48   18.60
  -3  -3   7  219.68   21.00
  -2  -3   7   43.60   10.20
  -2  -3   7   30.60    8.10
  -1  -3   7    7.90    7.00
  -1  -3   7    7.10    7.70
   0  -3   7   96.49   11.90
   0  -3   7  106.89   13.40
   0  -3   7   88.69   11.50
   1  -3   7   25.10    8.20
   1  -3   7   23.90    7.60
   2  -3   7    3.20    7.80
   2  -3   7    6.90    7.50
   3  -3   7   92.39   12.60
   3  -3   7   98.99   13.10
   4  -3   7  647.04   33.70
   4  -3   7  591.74   33.30
   5  -3   7  729.53   39.50
   5  -3   7  774.62   38.80
   6  -3   7  222.38   23.20
   6  -3   7  227.88   20.60
   7  -3   7   -6.30    9.10
   7  -3   7    9.10   12.00
   8  -3   7    2.00   10.40
   8  -3   7  -17.50   12.10
  -6  -2   7   29.20   12.10
  -6  -2   7   27.60    9.60
  -5  -2   7   57.29   12.50
  -5  -2   7   64.29   11.00
  -4  -2   7   69.29   10.60
  -4  -2   7  104.39   14.00
  -3  -2   7  717.33   37.80
  -3  -2   7  762.92   36.20
  -2  -2   7    6.40    7.90
  -2  -2   7   10.90    7.10
  -1  -2   7    3.70    6.60
  -1  -2   7   18.10    7.90
   0  -2   7  395.56   24.20
   0  -2   7  363.06   20.20
   1  -2   7   80.19   11.80
   1  -2   7   90.39   12.30
   2  -2   7  361.36   21.90
   2  -2   7  372.46   23.70
   3  -2   7   34.50    9.20
   3  -2   7   19.30    7.80
   4  -2   7   -6.80    7.80
   4  -2   7    0.10    7.20
   5  -2   7   37.20   10.60
   5  -2   7   32.40   11.10
   6  -2   7   49.20   10.90
   6  -2   7   41.90   12.70
   7  -2   7   33.90   13.50
   7  -2   7   47.40   11.10
   8  -2   7  254.17   29.60
   8  -2   7  260.27   24.50
  -6  -1   7  168.18   20.90
  -6  -1   7  158.28   17.80
  -5  -1   7    3.60    9.60
  -5  -1   7   19.30    8.50
  -4  -1   7   18.60    9.50
  -4  -1   7   15.50    7.60
  -3  -1   7  663.43   35.00
  -3  -1   7  664.93   33.20
  -2  -1   7   21.80    8.40
  -2  -1   7   40.30    8.70
  -1  -1   7   77.19   12.00
  -1  -1   7   90.49   11.60
  -1  -1   7   85.59    9.30
   0  -1   7  342.17   19.20
   0  -1   7  330.97   22.10
   1  -1   7  327.87   20.10
   1  -1   7  337.47   22.30
   2  -1   7   72.39   11.10
   2  -1   7   81.19   11.30
   3  -1   7   21.20    9.00
   3  -1   7   11.50    7.80
   4  -1   7    8.60   14.80
   4  -1   7    4.00    7.50
   5  -1   7  439.16   27.30
   5  -1   7  412.36   29.50
   6  -1   7   15.20   11.80
   6  -1   7    5.50    8.90
   7  -1   7  337.67   26.10
   7  -1   7  359.06   30.50
  -7   0   7   31.20    9.30
  -7   0   7    9.80   10.60
  -6   0   7  205.98   20.90
  -6   0   7  205.48   18.90
  -5   0   7   70.79   10.60
  -5   0   7   68.39   12.00
  -4   0   7   51.39   11.10
  -4   0   7   63.49    9.70
  -3   0   7   81.69   12.20
  -3   0   7  125.49   14.10
  -2   0   7  384.26   24.40
  -2   0   7  372.86   22.50
  -1   0   7  329.17   17.80
  -1   0   7  340.67   22.70
  -1   0   7  351.46   21.50
   0   0   7   10.70    6.50
   0   0   7    6.10    6.00
   1   0   7  316.07   21.20
   1   0   7  309.97   20.10
   2   0   7  370.26   23.30
   2   0   7  357.46   23.10
   3   0   7  135.49   16.00
   3   0   7  100.09   15.70
   4   0   7   57.69   12.40
   4   0   7   55.09   10.60
   5   0   7   76.29   11.70
   5   0   7   78.69   14.60
   6   0   7  200.18   24.60
   6   0   7  218.38   19.90
   7   0   7   36.20   11.20
   7   0   7   10.20   14.60
  -7   1   7  343.37   22.60
  -7   1   7  281.87   25.30
  -6   1   7   16.60    8.60
  -6   1   7   17.70    9.70
  -5   1   7  414.86   27.50
  -5   1   7  454.75   25.70
  -4   1   7    8.40    8.40
  -4   1   7    6.30    6.60
  -3   1   7    6.50    6.40
  -3   1   7    6.30    7.70
  -2   1   7   70.69   10.50
  -2   1   7   94.19   12.50
  -1   1   7  336.87   22.30
   0   1   7  330.57   21.70
   0   1   7  307.97   19.50
   1   1   7   93.49   12.30
   1   1   7   76.09   11.10
   2   1   7   35.60    8.80
   2   1   7   29.30    9.30
   3   1   7  639.94   33.70
   3   1   7  642.84   35.20
   4   1   7   14.70    8.50
   4   1   7   12.60   10.80
   5   1   7   -4.60   10.80
   5   1   7   30.40    9.10
   6   1   7  182.58   25.70
   6   1   7  183.88   20.30
  -8   2   7  260.07   25.30
  -8   2   7  238.58   20.70
  -7   2   7   27.00   11.00
  -7   2   7   33.70   10.00
  -6   2   7   28.60    8.10
  -6   2   7   44.50   10.50
  -5   2   7   38.70    8.50
  -5   2   7   22.40    8.80
  -4   2   7    8.20    8.10
  -4   2   7    9.80    6.60
  -3   2   7   27.20    8.00
  -3   2   7   28.10    8.50
  -2   2   7  399.56   23.10
  -2   2   7  371.16   23.90
  -1   2   7   82.69   11.60
   0   2   7  359.96   21.70
   0   2   7  357.56   23.50
   1   2   7   10.30    8.30
   1   2   7   13.10    7.70
  -2  -2  -7    3.60    6.20
   2   2   7    1.90    7.10
   2   2   7   10.70    8.30
   3   2   7  782.32   40.70
   3   2   7  762.02   38.50
   4   2   7   88.39   12.50
   4   2   7   86.49   15.40
   5   2   7   59.49   14.90
   5   2   7   60.19   11.70
   6   2   7   27.30   10.90
   6   2   7   29.60   15.30
  -8   3   7   -0.20   10.80
  -8   3   7    5.00    8.20
  -7   3   7    6.80    9.80
  -7   3   7  -10.60    7.90
  -6   3   7  222.08   20.90
  -6   3   7  220.78   18.50
  -5   3   7  784.42   40.20
  -5   3   7  798.42   38.10
  -4   3   7  695.43   33.60
  -4   3   7  625.74   34.70
  -3   3   7   98.19   13.00
  -3   3   7   99.09   12.10
  -2   3   7   11.20    7.60
  -2   3   7   12.90    6.60
  -1   3   7   27.50    8.10
   0  -3  -7  117.89   13.70
   0   3   7   80.09   11.20
  -1  -3  -7    5.90    7.40
   1   3   7    4.90    7.00
  -2  -3  -7   34.60    8.40
   2   3   7   40.00    9.10
   2   3   7   29.50   12.50
   3   3   7  218.48   23.40
   3   3   7  242.88   19.90
   4   3   7  202.48   24.30
   4   3   7  222.88   20.20
   5   3   7  141.99   19.10
   5   3   7  131.59   19.30
  -8   4   7   12.40    9.00
  -8   4   7   13.60   11.00
  -7   4   7  193.18   21.20
  -7   4   7  169.18   17.70
  -6   4   7  120.69   17.10
  -6   4   7  105.99   13.30
  -5   4   7    1.70    6.70
  -5   4   7   18.70    9.10
  -4   4   7   71.19   10.70
  -4   4   7   45.10    9.90
  -3   4   7   15.80    7.30
  -3   4   7    7.20    7.90
   2  -4  -7   11.00    8.30
  -2   4   7   14.80    8.50
  -2   4   7  -11.40    6.20
   1  -4  -7  633.54   34.60
  -1   4   7  702.43   34.90
   0  -4  -7   67.09   11.20
   0   4   7   61.19   10.60
  -1  -4  -7  499.25   27.50
   1   4   7  423.36   27.00
  -2  -4  -7   35.80    9.80
   2   4   7   42.00    9.80
   3   4   7    4.90    8.50
   4   4   7   -6.50    9.00
  -8   5   7  168.08   21.80
  -8   5   7  146.39   17.50
  -7   5   7   43.70   10.30
  -7   5   7   59.39   12.00
  -6   5   7    7.50    7.60
  -6   5   7   24.90    9.50
  -5   5   7   52.79   11.00
  -5   5   7   75.19   11.10
  -4   5   7  449.26   28.20
  -4   5   7  447.66   25.70
   3  -5  -7   20.40   10.00
  -3   5   7   45.40   11.10
  -3   5   7   31.60    8.30
  -2   5   7  803.12   39.70
  -2   5   7  784.72   37.90
   1  -5  -7   17.90    9.50
  -1   5   7   26.80    9.40
   0  -5  -7   66.69   12.10
   0   5   7   71.89   11.40
  -1  -5  -7    2.70    9.80
   1   5   7    5.30    8.40
  -2  -5  -7   28.00   13.70
   2   5   7   32.90   10.30
   3   5   7    0.90    9.30
  -8   6   7   15.20    8.90
  -8   6   7   24.30   12.30
  -7   6   7  214.38   19.10
  -7   6   7  206.98   22.70
  -6   6   7  194.88   17.70
  -6   6   7  190.68   20.90
  -5   6   7   -6.60    8.00
  -5   6   7    2.20    7.10
   4  -6  -7   25.20   11.20
  -4   6   7   34.10    9.50
  -4   6   7   50.79    9.60
   3  -6  -7  232.08   23.00
  -3   6   7  237.58   18.30
  -3   6   7  220.28   19.90
   2  -6  -7   92.99   14.70
  -2   6   7  117.59   16.30
  -2   6   7  122.49   14.90
   1  -6  -7   28.10   11.20
  -1   6   7   20.00    9.00
   0  -6  -7  198.98   21.90
   0   6   7  216.68   19.60
  -1  -6  -7  420.96   29.00
   1   6   7  385.16   26.70
  -2  -6  -7  205.38   24.10
   2   6   7  292.97   22.80
  -7   7   7   23.30    9.40
  -7   7   7   26.30   12.10
  -6   7   7  353.86   23.20
  -6   7   7  356.26   26.30
   5  -7  -7   27.80   12.20
  -5   7   7   22.40   10.80
  -5   7   7   41.20    9.40
   4  -7  -7    7.90   11.20
  -4   7   7   18.80    9.30
  -4   7   7    4.90    7.30
   3  -7  -7  200.48   23.70
  -3   7   7  206.18   19.50
  -3   7   7  199.68   17.80
   2  -7  -7   74.19   14.80
  -2   7   7   62.09   10.90
  -2   7   7   71.69   11.40
   1  -7  -7  184.48   22.70
  -1   7   7  206.08   19.90
   0  -7  -7   10.90   12.30
   0   7   7   34.80   10.20
   6  -8  -7  188.48   27.50
  -6   8   7  284.77   20.40
  -6   8   7  257.57   25.00
   5  -8  -7   17.00   12.50
  -5   8   7    2.10    7.80
  -5   8   7   10.10   10.50
   4  -8  -7    8.10   11.90
  -4   8   7   -1.90    9.30
  -4   8   7   -1.40    8.20
   3  -8  -7  176.98   24.40
  -3   8   7  148.59   16.60
  -3   8   7  137.59   18.70
   2  -8  -7   56.19   14.30
  -2   8   7   36.00   10.50
  -2   8   7   45.00   10.30
   1  -5   8  147.49   18.10
   1  -5   8  120.49   14.90
   2  -5   8   92.09   15.30
   2  -5   8  111.49   14.90
   3  -5   8    9.60   11.40
   4  -5   8  271.67   26.80
   4  -5   8  309.87   25.90
  -1  -4   8  295.37   23.10
  -1  -4   8  278.47   26.40
   0  -4   8   52.19   12.80
   0  -4   8   62.49   11.90
   1  -4   8   72.89   13.80
   1  -4   8   44.80   11.60
   2  -4   8  138.09   17.10
   3  -4   8  166.78   21.50
   4  -4   8   69.69   14.30
   4  -4   8   54.49   12.70
   5  -4   8  122.89   16.70
   5  -4   8  132.39   18.60
  -2  -3   8   16.60   10.00
  -2  -3   8   18.80   12.00
  -1  -3   8  211.88   20.20
  -1  -3   8  177.88   22.10
   0  -3   8   96.59   14.30
   0  -3   8  134.59   15.20
   1  -3   8   33.20   11.10
   1  -3   8   36.80   10.60
   2  -3   8  310.37   25.20
   3  -3   8  137.09   17.10
   4  -3   8   27.60   11.40
   4  -3   8   53.69   13.60
   5  -3   8  108.19   16.10
   5  -3   8   96.19   17.10
  -3  -2   8   91.49   15.00
  -3  -2   8   76.69   12.70
  -2  -2   8  132.49   16.90
  -2  -2   8  158.28   18.50
  -1  -2   8  286.07   24.60
  -1  -2   8  331.87   23.40
   0  -2   8   10.60   10.00
   0  -2   8   12.70    9.30
   1  -2   8  235.78   22.00
   2  -2   8   30.70   11.20
   2  -2   8   10.30   10.10
   3  -2   8   32.60   15.10
   3  -2   8   42.80   11.50
   4  -2   8  145.99   18.80
   4  -2   8  153.18   18.30
   5  -2   8    1.20   13.80
   5  -2   8    7.90   10.40
  -4  -1   8  154.58   17.10
  -4  -1   8  136.59   17.80
  -3  -1   8   72.29   14.00
  -3  -1   8   46.40   10.80
  -2  -1   8   33.60   11.00
  -2  -1   8   49.10   11.70
  -1  -1   8  172.68   21.00
  -1  -1   8  219.18   19.70
   0  -1   8   30.50    9.70
   0  -1   8   19.30    9.30
   1  -1   8   23.20    9.70
   2  -1   8  240.88   21.80
   2  -1   8  233.78   22.10
   3  -1   8  291.97   25.40
   3  -1   8  332.87   25.10
   4  -1   8  171.88   23.10
   4  -1   8  156.48   21.40
   5  -1   8  249.68   27.60
   5  -1   8  304.27   25.50
  -4   0   8   61.29   11.90
  -4   0   8   40.70   13.30
  -3   0   8  140.59   17.70
  -3   0   8  121.09   16.70
  -2   0   8   15.60    8.50
  -2   0   8    9.30    9.40
  -1   0   8   32.30   10.10
  -1   0   8   33.00    9.80
   0   0   8  831.02   42.90
   1   0   8   46.80   13.00
   1   0   8   30.50    9.80
   2   0   8   16.60   11.10
   2   0   8    8.30    9.80
   3   0   8  162.58   20.20
   3   0   8  115.49   17.10
   4   0   8   68.19   15.60
   4   0   8   58.79   12.10
  -5   1   8  313.37   27.30
  -5   1   8  331.17   24.60
  -4   1   8  173.18   18.90
  -4   1   8  194.98   22.30
  -3   1   8  307.47   26.50
  -3   1   8  355.86   24.10
  -2   1   8  222.28   19.60
  -2   1   8  202.38   21.40
  -1   1   8   20.80    8.70
  -1   1   8   18.40   10.30
   0   1   8   13.00    9.20
   1   1   8  221.58   21.40
   1   1   8  228.78   21.50
   2   1   8   54.59   13.50
   2   1   8   35.40   10.70
   3   1   8   46.80   11.30
   3   1   8   66.99   14.60
   4   1   8  133.79   17.10
   4   1   8  101.39   18.10
  -5   2   8   -5.50    9.30
  -5   2   8   21.90   11.90
  -4   2   8  136.39   17.50
  -4   2   8  150.88   20.80
  -3   2   8   47.00   10.80
  -3   2   8   61.99   12.20
  -2   2   8   10.50    8.90
  -2   2   8   11.30   10.00
  -1   2   8  211.48   21.30
  -1   2   8  212.78   19.60
   0   2   8   15.30   10.10
   1   2   8  353.36   26.50
   2   2   8  142.29   22.50
   2   2   8  163.28   20.00
   3   2   8   93.69   14.30
   3   2   8   92.19   17.00
  -5   3   8  107.19   15.90
  -5   3   8   79.59   12.60
  -4   3   8   63.89   12.00
  -4   3   8   42.40   12.00
  -3   3   8  124.89   16.30
  -3   3   8  144.79   17.60
  -2   3   8  298.17   25.20
  -2   3   8  317.87   23.30
  -1   3   8   48.90   12.30
  -1   3   8   43.90   11.20
   0   3   8  109.89   15.70
   1   3   8  202.98   21.80
   2   3   8    8.80   10.60
  -5   4   8  131.69   17.30
  -5   4   8  111.39   13.70
  -4   4   8   55.09   13.20
  -4   4   8   54.09   11.00
  -3   4   8  174.58   21.40
  -3   4   8  179.78   19.00
  -2   4   8  164.28   18.40
  -2   4   8  147.89   18.20
  -1   4   8   53.99   12.60
   0   4   8   69.59   13.30
   1   4   8  320.57   26.10
  -4   5   8  350.86   27.60
  -4   5   8  332.67   24.60
  -3   5   8   21.40   10.80
  -3   5   8   13.60    9.00
  -2   5   8  111.99   15.00
  -2   5   8   83.09   12.90
   1  -5  -8  139.09   17.60
  -1   5   8  165.58   21.20
  -1   5   8  120.19   15.10
   0   0   0    0.00    0.00

_computing_structure_solution     'SHELXT 2014/5 (Sheldrick, 2014)'
;
_shelx_hkl_checksum              30739
loop_
_space_group_symop_operation_xyz
'x, y, z'
'-y, x-y, z'
'-x+y, -x, z'
'-x, -y, z+1/2'
'y, -x+y, z+1/2'
'x-y, x, z+1/2'
loop_
_atom_site_label
_atom_site_type_symbol
_atom_site_fract_x
_atom_site_fract_y
_atom_site_fract_z
_atom_site_U_iso_or_equiv
_atom_site_adp_type
_atom_site_occupancy
_atom_site_site_symmetry_order
_atom_site_calc_flag
_atom_site_refinement_flags_posn
_atom_site_refinement_flags_adp
_atom_site_refinement_flags_occupancy
_atom_site_disorder_assembly
_atom_site_disorder_group
La1 La 0.76832(2) 0.14190(3) 0.89110(8) 0.01730(10) Uani 1 1 d . . . . .
Cd1 Cd 1.000000 0.000000 0.6457(10) 0.0605(11) Uani 0.373(3) 3 d S T P A .
S1 S 0.666667 0.333333 0.1025(3) 0.0116(4) Uani 1 3 d S T P . .
S2 S 0.51903(13) 0.09685(13) 0.6202(2) 0.0148(2) Uani 0.875(4) 1 d . . P A .
Cl2 Cl 0.51903(13) 0.09685(13) 0.6202(2) 0.0148(2) Uani 0.125(4) 1 d . . P A .
S3 S 0.75079(15) -0.15275(14) 0.8563(3) 0.0258(4) Uani 0.78(9) 1 d . . P A .
Cl3 Cl 0.75079(15) -0.15275(14) 0.8563(3) 0.0258(4) Uani 0.22(9) 1 d . . P A .
Ga1 Ga 0.666667 0.333333 0.47088(17) 0.0117(2) Uani 0.875(4) 3 d S T P A 1
Ga2 Ga 0.7203(13) 0.2498(12) 0.418(2) 0.0117(2) Uani 0.0418(12) 1 d . . P A 2
loop_
_atom_site_aniso_label
_atom_site_aniso_U_11
_atom_site_aniso_U_22
_atom_site_aniso_U_33
_atom_site_aniso_U_23
_atom_site_aniso_U_13
_atom_site_aniso_U_12
La1 0.01144(13) 0.01224(13) 0.03025(17) 0.00329(15) 0.00188(15) 0.00745(9)
Cd1 0.0171(7) 0.0171(7) 0.147(3) 0.000 0.000 0.0086(3)
S1 0.0129(5) 0.0129(5) 0.0090(8) 0.000 0.000 0.0065(3)
S2 0.0142(5) 0.0127(5) 0.0132(5) -0.0014(4) -0.0014(4) 0.0035(4)
Cl2 0.0142(5) 0.0127(5) 0.0132(5) -0.0014(4) -0.0014(4) 0.0035(4)
S3 0.0275(7) 0.0179(5) 0.0385(10) -0.0071(5) -0.0036(6) 0.0162(5)
Cl3 0.0275(7) 0.0179(5) 0.0385(10) -0.0071(5) -0.0036(6) 0.0162(5)
Ga1 0.0133(3) 0.0133(3) 0.0086(4) 0.000 0.000 0.00664(16)
Ga2 0.0133(3) 0.0133(3) 0.0086(4) 0.000 0.000 0.00664(16)
loop_
_atom_type_symbol
_atom_type_description
_atom_type_scat_dispersion_real
_atom_type_scat_dispersion_imag
_atom_type_scat_source
Cd Cd -0.8075 1.2024 'International Tables Vol C Tables 4.2.6.8 and 6.1.1.4'
Cl Cl 0.1484 0.1585 'International Tables Vol C Tables 4.2.6.8 and 6.1.1.4'
Ga Ga 0.2307 1.6083 'International Tables Vol C Tables 4.2.6.8 and 6.1.1.4'
La La -0.2871 2.4523 'International Tables Vol C Tables 4.2.6.8 and 6.1.1.4'
S S 0.1246 0.1234 'International Tables Vol C Tables 4.2.6.8 and 6.1.1.4'
loop_
_geom_angle_atom_site_label_1
_geom_angle_atom_site_label_2
_geom_angle_atom_site_label_3
_geom_angle
_geom_angle_site_symmetry_1
_geom_angle_site_symmetry_3
_geom_angle_publ_flag
S2 La1 S1 77.12(4) . 1_556 ?
S2 La1 S3 101.54(4) . . ?
S1 La1 S3 148.93(4) 1_556 . ?
S2 La1 S3 139.98(4) . 3_765 ?
S1 La1 S3 119.77(3) 1_556 3_765 ?
S3 La1 S3 81.49(5) . 3_765 ?
S2 La1 S2 77.47(5) . 2_655 ?
S1 La1 S2 75.48(4) 1_556 2_655 ?
S3 La1 S2 135.11(4) . 2_655 ?
S3 La1 S2 73.23(4) 3_765 2_655 ?
S2 La1 S3 142.31(4) . 5_665 ?
S1 La1 S3 84.42(5) 1_556 5_665 ?
S3 La1 S3 78.19(4) . 5_665 ?
S3 La1 S3 77.65(4) 3_765 5_665 ?
S2 La1 S3 129.15(3) 2_655 5_665 ?
S2 La1 S2 73.33(2) . 4_655 ?
S1 La1 S2 79.22(3) 1_556 4_655 ?
S3 La1 S2 70.89(4) . 4_655 ?
S3 La1 S2 141.60(4) 3_765 4_655 ?
S2 La1 S2 144.82(3) 2_655 4_655 ?
S3 La1 S2 71.09(3) 5_665 4_655 ?
S2 La1 Ga2 42.6(2) . . ?
S1 La1 Ga2 89.9(2) 1_556 . ?
S3 La1 Ga2 110.3(2) . . ?
S3 La1 Ga2 98.5(2) 3_765 . ?
S2 La1 Ga2 41.4(2) 2_655 . ?
S3 La1 Ga2 170.3(2) 5_665 . ?
S2 La1 Ga2 115.6(2) 4_655 . ?
S2 La1 Ga2 108.85(19) . 1_556 ?
S1 La1 Ga2 40.20(19) 1_556 1_556 ?
S3 La1 Ga2 116.28(19) . 1_556 ?
S3 La1 Ga2 105.02(19) 3_765 1_556 ?
S2 La1 Ga2 105.91(18) 2_655 1_556 ?
S3 La1 Ga2 44.44(19) 5_665 1_556 ?
S2 La1 Ga2 66.68(18) 4_655 1_556 ?
S2 La1 Cd1 113.59(8) . . ?
S1 La1 Cd1 163.660(19) 1_556 . ?
S3 La1 Cd1 44.18(4) . . ?
S3 La1 Cd1 44.09(4) 3_765 . ?
S2 La1 Cd1 94.32(6) 2_655 . ?
S3 La1 Cd1 92.64(9) 5_665 . ?
S2 La1 Cd1 115.06(4) 4_655 . ?
Ga2 La1 Cd1 90.6(2) . . ?
Ga2 La1 Cd1 136.0(2) 1_556 . ?
S3 Cd1 S3 97.24(16) . 3_765 ?
S3 Cd1 S3 97.24(16) . 2_645 ?
S3 Cd1 S3 97.24(16) 3_765 2_645 ?
S3 Cd1 S3 88.31(3) . 6_544 ?
S3 Cd1 S3 171.6(2) 3_765 6_544 ?
S3 Cd1 S3 88.31(3) 2_645 6_544 ?
S3 Cd1 S3 88.31(3) . 5_664 ?
S3 Cd1 S3 88.31(3) 3_765 5_664 ?
S3 Cd1 S3 171.6(2) 2_645 5_664 ?
S3 Cd1 S3 85.51(14) 6_544 5_664 ?
S3 Cd1 S3 171.6(2) . 4_754 ?
S3 Cd1 S3 88.31(3) 3_765 4_754 ?
S3 Cd1 S3 88.31(3) 2_645 4_754 ?
S3 Cd1 S3 85.51(14) 6_544 4_754 ?
S3 Cd1 S3 85.51(14) 5_664 4_754 ?
S3 Cd1 Cd1 119.95(12) . 4_754 ?
S3 Cd1 Cd1 119.95(12) 3_765 4_754 ?
S3 Cd1 Cd1 119.95(12) 2_645 4_754 ?
S3 Cd1 Cd1 51.62(10) 6_544 4_754 ?
S3 Cd1 Cd1 51.62(10) 5_664 4_754 ?
S3 Cd1 Cd1 51.62(10) 4_754 4_754 ?
S3 Cd1 Cd1 60.05(12) . 4_755 ?
S3 Cd1 Cd1 60.05(12) 3_765 4_755 ?
S3 Cd1 Cd1 60.05(12) 2_645 4_755 ?
S3 Cd1 Cd1 128.38(10) 6_544 4_755 ?
S3 Cd1 Cd1 128.38(10) 5_664 4_755 ?
S3 Cd1 Cd1 128.38(10) 4_754 4_755 ?
Cd1 Cd1 Cd1 180.0 4_754 4_755 ?
S3 Cd1 La1 125.9(2) . 3_765 ?
S3 Cd1 La1 52.77(5) 3_765 3_765 ?
S3 Cd1 La1 53.58(6) 2_645 3_765 ?
S3 Cd1 La1 128.05(5) 6_544 3_765 ?
S3 Cd1 La1 127.32(5) 5_664 3_765 ?
S3 Cd1 La1 62.49(3) 4_754 3_765 ?
Cd1 Cd1 La1 114.11(8) 4_754 3_765 ?
Cd1 Cd1 La1 65.89(8) 4_755 3_765 ?
S3 Cd1 La1 53.58(6) . 2_645 ?
S3 Cd1 La1 125.9(2) 3_765 2_645 ?
S3 Cd1 La1 52.77(5) 2_645 2_645 ?
S3 Cd1 La1 62.49(3) 6_544 2_645 ?
S3 Cd1 La1 128.05(5) 5_664 2_645 ?
S3 Cd1 La1 127.32(5) 4_754 2_645 ?
Cd1 Cd1 La1 114.11(8) 4_754 2_645 ?
Cd1 Cd1 La1 65.89(8) 4_755 2_645 ?
La1 Cd1 La1 104.46(10) 3_765 2_645 ?
S3 Cd1 La1 52.77(5) . . ?
S3 Cd1 La1 53.58(5) 3_765 . ?
S3 Cd1 La1 125.9(2) 2_645 . ?
S3 Cd1 La1 127.32(5) 6_544 . ?
S3 Cd1 La1 62.49(3) 5_664 . ?
S3 Cd1 La1 128.05(5) 4_754 . ?
Cd1 Cd1 La1 114.11(8) 4_754 . ?
Cd1 Cd1 La1 65.89(8) 4_755 . ?
La1 Cd1 La1 104.46(10) 3_765 . ?
La1 Cd1 La1 104.46(10) 2_645 . ?
Ga1 S1 Ga2 32.5(3) . 2_655 ?
Ga2 S1 Ga2 55.5(5) . 2_655 ?
Ga1 S1 Ga2 32.5(3) . 3_665 ?
Ga2 S1 Ga2 55.5(5) . 3_665 ?
Ga2 S1 Ga2 55.5(5) 2_655 3_665 ?
Ga1 S1 La1 116.04(4) . 1_554 ?
Ga1 S1 La1 116.04(4) . 3_664 ?
Ga2 S1 La1 129.2(3) . 3_664 ?
Ga2 S1 La1 126.2(3) 2_655 3_664 ?
Ga2 S1 La1 83.6(3) 3_665 3_664 ?
La1 S1 La1 102.18(4) 1_554 3_664 ?
Ga1 S1 La1 116.04(4) . 2_654 ?
La1 S1 La1 102.18(4) 1_554 2_654 ?
La1 S1 La1 102.18(4) 3_664 2_654 ?
Ga2 S2 Ga2 57.2(6) 3_665 . ?
Ga2 S2 La1 121.6(3) 3_665 . ?
Ga2 S2 La1 76.8(3) . . ?
Ga1 S2 La1 89.73(4) . . ?
Ga2 S2 La1 74.9(3) 3_665 3_665 ?
Ga2 S2 La1 118.7(3) . 3_665 ?
Ga1 S2 La1 87.12(4) . 3_665 ?
La1 S2 La1 102.47(4) . 3_665 ?
Ga1 S2 La1 121.42(5) . 4_654 ?
La1 S2 La1 144.15(4) . 4_654 ?
La1 S2 La1 96.85(3) 3_665 4_654 ?
Ga2 S3 Cd1 156.4(3) 6_545 . ?
Cd1 S3 Cd1 68.34(4) . 4_755 ?
Ga2 S3 La1 89.3(3) 6_545 . ?
Cd1 S3 La1 83.05(4) . . ?
Cd1 S3 La1 79.23(3) 4_755 . ?
Ga2 S3 La1 110.8(3) 6_545 2_645 ?
Cd1 S3 La1 82.34(4) . 2_645 ?
Cd1 S3 La1 78.63(3) 4_755 2_645 ?
La1 S3 La1 156.76(5) . 2_645 ?
Cd1 S3 La1 81.51(12) . 6_544 ?
Cd1 S3 La1 149.85(11) 4_755 6_544 ?
La1 S3 La1 98.18(4) . 6_544 ?
La1 S3 La1 97.41(4) 2_645 6_544 ?
S1 Ga1 S2 113.27(4) . 2_655 ?
S1 Ga1 S2 113.27(4) . 3_665 ?
S2 Ga1 S2 105.42(4) 2_655 3_665 ?
S1 Ga1 S2 113.27(4) . . ?
S2 Ga1 S2 105.42(4) 2_655 . ?
S2 Ga1 S2 105.42(4) 3_665 . ?
Ga2 Ga2 Ga2 59.999(2) 3_665 2_655 ?
Ga2 Ga2 S2 111.1(4) 3_665 2_655 ?
Ga2 Ga2 S2 62.2(5) 2_655 2_655 ?
Ga2 Ga2 S2 60.6(5) 3_665 . ?
Ga2 Ga2 S2 109.7(5) 2_655 . ?
S2 Ga2 S2 111.6(6) 2_655 . ?
Ga2 Ga2 S1 62.3(2) 3_665 . ?
Ga2 Ga2 S1 62.3(2) 2_655 . ?
S2 Ga2 S1 116.1(5) 2_655 . ?
S2 Ga2 S1 114.7(5) . . ?
S2 Ga2 S3 94.9(4) 2_655 5_664 ?
S2 Ga2 S3 103.2(4) . 5_664 ?
S1 Ga2 S3 113.9(5) . 5_664 ?
Ga2 Ga2 La1 111.1(3) 3_665 . ?
Ga2 Ga2 La1 113.6(3) 2_655 . ?
S2 Ga2 La1 63.7(3) 2_655 . ?
S2 Ga2 La1 60.6(3) . . ?
S1 Ga2 La1 173.1(5) . . ?
S3 Ga2 La1 72.8(3) 5_664 . ?
S2 Ga2 La1 124.7(4) 2_655 1_554 ?
S2 Ga2 La1 120.7(4) . 1_554 ?
S1 Ga2 La1 56.2(3) . 1_554 ?
S3 Ga2 La1 58.0(3) 5_664 1_554 ?
La1 Ga2 La1 130.1(3) . 1_554 ?
loop_
_geom_bond_atom_site_label_1
_geom_bond_atom_site_label_2
_geom_bond_distance
_geom_bond_site_symmetry_2
_geom_bond_publ_flag
La1 S2 2.8606(12) . ?
La1 S1 2.9201(9) 1_556 ?
La1 S3 2.9217(12) . ?
La1 S3 2.9572(12) 3_765 ?
La1 S2 2.9672(13) 2_655 ?
La1 S3 3.0310(16) 5_665 ?
La1 S2 3.0469(12) 4_655 ?
La1 Ga2 3.197(13) . ?
La1 Ga2 3.490(13) 1_556 ?
La1 Cd1 3.642(2) . ?
Cd1 S3 2.557(3) . ?
Cd1 S3 2.557(3) 3_765 ?
Cd1 S3 2.557(3) 2_645 ?
Cd1 S3 2.826(4) 6_544 ?
Cd1 S3 2.826(4) 5_664 ?
Cd1 S3 2.826(4) 4_754 ?
Cd1 Cd1 3.03165(10) 4_754 ?
Cd1 Cd1 3.03165(11) 4_755 ?
S1 Ga1 2.234(2) . ?
S1 Ga2 2.267(13) . ?
S1 Ga2 2.267(13) 2_655 ?
S1 Ga2 2.267(13) 3_665 ?
S2 Ga2 2.187(12) 3_665 ?
S2 Ga2 2.222(12) . ?
S2 Ga1 2.2924(13) . ?
S3 Ga2 2.502(11) 6_545 ?
Ga2 Ga2 2.111(19) 3_665 ?
Ga2 Ga2 2.111(19) 2_655 ?
